data_PCOD9162150
_publ_section_title
;
Structure prediction by ZEFSAII (Michael W. Deem and Ramdas Pophale) SiO2 
 PCOD9162150
Probable space group: P 21/M
;
_chemical_formula_sum "Si O2"
_cell_formula_units_Z 32
_cell_length_a 22.495984
_cell_length_b 8.926301
_cell_length_c 28.822380
_cell_angle_alpha 90.000000
_cell_angle_beta 16.947692
_cell_angle_gamma 90.000000
_cell_volume 1687.107387
_symmetry_space_group_name_H-M "P 21/M"
_symmetry_group_IT_number 11
_symmetry_cell_setting 'monoclinic'
loop_
_space_group_symop_operation_xyz
x,y,z
-x,1/2+y,-z
-x,-y,-z
x,1/2-y,z
loop_
_atom_site_type_symbol
_atom_site_label
_atom_site_fract_x
_atom_site_fract_y
_atom_site_fract_z
Si Si1 0.556207 0.927666 0.728970
Si Si2 0.075713 0.572366 0.084317
Si Si3 0.236220 0.079300 0.231057
Si Si4 0.015080 0.931404 0.750934
Si Si5 0.873439 0.569501 0.052475
Si Si6 0.601721 0.070257 0.598036
Si Si7 0.622283 0.576358 0.981745
Si Si8 0.899876 0.575175 0.531282
O O1 0.592385 0.750000 0.696363
O O2 0.317260 0.949767 0.912034
O O3 0.677673 0.981613 0.683143
O O4 0.636577 0.009882 0.623547
O O5 0.032663 0.750000 0.113351
O O6 0.042384 0.494005 0.059403
O O7 0.975781 0.500298 0.204441
O O8 0.178438 0.250000 0.285876
O O9 0.296155 0.076747 0.132307
O O10 0.050681 0.966808 0.376949
O O11 0.422281 0.026676 0.125391
O O12 0.014633 0.750000 0.754271
O O13 0.805909 0.971871 0.879068
O O14 0.216445 0.978794 0.571704
O O15 0.885355 0.750000 0.043362
O O16 0.633206 0.526187 0.237669
O O17 0.000000 0.500000 0.000000
O O18 0.606359 0.250000 0.595240
O O19 0.567031 0.750000 0.034130
O O20 0.891369 0.750000 0.545413
O O21 0.000000 0.500000 0.500000
#
# Coordination Sequence:
#
# PCOD9162150 Si02
#       8
#     4   4   4   4   4   4   4   4
#     4   9  20  37  55  76 107 142 185 235 281 333
#     4  10  21  37  57  85 117 149 186 229 277 332
#     4  10  20  35  52  72 100 136 183 234 284 338
#     4  10  20  35  55  82 114 145 183 230 278 331
#     4  10  20  38  64  91 118 152 186 222 268 324
#     4   9  19  36  60  87 114 145 184 224 272 330
#     4   9  19  34  53  75 102 139 180 226 280 337
#     4  11  23  36  50  72 102 138 182 233 286 337
#
# _framework density 18.967375000000001
#
# number of rings (size 3 to 8) (size 9 to 14) (size 15 to 20)
#    0.000    2.250    0.000    2.250    1.750    4.500 
#    0.000    0.625    0.000    0.000    0.000    0.000 
#    0.000    0.000    0.000    0.000    0.000    0.000 
#
# Total GULP energy -178506.078000 kJ/mol
# GULP energy per Si atom -5578.314938 kJ/mol
# Density = 1.892420 g / cm^3
# Si number density = 18.967375 Si / 1000 Ang^3
#
#
#
# Elastic Constant Matrix: (Units=GPa)
#
#
# Indices 1 2 3 4 5 6 
#
# 1 122.6694 35.4135 37.3459 0.0000 -7.6317 0.0000
# 2 35.4135 22.3890 13.1161 0.0000 1.0396 0.0000
# 3 37.3459 13.1161 37.3944 0.0000 3.5060 0.0000
# 4 0.0000 0.0000 0.0000 22.7452 0.0000 4.0491
# 5 -7.6317 1.0396 3.5060 0.0000 26.5314 0.0000
# 6 0.0000 0.0000 0.0000 4.0491 0.0000 33.0710
#
#
#
# Elastic Compliance Matrix: (Units=1/GPa)
#
#
# Indices 1 2 3 4 5 6 
#
# 1 0.018922 -0.023652 -0.011339 0.000000 0.007868 0.000000
# 2 -0.023652 0.085785 -0.005584 0.000000 -0.009427 0.000000
# 3 -0.011339 -0.005584 0.040816 0.000000 -0.008436 0.000000
# 4 0.000000 0.000000 0.000000 0.044945 0.000000 -0.005503
# 5 0.007868 -0.009427 -0.008436 0.000000 0.041439 0.000000
# 6 0.000000 0.000000 0.000000 -0.005503 0.000000 0.030912
#
#
# Mechanical properties :
#
#
# Convention : Reuss Voigt Hill
#
# Bulk Modulus (GPa) = 15.53459 39.35598 27.44528
# Shear Modulus (GPa) = 13.68274 22.90800 18.29537
#
# Velocity S-wave (km/s) = 2.68877 3.47905 3.10912
# Velocity P-wave (km/s) = 4.22460 6.07723 5.23355
#
# Compressibility (1/GPa) = 0.06437249
#
# Stress axis : x y z
#
# Youngs Moduli (GPa) = 52.84989 11.65710 24.50034
#
# Poissons Ratio (x) = 0.27571 0.27781
# Poissons Ratio (y) = 1.24998 0.13682
# Poissons Ratio (z) = 0.59926 0.06510
#
# Static dielectric constant tensor:
#      x y z
#    x 1.660660 0.000000 0.002320 
#    y 0.000000 1.641850 0.000000 
#    z 0.002320 0.000000 1.723040 
# 
# From -- ./inp_files/66968.got.cif
#   From: 2010.05.17/outbox.cif.g08.bks.cpg/sg11_34_cif.got.tgz:66968.got - 2010.06.03 12:22:45.
