data_PCOD9162813
_publ_section_title
;
Structure prediction by ZEFSAII (Michael W. Deem and Ramdas Pophale) SiO2 
 PCOD9162813
Probable space group: P 21/M
;
_chemical_formula_sum "Si O2"
_cell_formula_units_Z 28
_cell_length_a 16.709187
_cell_length_b 13.468565
_cell_length_c 9.461952
_cell_angle_alpha 90.000000
_cell_angle_beta 135.234100
_cell_angle_gamma 90.000000
_cell_volume 1499.549035
_symmetry_space_group_name_H-M "P 21/M"
_symmetry_group_IT_number 11
_symmetry_cell_setting 'monoclinic'
loop_
_space_group_symop_operation_xyz
x,y,z
-x,1/2+y,-z
-x,-y,-z
x,1/2-y,z
loop_
_atom_site_type_symbol
_atom_site_label
_atom_site_fract_x
_atom_site_fract_y
_atom_site_fract_z
Si Si1 0.845942 0.002073 0.690746
Si Si2 0.455593 0.918410 0.054490
Si Si3 0.640138 0.867239 0.521382
Si Si4 0.534896 0.365888 0.467582
Si Si5 0.713999 0.134326 0.939851
Si Si6 0.335749 0.640176 0.639534
Si Si7 0.941886 0.369520 0.070169
O O1 0.771350 0.067278 0.489306
O O2 0.754662 0.928598 0.648374
O O3 0.896459 0.079735 0.868236
O O4 0.944667 0.931820 0.754149
O O5 0.557225 0.878098 0.280559
O O6 0.352302 0.936734 0.035136
O O7 0.396700 0.849689 0.864162
O O8 0.500000 0.000000 0.000000
O O9 0.662852 0.750000 0.566181
O O10 0.568997 0.905447 0.568702
O O11 0.505775 0.250000 0.408007
O O12 0.644145 0.369705 0.705936
O O13 0.575626 0.403252 0.366598
O O14 0.702634 0.250000 0.973638
O O15 0.844047 0.114562 0.064859
O O16 0.300636 0.750000 0.544260
O O17 0.958640 0.250000 0.076405
#
# Coordination Sequence:
#
# PCOD9162813 Si02
#       7
#     4   4   4   4   4   4   4
#     4  11  21  33  57  85 107 141 188 233 280 321
#     4  11  21  34  54  84 113 143 183 221 273 334
#     4  10  20  36  54  80 117 150 181 220 275 339
#     4   8  16  30  53  79 106 142 178 219 274 327
#     4   9  17  34  56  78 107 150 187 221 270 331
#     4  11  20  34  53  81 114 143 180 232 280 322
#     4  10  21  38  57  81 111 145 189 236 276 324
#
# _framework density 18.672281999999999
#
# number of rings (size 3 to 8) (size 9 to 14) (size 15 to 20)
#    0.000    2.000    2.857    3.000    0.000    1.714 
#    0.000    0.714    0.000    0.000    0.000    4.000 
#    0.000    0.000    0.000    0.000    0.000    0.000 
#
# Total GULP energy -155997.478091 kJ/mol
# GULP energy per Si atom -5571.338503 kJ/mol
# Density = 1.862978 g / cm^3
# Si number density = 18.672282 Si / 1000 Ang^3
#
#
#
# Elastic Constant Matrix: (Units=GPa)
#
#
# Indices 1 2 3 4 5 6 
#
# 1 107.2343 33.1953 28.9302 0.0000 9.8417 0.0000
# 2 33.1953 106.7851 19.5537 0.0000 14.8190 0.0000
# 3 28.9302 19.5537 51.1212 0.0000 -2.5171 0.0000
# 4 0.0000 0.0000 0.0000 14.1112 0.0000 -4.2800
# 5 9.8417 14.8190 -2.5171 0.0000 36.7219 0.0000
# 6 0.0000 0.0000 0.0000 -4.2800 0.0000 28.9287
#
#
#
# Elastic Compliance Matrix: (Units=1/GPa)
#
#
# Indices 1 2 3 4 5 6 
#
# 1 0.011881 -0.002218 -0.006008 0.000000 -0.002701 0.000000
# 2 -0.002218 0.011225 -0.003243 0.000000 -0.004158 0.000000
# 3 -0.006008 -0.003243 0.024428 0.000000 0.004593 0.000000
# 4 0.000000 0.000000 0.000000 0.074195 0.000000 0.010977
# 5 -0.002701 -0.004158 0.004593 0.000000 0.029948 0.000000
# 6 0.000000 0.000000 0.000000 0.010977 0.000000 0.036192
#
#
# Mechanical properties :
#
#
# Convention : Reuss Voigt Hill
#
# Bulk Modulus (GPa) = 40.65813 47.61102 44.13458
# Shear Modulus (GPa) = 22.83050 28.18312 25.50681
#
# Velocity S-wave (km/s) = 3.50050 3.88926 3.69999
# Velocity P-wave (km/s) = 6.17737 6.76181 6.47618
#
# Compressibility (1/GPa) = 0.02459532
#
# Stress axis : x y z
#
# Youngs Moduli (GPa) = 84.16937 89.08718 40.93686
#
# Poissons Ratio (x) = 0.19763 0.24595
# Poissons Ratio (y) = 0.18672 0.13275
# Poissons Ratio (z) = 0.50569 0.28889
#
# Static dielectric constant tensor:
#      x y z
#    x 1.664890 0.000000 0.000390 
#    y 0.000000 1.723960 0.000000 
#    z 0.000390 0.000000 1.641110 
# 
# From -- ./inp_files/21806.got.cif
#   From: 2010.05.17/outbox.cif.g08.bks.cpg/sg11_11_cif.got.tgz:21806.got - 2010.06.03 12:22:45.
