data_PCOD9162714
_publ_section_title
;
Structure prediction by ZEFSAII (Michael W. Deem and Ramdas Pophale) SiO2 
 PCOD9162714
Probable space group: P 21/M
;
_chemical_formula_sum "Si O2"
_cell_formula_units_Z 28
_cell_length_a 9.422350
_cell_length_b 12.987313
_cell_length_c 14.283549
_cell_angle_alpha 90.000000
_cell_angle_beta 136.335927
_cell_angle_gamma 90.000000
_cell_volume 1206.795431
_symmetry_space_group_name_H-M "P 21/M"
_symmetry_group_IT_number 11
_symmetry_cell_setting 'monoclinic'
loop_
_space_group_symop_operation_xyz
x,y,z
-x,1/2+y,-z
-x,-y,-z
x,1/2-y,z
loop_
_atom_site_type_symbol
_atom_site_label
_atom_site_fract_x
_atom_site_fract_y
_atom_site_fract_z
Si Si1 0.020468 0.423450 0.919515
Si Si2 0.217891 0.142482 0.427794
Si Si3 0.576380 0.095663 0.736118
Si Si4 0.512061 0.632770 0.625672
Si Si5 0.068508 0.933067 0.342514
Si Si6 0.363303 0.410582 0.821961
Si Si7 0.522787 0.636381 0.912352
O O1 0.806010 0.365131 0.830521
O O2 0.990300 0.453364 0.794755
O O3 0.249234 0.376679 0.025711
O O4 0.000000 0.500000 0.000000
O O5 0.105297 0.250000 0.380846
O O6 0.419515 0.141087 0.587297
O O7 0.309857 0.129263 0.367696
O O8 0.087393 0.045880 0.395093
O O9 0.500381 0.124534 0.802023
O O10 0.553942 0.970343 0.706937
O O11 0.515514 0.750000 0.667250
O O12 0.290188 0.617293 0.468233
O O13 0.874356 0.878713 0.296246
O O14 0.443406 0.371597 0.959580
O O15 0.387464 0.535346 0.828555
O O16 0.442521 0.750000 0.850876
#
# Coordination Sequence:
#
# PCOD9162714 Si02
#       7
#     4   4   4   4   4   4   4
#     4  11  20  37  64  87 116 154 203 251 295 353
#     4  10  20  35  59  88 118 155 199 253 305 353
#     4  11  20  39  61  90 121 155 197 254 303 352
#     4  10  20  36  62  92 118 156 204 251 302 361
#     4  10  20  39  59  85 120 161 194 244 307 365
#     4  10  23  39  61  85 127 162 199 252 303 358
#     4  10  23  42  61  85 121 171 209 241 301 367
#
# _framework density 23.201944000000001
#
# number of rings (size 3 to 8) (size 9 to 14) (size 15 to 20)
#    0.000    1.714    4.286    0.857    0.000    6.857 
#    0.000    2.143    0.000    0.000    0.000    0.000 
#    0.000    0.000    0.000    0.000    0.000    0.000 
#
# Total GULP energy -156085.085966 kJ/mol
# GULP energy per Si atom -5574.467356 kJ/mol
# Density = 2.314914 g / cm^3
# Si number density = 23.201944 Si / 1000 Ang^3
#
#
#
# Elastic Constant Matrix: (Units=GPa)
#
#
# Indices 1 2 3 4 5 6 
#
# 1 96.1710 2.5922 18.9473 0.0000 -5.6079 0.0000
# 2 2.5922 132.6398 9.8177 0.0000 -1.2460 0.0000
# 3 18.9473 9.8177 56.4180 0.0000 6.0471 0.0000
# 4 0.0000 0.0000 0.0000 -40.4593 0.0000 -6.2734
# 5 -5.6079 -1.2460 6.0471 0.0000 39.7373 0.0000
# 6 0.0000 0.0000 0.0000 -6.2734 0.0000 -2.6255
#
#
#
# Elastic Compliance Matrix: (Units=1/GPa)
#
#
# Indices 1 2 3 4 5 6 
#
# 1 0.011324 0.000100 -0.004058 0.000000 0.002219 0.000000
# 2 0.000100 0.007646 -0.001414 0.000000 0.000469 0.000000
# 3 -0.004058 -0.001414 0.019722 0.000000 -0.003618 0.000000
# 4 0.000000 0.000000 0.000000 -0.039262 0.000000 0.093812
# 5 0.002219 0.000469 -0.003618 0.000000 0.026044 0.000000
# 6 0.000000 0.000000 0.000000 0.093812 0.000000 -0.605026
#
#
# Mechanical properties :
#
#
# Convention : Reuss Voigt Hill
#
# Bulk Modulus (GPa) = 35.78236 38.66036 37.22136
# Shear Modulus (GPa) = -8.93670 16.25528 3.65929
#
# Velocity S-wave (km/s) = -1.96470 2.64976 1.25721
# Velocity P-wave (km/s) = 3.21074 5.10493 4.26434
#
# Compressibility (1/GPa) = 0.02794673
#
# Stress axis : x y z
#
# Youngs Moduli (GPa) = 88.30479 130.78117 50.70538
#
# Poissons Ratio (x) = -0.01307 0.20578
# Poissons Ratio (y) = -0.00882 0.07172
# Poissons Ratio (z) = 0.35838 0.18498
#
# Static dielectric constant tensor:
#      x y z
#    x 1.848760 0.000000 -0.009300 
#    y 0.000000 1.924240 0.000000 
#    z -0.009300 0.000000 1.864040 
# 
# From -- ./inp_files/18128.got.cif
#   From: 2010.05.17/outbox.cif.g08.bks.cpg/sg11_10_cif.got.tgz:18128.got - 2010.06.03 12:22:45.
