data_PCOD9162108
_publ_section_title
;
Structure prediction by ZEFSAII (Michael W. Deem and Ramdas Pophale) SiO2 
 PCOD9162108
Probable space group: P 21/M
;
_chemical_formula_sum "Si O2"
_cell_formula_units_Z 24
_cell_length_a 7.938809
_cell_length_b 21.109566
_cell_length_c 9.372197
_cell_angle_alpha 90.000000
_cell_angle_beta 47.748152
_cell_angle_gamma 90.000000
_cell_volume 1162.580567
_symmetry_space_group_name_H-M "P 21/M"
_symmetry_group_IT_number 11
_symmetry_cell_setting 'monoclinic'
loop_
_space_group_symop_operation_xyz
x,y,z
-x,1/2+y,-z
-x,-y,-z
x,1/2-y,z
loop_
_atom_site_type_symbol
_atom_site_label
_atom_site_fract_x
_atom_site_fract_y
_atom_site_fract_z
Si Si1 0.514243 0.997937 0.821054
Si Si2 0.044441 0.538981 0.158729
Si Si3 0.123492 0.396602 0.481477
Si Si4 0.960892 0.390195 0.261303
Si Si5 0.689575 0.882175 0.174136
Si Si6 0.505534 0.677770 0.544451
O O1 0.721814 0.957435 0.647165
O O2 0.503330 0.067863 0.762755
O O3 0.272278 0.963074 0.934445
O O4 0.500000 0.000000 0.000000
O O5 0.055871 0.579010 0.298503
O O6 0.979008 0.466636 0.233445
O O7 0.853548 0.574290 0.177797
O O8 0.303427 0.349498 0.455923
O O9 0.011178 0.373891 0.398113
O O10 0.723807 0.363759 0.336638
O O11 0.166597 0.363607 0.046252
O O12 0.605813 0.828109 0.326748
O O13 0.452122 0.750000 0.611053
#
# Coordination Sequence:
#
# PCOD9162108 Si02
#       6
#     4   4   4   4   4   4
#     4  11  19  32  60  94 125 142 178 236 301 370
#     4  10  20  34  58  95 126 151 181 232 307 369
#     4  11  22  37  62  90 122 154 192 240 297 354
#     4  11  21  37  64  89 118 153 193 239 301 357
#     4  10  21  38  59  88 123 154 192 237 299 357
#     4  11  26  43  58  80 116 162 212 250 279 327
#
# _framework density 20.643730000000001
#
# number of rings (size 3 to 8) (size 9 to 14) (size 15 to 20)
#    0.000    1.333    3.333    5.500    2.333    4.000 
#    0.000    0.000    0.000    0.000    0.000    0.000 
#    0.000    0.000    0.000    0.000    0.000    0.000 
#
# Total GULP energy -134040.858427 kJ/mol
# GULP energy per Si atom -5585.035768 kJ/mol
# Density = 2.059674 g / cm^3
# Si number density = 20.643730 Si / 1000 Ang^3
#
#
#
# Elastic Constant Matrix: (Units=GPa)
#
#
# Indices 1 2 3 4 5 6 
#
# 1 103.7303 32.2890 14.8476 0.0000 12.2661 0.0000
# 2 32.2890 43.9931 9.3572 0.0000 0.9810 0.0000
# 3 14.8476 9.3572 77.4317 0.0000 12.4669 0.0000
# 4 0.0000 0.0000 0.0000 13.3486 0.0000 -0.7151
# 5 12.2661 0.9810 12.4669 0.0000 41.9090 0.0000
# 6 0.0000 0.0000 0.0000 -0.7151 0.0000 11.9568
#
#
#
# Elastic Compliance Matrix: (Units=1/GPa)
#
#
# Indices 1 2 3 4 5 6 
#
# 1 0.013063 -0.009335 -0.000836 0.000000 -0.003356 0.000000
# 2 -0.009335 0.030005 -0.002272 0.000000 0.002706 0.000000
# 3 -0.000836 -0.002272 0.013971 0.000000 -0.003858 0.000000
# 4 0.000000 0.000000 0.000000 0.075155 0.000000 0.004495
# 5 -0.003356 0.002706 -0.003858 0.000000 0.025928 0.000000
# 6 0.000000 0.000000 0.000000 0.004495 0.000000 0.083903
#
#
# Mechanical properties :
#
#
# Convention : Reuss Voigt Hill
#
# Bulk Modulus (GPa) = 31.10143 37.57140 34.33641
# Shear Modulus (GPa) = 18.00974 24.68696 21.34835
#
# Velocity S-wave (km/s) = 2.95686 3.46187 3.21928
# Velocity P-wave (km/s) = 5.17261 5.84968 5.52153
#
# Compressibility (1/GPa) = 0.03215286
#
# Stress axis : x y z
#
# Youngs Moduli (GPa) = 76.55428 33.32785 71.57861
#
# Poissons Ratio (x) = 0.31110 0.05987
# Poissons Ratio (y) = 0.71461 0.16260
# Poissons Ratio (z) = 0.06403 0.07571
#
# Static dielectric constant tensor:
#      x y z
#    x 1.864730 0.000000 -0.010490 
#    y 0.000000 1.702420 0.000000 
#    z -0.010490 0.000000 1.780540 
# 
# From -- ./inp_files/14738.got.cif
#   From: 2010.05.17/outbox.cif.g08.bks.cpg/sg11_8_cif.got.tgz:14738.got - 2010.06.03 12:22:45.
