data_PCOD9162678
_publ_section_title
;
Structure prediction by ZEFSAII (Michael W. Deem and Ramdas Pophale) SiO2 
 PCOD9162678
Probable space group: P 21/M
;
_chemical_formula_sum "Si O2"
_cell_formula_units_Z 32
_cell_length_a 20.870371
_cell_length_b 13.635640
_cell_length_c 13.343539
_cell_angle_alpha 90.000000
_cell_angle_beta 154.993460
_cell_angle_gamma 90.000000
_cell_volume 1605.207858
_symmetry_space_group_name_H-M "P 21/M"
_symmetry_group_IT_number 11
_symmetry_cell_setting 'monoclinic'
loop_
_space_group_symop_operation_xyz
x,y,z
-x,1/2+y,-z
-x,-y,-z
x,1/2-y,z
loop_
_atom_site_type_symbol
_atom_site_label
_atom_site_fract_x
_atom_site_fract_y
_atom_site_fract_z
Si Si1 0.138723 0.505946 0.996134
Si Si2 0.416320 0.358885 0.144711
Si Si3 0.775040 0.135934 0.199277
Si Si4 0.847368 0.866487 0.602677
Si Si5 0.070278 0.358238 0.723848
Si Si6 0.266240 0.136266 0.336892
Si Si7 0.587046 0.445483 0.749178
Si Si8 0.357350 0.037505 0.857558
O O1 0.163351 0.434914 0.125009
O O2 0.306568 0.540343 0.196948
O O3 0.069513 0.440899 0.807093
O O4 0.016410 0.589062 0.846575
O O5 0.481927 0.250000 0.253986
O O6 0.239399 0.355153 0.922792
O O7 0.415866 0.391198 0.028707
O O8 0.471283 0.449057 0.291238
O O9 0.733584 0.250000 0.156957
O O10 0.955495 0.126819 0.469122
O O11 0.712865 0.059320 0.191562
O O12 0.705293 0.100023 0.996708
O O13 0.854846 0.750000 0.602301
O O14 0.755677 0.887588 0.576294
O O15 0.758930 0.911276 0.382732
O O16 0.033418 0.250000 0.714707
O O17 0.224185 0.250000 0.263608
O O18 0.438148 0.121317 0.540678
O O19 0.500000 0.000000 0.000000
#
# Coordination Sequence:
#
# PCOD9162678 Si02
#       8
#     4   4   4   4   4   4   4   4
#     4  11  22  40  64  89 119 154 207 257 300 350
#     4   9  19  34  56  85 119 154 190 235 300 361
#     4  10  20  35  58  89 122 151 188 240 296 360
#     4  11  24  40  61  89 123 161 205 251 302 353
#     4   9  18  34  59  90 116 148 190 241 302 358
#     4  11  24  44  63  83 118 165 206 251 306 361
#     4  10  22  37  63  92 122 154 200 253 307 359
#     4  11  22  36  56  84 123 164 198 236 288 365
#
# _framework density 19.935113999999999
#
# number of rings (size 3 to 8) (size 9 to 14) (size 15 to 20)
#    0.000    1.750    1.250    3.375    1.750    5.000 
#    0.000    0.625    0.000    2.250    0.000    0.000 
#    0.000    0.000    0.000    0.000    0.000    0.000 
#
# Total GULP energy -178618.164806 kJ/mol
# GULP energy per Si atom -5581.817650 kJ/mol
# Density = 1.988974 g / cm^3
# Si number density = 19.935114 Si / 1000 Ang^3
#
#
#
# Elastic Constant Matrix: (Units=GPa)
#
#
# Indices 1 2 3 4 5 6 
#
# 1 62.2993 26.2874 7.9564 0.0000 2.9801 0.0000
# 2 26.2874 100.3894 14.6022 0.0000 -0.7856 0.0000
# 3 7.9564 14.6022 40.5605 0.0000 -15.6497 0.0000
# 4 0.0000 0.0000 0.0000 19.5360 0.0000 5.7249
# 5 2.9801 -0.7856 -15.6497 0.0000 16.9236 0.0000
# 6 0.0000 0.0000 0.0000 5.7249 0.0000 21.1095
#
#
#
# Elastic Compliance Matrix: (Units=1/GPa)
#
#
# Indices 1 2 3 4 5 6 
#
# 1 0.018956 -0.004226 -0.005536 0.000000 -0.008653 0.000000
# 2 -0.004226 0.011698 -0.004486 0.000000 -0.002862 0.000000
# 3 -0.005536 -0.004486 0.042990 0.000000 0.040520 0.000000
# 4 0.000000 0.000000 0.000000 0.055607 0.000000 -0.015080
# 5 -0.008653 -0.002862 0.040520 0.000000 0.097950 0.000000
# 6 0.000000 0.000000 0.000000 -0.015080 0.000000 0.051462
#
#
# Mechanical properties :
#
#
# Convention : Reuss Voigt Hill
#
# Bulk Modulus (GPa) = 22.14987 33.43794 27.79391
# Shear Modulus (GPa) = 15.51796 21.80738 18.66267
#
# Velocity S-wave (km/s) = 2.79305 3.31103 3.06301
# Velocity P-wave (km/s) = 4.64076 5.60598 5.14605
#
# Compressibility (1/GPa) = 0.04514699
#
# Stress axis : x y z
#
# Youngs Moduli (GPa) = 52.75470 85.48439 23.26138
#
# Poissons Ratio (x) = 0.36127 0.12876
# Poissons Ratio (y) = 0.22295 0.10436
# Poissons Ratio (z) = 0.29203 0.38353
#
# Static dielectric constant tensor:
#      x y z
#    x 1.701120 0.000000 -0.022270 
#    y 0.000000 1.736120 0.000000 
#    z -0.022270 0.000000 1.692460 
# 
# From -- ./inp_files/41727.got.cif
#   From: 2010.05.17/outbox.cif.g08.bks.cpg/sg11_21_cif.got.tgz:41727.got - 2010.06.03 12:22:45.
