data_PCOD9162861
_publ_section_title
;
Structure prediction by ZEFSAII (Michael W. Deem and Ramdas Pophale) SiO2 
 PCOD9162861
Probable space group: P 21/M
;
_chemical_formula_sum "Si O2"
_cell_formula_units_Z 32
_cell_length_a 21.938634
_cell_length_b 8.235458
_cell_length_c 16.104693
_cell_angle_alpha 90.000000
_cell_angle_beta 147.088182
_cell_angle_gamma 90.000000
_cell_volume 1580.984309
_symmetry_space_group_name_H-M "P 21/M"
_symmetry_group_IT_number 11
_symmetry_cell_setting 'monoclinic'
loop_
_space_group_symop_operation_xyz
x,y,z
-x,1/2+y,-z
-x,-y,-z
x,1/2-y,z
loop_
_atom_site_type_symbol
_atom_site_label
_atom_site_fract_x
_atom_site_fract_y
_atom_site_fract_z
Si Si1 0.403956 0.556475 0.326934
Si Si2 0.393675 0.056240 0.132182
Si Si3 0.430481 0.943241 0.999350
Si Si4 0.176147 0.946111 0.669562
Si Si5 0.914163 0.445731 0.789542
Si Si6 0.086724 0.948444 0.390250
Si Si7 0.144094 0.055793 0.808329
Si Si8 0.836769 0.446750 0.879136
O O1 0.500000 0.500000 0.500000
O O2 0.398972 0.750000 0.324636
O O3 0.432737 0.504887 0.265999
O O4 0.278568 0.495366 0.209690
O O5 0.389798 0.250000 0.130784
O O6 0.266045 0.990025 0.972548
O O7 0.460332 0.008571 0.124989
O O8 0.433370 0.750000 0.006833
O O9 0.303517 0.996107 0.834401
O O10 0.500000 0.000000 0.000000
O O11 0.167753 0.750000 0.661233
O O12 0.143583 0.003623 0.540651
O O13 0.112756 0.012412 0.677842
O O14 0.910760 0.250000 0.786053
O O15 0.869102 0.502635 0.648604
O O16 0.846389 0.500312 0.793396
O O17 0.044959 0.494667 0.947800
O O18 0.091253 0.750000 0.396763
O O19 0.956776 0.999260 0.249076
O O20 0.150091 0.250000 0.820534
O O21 0.836997 0.250000 0.882048
#
# Coordination Sequence:
#
# PCOD9162861 Si02
#       8
#     4   4   4   4   4   4   4   4
#     4  11  23  39  57  82 114 147 185 236 288 338
#     4  10  20  36  58  83 106 139 184 226 275 333
#     4  10  20  36  56  79 107 143 185 230 273 323
#     4   9  18  31  47  71 102 136 173 213 260 313
#     4   9  17  32  55  78 103 140 179 219 268 327
#     4   9  16  28  47  74 104 133 170 208 253 317
#     4   9  17  29  49  75 103 135 171 212 258 313
#     4   9  19  35  54  78 107 139 179 224 274 329
#
# _framework density 20.240552999999998
#
# number of rings (size 3 to 8) (size 9 to 14) (size 15 to 20)
#    0.000    2.500    0.000    2.250    0.000    3.000 
#    2.250    1.250    0.000    0.000    0.000    0.000 
#    0.000    0.000    0.000    0.000    0.000    0.000 
#
# Total GULP energy -178431.197949 kJ/mol
# GULP energy per Si atom -5575.974936 kJ/mol
# Density = 2.019449 g / cm^3
# Si number density = 20.240553 Si / 1000 Ang^3
#
#
#
# Elastic Constant Matrix: (Units=GPa)
#
#
# Indices 1 2 3 4 5 6 
#
# 1 126.9469 17.5447 41.6176 0.0000 -36.5095 0.0000
# 2 17.5447 11.5096 7.7332 0.0000 -3.2666 0.0000
# 3 41.6176 7.7332 68.7969 0.0000 -37.2078 0.0000
# 4 0.0000 0.0000 0.0000 22.1619 0.0000 -5.2397
# 5 -36.5095 -3.2666 -37.2078 0.0000 39.7609 0.0000
# 6 0.0000 0.0000 0.0000 -5.2397 0.0000 23.3680
#
#
#
# Elastic Compliance Matrix: (Units=1/GPa)
#
#
# Indices 1 2 3 4 5 6 
#
# 1 0.013415 -0.017114 -0.000587 0.000000 0.010363 0.000000
# 2 -0.017114 0.116194 -0.012238 0.000000 -0.017621 0.000000
# 3 -0.000587 -0.012238 0.031244 0.000000 0.027693 0.000000
# 4 0.000000 0.000000 0.000000 0.047649 0.000000 0.010684
# 5 0.010363 -0.017621 0.027693 0.000000 0.059133 0.000000
# 6 0.000000 0.000000 0.000000 0.010684 0.000000 0.045189
#
#
# Mechanical properties :
#
#
# Convention : Reuss Voigt Hill
#
# Bulk Modulus (GPa) = 9.90351 37.89383 23.89867
# Shear Modulus (GPa) = 12.30437 26.41535 19.35986
#
# Velocity S-wave (km/s) = 2.46825 3.61650 3.09607
# Velocity P-wave (km/s) = 3.60923 6.01673 4.96123
#
# Compressibility (1/GPa) = 0.10097430
#
# Stress axis : x y z
#
# Youngs Moduli (GPa) = 74.54129 8.60632 32.00660
#
# Poissons Ratio (x) = 0.14729 0.01879
# Poissons Ratio (y) = 1.27572 0.39169
# Poissons Ratio (z) = 0.04376 0.10532
#
# Static dielectric constant tensor:
#      x y z
#    x 1.764660 0.000000 -0.004150 
#    y 0.000000 1.695760 0.000000 
#    z -0.004150 0.000000 1.734510 
# 
# From -- ./inp_files/54308.got.cif
#   From: 2010.05.17/outbox.cif.g08.bks.cpg/sg11_28_cif.got.tgz:54308.got - 2010.06.03 12:22:45.
