data_PCOD9162835
_publ_section_title
;
Structure prediction by ZEFSAII (Michael W. Deem and Ramdas Pophale) SiO2 
 PCOD9162835
Probable space group: P 21/M
;
_chemical_formula_sum "Si O2"
_cell_formula_units_Z 32
_cell_length_a 14.718522
_cell_length_b 8.762795
_cell_length_c 14.639298
_cell_angle_alpha 90.000000
_cell_angle_beta 72.987099
_cell_angle_gamma 90.000000
_cell_volume 1805.483448
_symmetry_space_group_name_H-M "P 21/M"
_symmetry_group_IT_number 11
_symmetry_cell_setting 'monoclinic'
loop_
_space_group_symop_operation_xyz
x,y,z
-x,1/2+y,-z
-x,-y,-z
x,1/2-y,z
loop_
_atom_site_type_symbol
_atom_site_label
_atom_site_fract_x
_atom_site_fract_y
_atom_site_fract_z
Si Si1 0.766671 0.568180 0.318216
Si Si2 0.917293 0.067340 0.403500
Si Si3 0.560268 0.926133 0.683896
Si Si4 0.603004 0.069482 0.492126
Si Si5 0.396796 0.065223 0.003153
Si Si6 0.364010 0.066199 0.802728
Si Si7 0.876340 0.432382 0.619067
Si Si8 0.713497 0.927625 0.791891
O O1 0.776597 0.750000 0.319878
O O2 0.859902 0.492728 0.333309
O O3 0.681495 0.513541 0.408945
O O4 0.730443 0.526966 0.226972
O O5 0.920652 0.250000 0.400057
O O6 0.866179 0.021688 0.514778
O O7 0.023109 0.001127 0.378486
O O8 0.560002 0.750000 0.652750
O O9 0.616474 0.933808 0.761956
O O10 0.614810 0.029830 0.594992
O O11 0.454022 0.985821 0.729201
O O12 0.606035 0.250000 0.475786
O O13 0.500000 0.000000 0.500000
O O14 0.402660 0.250000 0.007357
O O15 0.317073 0.014047 0.099522
O O16 0.367629 0.025138 0.908353
O O17 0.500000 0.000000 0.000000
O O18 0.376814 0.250000 0.791654
O O19 0.881329 0.250000 0.619880
O O20 0.793486 0.488182 0.710105
O O21 0.742174 0.750000 0.790651
#
# Coordination Sequence:
#
# PCOD9162835 Si02
#       8
#     4   4   4   4   4   4   4   4
#     4  11  22  36  54  79 109 147 187 227 274 328
#     4  10  21  38  60  85 113 146 180 223 277 333
#     4  11  21  33  51  76 107 144 184 225 271 327
#     4  12  23  34  48  71 105 145 184 223 267 320
#     4  10  20  36  55  79 109 147 190 234 282 330
#     4  10  21  35  53  75 107 147 186 227 274 324
#     4  10  21  37  59  86 112 142 181 226 277 333
#     4  10  21  35  54  81 112 144 182 230 282 331
#
# _framework density 17.723786
#
# number of rings (size 3 to 8) (size 9 to 14) (size 15 to 20)
#    0.000    1.500    2.500    3.375    0.000    5.500 
#    0.000    0.000    0.000    0.750    0.000    0.000 
#    0.000    0.000    0.000    0.000    0.000    0.000 
#
# Total GULP energy -178667.839290 kJ/mol
# GULP energy per Si atom -5583.369978 kJ/mol
# Density = 1.768345 g / cm^3
# Si number density = 17.723786 Si / 1000 Ang^3
#
#
#
# Elastic Constant Matrix: (Units=GPa)
#
#
# Indices 1 2 3 4 5 6 
#
# 1 100.9121 32.6183 45.0573 0.0000 13.4965 0.0000
# 2 32.6183 43.9519 26.8932 0.0000 2.5536 0.0000
# 3 45.0573 26.8932 98.2860 0.0000 11.8252 0.0000
# 4 0.0000 0.0000 0.0000 22.2402 0.0000 -3.0980
# 5 13.4965 2.5536 11.8252 0.0000 25.8232 0.0000
# 6 0.0000 0.0000 0.0000 -3.0980 0.0000 31.1833
#
#
#
# Elastic Compliance Matrix: (Units=1/GPa)
#
#
# Indices 1 2 3 4 5 6 
#
# 1 0.015134 -0.008489 -0.003984 0.000000 -0.005246 0.000000
# 2 -0.008489 0.032103 -0.005339 0.000000 0.003707 0.000000
# 3 -0.003984 -0.005339 0.013914 0.000000 -0.003762 0.000000
# 4 0.000000 0.000000 0.000000 0.045595 0.000000 0.004530
# 5 -0.005246 0.003707 -0.003762 0.000000 0.042823 0.000000
# 6 0.000000 0.000000 0.000000 0.004530 0.000000 0.032518
#
#
# Mechanical properties :
#
#
# Convention : Reuss Voigt Hill
#
# Bulk Modulus (GPa) = 39.17203 50.25416 44.71309
# Shear Modulus (GPa) = 22.10242 25.08808 23.59525
#
# Velocity S-wave (km/s) = 3.53519 3.76640 3.65262
# Velocity P-wave (km/s) = 6.22999 6.87968 6.56288
#
# Compressibility (1/GPa) = 0.02552842
#
# Stress axis : x y z
#
# Youngs Moduli (GPa) = 66.07636 31.14941 71.86978
#
# Poissons Ratio (x) = 0.26443 0.28633
# Poissons Ratio (y) = 0.56092 0.38368
# Poissons Ratio (z) = 0.26324 0.16629
#
# Static dielectric constant tensor:
#      x y z
#    x 1.622230 0.000000 0.039260 
#    y 0.000000 1.599190 0.000000 
#    z 0.039260 0.000000 1.619820 
# 
# From -- ./inp_files/51611.got.cif
#   From: 2010.05.17/outbox.cif.g08.bks.cpg/sg11_26_cif.got.tgz:51611.got - 2010.06.03 12:22:45.
