data_PCOD9162341
_publ_section_title
;
Structure prediction by ZEFSAII (Michael W. Deem and Ramdas Pophale) SiO2 
 PCOD9162341
Probable space group: P 21/M
;
_chemical_formula_sum "Si O2"
_cell_formula_units_Z 32
_cell_length_a 19.568040
_cell_length_b 12.831646
_cell_length_c 19.424019
_cell_angle_alpha 90.000000
_cell_angle_beta 21.226547
_cell_angle_gamma 90.000000
_cell_volume 1765.814785
_symmetry_space_group_name_H-M "P 21/M"
_symmetry_group_IT_number 11
_symmetry_cell_setting 'monoclinic'
loop_
_space_group_symop_operation_xyz
x,y,z
-x,1/2+y,-z
-x,-y,-z
x,1/2-y,z
loop_
_atom_site_type_symbol
_atom_site_label
_atom_site_fract_x
_atom_site_fract_y
_atom_site_fract_z
Si Si1 0.398760 0.127028 0.939790
Si Si2 0.486331 0.873154 0.441650
Si Si3 0.816971 0.974196 0.217395
Si Si4 0.145582 0.128048 0.306058
Si Si5 0.240570 0.509111 0.340180
Si Si6 0.039430 0.873515 0.132243
Si Si7 0.781626 0.873848 0.503229
Si Si8 0.424193 0.996623 0.778994
O O1 0.431602 0.250000 0.899831
O O2 0.576284 0.073338 0.810284
O O3 0.374377 0.071512 0.889716
O O4 0.224120 0.112908 0.155463
O O5 0.467919 0.750000 0.449213
O O6 0.669852 0.900557 0.315254
O O7 0.303646 0.923079 0.650239
O O8 0.513683 0.934266 0.344234
O O9 0.892347 0.919897 0.215618
O O10 0.000000 0.000000 0.000000
O O11 0.159381 0.250000 0.309830
O O12 0.261877 0.060359 0.251939
O O13 0.932206 0.087620 0.509852
O O14 0.191188 0.432622 0.450163
O O15 0.058197 0.750000 0.104223
O O16 0.954464 0.891105 0.288265
O O17 0.239724 0.929360 0.934880
O O18 0.758969 0.750000 0.534489
O O19 0.595010 0.922460 0.643071
#
# Coordination Sequence:
#
# PCOD9162341 Si02
#       8
#     4   4   4   4   4   4   4   4
#     4  10  21  36  56  81 113 151 187 230 283 336
#     4  11  24  41  63  89 119 154 194 239 291 347
#     4  11  23  44  61  87 120 150 194 242 288 349
#     4  10  20  35  55  83 112 145 187 232 283 334
#     4  10  20  35  57  80 112 148 187 235 279 337
#     4  11  22  38  61  86 115 154 194 239 292 343
#     4  10  21  37  57  83 114 152 192 237 287 339
#     4  11  21  39  59  84 119 149 194 237 284 342
#
# _framework density 18.121946000000001
#
# number of rings (size 3 to 8) (size 9 to 14) (size 15 to 20)
#    0.000    1.500    2.500    3.000    0.000    1.000 
#    0.000    0.000    0.000   12.000    0.000    0.000 
#    0.000    0.000    0.000    0.000    0.000    0.000 
#
# Total GULP energy -178752.538557 kJ/mol
# GULP energy per Si atom -5586.016830 kJ/mol
# Density = 1.808070 g / cm^3
# Si number density = 18.121946 Si / 1000 Ang^3
#
#
#
# Elastic Constant Matrix: (Units=GPa)
#
#
# Indices 1 2 3 4 5 6 
#
# 1 39.6226 -4.0540 6.3291 0.0000 -2.0302 0.0000
# 2 -4.0540 80.4417 36.7937 0.0000 4.6752 0.0000
# 3 6.3291 36.7937 81.2537 0.0000 6.8194 0.0000
# 4 0.0000 0.0000 0.0000 19.7867 0.0000 7.3056
# 5 -2.0302 4.6752 6.8194 0.0000 28.2257 0.0000
# 6 0.0000 0.0000 0.0000 7.3056 0.0000 18.5095
#
#
#
# Elastic Compliance Matrix: (Units=1/GPa)
#
#
# Indices 1 2 3 4 5 6 
#
# 1 0.026197 0.002786 -0.003492 0.000000 0.002267 0.000000
# 2 0.002786 0.015997 -0.007406 0.000000 -0.000660 0.000000
# 3 -0.003492 -0.007406 0.016179 0.000000 -0.002933 0.000000
# 4 0.000000 0.000000 0.000000 0.059160 0.000000 -0.023350
# 5 0.002267 -0.000660 -0.002933 0.000000 0.036410 0.000000
# 6 0.000000 0.000000 0.000000 -0.023350 0.000000 0.063243
#
#
# Mechanical properties :
#
#
# Convention : Reuss Voigt Hill
#
# Bulk Modulus (GPa) = 23.72521 31.05062 27.38792
# Shear Modulus (GPa) = 20.20527 24.12098 22.16313
#
# Velocity S-wave (km/s) = 3.34273 3.65230 3.50093
# Velocity P-wave (km/s) = 5.29328 5.91246 5.61142
#
# Compressibility (1/GPa) = 0.04214925
#
# Stress axis : x y z
#
# Youngs Moduli (GPa) = 38.17212 62.50999 61.80927
#
# Poissons Ratio (x) = -0.17415 0.21586
# Poissons Ratio (y) = -0.10634 0.45774
# Poissons Ratio (z) = 0.13331 0.46293
#
# Static dielectric constant tensor:
#      x y z
#    x 1.605570 0.000000 0.012250 
#    y 0.000000 1.582200 0.000000 
#    z 0.012250 0.000000 1.603570 
# 
# From -- ./inp_files/66545.got.cif
#   From: 2010.05.17/outbox.cif.g08.bks.cpg/sg11_34_cif.got.tgz:66545.got - 2010.06.03 12:22:45.
