data_PCOD9162335
_publ_section_title
;
Structure prediction by ZEFSAII (Michael W. Deem and Ramdas Pophale) SiO2 
 PCOD9162335
Probable space group: P 21/M
;
_chemical_formula_sum "Si O2"
_cell_formula_units_Z 24
_cell_length_a 15.205273
_cell_length_b 8.590536
_cell_length_c 23.542565
_cell_angle_alpha 90.000000
_cell_angle_beta 153.526385
_cell_angle_gamma 90.000000
_cell_volume 1370.863902
_symmetry_space_group_name_H-M "P 21/M"
_symmetry_group_IT_number 11
_symmetry_cell_setting 'monoclinic'
loop_
_space_group_symop_operation_xyz
x,y,z
-x,1/2+y,-z
-x,-y,-z
x,1/2-y,z
loop_
_atom_site_type_symbol
_atom_site_label
_atom_site_fract_x
_atom_site_fract_y
_atom_site_fract_z
Si Si1 0.896275 0.065768 0.146055
Si Si2 0.765626 0.933450 0.190421
Si Si3 0.691767 0.064042 0.579404
Si Si4 0.220151 0.065433 0.616111
Si Si5 0.169829 0.434423 0.458818
Si Si6 0.479278 0.434897 0.118377
O O1 0.920142 0.250000 0.155681
O O2 0.800229 0.020919 0.151319
O O3 0.110198 0.985601 0.272210
O O4 0.740749 0.004699 0.009891
O O5 0.740803 0.750000 0.166159
O O6 0.591350 0.000443 0.127518
O O7 0.967503 0.967983 0.341046
O O8 0.686329 0.250000 0.571324
O O9 0.500000 0.000000 0.500000
O O10 0.711693 0.989613 0.528012
O O11 0.218084 0.250000 0.627001
O O12 0.266345 0.043064 0.576030
O O13 0.383388 0.986189 0.749951
O O14 0.000000 0.000000 0.500000
O O15 0.123207 0.250000 0.426050
O O16 0.468677 0.250000 0.109083
#
# Coordination Sequence:
#
# PCOD9162335 Si02
#       6
#     4   4   4   4   4   4
#     4  11  22  37  55  79 110 142 183 230 282 335
#     4  11  20  32  51  76 109 147 187 227 275 329
#     4  11  22  39  63  88 112 141 180 229 284 335
#     4  11  22  35  54  79 113 154 194 230 270 324
#     4  10  20  35  55  82 113 146 187 232 276 326
#     4  12  23  35  51  75 111 152 191 228 272 327
#
# _framework density 17.507207999999999
#
# number of rings (size 3 to 8) (size 9 to 14) (size 15 to 20)
#    0.000    1.000    1.667    9.500    0.000    2.000 
#    0.000    0.000    0.000    1.000    0.000    0.000 
#    0.000    0.000    0.000    0.000    0.000    0.000 
#
# Total GULP energy -134124.305113 kJ/mol
# GULP energy per Si atom -5588.512713 kJ/mol
# Density = 1.746736 g / cm^3
# Si number density = 17.507208 Si / 1000 Ang^3
#
#
#
# Elastic Constant Matrix: (Units=GPa)
#
#
# Indices 1 2 3 4 5 6 
#
# 1 59.2942 18.9613 48.5800 0.0000 17.6142 0.0000
# 2 18.9613 97.6583 20.7274 0.0000 3.7164 0.0000
# 3 48.5800 20.7274 115.1501 0.0000 0.0841 0.0000
# 4 0.0000 0.0000 0.0000 32.7144 0.0000 -1.2131
# 5 17.6142 3.7164 0.0841 0.0000 20.8376 0.0000
# 6 0.0000 0.0000 0.0000 -1.2131 0.0000 25.6532
#
#
#
# Elastic Compliance Matrix: (Units=1/GPa)
#
#
# Indices 1 2 3 4 5 6 
#
# 1 0.042681 -0.003246 -0.017396 0.000000 -0.035429 0.000000
# 2 -0.003246 0.010968 -0.000605 0.000000 0.000790 0.000000
# 3 -0.017396 -0.000605 0.016122 0.000000 0.014748 0.000000
# 4 0.000000 0.000000 0.000000 0.030621 0.000000 0.001448
# 5 -0.035429 0.000790 0.014748 0.000000 0.077738 0.000000
# 6 0.000000 0.000000 0.000000 0.001448 0.000000 0.039050
#
#
# Mechanical properties :
#
#
# Convention : Reuss Voigt Hill
#
# Bulk Modulus (GPa) = 36.66334 49.84888 43.25611
# Shear Modulus (GPa) = 18.60347 28.09664 23.35005
#
# Velocity S-wave (km/s) = 3.26332 4.01042 3.65600
# Velocity P-wave (km/s) = 5.93181 7.06964 6.52557
#
# Compressibility (1/GPa) = 0.02727520
#
# Stress axis : x y z
#
# Youngs Moduli (GPa) = 23.42990 91.17021 62.02863
#
# Poissons Ratio (x) = 0.29597 1.07905
# Poissons Ratio (y) = 0.07606 0.03755
# Poissons Ratio (z) = 0.40759 0.05519
#
# Static dielectric constant tensor:
#      x y z
#    x 1.590150 0.000000 -0.028780 
#    y 0.000000 1.582670 0.000000 
#    z -0.028780 0.000000 1.625450 
# 
# From -- ./inp_files/64122.got.cif
#   From: 2010.05.17/outbox.cif.g08.bks.cpg/sg11_33_cif.got.tgz:64122.got - 2010.06.03 12:22:45.
