data_PCOD9162887
_publ_section_title
;
Structure prediction by ZEFSAII (Michael W. Deem and Ramdas Pophale) SiO2 
 PCOD9162887
Probable space group: P 21/M
;
_chemical_formula_sum "Si O2"
_cell_formula_units_Z 32
_cell_length_a 26.428678
_cell_length_b 8.256614
_cell_length_c 20.448542
_cell_angle_alpha 90.000000
_cell_angle_beta 18.869383
_cell_angle_gamma 90.000000
_cell_volume 1443.097421
_symmetry_space_group_name_H-M "P 21/M"
_symmetry_group_IT_number 11
_symmetry_cell_setting 'monoclinic'
loop_
_space_group_symop_operation_xyz
x,y,z
-x,1/2+y,-z
-x,-y,-z
x,1/2-y,z
loop_
_atom_site_type_symbol
_atom_site_label
_atom_site_fract_x
_atom_site_fract_y
_atom_site_fract_z
Si Si1 0.302154 0.437848 0.167365
Si Si2 0.344767 0.054105 0.252871
Si Si3 0.318761 0.054773 0.432465
Si Si4 0.803380 0.562260 0.976630
Si Si5 0.013063 0.560533 0.134328
Si Si6 0.678188 0.441708 0.998409
Si Si7 0.501456 0.946608 0.573899
Si Si8 0.160989 0.062938 0.831711
O O1 0.262768 0.250000 0.206648
O O2 0.247725 0.491810 0.306596
O O3 0.489467 0.461787 0.947192
O O4 0.265396 0.527835 0.144923
O O5 0.373925 0.250000 0.213128
O O6 0.278652 0.023330 0.405397
O O7 0.323984 0.250000 0.434665
O O8 0.496423 0.997369 0.227052
O O9 0.164397 0.999090 0.659368
O O10 0.838929 0.750000 0.942431
O O11 0.783093 0.522071 0.925377
O O12 0.638373 0.518117 0.212790
O O13 0.931543 0.459837 0.859136
O O14 0.021230 0.750000 0.106701
O O15 0.135485 0.465050 0.940115
O O16 0.675364 0.250000 0.013549
O O17 0.491537 0.750000 0.588750
O O18 0.670465 0.004664 0.394007
O O19 0.500000 0.000000 0.500000
O O20 0.169100 0.250000 0.805889
O O21 0.000000 0.000000 0.000000
#
# Coordination Sequence:
#
# PCOD9162887 Si02
#       8
#     4   4   4   4   4   4   4   4
#     4   9  15  25  46  77 110 142 180 226 275 325
#     4   8  14  27  47  73 108 147 182 222 272 326
#     4   8  17  33  55  82 110 143 184 226 272 328
#     4  12  25  40  58  83 113 147 187 232 280 334
#     4  11  22  39  61  83 111 149 188 228 279 336
#     4  10  20  36  56  81 112 146 185 231 279 330
#     4  11  23  41  64  86 111 146 188 229 272 328
#     4  11  25  42  61  87 116 146 184 228 279 330
#
# _framework density 22.174526
#
# number of rings (size 3 to 8) (size 9 to 14) (size 15 to 20)
#    0.000    2.000    1.250    3.750    1.750    2.000 
#    0.000    5.625    0.000    0.750    0.000    0.000 
#    0.000    0.000    0.000    0.000    0.000    0.000 
#
# Total GULP energy -178543.329687 kJ/mol
# GULP energy per Si atom -5579.479053 kJ/mol
# Density = 2.212406 g / cm^3
# Si number density = 22.174526 Si / 1000 Ang^3
#
#
#
# Elastic Constant Matrix: (Units=GPa)
#
#
# Indices 1 2 3 4 5 6 
#
# 1 93.8128 -3.3134 -7.1133 0.0000 -9.0191 0.0000
# 2 -3.3134 22.3782 -2.2901 0.0000 1.1655 0.0000
# 3 -7.1133 -2.2901 18.7116 0.0000 -13.5083 0.0000
# 4 0.0000 0.0000 0.0000 12.7809 0.0000 1.6516
# 5 -9.0191 1.1655 -13.5083 0.0000 20.9017 0.0000
# 6 0.0000 0.0000 0.0000 1.6516 0.0000 32.7688
#
#
#
# Elastic Compliance Matrix: (Units=1/GPa)
#
#
# Indices 1 2 3 4 5 6 
#
# 1 0.013871 0.003018 0.018449 0.000000 0.017740 0.000000
# 2 0.003018 0.045954 0.010989 0.000000 0.005841 0.000000
# 3 0.018449 0.010989 0.125798 0.000000 0.088648 0.000000
# 4 0.000000 0.000000 0.000000 0.078755 0.000000 -0.003969
# 5 0.017740 0.005841 0.088648 0.000000 0.112463 0.000000
# 6 0.000000 0.000000 0.000000 -0.003969 0.000000 0.030717
#
#
# Mechanical properties :
#
#
# Convention : Reuss Voigt Hill
#
# Bulk Modulus (GPa) = 3.99149 12.16323 8.07736
# Shear Modulus (GPa) = 11.73276 23.13157 17.43217
#
# Velocity S-wave (km/s) = 2.30273 3.23330 2.80685
# Velocity P-wave (km/s) = 2.97894 4.40864 3.76233
#
# Compressibility (1/GPa) = 0.25053321
#
# Stress axis : x y z
#
# Youngs Moduli (GPa) = 72.09525 21.76111 7.94925
#
# Poissons Ratio (x) = -0.06567 -0.14666
# Poissons Ratio (y) = -0.21757 -0.08735
# Poissons Ratio (z) = -1.33010 -0.23912
#
# Static dielectric constant tensor:
#      x y z
#    x 1.909700 0.000000 0.026710 
#    y 0.000000 1.756950 0.000000 
#    z 0.026710 0.000000 1.842530 
# 
# From -- ./inp_files/63273.got.cif
#   From: 2010.05.17/outbox.cif.g08.bks.cpg/sg11_32_cif.got.tgz:63273.got - 2010.06.03 12:22:45.
