data_PCOD9162766
_publ_section_title
;
Structure prediction by ZEFSAII (Michael W. Deem and Ramdas Pophale) SiO2 
 PCOD9162766
Probable space group: P 21/M
;
_chemical_formula_sum "Si O2"
_cell_formula_units_Z 28
_cell_length_a 10.029194
_cell_length_b 8.722195
_cell_length_c 28.441695
_cell_angle_alpha 90.000000
_cell_angle_beta 37.783170
_cell_angle_gamma 90.000000
_cell_volume 1524.324420
_symmetry_space_group_name_H-M "P 21/M"
_symmetry_group_IT_number 11
_symmetry_cell_setting 'monoclinic'
loop_
_space_group_symop_operation_xyz
x,y,z
-x,1/2+y,-z
-x,-y,-z
x,1/2-y,z
loop_
_atom_site_type_symbol
_atom_site_label
_atom_site_fract_x
_atom_site_fract_y
_atom_site_fract_z
Si Si1 0.024015 0.568988 0.196386
Si Si2 0.671827 0.431573 0.798506
Si Si3 0.723857 0.567520 0.957274
Si Si4 0.051027 0.933399 0.630497
Si Si5 0.226617 0.567681 0.953575
Si Si6 0.653032 0.065040 0.364244
Si Si7 0.854051 0.566018 0.498240
O O1 0.011734 0.750000 0.189683
O O2 0.213646 0.545395 0.182521
O O3 0.089174 0.476716 0.131930
O O4 0.805851 0.510799 0.282389
O O5 0.667241 0.250000 0.790632
O O6 0.431270 0.498972 0.868344
O O7 0.828919 0.513555 0.717540
O O8 0.709209 0.750000 0.967147
O O9 0.500000 0.500000 0.000000
O O10 0.755150 0.486159 0.997963
O O11 0.055495 0.750000 0.624694
O O12 0.244941 0.978691 0.613116
O O13 0.071605 0.007937 0.573713
O O14 0.230485 0.750000 0.948766
O O15 0.000000 0.500000 0.000000
O O16 0.671283 0.250000 0.355838
O O17 0.401787 0.021949 0.427360
O O18 0.866720 0.750000 0.496244
O O19 0.000000 0.500000 0.500000
#
# Coordination Sequence:
#
# PCOD9162766 Si02
#       7
#     4   4   4   4   4   4   4
#     4  10  20  35  60  92 122 153 197 249 301 351
#     4  10  20  37  61  89 122 156 198 247 297 355
#     4  12  23  38  62  90 122 160 204 250 301 357
#     4  10  20  37  63  91 117 151 196 244 298 355
#     4  12  25  42  62  87 122 162 204 251 303 360
#     4   9  20  38  61  88 119 153 195 245 296 353
#     4  11  23  40  60  86 121 158 196 240 296 357
#
# _framework density 18.368791999999999
#
# number of rings (size 3 to 8) (size 9 to 14) (size 15 to 20)
#    0.000    1.429    1.429    4.714    0.000    2.857 
#    2.571    0.000    0.000    0.000    0.000    0.000 
#    0.000    0.000    0.000    0.000    0.000    0.000 
#
# Total GULP energy -156475.267723 kJ/mol
# GULP energy per Si atom -5588.402419 kJ/mol
# Density = 1.832698 g / cm^3
# Si number density = 18.368792 Si / 1000 Ang^3
#
#
#
# Elastic Constant Matrix: (Units=GPa)
#
#
# Indices 1 2 3 4 5 6 
#
# 1 119.9544 31.2365 70.4340 0.0000 -17.9522 0.0000
# 2 31.2365 61.6367 32.4440 0.0000 -13.7766 0.0000
# 3 70.4340 32.4440 120.4451 0.0000 -16.5405 0.0000
# 4 0.0000 0.0000 0.0000 38.2309 0.0000 2.3223
# 5 -17.9522 -13.7766 -16.5405 0.0000 26.6864 0.0000
# 6 0.0000 0.0000 0.0000 2.3223 0.0000 29.7715
#
#
#
# Elastic Compliance Matrix: (Units=1/GPa)
#
#
# Indices 1 2 3 4 5 6 
#
# 1 0.013463 -0.002484 -0.006707 0.000000 0.003617 0.000000
# 2 -0.002484 0.020726 -0.003160 0.000000 0.007071 0.000000
# 3 -0.006707 -0.003160 0.013370 0.000000 0.002144 0.000000
# 4 0.000000 0.000000 0.000000 0.026281 0.000000 -0.002050
# 5 0.003617 0.007071 0.002144 0.000000 0.044885 0.000000
# 6 0.000000 0.000000 0.000000 -0.002050 0.000000 0.033749
#
#
# Mechanical properties :
#
#
# Convention : Reuss Voigt Hill
#
# Bulk Modulus (GPa) = 43.74720 63.36281 53.55501
# Shear Modulus (GPa) = 27.05706 30.13253 28.59479
#
# Velocity S-wave (km/s) = 3.84212 4.05460 3.94979
# Velocity P-wave (km/s) = 6.59926 7.51595 7.07247
#
# Compressibility (1/GPa) = 0.02285860
#
# Stress axis : x y z
#
# Youngs Moduli (GPa) = 74.27870 48.24787 74.79344
#
# Poissons Ratio (x) = 0.11984 0.50164
# Poissons Ratio (y) = 0.18450 0.23631
# Poissons Ratio (z) = 0.49819 0.15244
#
# Static dielectric constant tensor:
#      x y z
#    x 1.601420 0.000000 -0.005020 
#    y 0.000000 1.596050 0.000000 
#    z -0.005020 0.000000 1.618610 
# 
# From -- ./inp_files/70801.got.cif
#   From: 2010.05.17/outbox.cif.g08.bks.cpg/sg11_36_cif.got.tgz:70801.got - 2010.06.03 12:22:45.
