data_PCOD9162371
_publ_section_title
;
Structure prediction by ZEFSAII (Michael W. Deem and Ramdas Pophale) SiO2 
 PCOD9162371
Probable space group: P 21/M
;
_chemical_formula_sum "Si O2"
_cell_formula_units_Z 28
_cell_length_a 14.966589
_cell_length_b 7.377331
_cell_length_c 19.999439
_cell_angle_alpha 90.000000
_cell_angle_beta 28.522650
_cell_angle_gamma 90.000000
_cell_volume 1054.432712
_symmetry_space_group_name_H-M "P 21/M"
_symmetry_group_IT_number 11
_symmetry_cell_setting 'monoclinic'
loop_
_space_group_symop_operation_xyz
x,y,z
-x,1/2+y,-z
-x,-y,-z
x,1/2-y,z
loop_
_atom_site_type_symbol
_atom_site_label
_atom_site_fract_x
_atom_site_fract_y
_atom_site_fract_z
Si Si1 0.415165 0.464211 0.170975
Si Si2 0.848396 0.535196 0.543176
Si Si3 0.238074 0.468804 0.980885
Si Si4 0.210837 0.527567 0.594201
Si Si5 0.438060 0.459468 0.716928
Si Si6 0.191407 0.531414 0.751717
Si Si7 0.136087 0.047129 0.242984
O O1 0.372375 0.250000 0.197485
O O2 0.330315 0.534061 0.297420
O O3 0.636280 0.484766 0.036167
O O4 0.304661 0.535321 0.177489
O O5 0.833364 0.750000 0.539839
O O6 0.000000 0.500000 0.500000
O O7 0.956780 0.441623 0.411589
O O8 0.233260 0.250000 0.983083
O O9 0.344756 0.539433 0.844261
O O10 0.024727 0.526713 0.111458
O O11 0.205444 0.750000 0.597750
O O12 0.364989 0.463193 0.439122
O O13 0.279503 0.475104 0.622943
O O14 0.994682 0.463086 0.728513
O O15 0.477989 0.250000 0.705623
O O16 0.296052 0.464828 0.748395
O O17 0.195459 0.750000 0.753054
O O18 0.195273 0.250000 0.184163
#
# Coordination Sequence:
#
# PCOD9162371 Si02
#       7
#     4   4   4   4   4   4   4
#     4   9  18  30  47  73 103 136 174 211 251 297
#     4   9  16  26  42  68 100 133 169 211 256 299
#     4  10  21  35  53  77 105 137 174 212 258 311
#     4   9  18  34  56  78 104 138 174 209 257 316
#     4  10  20  35  56  80 102 132 171 213 262 314
#     4  10  21  37  55  77 104 136 172 215 263 311
#     4   9  17  31  50  73 103 140 176 211 252 306
#
# _framework density 26.554563000000002
#
# number of rings (size 3 to 8) (size 9 to 14) (size 15 to 20)
#    0.000    2.571    0.000    3.000    0.000    5.143 
#    0.000    2.143    0.000    0.000    0.000    0.000 
#    0.000    0.000    0.000    0.000    0.000    0.000 
#
# Total GULP energy -156250.903991 kJ/mol
# GULP energy per Si atom -5580.389428 kJ/mol
# Density = 2.649412 g / cm^3
# Si number density = 26.554563 Si / 1000 Ang^3
#
#
#
# Elastic Constant Matrix: (Units=GPa)
#
#
# Indices 1 2 3 4 5 6 
#
# 1 107.5313 29.9597 21.2926 0.0000 -23.5892 0.0000
# 2 29.9597 106.3596 4.0416 0.0000 -4.0726 0.0000
# 3 21.2926 4.0416 109.8155 0.0000 -25.4904 0.0000
# 4 0.0000 0.0000 0.0000 4.6822 0.0000 -8.5817
# 5 -23.5892 -4.0726 -25.4904 0.0000 39.8003 0.0000
# 6 0.0000 0.0000 0.0000 -8.5817 0.0000 26.6785
#
#
#
# Elastic Compliance Matrix: (Units=1/GPa)
#
#
# Indices 1 2 3 4 5 6 
#
# 1 0.011624 -0.003013 -0.000723 0.000000 0.006118 0.000000
# 2 -0.003013 0.010222 0.000043 0.000000 -0.000712 0.000000
# 3 -0.000723 0.000043 0.010744 0.000000 0.006457 0.000000
# 4 0.000000 0.000000 0.000000 0.520367 0.000000 0.167387
# 5 0.006118 -0.000712 0.006457 0.000000 0.032814 0.000000
# 6 0.000000 0.000000 0.000000 0.167387 0.000000 0.091327
#
#
# Mechanical properties :
#
#
# Convention : Reuss Voigt Hill
#
# Bulk Modulus (GPa) = 39.67641 48.25493 43.96567
# Shear Modulus (GPa) = 7.21621 32.12637 19.67129
#
# Velocity S-wave (km/s) = 1.65027 3.48203 2.72469
# Velocity P-wave (km/s) = 4.31336 5.86323 5.14697
#
# Compressibility (1/GPa) = 0.02520389
#
# Stress axis : x y z
#
# Youngs Moduli (GPa) = 86.02669 97.83037 93.07948
#
# Poissons Ratio (x) = 0.29473 0.06728
# Poissons Ratio (y) = 0.25917 -0.00396
# Poissons Ratio (z) = 0.06218 -0.00417
#
# Static dielectric constant tensor:
#      x y z
#    x 1.601920 0.000000 0.096090 
#    y 0.000000 1.770880 0.000000 
#    z 0.096090 0.000000 2.221430 
# 
# From -- ./inp_files/65374.got.cif
#   From: 2010.05.17/outbox.cif.g08.bks.cpg/sg11_33_cif.got.tgz:65374.got - 2010.06.03 12:22:45.
