data_PCOD9162191
_publ_section_title
;
Structure prediction by ZEFSAII (Michael W. Deem and Ramdas Pophale) SiO2 
 PCOD9162191
Probable space group: P 21/M
;
_chemical_formula_sum "Si O2"
_cell_formula_units_Z 28
_cell_length_a 15.293558
_cell_length_b 7.581225
_cell_length_c 11.796380
_cell_angle_alpha 90.000000
_cell_angle_beta 111.333663
_cell_angle_gamma 90.000000
_cell_volume 1273.999072
_symmetry_space_group_name_H-M "P 21/M"
_symmetry_group_IT_number 11
_symmetry_cell_setting 'monoclinic'
loop_
_space_group_symop_operation_xyz
x,y,z
-x,1/2+y,-z
-x,-y,-z
x,1/2-y,z
loop_
_atom_site_type_symbol
_atom_site_label
_atom_site_fract_x
_atom_site_fract_y
_atom_site_fract_z
Si Si1 0.610764 0.040340 0.052730
Si Si2 0.855091 0.959458 0.872613
Si Si3 0.703897 0.034132 0.333214
Si Si4 0.528471 0.038471 0.385657
Si Si5 0.090746 0.961544 0.617813
Si Si6 0.041530 0.536079 0.845460
Si Si7 0.345371 0.456495 0.176528
O O1 0.621991 0.250000 0.054377
O O2 0.659728 0.979738 0.191351
O O3 0.500000 0.000000 0.000000
O O4 0.656057 0.967885 0.959709
O O5 0.849319 0.750000 0.849609
O O6 0.750081 0.034165 0.816771
O O7 0.936622 0.028112 0.828336
O O8 0.892855 0.984588 0.018404
O O9 0.705215 0.250000 0.336218
O O10 0.630366 0.973109 0.393885
O O11 0.811345 0.973374 0.389153
O O12 0.532093 0.250000 0.372583
O O13 0.443782 0.968271 0.267185
O O14 0.500000 0.000000 0.500000
O O15 0.098630 0.750000 0.629533
O O16 0.076064 0.026931 0.739616
O O17 0.000000 0.000000 0.500000
O O18 0.039887 0.750000 0.842768
O O19 0.346471 0.250000 0.207734
#
# Coordination Sequence:
#
# PCOD9162191 Si02
#       7
#     4   4   4   4   4   4   4
#     4  11  20  34  58  85 112 142 178 219 270 328
#     4   9  18  32  54  80 107 139 176 223 274 321
#     4   9  19  37  57  78 110 146 174 219 281 328
#     4  10  21  38  55  74 106 144 182 221 268 322
#     4  10  21  37  57  79 106 143 186 226 269 320
#     4   9  18  34  53  77 108 141 178 222 275 329
#     4  10  20  35  53  78 111 144 177 221 274 323
#
# _framework density 21.978038999999999
#
# number of rings (size 3 to 8) (size 9 to 14) (size 15 to 20)
#    0.000    2.286    1.429    1.286    0.000    4.000 
#    0.000    3.571    0.000    0.000    0.000    0.000 
#    0.000    0.000    0.000    0.000    0.000    0.000 
#
# Total GULP energy -156362.790373 kJ/mol
# GULP energy per Si atom -5584.385370 kJ/mol
# Density = 2.192802 g / cm^3
# Si number density = 21.978039 Si / 1000 Ang^3
#
#
#
# Elastic Constant Matrix: (Units=GPa)
#
#
# Indices 1 2 3 4 5 6 
#
# 1 231.3649 8.9559 67.3165 0.0000 5.2840 0.0000
# 2 8.9559 48.9060 -5.8753 0.0000 2.6660 0.0000
# 3 67.3165 -5.8753 66.0553 0.0000 -8.3405 0.0000
# 4 0.0000 0.0000 0.0000 22.7395 0.0000 -2.3037
# 5 5.2840 2.6660 -8.3405 0.0000 32.5101 0.0000
# 6 0.0000 0.0000 0.0000 -2.3037 0.0000 11.5778
#
#
#
# Elastic Compliance Matrix: (Units=1/GPa)
#
#
# Indices 1 2 3 4 5 6 
#
# 1 0.006553 -0.001914 -0.007196 0.000000 -0.002754 0.000000
# 2 -0.001914 0.021278 0.003785 0.000000 -0.000463 0.000000
# 3 -0.007196 0.003785 0.023685 0.000000 0.006935 0.000000
# 4 0.000000 0.000000 0.000000 0.044881 0.000000 0.008930
# 5 -0.002754 -0.000463 0.006935 0.000000 0.033025 0.000000
# 6 0.000000 0.000000 0.000000 0.008930 0.000000 0.088149
#
#
# Mechanical properties :
#
#
# Convention : Reuss Voigt Hill
#
# Bulk Modulus (GPa) = 24.47098 54.12447 39.29772
# Shear Modulus (GPa) = 20.67464 31.76076 26.21770
#
# Velocity S-wave (km/s) = 3.07040 3.80559 3.45759
# Velocity P-wave (km/s) = 4.87117 6.63250 5.81886
#
# Compressibility (1/GPa) = 0.04086474
#
# Stress axis : x y z
#
# Youngs Moduli (GPa) = 152.60427 46.99711 42.22148
#
# Poissons Ratio (x) = 0.08997 0.30383
# Poissons Ratio (y) = 0.29214 -0.15981
# Poissons Ratio (z) = 1.09815 -0.17789
#
# Static dielectric constant tensor:
#      x y z
#    x 1.848530 0.000000 0.001140 
#    y 0.000000 1.714890 0.000000 
#    z 0.001140 0.000000 1.765570 
# 
# From -- ./inp_files/37652.got.cif
#   From: 2010.05.17/outbox.cif.g08.bks.cpg/sg11_19_cif.got.tgz:37652.got - 2010.06.03 12:22:45.
