data_PCOD9162220
_publ_section_title
;
Structure prediction by ZEFSAII (Michael W. Deem and Ramdas Pophale) SiO2 
 PCOD9162220
Probable space group: P 21/M
;
_chemical_formula_sum "Si O2"
_cell_formula_units_Z 32
_cell_length_a 15.377746
_cell_length_b 8.967035
_cell_length_c 27.073654
_cell_angle_alpha 90.000000
_cell_angle_beta 153.373756
_cell_angle_gamma 90.000000
_cell_volume 1673.130633
_symmetry_space_group_name_H-M "P 21/M"
_symmetry_group_IT_number 11
_symmetry_cell_setting 'monoclinic'
loop_
_space_group_symop_operation_xyz
x,y,z
-x,1/2+y,-z
-x,-y,-z
x,1/2-y,z
loop_
_atom_site_type_symbol
_atom_site_label
_atom_site_fract_x
_atom_site_fract_y
_atom_site_fract_z
Si Si1 0.299905 0.920811 0.839520
Si Si2 0.891678 0.578132 0.489430
Si Si3 0.458220 0.911052 0.278504
Si Si4 0.696331 0.079225 0.039804
Si Si5 0.101469 0.421925 0.097322
Si Si6 0.488809 0.419160 0.576063
Si Si7 0.904445 0.071949 0.603608
Si Si8 0.082767 0.570048 0.195482
O O1 0.288130 0.750000 0.815499
O O2 0.313882 0.916323 0.906005
O O3 0.103531 0.008462 0.727164
O O4 0.497778 0.999522 0.921464
O O5 0.953486 0.750000 0.528936
O O6 0.666231 0.581784 0.359981
O O7 0.904212 0.488736 0.547157
O O8 0.000000 0.500000 0.500000
O O9 0.363808 0.750000 0.218237
O O10 0.494876 0.908982 0.355961
O O11 0.328199 0.051927 0.201356
O O12 0.705602 0.250000 0.026254
O O13 0.892309 0.992296 0.125324
O O14 0.050065 0.250000 0.076308
O O15 0.070945 0.507297 0.133598
O O16 0.000000 0.500000 0.000000
O O17 0.464235 0.250000 0.544358
O O18 0.291484 0.511930 0.468495
O O19 0.706910 0.475960 0.673977
O O20 0.902301 0.250000 0.603418
O O21 0.083529 0.750000 0.195213
#
# Coordination Sequence:
#
# PCOD9162220 Si02
#       8
#     4   4   4   4   4   4   4   4
#     4  10  21  39  61  83 113 151 188 229 282 341
#     4  10  20  35  54  77 108 143 181 225 276 330
#     4   8  16  32  51  71  99 136 175 216 266 323
#     4  10  21  38  61  87 113 145 187 234 284 337
#     4  11  21  34  53  77 107 142 183 228 274 328
#     4   8  16  32  54  78 107 143 178 217 269 327
#     4  11  21  34  56  84 112 144 188 233 278 333
#     4  10  20  36  58  83 112 146 185 227 279 339
#
# _framework density 19.125821999999999
#
# number of rings (size 3 to 8) (size 9 to 14) (size 15 to 20)
#    0.000    2.250    0.000    5.250    0.000    7.000 
#    2.250    0.625    0.000    0.000    0.000    0.000 
#    0.000    0.000    0.000    0.000    0.000    0.000 
#
# Total GULP energy -178323.863913 kJ/mol
# GULP energy per Si atom -5572.620747 kJ/mol
# Density = 1.908229 g / cm^3
# Si number density = 19.125822 Si / 1000 Ang^3
#
#
#
# Elastic Constant Matrix: (Units=GPa)
#
#
# Indices 1 2 3 4 5 6 
#
# 1 43.5659 24.5609 21.7407 0.0000 30.0847 0.0000
# 2 24.5609 139.6421 58.7033 0.0000 22.7124 0.0000
# 3 21.7407 58.7033 104.4020 0.0000 32.9986 0.0000
# 4 0.0000 0.0000 0.0000 31.0888 0.0000 4.7671
# 5 30.0847 22.7124 32.9986 0.0000 34.1590 0.0000
# 6 0.0000 0.0000 0.0000 4.7671 0.0000 26.2482
#
#
#
# Elastic Compliance Matrix: (Units=1/GPa)
#
#
# Indices 1 2 3 4 5 6 
#
# 1 0.063756 -0.004978 0.008960 0.000000 -0.061497 0.000000
# 2 -0.004978 0.009831 -0.005486 0.000000 0.003147 0.000000
# 3 0.008960 -0.005486 0.017474 0.000000 -0.021124 0.000000
# 4 0.000000 0.000000 0.000000 0.033087 0.000000 -0.006009
# 5 -0.061497 0.003147 -0.021124 0.000000 0.101751 0.000000
# 6 0.000000 0.000000 0.000000 -0.006009 0.000000 0.039189
#
#
# Mechanical properties :
#
#
# Convention : Reuss Voigt Hill
#
# Bulk Modulus (GPa) = 11.35678 55.29109 33.32394
# Shear Modulus (GPa) = 16.80972 30.47288 23.64130
#
# Velocity S-wave (km/s) = 2.96784 3.99593 3.51963
# Velocity P-wave (km/s) = 4.20654 7.08956 5.82910
#
# Compressibility (1/GPa) = 0.08805314
#
# Stress axis : x y z
#
# Youngs Moduli (GPa) = 15.68481 101.71871 57.22834
#
# Poissons Ratio (x) = 0.50636 -0.51277
# Poissons Ratio (y) = 0.07808 0.31395
# Poissons Ratio (z) = -0.14054 0.55802
#
# Static dielectric constant tensor:
#      x y z
#    x 1.667400 0.000000 0.029660 
#    y 0.000000 1.670460 0.000000 
#    z 0.029660 0.000000 1.705010 
# 
# From -- ./inp_files/71636.got.cif
#   From: 2010.05.17/outbox.cif.g08.bks.cpg/sg11_36_cif.got.tgz:71636.got - 2010.06.03 12:22:45.
