data_PCOD9162073
_publ_section_title
;
Structure prediction by ZEFSAII (Michael W. Deem and Ramdas Pophale) SiO2 
 PCOD9162073
Probable space group: P 21/M
;
_chemical_formula_sum "Si O2"
_cell_formula_units_Z 28
_cell_length_a 17.727745
_cell_length_b 8.568978
_cell_length_c 22.873407
_cell_angle_alpha 90.000000
_cell_angle_beta 153.701819
_cell_angle_gamma 90.000000
_cell_volume 1539.426632
_symmetry_space_group_name_H-M "P 21/M"
_symmetry_group_IT_number 11
_symmetry_cell_setting 'monoclinic'
loop_
_space_group_symop_operation_xyz
x,y,z
-x,1/2+y,-z
-x,-y,-z
x,1/2-y,z
loop_
_atom_site_type_symbol
_atom_site_label
_atom_site_fract_x
_atom_site_fract_y
_atom_site_fract_z
Si Si1 0.615286 0.563078 0.381461
Si Si2 0.274285 0.436590 0.194514
Si Si3 0.525551 0.939774 0.186616
Si Si4 0.864705 0.938713 0.358908
Si Si5 0.144231 0.562775 0.891292
Si Si6 0.990967 0.436789 0.901639
Si Si7 0.011149 0.936997 0.335871
O O1 0.630940 0.750000 0.392579
O O2 0.457408 0.511830 0.311654
O O3 0.571456 0.511560 0.284541
O O4 0.793020 0.489542 0.524182
O O5 0.288768 0.250000 0.204663
O O6 0.175990 0.492905 0.183910
O O7 0.150449 0.483133 0.054265
O O8 0.523178 0.750000 0.184937
O O9 0.676855 0.989843 0.248620
O O10 0.338109 0.992432 0.037766
O O11 0.868871 0.750000 0.363231
O O12 0.918974 0.989213 0.331844
O O13 0.000000 0.000000 0.500000
O O14 0.142163 0.750000 0.892427
O O15 0.028462 0.497590 0.863205
O O16 0.077589 0.507287 0.782613
O O17 0.979698 0.250000 0.894280
O O18 0.002838 0.750000 0.327192
#
# Coordination Sequence:
#
# PCOD9162073 Si02
#       7
#     4   4   4   4   4   4   4
#     4  11  20  36  61  87 116 153 197 242 289 344
#     4  10  20  34  57  89 121 151 192 240 288 341
#     4   9  19  35  59  86 114 148 194 243 287 340
#     4  10  20  37  59  85 116 150 193 244 292 341
#     4  11  22  39  60  84 117 158 197 238 293 350
#     4  10  20  35  57  86 120 154 192 238 289 342
#     4  11  24  39  57  85 121 156 193 242 296 351
#
# _framework density 18.188589
#
# number of rings (size 3 to 8) (size 9 to 14) (size 15 to 20)
#    0.000    1.714    2.857    2.143    0.000    2.286 
#    0.000    2.143    0.000    0.000    0.000    0.000 
#    0.000    0.000    0.000    0.000    0.000    0.000 
#
# Total GULP energy -156412.008582 kJ/mol
# GULP energy per Si atom -5586.143164 kJ/mol
# Density = 1.814719 g / cm^3
# Si number density = 18.188589 Si / 1000 Ang^3
#
#
#
# Elastic Constant Matrix: (Units=GPa)
#
#
# Indices 1 2 3 4 5 6 
#
# 1 126.5977 3.2573 40.1342 0.0000 1.7246 0.0000
# 2 3.2573 18.2316 -5.2100 0.0000 -3.5026 0.0000
# 3 40.1342 -5.2100 80.5371 0.0000 -2.6780 0.0000
# 4 0.0000 0.0000 0.0000 21.8713 0.0000 -2.9614
# 5 1.7246 -3.5026 -2.6780 0.0000 34.3758 0.0000
# 6 0.0000 0.0000 0.0000 -2.9614 0.0000 22.9114
#
#
#
# Elastic Compliance Matrix: (Units=1/GPa)
#
#
# Indices 1 2 3 4 5 6 
#
# 1 0.009602 -0.003392 -0.005045 0.000000 -0.001220 0.000000
# 2 -0.003392 0.058339 0.005682 0.000000 0.006557 0.000000
# 3 -0.005045 0.005682 0.015366 0.000000 0.002029 0.000000
# 4 0.000000 0.000000 0.000000 0.046537 0.000000 0.006015
# 5 -0.001220 0.006557 0.002029 0.000000 0.029978 0.000000
# 6 0.000000 0.000000 0.000000 0.006015 0.000000 0.044424
#
#
# Mechanical properties :
#
#
# Convention : Reuss Voigt Hill
#
# Bulk Modulus (GPa) = 12.85375 33.52549 23.18962
# Shear Modulus (GPa) = 21.21451 28.31069 24.76260
#
# Velocity S-wave (km/s) = 3.41891 3.94954 3.69377
# Velocity P-wave (km/s) = 4.76104 6.26663 5.56499
#
# Compressibility (1/GPa) = 0.07779833
#
# Stress axis : x y z
#
# Youngs Moduli (GPa) = 104.14110 17.14108 65.07931
#
# Poissons Ratio (x) = 0.05814 0.32834
# Poissons Ratio (y) = 0.35322 -0.36980
# Poissons Ratio (z) = 0.52541 -0.09740
#
# Static dielectric constant tensor:
#      x y z
#    x 1.611950 0.000000 0.009190 
#    y 0.000000 1.608360 0.000000 
#    z 0.009190 0.000000 1.597390 
# 
# From -- ./inp_files/60842.got.cif
#   From: 2010.05.17/outbox.cif.g08.bks.cpg/sg11_31_cif.got.tgz:60842.got - 2010.06.03 12:22:45.
