data_PCOD9162772
_publ_section_title
;
Structure prediction by ZEFSAII (Michael W. Deem and Ramdas Pophale) SiO2 
 PCOD9162772
Probable space group: P 21/M
;
_chemical_formula_sum "Si O2"
_cell_formula_units_Z 32
_cell_length_a 14.420344
_cell_length_b 14.325509
_cell_length_c 12.998488
_cell_angle_alpha 90.000000
_cell_angle_beta 147.830390
_cell_angle_gamma 90.000000
_cell_volume 1429.680183
_symmetry_space_group_name_H-M "P 21/M"
_symmetry_group_IT_number 11
_symmetry_cell_setting 'monoclinic'
loop_
_space_group_symop_operation_xyz
x,y,z
-x,1/2+y,-z
-x,-y,-z
x,1/2-y,z
loop_
_atom_site_type_symbol
_atom_site_label
_atom_site_fract_x
_atom_site_fract_y
_atom_site_fract_z
Si Si1 0.882482 0.914139 0.353497
Si Si2 0.825582 0.147977 0.500574
Si Si3 0.721969 0.501153 0.999935
Si Si4 0.382382 0.141463 0.504601
Si Si5 0.408051 0.362200 0.300162
Si Si6 0.656806 0.951093 0.325192
Si Si7 0.807409 0.140984 0.927464
Si Si8 0.182665 0.861488 0.284746
O O1 0.755197 0.894290 0.328691
O O2 0.025665 0.844581 0.444575
O O3 0.783636 0.947913 0.159418
O O4 0.000000 0.000000 0.500000
O O5 0.738083 0.250000 0.428997
O O6 0.907414 0.123017 0.689981
O O7 0.704658 0.060634 0.359360
O O8 0.669155 0.576280 0.863107
O O9 0.550361 0.444611 0.874990
O O10 0.845633 0.426268 0.058961
O O11 0.336533 0.250000 0.472984
O O12 0.334768 0.112293 0.344196
O O13 0.299482 0.083798 0.519078
O O14 0.594763 0.136630 0.712691
O O15 0.386521 0.250000 0.266058
O O16 0.614578 0.384122 0.502418
O O17 0.853216 0.250000 0.988220
O O18 0.877882 0.104099 0.883489
O O19 0.178517 0.750000 0.264644
#
# Coordination Sequence:
#
# PCOD9162772 Si02
#       8
#     4   4   4   4   4   4   4   4
#     4  10  24  42  52  73 110 153 195 239 280 334
#     4  10  20  36  57  80 111 153 188 223 279 342
#     4  11  20  33  60  85 110 146 186 242 296 322
#     4   8  16  30  52  86 122 149 173 223 291 345
#     4   9  17  29  51  89 123 141 176 229 287 347
#     4  10  20  35  61  83 112 142 199 239 276 329
#     4   8  16  29  50  84 117 142 178 226 282 347
#     4   8  14  28  51  80 114 145 176 218 271 342
#
# _framework density 22.382629000000001
#
# number of rings (size 3 to 8) (size 9 to 14) (size 15 to 20)
#    0.000    2.750    1.250    1.875    1.750    2.500 
#    0.000    3.125    0.000    5.250    0.000    0.000 
#    0.000    0.000    0.000    0.000    0.000    0.000 
#
# Total GULP energy -178478.036474 kJ/mol
# GULP energy per Si atom -5577.438640 kJ/mol
# Density = 2.233168 g / cm^3
# Si number density = 22.382629 Si / 1000 Ang^3
#
#
#
# Elastic Constant Matrix: (Units=GPa)
#
#
# Indices 1 2 3 4 5 6 
#
# 1 60.7313 39.7130 40.7543 0.0000 -43.0134 0.0000
# 2 39.7130 65.8520 -1.2997 0.0000 -8.9508 0.0000
# 3 40.7543 -1.2997 22.3531 0.0000 -6.3816 0.0000
# 4 0.0000 0.0000 0.0000 -6.2221 0.0000 -6.4342
# 5 -43.0134 -8.9508 -6.3816 0.0000 23.3153 0.0000
# 6 0.0000 0.0000 0.0000 -6.4342 0.0000 27.8728
#
#
#
# Elastic Compliance Matrix: (Units=1/GPa)
#
#
# Indices 1 2 3 4 5 6 
#
# 1 -0.013790 0.006361 0.020552 0.000000 -0.017374 0.000000
# 2 0.006361 0.013265 -0.006532 0.000000 0.015039 0.000000
# 3 0.020552 -0.006532 0.018435 0.000000 0.040454 0.000000
# 4 0.000000 0.000000 0.000000 -0.129745 0.000000 -0.029951
# 5 -0.017374 0.015039 0.040454 0.000000 0.027684 0.000000
# 6 0.000000 0.000000 0.000000 -0.029951 0.000000 0.028963
#
#
# Mechanical properties :
#
#
# Convention : Reuss Voigt Hill
#
# Bulk Modulus (GPa) = 17.04397 34.14128 25.59263
# Shear Modulus (GPa) = -65.45167 13.64443 -25.90362
#
# Velocity S-wave (km/s) = -5.41347 2.47168 -3.40562
# Velocity P-wave (km/s) = 5.60739 4.84068 2.00133
#
# Compressibility (1/GPa) = 0.05867178
#
# Stress axis : x y z
#
# Youngs Moduli (GPa) = -72.51476 75.38659 54.24422
#
# Poissons Ratio (x) = -0.47950 -1.11484
# Poissons Ratio (y) = 0.46123 0.35431
# Poissons Ratio (z) = 1.49034 0.49241
#
# Static dielectric constant tensor:
#      x y z
#    x 1.855220 0.000000 0.023200 
#    y 0.000000 1.849300 0.000000 
#    z 0.023200 0.000000 1.833690 
# 
# From -- ./inp_files/39683.got.cif
#   From: 2010.05.17/outbox.cif.g08.bks.cpg/sg11_20_cif.got.tgz:39683.got - 2010.06.03 12:22:45.
