data_PCOD9162415
_publ_section_title
;
Structure prediction by ZEFSAII (Michael W. Deem and Ramdas Pophale) SiO2 
 PCOD9162415
Probable space group: P 21/M
;
_chemical_formula_sum "Si O2"
_cell_formula_units_Z 28
_cell_length_a 16.195329
_cell_length_b 8.843119
_cell_length_c 21.364599
_cell_angle_alpha 90.000000
_cell_angle_beta 151.812468
_cell_angle_gamma 90.000000
_cell_volume 1445.313841
_symmetry_space_group_name_H-M "P 21/M"
_symmetry_group_IT_number 11
_symmetry_cell_setting 'monoclinic'
loop_
_space_group_symop_operation_xyz
x,y,z
-x,1/2+y,-z
-x,-y,-z
x,1/2-y,z
loop_
_atom_site_type_symbol
_atom_site_label
_atom_site_fract_x
_atom_site_fract_y
_atom_site_fract_z
Si Si1 0.333680 0.067775 0.563545
Si Si2 0.828840 0.569698 0.417150
Si Si3 0.115531 0.930653 0.311280
Si Si4 0.393917 0.571389 0.834969
Si Si5 0.940716 0.930792 0.861686
Si Si6 0.264790 0.931936 0.159231
Si Si7 0.240299 0.430333 0.854467
O O1 0.323947 0.250000 0.552254
O O2 0.208010 0.018588 0.536550
O O3 0.533048 0.027216 0.713402
O O4 0.271716 0.995722 0.457517
O O5 0.844494 0.750000 0.427495
O O6 0.666240 0.519494 0.265722
O O7 0.000000 0.500000 0.500000
O O8 0.126599 0.750000 0.315475
O O9 0.936642 0.971427 0.228393
O O10 0.106346 0.997390 0.235895
O O11 0.373772 0.750000 0.810756
O O12 0.272855 0.519976 0.812238
O O13 0.591789 0.540386 0.989215
O O14 0.929301 0.750000 0.850025
O O15 0.814451 0.990778 0.832054
O O16 0.136928 0.972115 0.016221
O O17 0.254087 0.750000 0.159821
O O18 0.238638 0.250000 0.839573
#
# Coordination Sequence:
#
# PCOD9162415 Si02
#       7
#     4   4   4   4   4   4   4
#     4  10  23  41  60  85 117 156 200 243 289 347
#     4  11  23  38  58  83 116 156 198 242 292 347
#     4  11  23  38  58  86 119 156 194 240 292 345
#     4  10  20  35  56  82 111 150 196 245 296 346
#     4  10  21  38  64  92 118 151 190 237 296 353
#     4   9  20  41  64  88 118 150 192 241 290 348
#     4   9  20  37  55  80 115 152 196 243 290 346
#
# _framework density 19.372954
#
# number of rings (size 3 to 8) (size 9 to 14) (size 15 to 20)
#    0.000    2.000    0.000    2.571    2.000    6.857 
#    0.000    0.000    0.000    0.000    0.000    0.000 
#    0.000    0.000    0.000    0.000    0.000    0.000 
#
# Total GULP energy -156461.276178 kJ/mol
# GULP energy per Si atom -5587.902721 kJ/mol
# Density = 1.932886 g / cm^3
# Si number density = 19.372954 Si / 1000 Ang^3
#
#
#
# Elastic Constant Matrix: (Units=GPa)
#
#
# Indices 1 2 3 4 5 6 
#
# 1 80.9500 28.1099 56.5859 0.0000 -19.0389 0.0000
# 2 28.1099 28.5477 32.2713 0.0000 -5.3797 0.0000
# 3 56.5859 32.2713 91.5356 0.0000 -10.6841 0.0000
# 4 0.0000 0.0000 0.0000 31.4711 0.0000 -2.8276
# 5 -19.0389 -5.3797 -10.6841 0.0000 34.8652 0.0000
# 6 0.0000 0.0000 0.0000 -2.8276 0.0000 29.1899
#
#
#
# Elastic Compliance Matrix: (Units=1/GPa)
#
#
# Indices 1 2 3 4 5 6 
#
# 1 0.026299 -0.011638 -0.011085 0.000000 0.009169 0.000000
# 2 -0.011638 0.063653 -0.015393 0.000000 -0.001250 0.000000
# 3 -0.011085 -0.015393 0.023045 0.000000 -0.001366 0.000000
# 4 0.000000 0.000000 0.000000 0.032054 0.000000 0.003105
# 5 0.009169 -0.001250 -0.001366 0.000000 0.033077 0.000000
# 6 0.000000 0.000000 0.000000 0.003105 0.000000 0.034559
#
#
# Mechanical properties :
#
#
# Convention : Reuss Voigt Hill
#
# Bulk Modulus (GPa) = 27.19869 48.32971 37.76420
# Shear Modulus (GPa) = 16.60167 24.70965 20.65566
#
# Velocity S-wave (km/s) = 2.93055 3.57525 3.26883
# Velocity P-wave (km/s) = 5.05181 6.48416 5.81228
#
# Compressibility (1/GPa) = 0.03676647
#
# Stress axis : x y z
#
# Youngs Moduli (GPa) = 38.02357 15.71009 43.39408
#
# Poissons Ratio (x) = 0.18283 0.48102
# Poissons Ratio (y) = 0.44250 0.66797
# Poissons Ratio (z) = 0.42149 0.24183
#
# Static dielectric constant tensor:
#      x y z
#    x 1.646770 0.000000 0.008640 
#    y 0.000000 1.648620 0.000000 
#    z 0.008640 0.000000 1.687960 
# 
# From -- ./inp_files/54525.got.cif
#   From: 2010.05.17/outbox.cif.g08.bks.cpg/sg11_28_cif.got.tgz:54525.got - 2010.06.03 12:22:45.
