data_PCOD9162156
_publ_section_title
;
Structure prediction by ZEFSAII (Michael W. Deem and Ramdas Pophale) SiO2 
 PCOD9162156
Probable space group: P 21/M
;
_chemical_formula_sum "Si O2"
_cell_formula_units_Z 28
_cell_length_a 15.942412
_cell_length_b 8.444445
_cell_length_c 12.355411
_cell_angle_alpha 90.000000
_cell_angle_beta 116.992024
_cell_angle_gamma 90.000000
_cell_volume 1482.156352
_symmetry_space_group_name_H-M "P 21/M"
_symmetry_group_IT_number 11
_symmetry_cell_setting 'monoclinic'
loop_
_space_group_symop_operation_xyz
x,y,z
-x,1/2+y,-z
-x,-y,-z
x,1/2-y,z
loop_
_atom_site_type_symbol
_atom_site_label
_atom_site_fract_x
_atom_site_fract_y
_atom_site_fract_z
Si Si1 0.918827 0.439005 0.307534
Si Si2 0.765560 0.939304 0.066515
Si Si3 0.870755 0.558487 0.511050
Si Si4 0.701601 0.559041 0.565227
Si Si5 0.675217 0.943299 0.791620
Si Si6 0.457138 0.558934 0.678292
Si Si7 0.594958 0.440263 0.112941
O O1 0.917267 0.250000 0.306109
O O2 0.863811 0.500594 0.171282
O O3 0.866952 0.497530 0.386155
O O4 0.027466 0.491512 0.382125
O O5 0.766677 0.750000 0.065637
O O6 0.683959 0.994127 0.100846
O O7 0.736522 0.996858 0.929840
O O8 0.869009 0.750000 0.506888
O O9 0.785602 0.502301 0.536492
O O10 0.704803 0.750000 0.567960
O O11 0.709901 0.504498 0.693984
O O12 0.603002 0.507562 0.455613
O O13 0.676136 0.750000 0.793388
O O14 0.566146 0.991322 0.741829
O O15 0.455675 0.750000 0.672297
O O16 0.409951 0.509665 0.764357
O O17 0.596814 0.250000 0.110875
O O18 0.500000 0.500000 0.000000
#
# Coordination Sequence:
#
# PCOD9162156 Si02
#       7
#     4   4   4   4   4   4   4
#     4  10  20  35  56  82 109 136 170 219 273 322
#     4  11  21  36  55  77 108 145 180 215 262 320
#     4   9  19  36  57  81 107 135 173 220 270 322
#     4  10  20  35  56  78 100 136 182 222 261 312
#     4   9  19  36  53  72 105 144 179 215 261 313
#     4  10  20  35  52  75 107 140 173 216 265 311
#     4  11  21  34  53  78 109 141 175 217 263 311
#
# _framework density 18.891396
#
# number of rings (size 3 to 8) (size 9 to 14) (size 15 to 20)
#    0.000    2.000    1.429    2.571    0.000    4.571 
#    0.000    2.143    0.000    0.000    0.000    0.000 
#    0.000    0.000    0.000    0.000    0.000    0.000 
#
# Total GULP energy -156372.479380 kJ/mol
# GULP energy per Si atom -5584.731406 kJ/mol
# Density = 1.884840 g / cm^3
# Si number density = 18.891396 Si / 1000 Ang^3
#
#
#
# Elastic Constant Matrix: (Units=GPa)
#
#
# Indices 1 2 3 4 5 6 
#
# 1 55.1037 9.3802 57.2849 0.0000 -4.0785 0.0000
# 2 9.3802 12.7150 19.5928 0.0000 -1.3368 0.0000
# 3 57.2849 19.5928 166.9396 0.0000 0.1732 0.0000
# 4 0.0000 0.0000 0.0000 29.7306 0.0000 5.1932
# 5 -4.0785 -1.3368 0.1732 0.0000 26.3265 0.0000
# 6 0.0000 0.0000 0.0000 5.1932 0.0000 19.5527
#
#
#
# Elastic Compliance Matrix: (Units=1/GPa)
#
#
# Indices 1 2 3 4 5 6 
#
# 1 0.029224 -0.006903 -0.009222 0.000000 0.004238 0.000000
# 2 -0.006903 0.098290 -0.009171 0.000000 0.003982 0.000000
# 3 -0.009222 -0.009171 0.010233 0.000000 -0.001962 0.000000
# 4 0.000000 0.000000 0.000000 0.035272 0.000000 -0.009368
# 5 0.004238 0.003982 -0.001962 0.000000 0.038856 0.000000
# 6 0.000000 0.000000 0.000000 -0.009368 0.000000 0.053632
#
#
# Mechanical properties :
#
#
# Convention : Reuss Voigt Hill
#
# Bulk Modulus (GPa) = 11.47391 45.25269 28.36330
# Shear Modulus (GPa) = 14.48641 25.02197 19.75419
#
# Velocity S-wave (km/s) = 2.77217 3.64334 3.23719
# Velocity P-wave (km/s) = 4.04145 6.45792 5.38693
#
# Compressibility (1/GPa) = 0.08715428
#
# Stress axis : x y z
#
# Youngs Moduli (GPa) = 34.21889 10.17396 97.72122
#
# Poissons Ratio (x) = 0.07023 0.90121
# Poissons Ratio (y) = 0.23621 0.89622
# Poissons Ratio (z) = 0.31558 0.09331
#
# Static dielectric constant tensor:
#      x y z
#    x 1.647400 0.000000 -0.002050 
#    y 0.000000 1.649500 0.000000 
#    z -0.002050 0.000000 1.652210 
# 
# From -- ./inp_files/38434.got.cif
#   From: 2010.05.17/outbox.cif.g08.bks.cpg/sg11_20_cif.got.tgz:38434.got - 2010.06.03 12:22:45.
