data_PCOD9162466
_publ_section_title
;
Structure prediction by ZEFSAII (Michael W. Deem and Ramdas Pophale) SiO2 
 PCOD9162466
Probable space group: P 21/M
;
_chemical_formula_sum "Si O2"
_cell_formula_units_Z 28
_cell_length_a 5.694685
_cell_length_b 16.806728
_cell_length_c 12.250171
_cell_angle_alpha 90.000000
_cell_angle_beta 74.492879
_cell_angle_gamma 90.000000
_cell_volume 1129.771390
_symmetry_space_group_name_H-M "P 21/M"
_symmetry_group_IT_number 11
_symmetry_cell_setting 'monoclinic'
loop_
_space_group_symop_operation_xyz
x,y,z
-x,1/2+y,-z
-x,-y,-z
x,1/2-y,z
loop_
_atom_site_type_symbol
_atom_site_label
_atom_site_fract_x
_atom_site_fract_y
_atom_site_fract_z
Si Si1 0.036360 0.158575 0.321669
Si Si2 0.544359 0.892081 0.896355
Si Si3 0.599949 0.163570 0.727932
Si Si4 0.069124 0.160444 0.565052
Si Si5 0.878653 0.333387 0.918308
Si Si6 0.271092 0.455628 0.895514
Si Si7 0.215010 0.996610 0.567973
O O1 0.938711 0.250000 0.317562
O O2 0.245236 0.141105 0.206997
O O3 0.152311 0.158576 0.429061
O O4 0.855020 0.081500 0.351966
O O5 0.354065 0.832379 0.973988
O O6 0.370743 0.957028 0.860468
O O7 0.664273 0.933003 0.987742
O O8 0.485245 0.250000 0.730902
O O9 0.422045 0.097850 0.792628
O O10 0.773720 0.149762 0.603189
O O11 0.789368 0.168258 0.805573
O O12 0.117340 0.250000 0.598242
O O13 0.174182 0.086481 0.618263
O O14 0.018842 0.250000 0.924107
O O15 0.003591 0.419050 0.917691
O O16 0.500000 0.000000 0.500000
O O17 0.000000 0.000000 0.500000
#
# Coordination Sequence:
#
# PCOD9162466 Si02
#       7
#     4   4   4   4   4   4   4
#     4  10  21  40  65  94 131 174 218 274 339 410
#     4  10  21  38  59  86 122 162 209 260 325 397
#     4   9  18  35  57  82 114 153 202 258 314 381
#     4   9  19  39  63  90 127 167 216 274 336 400
#     4  10  20  35  56  85 116 153 204 261 322 388
#     4  10  20  36  59  85 118 161 207 264 322 385
#     4  10  22  43  66  93 128 175 225 272 330 400
#
# _framework density 24.783774999999999
#
# number of rings (size 3 to 8) (size 9 to 14) (size 15 to 20)
#    0.000    2.286    0.000    2.143    0.000    2.286 
#   15.429    0.000    0.000    0.000    0.000    0.000 
#    0.000    0.000    0.000    0.000    0.000    0.000 
#
# Total GULP energy -156136.025256 kJ/mol
# GULP energy per Si atom -5576.286616 kJ/mol
# Density = 2.472737 g / cm^3
# Si number density = 24.783775 Si / 1000 Ang^3
#
#
#
# Elastic Constant Matrix: (Units=GPa)
#
#
# Indices 1 2 3 4 5 6 
#
# 1 83.0421 29.2232 36.7683 0.0000 -4.8876 0.0000
# 2 29.2232 175.5406 39.5117 0.0000 -17.1547 0.0000
# 3 36.7683 39.5117 141.9159 0.0000 -16.1186 0.0000
# 4 0.0000 0.0000 0.0000 32.5308 0.0000 -37.8065
# 5 -4.8876 -17.1547 -16.1186 0.0000 41.6880 0.0000
# 6 0.0000 0.0000 0.0000 -37.8065 0.0000 35.4499
#
#
#
# Elastic Compliance Matrix: (Units=1/GPa)
#
#
# Indices 1 2 3 4 5 6 
#
# 1 0.014023 -0.001639 -0.003208 0.000000 -0.000271 0.000000
# 2 -0.001639 0.006422 -0.001135 0.000000 0.002012 0.000000
# 3 -0.003208 -0.001135 0.008470 0.000000 0.002432 0.000000
# 4 0.000000 0.000000 0.000000 -0.128386 0.000000 -0.136921
# 5 -0.000271 0.002012 0.002432 0.000000 0.025724 0.000000
# 6 0.000000 0.000000 0.000000 -0.136921 0.000000 -0.117814
#
#
# Mechanical properties :
#
#
# Convention : Reuss Voigt Hill
#
# Bulk Modulus (GPa) = 58.99139 67.94499 63.46819
# Shear Modulus (GPa) = -28.74412 41.60009 6.42798
#
# Velocity S-wave (km/s) = -3.40927 4.10142 1.61222
# Velocity P-wave (km/s) = 2.89077 7.06424 5.39722
#
# Compressibility (1/GPa) = 0.01695163
#
# Stress axis : x y z
#
# Youngs Moduli (GPa) = 71.31070 155.72607 118.06934
#
# Poissons Ratio (x) = 0.25523 0.37872
# Poissons Ratio (y) = 0.11688 0.13398
# Poissons Ratio (z) = 0.22874 0.17671
#
# Static dielectric constant tensor:
#      x y z
#    x 2.029370 0.000000 0.013860 
#    y 0.000000 2.056430 0.000000 
#    z 0.013860 0.000000 1.962780 
# 
# From -- ./inp_files/45974.got.cif
#   From: 2010.05.17/outbox.cif.g08.bks.cpg/sg11_23_cif.got.tgz:45974.got - 2010.06.03 12:22:45.
