data_PCOD9162352
_publ_section_title
;
Structure prediction by ZEFSAII (Michael W. Deem and Ramdas Pophale) SiO2 
 PCOD9162352
Probable space group: P 21/M
;
_chemical_formula_sum "Si O2"
_cell_formula_units_Z 20
_cell_length_a 19.388321
_cell_length_b 8.498767
_cell_length_c 7.780056
_cell_angle_alpha 90.000000
_cell_angle_beta 127.426788
_cell_angle_gamma 90.000000
_cell_volume 1018.053866
_symmetry_space_group_name_H-M "P 21/M"
_symmetry_group_IT_number 11
_symmetry_cell_setting 'monoclinic'
loop_
_space_group_symop_operation_xyz
x,y,z
-x,1/2+y,-z
-x,-y,-z
x,1/2-y,z
loop_
_atom_site_type_symbol
_atom_site_label
_atom_site_fract_x
_atom_site_fract_y
_atom_site_fract_z
Si Si1 0.218921 0.941561 0.007357
Si Si2 0.781007 0.563549 0.383824
Si Si3 0.593142 0.430528 0.686009
Si Si4 0.902773 0.437679 0.868359
Si Si5 0.411786 0.061574 0.949047
O O1 0.221660 0.750000 0.004145
O O2 0.312776 0.996840 0.226060
O O3 0.144636 0.991982 0.027607
O O4 0.207692 0.002238 0.795322
O O5 0.795494 0.750000 0.402811
O O6 0.845518 0.487566 0.617806
O O7 0.679970 0.537425 0.285562
O O8 0.500000 0.500000 0.500000
O O9 0.590499 0.250000 0.628781
O O10 0.598267 0.457169 0.896837
O O11 0.905245 0.250000 0.878612
O O12 0.000000 0.500000 0.000000
O O13 0.418364 0.250000 0.996200
O O14 0.500000 0.000000 0.000000
#
# Coordination Sequence:
#
# PCOD9162352 Si02
#       5
#     4   4   4   4   4
#     4   9  21  41  62  86 119 160 202 246 301 360
#     4  10  22  40  62  90 122 158 200 250 304 359
#     4  10  20  35  55  84 117 155 198 243 295 355
#     4  11  24  42  65  92 120 157 203 253 306 363
#     4  10  21  36  55  84 118 157 199 242 294 354
#
# _framework density 19.645326000000001
#
# number of rings (size 3 to 8) (size 9 to 14) (size 15 to 20)
#    0.000    2.000    0.000    2.400    2.800    5.600 
#    0.000    0.000    0.000    0.000    0.000    0.000 
#    0.000    0.000    0.000    0.000    0.000    0.000 
#
# Total GULP energy -111500.573747 kJ/mol
# GULP energy per Si atom -5575.028687 kJ/mol
# Density = 1.960061 g / cm^3
# Si number density = 19.645326 Si / 1000 Ang^3
#
#
#
# Elastic Constant Matrix: (Units=GPa)
#
#
# Indices 1 2 3 4 5 6 
#
# 1 157.0001 23.2186 61.0357 0.0000 29.3440 0.0000
# 2 23.2186 34.9735 23.2419 0.0000 11.8148 0.0000
# 3 61.0357 23.2419 116.5805 0.0000 20.7735 0.0000
# 4 0.0000 0.0000 0.0000 32.8670 0.0000 3.9662
# 5 29.3440 11.8148 20.7735 0.0000 30.2223 0.0000
# 6 0.0000 0.0000 0.0000 3.9662 0.0000 27.5388
#
#
#
# Elastic Compliance Matrix: (Units=1/GPa)
#
#
# Indices 1 2 3 4 5 6 
#
# 1 0.009007 -0.001828 -0.003328 0.000000 -0.005743 0.000000
# 2 -0.001828 0.035933 -0.004581 0.000000 -0.009124 0.000000
# 3 -0.003328 -0.004581 0.011781 0.000000 -0.003076 0.000000
# 4 0.000000 0.000000 0.000000 0.030964 0.000000 -0.004460
# 5 -0.005743 -0.009124 -0.003076 0.000000 0.044346 0.000000
# 6 0.000000 0.000000 0.000000 -0.004460 0.000000 0.036955
#
#
# Mechanical properties :
#
#
# Convention : Reuss Voigt Hill
#
# Bulk Modulus (GPa) = 26.84701 58.17185 42.50943
# Shear Modulus (GPa) = 24.89111 31.52947 28.21029
#
# Velocity S-wave (km/s) = 3.56339 4.01051 3.79354
# Velocity P-wave (km/s) = 5.53406 7.14989 6.39323
#
# Compressibility (1/GPa) = 0.03724810
#
# Stress axis : x y z
#
# Youngs Moduli (GPa) = 111.02624 27.82949 84.87929
#
# Poissons Ratio (x) = 0.05087 0.28246
# Poissons Ratio (y) = 0.20295 0.38883
# Poissons Ratio (z) = 0.36947 0.12749
#
# Static dielectric constant tensor:
#      x y z
#    x 1.710580 0.000000 0.055990 
#    y 0.000000 1.667960 0.000000 
#    z 0.055990 0.000000 1.641370 
# 
# From -- ./inp_files/20182.got.cif
#   From: 2010.05.17/outbox.cif.g08.bks.cpg/sg11_11_cif.got.tgz:20182.got - 2010.06.03 12:22:45.
