data_PCOD9162019
_publ_section_title
;
Structure prediction by ZEFSAII (Michael W. Deem and Ramdas Pophale) SiO2 
 PCOD9162019
Probable space group: P 21/M
;
_chemical_formula_sum "Si O2"
_cell_formula_units_Z 32
_cell_length_a 14.756148
_cell_length_b 9.693335
_cell_length_c 22.640163
_cell_angle_alpha 90.000000
_cell_angle_beta 150.161595
_cell_angle_gamma 90.000000
_cell_volume 1611.266254
_symmetry_space_group_name_H-M "P 21/M"
_symmetry_group_IT_number 11
_symmetry_cell_setting 'monoclinic'
loop_
_space_group_symop_operation_xyz
x,y,z
-x,1/2+y,-z
-x,-y,-z
x,1/2-y,z
loop_
_atom_site_type_symbol
_atom_site_label
_atom_site_fract_x
_atom_site_fract_y
_atom_site_fract_z
Si Si1 0.496359 0.911620 0.758903
Si Si2 0.527807 0.903677 0.637893
Si Si3 0.088129 0.095826 0.000844
Si Si4 0.752679 0.917695 0.583157
Si Si5 0.740245 0.094602 0.066968
Si Si6 0.909942 0.914782 0.265394
Si Si7 0.631881 0.589247 0.213178
Si Si8 0.896852 0.532051 0.792459
O O1 0.469642 0.750000 0.755794
O O2 0.484589 0.931217 0.681945
O O3 0.366476 0.999343 0.727036
O O4 0.704629 0.948629 0.893252
O O5 0.456928 0.750000 0.582171
O O6 0.743712 0.901116 0.747569
O O7 0.436221 0.023379 0.547712
O O8 0.096381 0.250000 0.029142
O O9 0.971457 0.091400 0.874862
O O10 0.000000 0.000000 0.000000
O O11 0.763562 0.750000 0.590372
O O12 0.793910 0.976979 0.671789
O O13 0.908223 0.992406 0.632035
O O14 0.721786 0.250000 0.082397
O O15 0.912524 0.100733 0.119717
O O16 0.791444 0.981291 0.145025
O O17 0.553251 0.059486 0.928385
O O18 0.942256 0.750000 0.274181
O O19 0.798803 0.931350 0.263001
O O20 0.623741 0.750000 0.224794
#
# Coordination Sequence:
#
# PCOD9162019 Si02
#       8
#     4   4   4   4   4   4   4   4
#     4  10  22  39  59  89 123 161 203 246 299 358
#     4  11  23  41  63  87 121 162 204 252 300 354
#     4  11  23  38  59  89 126 167 206 245 297 360
#     4  11  25  43  64  89 118 158 207 258 308 356
#     4  10  20  34  56  89 126 162 197 240 298 359
#     4  10  21  38  60  86 118 156 201 252 307 361
#     4  10  21  37  59  88 121 159 199 247 304 361
#     4  11  21  37  61  91 127 161 198 239 294 356
#
# _framework density 19.860156
#
# number of rings (size 3 to 8) (size 9 to 14) (size 15 to 20)
#    0.000    1.500    2.500    3.375    0.000    6.500 
#    0.000    0.625    0.000    0.000    0.000    0.000 
#    0.000    0.000    0.000    0.000    0.000    0.000 
#
# Total GULP energy -178420.906345 kJ/mol
# GULP energy per Si atom -5575.653323 kJ/mol
# Density = 1.981495 g / cm^3
# Si number density = 19.860156 Si / 1000 Ang^3
#
#
#
# Elastic Constant Matrix: (Units=GPa)
#
#
# Indices 1 2 3 4 5 6 
#
# 1 101.0747 44.1097 15.2433 0.0000 5.5466 0.0000
# 2 44.1097 58.5316 22.0539 0.0000 -7.6417 0.0000
# 3 15.2433 22.0539 52.1811 0.0000 -3.0028 0.0000
# 4 0.0000 0.0000 0.0000 23.0458 0.0000 -5.5008
# 5 5.5466 -7.6417 -3.0028 0.0000 20.9279 0.0000
# 6 0.0000 0.0000 0.0000 -5.5008 0.0000 4.9070
#
#
#
# Elastic Compliance Matrix: (Units=1/GPa)
#
#
# Indices 1 2 3 4 5 6 
#
# 1 0.016292 -0.013666 0.000485 0.000000 -0.009238 0.000000
# 2 -0.013666 0.032627 -0.008977 0.000000 0.014247 0.000000
# 3 0.000485 -0.008977 0.022809 0.000000 -0.000134 0.000000
# 4 0.000000 0.000000 0.000000 0.059243 0.000000 0.066411
# 5 -0.009238 0.014247 -0.000134 0.000000 0.055415 0.000000
# 6 0.000000 0.000000 0.000000 0.066411 0.000000 0.278236
#
#
# Mechanical properties :
#
#
# Convention : Reuss Voigt Hill
#
# Bulk Modulus (GPa) = 36.48299 41.62237 39.05268
# Shear Modulus (GPa) = 9.65113 18.46818 14.05965
#
# Velocity S-wave (km/s) = 2.20683 3.05275 2.66359
# Velocity P-wave (km/s) = 4.99032 5.78178 5.40057
#
# Compressibility (1/GPa) = 0.02741003
#
# Stress axis : x y z
#
# Youngs Moduli (GPa) = 61.38127 30.64991 43.84292
#
# Poissons Ratio (x) = 0.41888 -0.02127
# Poissons Ratio (y) = 0.83886 0.39359
# Poissons Ratio (z) = -0.02978 0.27515
#
# Static dielectric constant tensor:
#      x y z
#    x 1.713450 0.000000 0.010960 
#    y 0.000000 1.657930 0.000000 
#    z 0.010960 0.000000 1.720870 
# 
# From -- ./inp_files/69168.got.cif
#   From: 2010.05.17/outbox.cif.g08.bks.cpg/sg11_35_cif.got.tgz:69168.got - 2010.06.03 12:22:45.
