data_PCOD9162502
_publ_section_title
;
Structure prediction by ZEFSAII (Michael W. Deem and Ramdas Pophale) SiO2 
 PCOD9162502
Probable space group: P 21/M
;
_chemical_formula_sum "Si O2"
_cell_formula_units_Z 20
_cell_length_a 11.515957
_cell_length_b 10.850237
_cell_length_c 12.506927
_cell_angle_alpha 90.000000
_cell_angle_beta 135.607414
_cell_angle_gamma 90.000000
_cell_volume 1093.255320
_symmetry_space_group_name_H-M "P 21/M"
_symmetry_group_IT_number 11
_symmetry_cell_setting 'monoclinic'
loop_
_space_group_symop_operation_xyz
x,y,z
-x,1/2+y,-z
-x,-y,-z
x,1/2-y,z
loop_
_atom_site_type_symbol
_atom_site_label
_atom_site_fract_x
_atom_site_fract_y
_atom_site_fract_z
Si Si1 0.567580 0.885938 0.797330
Si Si2 0.989909 0.893788 0.695707
Si Si3 0.892179 0.892546 0.874313
Si Si4 0.310206 0.110343 0.652239
Si Si5 0.316781 0.445226 0.897135
O O1 0.486180 0.750000 0.731576
O O2 0.706051 0.901195 0.797193
O O3 0.445071 0.003169 0.718734
O O4 0.664296 0.883067 0.974832
O O5 0.024080 0.750000 0.703657
O O6 0.906150 0.910838 0.756497
O O7 0.858416 0.928957 0.518178
O O8 0.164947 0.961200 0.807918
O O9 0.948725 0.750000 0.933918
O O10 0.000000 0.000000 0.000000
O O11 0.356121 0.250000 0.644767
O O12 0.284314 0.119337 0.762619
O O13 0.500000 0.500000 0.000000
#
# Coordination Sequence:
#
# PCOD9162502 Si02
#       5
#     4   4   4   4   4
#     4  10  21  37  58  86 117 150 190 237 284 334
#     4  10  21  38  60  85 116 152 190 236 289 341
#     4  10  20  37  60  86 114 148 190 236 283 338
#     4  10  22  38  58  86 117 153 193 232 282 343
#     4  10  20  35  57  82 112 148 191 234 280 333
#
# _framework density 18.293987000000001
#
# number of rings (size 3 to 8) (size 9 to 14) (size 15 to 20)
#    0.000    2.000    2.000    1.200    0.000    8.000 
#    0.000    3.000    0.000    0.000    0.000    0.000 
#    0.000    0.000    0.000    0.000    0.000    0.000 
#
# Total GULP energy -111351.850758 kJ/mol
# GULP energy per Si atom -5567.592538 kJ/mol
# Density = 1.825235 g / cm^3
# Si number density = 18.293987 Si / 1000 Ang^3
#
#
#
# Elastic Constant Matrix: (Units=GPa)
#
#
# Indices 1 2 3 4 5 6 
#
# 1 111.6923 51.2316 43.0581 0.0000 7.8291 0.0000
# 2 51.2316 99.0880 53.4400 0.0000 17.2891 0.0000
# 3 43.0581 53.4400 106.2576 0.0000 8.4794 0.0000
# 4 0.0000 0.0000 0.0000 27.0587 0.0000 3.7944
# 5 7.8291 17.2891 8.4794 0.0000 17.5294 0.0000
# 6 0.0000 0.0000 0.0000 3.7944 0.0000 31.9892
#
#
#
# Elastic Compliance Matrix: (Units=1/GPa)
#
#
# Indices 1 2 3 4 5 6 
#
# 1 0.012185 -0.005133 -0.002419 0.000000 0.000791 0.000000
# 2 -0.005133 0.018254 -0.006081 0.000000 -0.012769 0.000000
# 3 -0.002419 -0.006081 0.013402 0.000000 0.000595 0.000000
# 4 0.000000 0.000000 0.000000 0.037582 0.000000 -0.004458
# 5 0.000791 -0.012769 0.000595 0.000000 0.069000 0.000000
# 6 0.000000 0.000000 0.000000 -0.004458 0.000000 0.031789
#
#
# Mechanical properties :
#
#
# Convention : Reuss Voigt Hill
#
# Bulk Modulus (GPa) = 60.33623 68.05525 64.19574
# Shear Modulus (GPa) = 23.25536 26.60267 24.92902
#
# Velocity S-wave (km/s) = 3.56926 3.81750 3.69547
# Velocity P-wave (km/s) = 7.07384 7.53079 7.30589
#
# Compressibility (1/GPa) = 0.01657379
#
# Stress axis : x y z
#
# Youngs Moduli (GPa) = 82.06908 54.78275 74.61428
#
# Poissons Ratio (x) = 0.28122 0.18049
# Poissons Ratio (y) = 0.42129 0.45375
# Poissons Ratio (z) = 0.19853 0.33315
#
# Static dielectric constant tensor:
#      x y z
#    x 1.624130 0.000000 -0.022880 
#    y 0.000000 1.692100 0.000000 
#    z -0.022880 0.000000 1.619700 
# 
# From -- ./inp_files/15930.got.cif
#   From: 2010.05.17/outbox.cif.g08.bks.cpg/sg11_8_cif.got.tgz:15930.got - 2010.06.03 12:22:45.
