data_PCOD9162550
_publ_section_title
;
Structure prediction by ZEFSAII (Michael W. Deem and Ramdas Pophale) SiO2 
 PCOD9162550
Probable space group: P 21/M
;
_chemical_formula_sum "Si O2"
_cell_formula_units_Z 32
_cell_length_a 12.096460
_cell_length_b 7.599144
_cell_length_c 29.302592
_cell_angle_alpha 90.000000
_cell_angle_beta 148.308996
_cell_angle_gamma 90.000000
_cell_volume 1415.037245
_symmetry_space_group_name_H-M "P 21/M"
_symmetry_group_IT_number 11
_symmetry_cell_setting 'monoclinic'
loop_
_space_group_symop_operation_xyz
x,y,z
-x,1/2+y,-z
-x,-y,-z
x,1/2-y,z
loop_
_atom_site_type_symbol
_atom_site_label
_atom_site_fract_x
_atom_site_fract_y
_atom_site_fract_z
Si Si1 0.690195 0.464526 0.385325
Si Si2 0.031484 0.046769 0.760728
Si Si3 0.740381 0.963056 0.805467
Si Si4 0.741891 0.950543 0.576159
Si Si5 0.504193 0.534779 0.910678
Si Si6 0.754153 0.539841 0.910546
Si Si7 0.973674 0.546911 0.569366
Si Si8 0.845222 0.954243 0.098988
O O1 0.705131 0.250000 0.392460
O O2 0.447580 0.513444 0.294123
O O3 0.792342 0.537667 0.467143
O O4 0.826290 0.525666 0.388970
O O5 0.965566 0.250000 0.742054
O O6 0.061136 0.965602 0.821712
O O7 0.268435 0.032516 0.825450
O O8 0.871616 0.964902 0.668627
O O9 0.757157 0.750000 0.811186
O O10 0.680045 0.021941 0.835086
O O11 0.966293 0.036060 0.871057
O O12 0.727547 0.750000 0.556477
O O13 0.878026 0.035016 0.582265
O O14 0.500000 0.000000 0.500000
O O15 0.500119 0.750000 0.910335
O O16 0.630234 0.472657 0.910585
O O17 0.635831 0.473756 0.001392
O O18 0.727662 0.750000 0.902026
O O19 0.000000 0.500000 0.000000
O O20 0.034185 0.750000 0.600367
O O21 0.800516 0.750000 0.093898
#
# Coordination Sequence:
#
# PCOD9162550 Si02
#       8
#     4   4   4   4   4   4   4   4
#     4   9  19  36  59  87 117 148 189 239 291 351
#     4  11  25  42  62  90 120 155 203 252 298 353
#     4  10  21  34  56  88 118 153 195 242 292 351
#     4  11  25  44  66  89 120 159 198 246 300 356
#     4  10  21  39  63  88 119 161 201 245 301 355
#     4  10  20  35  57  84 119 156 195 238 290 351
#     4   9  20  39  62  85 114 151 190 237 295 350
#     4  10  22  40  60  85 121 160 202 250 297 352
#
# _framework density 22.614246000000001
#
# number of rings (size 3 to 8) (size 9 to 14) (size 15 to 20)
#    0.000    2.000    1.250    1.125    3.500    3.500 
#    0.000    0.000    0.000    0.000    0.000    0.000 
#    0.000    0.000    0.000    0.000    0.000    0.000 
#
# Total GULP energy -178652.689967 kJ/mol
# GULP energy per Si atom -5582.896561 kJ/mol
# Density = 2.256278 g / cm^3
# Si number density = 22.614246 Si / 1000 Ang^3
#
#
#
# Elastic Constant Matrix: (Units=GPa)
#
#
# Indices 1 2 3 4 5 6 
#
# 1 104.8620 -4.0970 19.7613 0.0000 -12.0495 0.0000
# 2 -4.0970 45.3121 -16.7343 0.0000 2.0296 0.0000
# 3 19.7613 -16.7343 110.5327 0.0000 7.4154 0.0000
# 4 0.0000 0.0000 0.0000 1.7984 0.0000 11.6066
# 5 -12.0495 2.0296 7.4154 0.0000 21.6653 0.0000
# 6 0.0000 0.0000 0.0000 11.6066 0.0000 12.0655
#
#
#
# Elastic Compliance Matrix: (Units=1/GPa)
#
#
# Indices 1 2 3 4 5 6 
#
# 1 0.010769 -0.000226 -0.002418 0.000000 0.006838 0.000000
# 2 -0.000226 0.023640 0.003865 0.000000 -0.003663 0.000000
# 3 -0.002418 0.003865 0.010418 0.000000 -0.005273 0.000000
# 4 0.000000 0.000000 0.000000 -0.106761 0.000000 0.102700
# 5 0.006838 -0.003663 -0.005273 0.000000 0.052108 0.000000
# 6 0.000000 0.000000 0.000000 0.102700 0.000000 -0.015913
#
#
# Mechanical properties :
#
#
# Convention : Reuss Voigt Hill
#
# Bulk Modulus (GPa) = 21.15499 28.72963 24.94231
# Shear Modulus (GPa) = -402.45154 24.55763 -188.94696
#
# Velocity S-wave (km/s) = -13.35478 3.29893 -9.15060
# Velocity P-wave (km/s) = 15.11374 5.21942 10.02952
#
# Compressibility (1/GPa) = 0.04727018
#
# Stress axis : x y z
#
# Youngs Moduli (GPa) = 92.85906 42.30065 95.98438
#
# Poissons Ratio (x) = 0.00955 0.23211
# Poissons Ratio (y) = 0.02096 -0.37100
# Poissons Ratio (z) = 0.22455 -0.16350
#
# Static dielectric constant tensor:
#      x y z
#    x 1.888060 0.000000 -0.018450 
#    y 0.000000 1.857410 0.000000 
#    z -0.018450 0.000000 1.793000 
# 
# From -- ./inp_files/73075.got.cif
#   From: 2010.05.17/outbox.cif.g08.bks.cpg/sg11_37_cif.got.tgz:73075.got - 2010.06.03 12:22:45.
