data_PCOD9162606
_publ_section_title
;
Structure prediction by ZEFSAII (Michael W. Deem and Ramdas Pophale) SiO2 
 PCOD9162606
Probable space group: P 21/M
;
_chemical_formula_sum "Si O2"
_cell_formula_units_Z 28
_cell_length_a 27.348868
_cell_length_b 8.069208
_cell_length_c 9.938350
_cell_angle_alpha 90.000000
_cell_angle_beta 38.574250
_cell_angle_gamma 90.000000
_cell_volume 1367.542157
_symmetry_space_group_name_H-M "P 21/M"
_symmetry_group_IT_number 11
_symmetry_cell_setting 'monoclinic'
loop_
_space_group_symop_operation_xyz
x,y,z
-x,1/2+y,-z
-x,-y,-z
x,1/2-y,z
loop_
_atom_site_type_symbol
_atom_site_label
_atom_site_fract_x
_atom_site_fract_y
_atom_site_fract_z
Si Si1 0.866778 0.952838 0.522093
Si Si2 0.572777 0.950138 0.249945
Si Si3 0.030715 0.948562 0.081511
Si Si4 0.261304 0.447887 0.993949
Si Si5 0.309288 0.555254 0.608285
Si Si6 0.192817 0.055238 0.644128
Si Si7 0.483800 0.949912 0.186358
O O1 0.867600 0.750000 0.516996
O O2 0.829569 0.005710 0.457904
O O3 0.958318 0.002798 0.331459
O O4 0.812069 0.010693 0.761314
O O5 0.576824 0.750000 0.241140
O O6 0.655866 0.013546 0.125706
O O7 0.549757 0.006631 0.149606
O O8 0.500000 0.000000 0.500000
O O9 0.038853 0.750000 0.071506
O O10 0.116666 0.025840 0.902433
O O11 0.000000 0.000000 0.000000
O O12 0.261754 0.250000 0.011702
O O13 0.261106 0.481491 0.836124
O O14 0.313960 0.750000 0.622494
O O15 0.266400 0.524941 0.559411
O O16 0.397879 0.486979 0.415322
O O17 0.207896 0.250000 0.600738
O O18 0.481678 0.750000 0.196789
O O19 0.500000 0.000000 0.000000
#
# Coordination Sequence:
#
# PCOD9162606 Si02
#       7
#     4   4   4   4   4   4   4
#     4   8  17  33  56  84 109 137 180 228 269 319
#     4  10  20  36  58  80 107 144 184 224 268 321
#     4   9  16  31  54  81 114 146 180 226 276 326
#     4  10  20  36  58  81 106 143 186 225 269 326
#     4  11  23  39  54  78 115 147 179 226 279 326
#     4  10  20  35  58  84 110 145 186 227 275 330
#     4  10  23  39  56  81 112 144 182 227 272 324
#
# _framework density 20.474688
#
# number of rings (size 3 to 8) (size 9 to 14) (size 15 to 20)
#    0.000    2.286    1.429    2.143    2.000    1.714 
#    0.000    5.000    0.000    0.000    0.000    0.000 
#    0.000    0.000    0.000    0.000    0.000    0.000 
#
# Total GULP energy -156202.442008 kJ/mol
# GULP energy per Si atom -5578.658643 kJ/mol
# Density = 2.042809 g / cm^3
# Si number density = 20.474688 Si / 1000 Ang^3
#
#
#
# Elastic Constant Matrix: (Units=GPa)
#
#
# Indices 1 2 3 4 5 6 
#
# 1 31.7663 -5.2650 -16.5267 0.0000 9.0478 0.0000
# 2 -5.2650 8.6817 -0.1002 0.0000 -0.3616 0.0000
# 3 -16.5267 -0.1002 89.1890 0.0000 13.2394 0.0000
# 4 0.0000 0.0000 0.0000 23.5068 0.0000 -0.0114
# 5 9.0478 -0.3616 13.2394 0.0000 27.7168 0.0000
# 6 0.0000 0.0000 0.0000 -0.0114 0.0000 22.7445
#
#
#
# Elastic Compliance Matrix: (Units=1/GPa)
#
#
# Indices 1 2 3 4 5 6 
#
# 1 0.048695 0.028783 0.012226 0.000000 -0.021361 0.000000
# 2 0.028783 0.132261 0.007126 0.000000 -0.011074 0.000000
# 3 0.012226 0.007126 0.015138 0.000000 -0.011129 0.000000
# 4 0.000000 0.000000 0.000000 0.042541 0.000000 0.000021
# 5 -0.021361 -0.011074 -0.011129 0.000000 0.048224 0.000000
# 6 0.000000 0.000000 0.000000 0.000021 0.000000 0.043967
#
#
# Mechanical properties :
#
#
# Convention : Reuss Voigt Hill
#
# Bulk Modulus (GPa) = 3.42039 9.53924 6.47981
# Shear Modulus (GPa) = 15.05981 24.89555 19.97768
#
# Velocity S-wave (km/s) = 2.71501 3.49078 3.12705
# Velocity P-wave (km/s) = 3.39154 4.57347 4.02611
#
# Compressibility (1/GPa) = 0.29236437
#
# Stress axis : x y z
#
# Youngs Moduli (GPa) = 20.53584 7.56081 66.06019
#
# Poissons Ratio (x) = -0.21762 -0.80768
# Poissons Ratio (y) = -0.59108 -0.47074
# Poissons Ratio (z) = -0.25108 -0.05388
#
# Static dielectric constant tensor:
#      x y z
#    x 1.710610 0.000000 -0.020110 
#    y 0.000000 1.721280 0.000000 
#    z -0.020110 0.000000 1.753350 
# 
# From -- ./inp_files/28230.got.cif
#   From: 2010.05.17/outbox.cif.g08.bks.cpg/sg11_15_cif.got.tgz:28230.got - 2010.06.03 12:22:45.
