data_PCOD9162509
_publ_section_title
;
Structure prediction by ZEFSAII (Michael W. Deem and Ramdas Pophale) SiO2 
 PCOD9162509
Probable space group: P 21/M
;
_chemical_formula_sum "Si O2"
_cell_formula_units_Z 32
_cell_length_a 8.586325
_cell_length_b 24.850612
_cell_length_c 15.777872
_cell_angle_alpha 90.000000
_cell_angle_beta 150.174045
_cell_angle_gamma 90.000000
_cell_volume 1674.440862
_symmetry_space_group_name_H-M "P 21/M"
_symmetry_group_IT_number 11
_symmetry_cell_setting 'monoclinic'
loop_
_space_group_symop_operation_xyz
x,y,z
-x,1/2+y,-z
-x,-y,-z
x,1/2-y,z
loop_
_atom_site_type_symbol
_atom_site_label
_atom_site_fract_x
_atom_site_fract_y
_atom_site_fract_z
Si Si1 0.261605 0.403336 0.032479
Si Si2 0.074228 0.903336 0.303354
Si Si3 0.818227 0.188074 0.886148
Si Si4 0.918524 0.384425 0.251721
Si Si5 0.581884 0.384425 0.915081
Si Si6 0.500465 0.990964 0.224665
Si Si7 0.826935 0.509036 0.551135
Si Si8 0.521990 0.688074 0.454069
O O1 0.604500 0.387065 0.159822
O O2 0.300937 0.456592 0.107245
O O3 0.057386 0.416261 0.852461
O O4 0.101684 0.353236 0.003458
O O5 0.307007 0.853235 0.405232
O O6 0.770465 0.887064 0.215144
O O7 0.219860 0.956591 0.413554
O O8 0.918461 0.250000 0.940158
O O9 0.643093 0.167472 0.886868
O O10 0.593137 0.183573 0.697712
O O11 0.123711 0.436601 0.373118
O O12 0.125581 0.332528 0.369357
O O13 0.809766 0.386495 0.103255
O O14 0.628067 0.436600 0.877475
O O15 0.568499 0.985184 0.356166
O O16 0.838888 0.000000 0.338888
O O17 0.483555 0.750000 0.461856
#
# Coordination Sequence:
#
# PCOD9162509 Si02
#       8
#     4   4   4   4   4   4   4   4
#     4   9  19  36  57  80 108 142 178 218 266 318
#     4   9  19  36  57  80 108 142 178 218 266 318
#     4  10  22  39  56  76 105 142 183 223 265 316
#     4  10  20  35  57  83 110 140 176 220 267 316
#     4  10  20  35  57  83 110 140 176 220 267 316
#     4   9  17  31  54  83 112 140 173 215 265 321
#     4   9  17  31  54  83 112 140 173 215 265 321
#     4  10  22  39  56  76 105 142 183 223 265 316
#
# _framework density 19.110858
#
# number of rings (size 3 to 8) (size 9 to 14) (size 15 to 20)
#    0.000    2.500    0.000    1.500    0.000    7.500 
#    0.000    2.500    0.000    0.000    0.000    0.000 
#    0.000    0.000    0.000    0.000    0.000    0.000 
#
# Total GULP energy -178756.132042 kJ/mol
# GULP energy per Si atom -5586.129126 kJ/mol
# Density = 1.906736 g / cm^3
# Si number density = 19.110858 Si / 1000 Ang^3
#
#
#
# Elastic Constant Matrix: (Units=GPa)
#
#
# Indices 1 2 3 4 5 6 
#
# 1 63.0540 37.1257 25.6097 0.0000 -2.3445 0.0000
# 2 37.1257 117.4559 46.9955 0.0000 -7.3694 0.0000
# 3 25.6097 46.9955 63.4384 0.0000 2.0570 0.0000
# 4 0.0000 0.0000 0.0000 33.9161 0.0000 -1.4041
# 5 -2.3445 -7.3694 2.0570 0.0000 17.0053 0.0000
# 6 0.0000 0.0000 0.0000 -1.4041 0.0000 32.0356
#
#
#
# Elastic Compliance Matrix: (Units=1/GPa)
#
#
# Indices 1 2 3 4 5 6 
#
# 1 0.020562 -0.004348 -0.005131 0.000000 0.001571 0.000000
# 2 -0.004348 0.013744 -0.008634 0.000000 0.006401 0.000000
# 3 -0.005131 -0.008634 0.024471 0.000000 -0.007409 0.000000
# 4 0.000000 0.000000 0.000000 0.029538 0.000000 0.001295
# 5 0.001571 0.006401 -0.007409 0.000000 0.062692 0.000000
# 6 0.000000 0.000000 0.000000 0.001295 0.000000 0.031272
#
#
# Mechanical properties :
#
#
# Convention : Reuss Voigt Hill
#
# Bulk Modulus (GPa) = 44.34273 51.49002 47.91637
# Shear Modulus (GPa) = 22.12173 25.53922 23.83048
#
# Velocity S-wave (km/s) = 3.40597 3.65961 3.53506
# Velocity P-wave (km/s) = 6.22260 6.69763 6.46448
#
# Compressibility (1/GPa) = 0.02255161
#
# Stress axis : x y z
#
# Youngs Moduli (GPa) = 48.63434 72.75696 40.86436
#
# Poissons Ratio (x) = 0.31632 0.20966
# Poissons Ratio (y) = 0.21145 0.35284
# Poissons Ratio (z) = 0.24953 0.62821
#
# Static dielectric constant tensor:
#      x y z
#    x 1.685410 0.000000 0.023560 
#    y 0.000000 1.631180 0.000000 
#    z 0.023560 0.000000 1.653860 
# 
# From -- ./inp_files/23352.got.cif
#   From: 2010.05.17/outbox.cif.g08.bks.cpg/sg11_12_cif.got.tgz:23352.got - 2010.06.03 12:22:45.
