data_PCOD9162634
_publ_section_title
;
Structure prediction by ZEFSAII (Michael W. Deem and Ramdas Pophale) SiO2 
 PCOD9162634
Probable space group: P 21/M
;
_chemical_formula_sum "Si O2"
_cell_formula_units_Z 32
_cell_length_a 12.989182
_cell_length_b 8.761107
_cell_length_c 21.530527
_cell_angle_alpha 90.000000
_cell_angle_beta 43.461733
_cell_angle_gamma 90.000000
_cell_volume 1685.395335
_symmetry_space_group_name_H-M "P 21/M"
_symmetry_group_IT_number 11
_symmetry_cell_setting 'monoclinic'
loop_
_space_group_symop_operation_xyz
x,y,z
-x,1/2+y,-z
-x,-y,-z
x,1/2-y,z
loop_
_atom_site_type_symbol
_atom_site_label
_atom_site_fract_x
_atom_site_fract_y
_atom_site_fract_z
Si Si1 0.805268 0.933423 0.378554
Si Si2 0.586564 0.073001 0.904807
Si Si3 0.881010 0.933432 0.714935
Si Si4 0.856232 0.932649 0.096032
Si Si5 0.747508 0.929516 0.644141
Si Si6 0.542018 0.573361 0.172726
Si Si7 0.702496 0.935612 0.286622
Si Si8 0.642671 0.432418 0.567431
O O1 0.805969 0.750000 0.379414
O O2 0.750546 0.984378 0.334322
O O3 0.697196 0.995770 0.479381
O O4 0.969538 0.995399 0.322727
O O5 0.622199 0.250000 0.901987
O O6 0.479786 0.067471 0.891284
O O7 0.737898 0.988042 0.817410
O O8 0.500000 0.000000 0.000000
O O9 0.888820 0.750000 0.712245
O O10 0.853831 0.981388 0.654552
O O11 0.873743 0.750000 0.090904
O O12 0.707528 0.965756 0.121419
O O13 0.816054 0.987864 0.183168
O O14 0.000000 0.000000 0.000000
O O15 0.769732 0.750000 0.624749
O O16 0.581975 0.964957 0.743253
O O17 0.747717 0.013633 0.578149
O O18 0.510756 0.750000 0.206777
O O19 0.704607 0.750000 0.284940
O O20 0.531060 0.978675 0.346181
O O21 0.649035 0.250000 0.560539
#
# Coordination Sequence:
#
# PCOD9162634 Si02
#       8
#     4   4   4   4   4   4   4   4
#     4  11  23  39  59  87 119 154 196 243 290 348
#     4  10  20  35  58  86 113 150 195 241 292 349
#     4  10  22  40  58  82 118 156 194 241 296 348
#     4  10  20  37  57  83 114 148 188 234 286 342
#     4  10  20  35  59  87 113 144 191 243 286 339
#     4   9  18  35  57  78 109 149 189 233 288 347
#     4   9  20  39  61  83 116 155 193 238 292 347
#     4  11  21  38  63  87 115 155 194 236 294 354
#
# _framework density 18.986643000000001
#
# number of rings (size 3 to 8) (size 9 to 14) (size 15 to 20)
#    0.000    2.000    1.250    2.250    0.000    4.000 
#    0.000    5.625    0.000    0.000    0.000    0.000 
#    0.000    0.000    0.000    0.000    0.000    0.000 
#
# Total GULP energy -178657.446841 kJ/mol
# GULP energy per Si atom -5583.045214 kJ/mol
# Density = 1.894343 g / cm^3
# Si number density = 18.986643 Si / 1000 Ang^3
#
#
#
# Elastic Constant Matrix: (Units=GPa)
#
#
# Indices 1 2 3 4 5 6 
#
# 1 85.1671 25.0543 33.1761 0.0000 12.7124 0.0000
# 2 25.0543 42.8044 17.8155 0.0000 7.7221 0.0000
# 3 33.1761 17.8155 102.1917 0.0000 18.7934 0.0000
# 4 0.0000 0.0000 0.0000 35.3726 0.0000 -1.7372
# 5 12.7124 7.7221 18.7934 0.0000 23.9074 0.0000
# 6 0.0000 0.0000 0.0000 -1.7372 0.0000 22.1830
#
#
#
# Elastic Compliance Matrix: (Units=1/GPa)
#
#
# Indices 1 2 3 4 5 6 
#
# 1 0.015613 -0.007189 -0.003175 0.000000 -0.003485 0.000000
# 2 -0.007189 0.029128 -0.002007 0.000000 -0.004008 0.000000
# 3 -0.003175 -0.002007 0.012551 0.000000 -0.007530 0.000000
# 4 0.000000 0.000000 0.000000 0.028380 0.000000 0.002222
# 5 -0.003485 -0.004008 -0.007530 0.000000 0.050895 0.000000
# 6 0.000000 0.000000 0.000000 0.002222 0.000000 0.045254
#
#
# Mechanical properties :
#
#
# Convention : Reuss Voigt Hill
#
# Bulk Modulus (GPa) = 30.72092 42.47275 36.59684
# Shear Modulus (GPa) = 22.99784 26.56708 24.78246
#
# Velocity S-wave (km/s) = 3.48410 3.74471 3.61675
# Velocity P-wave (km/s) = 5.69216 6.41214 6.06285
#
# Compressibility (1/GPa) = 0.03255111
#
# Stress axis : x y z
#
# Youngs Moduli (GPa) = 64.04841 34.33093 79.67600
#
# Poissons Ratio (x) = 0.24680 0.25295
# Poissons Ratio (y) = 0.46043 0.15992
# Poissons Ratio (z) = 0.20333 0.06891
#
# Static dielectric constant tensor:
#      x y z
#    x 1.657670 0.000000 0.017460 
#    y 0.000000 1.650210 0.000000 
#    z 0.017460 0.000000 1.643930 
# 
# From -- ./inp_files/64397.got.cif
#   From: 2010.05.17/outbox.cif.g08.bks.cpg/sg11_33_cif.got.tgz:64397.got - 2010.06.03 12:22:45.
