data_PCOD9162662
_publ_section_title
;
Structure prediction by ZEFSAII (Michael W. Deem and Ramdas Pophale) SiO2 
 PCOD9162662
Probable space group: P 21/M
;
_chemical_formula_sum "Si O2"
_cell_formula_units_Z 32
_cell_length_a 26.075255
_cell_length_b 8.192888
_cell_length_c 24.817910
_cell_angle_alpha 90.000000
_cell_angle_beta 17.244863
_cell_angle_gamma 90.000000
_cell_volume 1571.777101
_symmetry_space_group_name_H-M "P 21/M"
_symmetry_group_IT_number 11
_symmetry_cell_setting 'monoclinic'
loop_
_space_group_symop_operation_xyz
x,y,z
-x,1/2+y,-z
-x,-y,-z
x,1/2-y,z
loop_
_atom_site_type_symbol
_atom_site_label
_atom_site_fract_x
_atom_site_fract_y
_atom_site_fract_z
Si Si1 0.363346 0.944212 0.760556
Si Si2 0.001346 0.057250 0.689593
Si Si3 0.300852 0.946692 0.707501
Si Si4 0.242079 0.946766 0.650153
Si Si5 0.049259 0.442981 0.139801
Si Si6 0.686293 0.552283 0.699989
Si Si7 0.198783 0.053190 0.298639
Si Si8 0.311920 0.444385 0.067445
O O1 0.380488 0.750000 0.739616
O O2 0.265409 0.004511 0.803895
O O3 0.559247 0.011393 0.564984
O O4 0.236774 0.986611 0.936261
O O5 0.024208 0.250000 0.674191
O O6 0.154118 0.997746 0.496984
O O7 0.999290 0.977441 0.750046
O O8 0.823857 0.024260 0.836389
O O9 0.287784 0.750000 0.720318
O O10 0.209087 0.006723 0.744924
O O11 0.500000 0.000000 0.500000
O O12 0.232226 0.750000 0.660633
O O13 0.100208 0.009204 0.750298
O O14 0.060183 0.250000 0.120704
O O15 0.684377 0.750000 0.702525
O O16 0.711643 0.494453 0.736287
O O17 0.507034 0.487550 0.857371
O O18 0.206872 0.250000 0.290781
O O19 0.278712 0.995345 0.162097
O O20 0.000000 0.000000 0.500000
O O21 0.285710 0.250000 0.092608
#
# Coordination Sequence:
#
# PCOD9162662 Si02
#       8
#     4   4   4   4   4   4   4   4
#     4  10  20  35  58  87 118 151 189 236 289 348
#     4  11  24  43  63  82 112 153 197 246 292 340
#     4   8  15  30  53  82 114 148 187 230 283 345
#     4   9  19  37  59  83 115 154 193 238 290 342
#     4  11  24  40  59  83 113 151 196 243 290 344
#     4  10  22  40  62  88 119 157 197 237 289 346
#     4  10  20  36  60  91 124 158 192 234 288 343
#     4  11  23  38  62  93 122 154 193 238 289 346
#
# _framework density 20.359120000000001
#
# number of rings (size 3 to 8) (size 9 to 14) (size 15 to 20)
#    0.000    2.000    1.250    1.875    0.000    5.000 
#    0.000    2.500    0.000    0.000    0.000    0.000 
#    0.000    0.000    0.000    0.000    0.000    0.000 
#
# Total GULP energy -178645.829638 kJ/mol
# GULP energy per Si atom -5582.682176 kJ/mol
# Density = 2.031278 g / cm^3
# Si number density = 20.359120 Si / 1000 Ang^3
#
#
#
# Elastic Constant Matrix: (Units=GPa)
#
#
# Indices 1 2 3 4 5 6 
#
# 1 52.3934 -10.2274 24.5941 0.0000 18.2985 0.0000
# 2 -10.2274 9.0982 -5.9649 0.0000 7.5592 0.0000
# 3 24.5941 -5.9649 46.6917 0.0000 -32.6558 0.0000
# 4 0.0000 0.0000 0.0000 18.5922 0.0000 -3.6877
# 5 18.2985 7.5592 -32.6558 0.0000 1.3707 0.0000
# 6 0.0000 0.0000 0.0000 -3.6877 0.0000 17.4900
#
#
#
# Elastic Compliance Matrix: (Units=1/GPa)
#
#
# Indices 1 2 3 4 5 6 
#
# 1 0.010215 0.001709 0.006840 0.000000 0.017162 0.000000
# 2 0.001709 0.113016 0.027986 0.000000 0.020659 0.000000
# 3 0.006840 0.027986 0.009604 0.000000 -0.016851 0.000000
# 4 0.000000 0.000000 0.000000 0.056133 0.000000 0.011835
# 5 0.017162 0.020659 -0.016851 0.000000 -0.014943 0.000000
# 6 0.000000 0.000000 0.000000 0.011835 0.000000 0.059671
#
#
# Mechanical properties :
#
#
# Convention : Reuss Voigt Hill
#
# Bulk Modulus (GPa) = 4.85657 13.88744 9.37201
# Shear Modulus (GPa) = 21.80912 14.14269 17.97590
#
# Velocity S-wave (km/s) = 3.27650 2.63850 2.97466
# Velocity P-wave (km/s) = 4.08712 4.01476 4.05110
#
# Compressibility (1/GPa) = 0.20590643
#
# Stress axis : x y z
#
# Youngs Moduli (GPa) = 97.89101 8.84828 104.12521
#
# Poissons Ratio (x) = -0.01512 -0.71223
# Poissons Ratio (y) = -0.16731 -2.91406
# Poissons Ratio (z) = -0.66959 -0.24763
#
# Static dielectric constant tensor:
#      x y z
#    x 1.744670 0.000000 0.014380 
#    y 0.000000 1.700940 0.000000 
#    z 0.014380 0.000000 1.695780 
# 
# From -- ./inp_files/69938.got.cif
#   From: 2010.05.17/outbox.cif.g08.bks.cpg/sg11_35_cif.got.tgz:69938.got - 2010.06.03 12:22:45.
