data_PCOD9162688
_publ_section_title
;
Structure prediction by ZEFSAII (Michael W. Deem and Ramdas Pophale) SiO2 
 PCOD9162688
Probable space group: P 21/M
;
_chemical_formula_sum "Si O2"
_cell_formula_units_Z 28
_cell_length_a 14.258369
_cell_length_b 14.585701
_cell_length_c 14.171572
_cell_angle_alpha 90.000000
_cell_angle_beta 31.076932
_cell_angle_gamma 90.000000
_cell_volume 1521.330405
_symmetry_space_group_name_H-M "P 21/M"
_symmetry_group_IT_number 11
_symmetry_cell_setting 'monoclinic'
loop_
_space_group_symop_operation_xyz
x,y,z
-x,1/2+y,-z
-x,-y,-z
x,1/2-y,z
loop_
_atom_site_type_symbol
_atom_site_label
_atom_site_fract_x
_atom_site_fract_y
_atom_site_fract_z
Si Si1 0.369021 0.644651 0.244445
Si Si2 0.423903 0.857153 0.976611
Si Si3 0.321450 0.146744 0.870432
Si Si4 0.988327 0.015490 0.121245
Si Si5 0.977662 0.357929 0.760984
Si Si6 0.410878 0.957602 0.483627
Si Si7 0.707435 0.537327 0.605286
O O1 0.301731 0.750000 0.311489
O O2 0.401029 0.624286 0.107320
O O3 0.559021 0.639475 0.137640
O O4 0.248599 0.565748 0.396940
O O5 0.474818 0.750000 0.922631
O O6 0.228127 0.869727 0.096859
O O7 0.573198 0.918331 0.796616
O O8 0.253181 0.250000 0.919788
O O9 0.462906 0.123216 0.664469
O O10 0.158656 0.075252 0.007509
O O11 0.993331 0.918143 0.170391
O O12 0.798088 0.063689 0.312112
O O13 0.000000 0.000000 0.000000
O O14 0.013072 0.250000 0.743598
O O15 0.116849 0.401396 0.565475
O O16 0.500000 0.000000 0.500000
O O17 0.396311 0.026127 0.405986
#
# Coordination Sequence:
#
# PCOD9162688 Si02
#       7
#     4   4   4   4   4   4   4
#     4   9  19  36  59  85 115 153 194 238 288 337
#     4  10  20  36  58  85 118 152 191 239 286 341
#     4  10  21  39  60  84 116 152 193 239 285 344
#     4  11  22  37  60  82 116 153 192 238 292 345
#     4  10  22  38  56  84 116 148 191 238 287 346
#     4  10  20  37  57  80 113 150 190 239 285 339
#     4  10  20  35  59  82 113 153 189 236 287 346
#
# _framework density 18.404942999999999
#
# number of rings (size 3 to 8) (size 9 to 14) (size 15 to 20)
#    0.000    2.000    1.429    2.571    0.000    1.714 
#    0.000    5.714    0.000   12.857    0.000    0.000 
#    0.000    0.000    0.000    0.000    0.000    0.000 
#
# Total GULP energy -156207.063207 kJ/mol
# GULP energy per Si atom -5578.823686 kJ/mol
# Density = 1.836305 g / cm^3
# Si number density = 18.404943 Si / 1000 Ang^3
#
#
#
# Elastic Constant Matrix: (Units=GPa)
#
#
# Indices 1 2 3 4 5 6 
#
# 1 60.4863 23.4666 22.5214 0.0000 25.4654 0.0000
# 2 23.4666 110.7453 60.9195 0.0000 5.3339 0.0000
# 3 22.5214 60.9195 95.5120 0.0000 2.6900 0.0000
# 4 0.0000 0.0000 0.0000 29.2148 0.0000 -2.0692
# 5 25.4654 5.3339 2.6900 0.0000 23.9547 0.0000
# 6 0.0000 0.0000 0.0000 -2.0692 0.0000 16.9942
#
#
#
# Elastic Compliance Matrix: (Units=1/GPa)
#
#
# Indices 1 2 3 4 5 6 
#
# 1 0.034536 -0.002585 -0.005494 0.000000 -0.035522 0.000000
# 2 -0.002585 0.014211 -0.008469 0.000000 0.000535 0.000000
# 3 -0.005494 -0.008469 0.017004 0.000000 0.005817 0.000000
# 4 0.000000 0.000000 0.000000 0.034527 0.000000 0.004204
# 5 -0.035522 0.000535 0.005817 0.000000 0.078735 0.000000
# 6 0.000000 0.000000 0.000000 0.004204 0.000000 0.059356
#
#
# Mechanical properties :
#
#
# Convention : Reuss Voigt Hill
#
# Bulk Modulus (GPa) = 30.62490 53.39538 42.01014
# Shear Modulus (GPa) = 17.70852 24.68848 21.19850
#
# Velocity S-wave (km/s) = 3.10524 3.66649 3.39747
# Velocity P-wave (km/s) = 5.43436 6.85556 6.18591
#
# Compressibility (1/GPa) = 0.03265317
#
# Stress axis : x y z
#
# Youngs Moduli (GPa) = 28.95499 70.37019 58.81133
#
# Poissons Ratio (x) = 0.18190 0.32314
# Poissons Ratio (y) = 0.07484 0.49809
# Poissons Ratio (z) = 0.15909 0.59599
#
# Static dielectric constant tensor:
#      x y z
#    x 1.624780 0.000000 0.002070 
#    y 0.000000 1.650980 0.000000 
#    z 0.002070 0.000000 1.619490 
# 
# From -- ./inp_files/52443.got.cif
#   From: 2010.05.17/outbox.cif.g08.bks.cpg/sg11_27_cif.got.tgz:52443.got - 2010.06.03 12:22:45.
