data_PCOD9162999
_publ_section_title
;
Structure prediction by ZEFSAII (Michael W. Deem and Ramdas Pophale) SiO2 
 PCOD9162999
Probable space group: P 21/M
;
_chemical_formula_sum "Si O2"
_cell_formula_units_Z 32
_cell_length_a 24.238134
_cell_length_b 9.140173
_cell_length_c 15.129080
_cell_angle_alpha 90.000000
_cell_angle_beta 150.174949
_cell_angle_gamma 90.000000
_cell_volume 1666.982877
_symmetry_space_group_name_H-M "P 21/M"
_symmetry_group_IT_number 11
_symmetry_cell_setting 'monoclinic'
loop_
_space_group_symop_operation_xyz
x,y,z
-x,1/2+y,-z
-x,-y,-z
x,1/2-y,z
loop_
_atom_site_type_symbol
_atom_site_label
_atom_site_fract_x
_atom_site_fract_y
_atom_site_fract_z
Si Si1 0.389125 0.911402 0.342086
Si Si2 0.217072 0.926645 0.953414
Si Si3 0.234738 0.421964 0.626300
Si Si4 0.597078 0.422599 0.272696
Si Si5 0.930156 0.579422 0.977012
Si Si6 0.272303 0.910538 0.363295
Si Si7 0.654983 0.577632 0.029951
Si Si8 0.996328 0.927151 0.267934
O O1 0.413766 0.750000 0.340457
O O2 0.353157 0.900160 0.393144
O O3 0.500000 0.000000 0.500000
O O4 0.290323 0.967534 0.142116
O O5 0.203953 0.750000 0.932033
O O6 0.286503 0.985970 0.966214
O O7 0.096882 0.002679 0.797569
O O8 0.219251 0.250000 0.583173
O O9 0.333942 0.488330 0.704301
O O10 0.272703 0.432933 0.780694
O O11 0.119586 0.508894 0.453109
O O12 0.593270 0.250000 0.241969
O O13 0.665798 0.434215 0.459179
O O14 0.470649 0.468950 0.118407
O O15 0.950628 0.750000 0.003261
O O16 0.807401 0.539556 0.776317
O O17 0.959124 0.530304 0.116433
O O18 0.000000 0.500000 0.000000
O O19 0.214177 0.750000 0.288421
O O20 0.648740 0.750000 0.994809
O O21 0.996681 0.750000 0.276304
#
# Coordination Sequence:
#
# PCOD9162999 Si02
#       8
#     4   4   4   4   4   4   4   4
#     4  10  21  36  57  86 121 159 198 241 292 351
#     4  11  23  40  64  93 124 162 209 261 308 360
#     4  11  24  41  64  92 122 160 207 263 318 368
#     4  10  21  39  64  92 125 164 204 250 309 376
#     4  11  23  37  57  85 117 157 199 242 294 353
#     4  10  20  36  57  84 119 156 192 234 290 350
#     4  10  23  43  65  90 123 164 206 255 319 377
#     4  11  24  42  63  88 123 167 209 254 312 374
#
# _framework density 19.196358
#
# number of rings (size 3 to 8) (size 9 to 14) (size 15 to 20)
#    0.000    1.500    1.250    3.375    0.000    9.500 
#    0.000    0.000    0.000    0.000    0.000    0.000 
#    0.000    0.000    0.000    0.000    0.000    0.000 
#
# Total GULP energy -178578.160470 kJ/mol
# GULP energy per Si atom -5580.567515 kJ/mol
# Density = 1.915267 g / cm^3
# Si number density = 19.196358 Si / 1000 Ang^3
#
#
#
# Elastic Constant Matrix: (Units=GPa)
#
#
# Indices 1 2 3 4 5 6 
#
# 1 118.8965 57.8487 42.2828 0.0000 16.7220 0.0000
# 2 57.8487 67.9126 41.0291 0.0000 13.2397 0.0000
# 3 42.2828 41.0291 85.6853 0.0000 18.3243 0.0000
# 4 0.0000 0.0000 0.0000 63.9119 0.0000 -7.3103
# 5 16.7220 13.2397 18.3243 0.0000 37.3668 0.0000
# 6 0.0000 0.0000 0.0000 -7.3103 0.0000 39.4079
#
#
#
# Elastic Compliance Matrix: (Units=1/GPa)
#
#
# Indices 1 2 3 4 5 6 
#
# 1 0.014662 -0.011250 -0.001450 0.000000 -0.001864 0.000000
# 2 -0.011250 0.029610 -0.008334 0.000000 -0.001370 0.000000
# 3 -0.001450 -0.008334 0.017435 0.000000 -0.004948 0.000000
# 4 0.000000 0.000000 0.000000 0.015986 0.000000 0.002965
# 5 -0.001864 -0.001370 -0.004948 0.000000 0.030508 0.000000
# 6 0.000000 0.000000 0.000000 0.002965 0.000000 0.025926
#
#
# Mechanical properties :
#
#
# Convention : Reuss Voigt Hill
#
# Bulk Modulus (GPa) = 50.91727 61.64617 56.28172
# Shear Modulus (GPa) = 27.36145 36.89290 32.12717
#
# Velocity S-wave (km/s) = 3.77947 4.38867 4.09541
# Velocity P-wave (km/s) = 6.75484 7.60682 7.19346
#
# Compressibility (1/GPa) = 0.01963970
#
# Stress axis : x y z
#
# Youngs Moduli (GPa) = 68.20301 33.77290 57.35731
#
# Poissons Ratio (x) = 0.37995 0.08314
# Poissons Ratio (y) = 0.76729 0.47799
# Poissons Ratio (z) = 0.09887 0.28145
#
# Static dielectric constant tensor:
#      x y z
#    x 1.631690 0.000000 -0.004240 
#    y 0.000000 1.711060 0.000000 
#    z -0.004240 0.000000 1.684170 
# 
# From -- ./inp_files/55672.got.cif
#   From: 2010.05.17/outbox.cif.g08.bks.cpg/sg11_28_cif.got.tgz:55672.got - 2010.06.03 12:22:45.
