data_PCOD9162916
_publ_section_title
;
Structure prediction by ZEFSAII (Michael W. Deem and Ramdas Pophale) SiO2 
 PCOD9162916
Probable space group: P 21/M
;
_chemical_formula_sum "Si O2"
_cell_formula_units_Z 32
_cell_length_a 16.008667
_cell_length_b 23.229848
_cell_length_c 10.033641
_cell_angle_alpha 90.000000
_cell_angle_beta 150.461391
_cell_angle_gamma 90.000000
_cell_volume 1839.567692
_symmetry_space_group_name_H-M "P 21/M"
_symmetry_group_IT_number 11
_symmetry_cell_setting 'monoclinic'
loop_
_space_group_symop_operation_xyz
x,y,z
-x,1/2+y,-z
-x,-y,-z
x,1/2-y,z
loop_
_atom_site_type_symbol
_atom_site_label
_atom_site_fract_x
_atom_site_fract_y
_atom_site_fract_z
Si Si1 0.265857 0.100891 0.960998
Si Si2 0.585744 0.938494 0.104886
Si Si3 0.117143 0.816761 0.940563
Si Si4 0.043671 0.816056 0.534181
Si Si5 0.581629 0.183387 0.443240
Si Si6 0.256940 0.866967 0.594805
Si Si7 0.898511 0.923897 0.732718
Si Si8 0.051729 0.453292 0.894919
O O1 0.424511 0.139770 0.226662
O O2 0.323418 0.064954 0.912575
O O3 0.186289 0.063265 0.968625
O O4 0.117245 0.143135 0.706295
O O5 0.722049 0.926844 0.408972
O O6 0.433608 0.892757 0.891371
O O7 0.500000 0.000000 0.000000
O O8 0.062753 0.750000 0.888923
O O9 0.991712 0.864169 0.828256
O O10 0.123148 0.825693 0.790176
O O11 0.298540 0.823562 0.262390
O O12 0.989108 0.750000 0.450948
O O13 0.171192 0.829719 0.591252
O O14 0.526373 0.250000 0.357260
O O15 0.697376 0.167747 0.475571
O O16 0.122758 0.917880 0.374515
O O17 0.882655 0.933392 0.869084
O O18 0.009167 0.979024 0.838272
#
# Coordination Sequence:
#
# PCOD9162916 Si02
#       8
#     4   4   4   4   4   4   4   4
#     4  10  22  37  57  87 114 148 193 238 281 346
#     4  11  22  37  58  84 117 149 191 236 292 341
#     4  10  21  37  58  84 114 153 191 230 286 344
#     4  10  20  36  57  84 115 149 191 236 283 336
#     4  10  20  37  59  81 116 153 188 232 283 341
#     4  10  20  36  56  86 114 146 194 233 281 346
#     4  11  21  40  59  84 118 153 186 244 287 343
#     4  10  22  37  61  84 116 149 195 233 292 342
#
# _framework density 17.395392000000001
#
# number of rings (size 3 to 8) (size 9 to 14) (size 15 to 20)
#    0.000    1.750    3.750    0.750    0.000    2.500 
#    0.000    2.500    0.000    0.000    0.000    0.000 
#    0.000    0.000    0.000    0.000    0.000    0.000 
#
# Total GULP energy -178595.297513 kJ/mol
# GULP energy per Si atom -5581.103047 kJ/mol
# Density = 1.735580 g / cm^3
# Si number density = 17.395392 Si / 1000 Ang^3
#
#
#
# Elastic Constant Matrix: (Units=GPa)
#
#
# Indices 1 2 3 4 5 6 
#
# 1 121.2903 53.7053 62.9960 0.0000 0.8988 0.0000
# 2 53.7053 80.0631 45.6988 0.0000 -10.5920 0.0000
# 3 62.9960 45.6988 123.0214 0.0000 -14.6536 0.0000
# 4 0.0000 0.0000 0.0000 17.1244 0.0000 -13.9856
# 5 0.8988 -10.5920 -14.6536 0.0000 22.2881 0.0000
# 6 0.0000 0.0000 0.0000 -13.9856 0.0000 3.4452
#
#
#
# Elastic Compliance Matrix: (Units=1/GPa)
#
#
# Indices 1 2 3 4 5 6 
#
# 1 0.014578 -0.007646 -0.005563 0.000000 -0.007879 0.000000
# 2 -0.007646 0.020192 -0.002610 0.000000 0.008188 0.000000
# 3 -0.005563 -0.002610 0.012831 0.000000 0.007420 0.000000
# 4 0.000000 0.000000 0.000000 -0.025221 0.000000 -0.102383
# 5 -0.007879 0.008188 0.007420 0.000000 0.053954 0.000000
# 6 0.000000 0.000000 0.000000 -0.102383 0.000000 -0.125361
#
#
# Mechanical properties :
#
#
# Convention : Reuss Voigt Hill
#
# Bulk Modulus (GPa) = 62.64762 72.13055 67.38908
# Shear Modulus (GPa) = -414.31009 19.36985 -197.47012
#
# Velocity S-wave (km/s) = -15.44958 3.34054 -10.66607
# Velocity P-wave (km/s) = 16.79763 7.51228 10.62370
#
# Compressibility (1/GPa) = 0.01596230
#
# Stress axis : x y z
#
# Youngs Moduli (GPa) = 68.59715 49.52504 77.93650
#
# Poissons Ratio (x) = 0.37864 0.43359
# Poissons Ratio (y) = 0.52446 0.20344
# Poissons Ratio (z) = 0.38163 0.12928
#
# Static dielectric constant tensor:
#      x y z
#    x 1.566490 0.000000 -0.010990 
#    y 0.000000 1.585700 0.000000 
#    z -0.010990 0.000000 1.575460 
# 
# From -- ./inp_files/14951.got.cif
#   From: 2010.05.17/outbox.cif.g08.bks.cpg/sg11_8_cif.got.tgz:14951.got - 2010.06.03 12:22:45.
