data_PCOD9162356
_publ_section_title
;
Structure prediction by ZEFSAII (Michael W. Deem and Ramdas Pophale) SiO2 
 PCOD9162356
Probable space group: P 21/M
;
_chemical_formula_sum "Si O2"
_cell_formula_units_Z 24
_cell_length_a 11.612028
_cell_length_b 11.581889
_cell_length_c 9.961468
_cell_angle_alpha 90.000000
_cell_angle_beta 136.108728
_cell_angle_gamma 90.000000
_cell_volume 928.810340
_symmetry_space_group_name_H-M "P 21/M"
_symmetry_group_IT_number 11
_symmetry_cell_setting 'monoclinic'
loop_
_space_group_symop_operation_xyz
x,y,z
-x,1/2+y,-z
-x,-y,-z
x,1/2-y,z
loop_
_atom_site_type_symbol
_atom_site_label
_atom_site_fract_x
_atom_site_fract_y
_atom_site_fract_z
Si Si1 0.785153 0.376665 0.413808
Si Si2 0.390238 0.622066 0.001196
Si Si3 0.880298 0.372025 0.776203
Si Si4 0.242473 0.125512 0.564678
Si Si5 0.328129 0.064809 0.334967
Si Si6 0.253141 0.123754 0.987449
O O1 0.868357 0.250000 0.458912
O O2 0.635383 0.376605 0.181369
O O3 0.748989 0.371049 0.542237
O O4 0.851386 0.509768 0.465318
O O5 0.322611 0.750000 0.989349
O O6 0.577126 0.620163 0.213312
O O7 0.305615 0.501183 0.973558
O O8 0.879512 0.250000 0.848284
O O9 0.819085 0.473094 0.816811
O O10 0.055038 0.382275 0.848103
O O11 0.165148 0.250000 0.528984
O O12 0.275373 0.121133 0.431618
O O13 0.500000 0.000000 0.500000
O O14 0.335332 0.132382 0.203317
O O15 0.282800 0.250000 0.943252
#
# Coordination Sequence:
#
# PCOD9162356 Si02
#       6
#     4   4   4   4   4   4
#     4   9  19  37  59  83 114 155 196 236 291 351
#     4  10  21  37  57  84 118 155 195 238 290 348
#     4   9  21  39  60  85 118 156 194 242 295 346
#     4  10  20  35  55  85 118 147 190 247 296 343
#     4  11  21  38  60  86 116 153 196 242 291 350
#     4  11  23  39  58  88 122 154 197 240 288 349
#
# _framework density 25.839506
#
# number of rings (size 3 to 8) (size 9 to 14) (size 15 to 20)
#    0.000    2.000    1.667    1.500    0.000    4.000 
#    0.000    4.167    0.000    0.000    0.000    0.000 
#    0.000    0.000    0.000    0.000    0.000    0.000 
#
# Total GULP energy -133735.304417 kJ/mol
# GULP energy per Si atom -5572.304351 kJ/mol
# Density = 2.578069 g / cm^3
# Si number density = 25.839506 Si / 1000 Ang^3
#
#
#
# Elastic Constant Matrix: (Units=GPa)
#
#
# Indices 1 2 3 4 5 6 
#
# 1 64.6990 45.1342 29.2379 0.0000 -3.6811 0.0000
# 2 45.1342 316.8852 16.9432 0.0000 22.1880 0.0000
# 3 29.2379 16.9432 81.1264 0.0000 -14.0547 0.0000
# 4 0.0000 0.0000 0.0000 -10.8123 0.0000 3.9434
# 5 -3.6811 22.1880 -14.0547 0.0000 44.7333 0.0000
# 6 0.0000 0.0000 0.0000 3.9434 0.0000 11.3501
#
#
#
# Elastic Compliance Matrix: (Units=1/GPa)
#
#
# Indices 1 2 3 4 5 6 
#
# 1 0.020315 -0.002601 -0.006626 0.000000 0.000880 0.000000
# 2 -0.002601 0.003684 -0.000196 0.000000 -0.002103 0.000000
# 3 -0.006626 -0.000196 0.015523 0.000000 0.004429 0.000000
# 4 0.000000 0.000000 0.000000 -0.082086 0.000000 0.028519
# 5 0.000880 -0.002103 0.004429 0.000000 0.024862 0.000000
# 6 0.000000 0.000000 0.000000 0.028519 0.000000 0.078196
#
#
# Mechanical properties :
#
#
# Convention : Reuss Voigt Hill
#
# Bulk Modulus (GPa) = 48.36652 71.70458 60.03555
# Shear Modulus (GPa) = 57.98322 33.81389 45.89856
#
# Velocity S-wave (km/s) = 4.74220 3.62140 4.21918
# Velocity P-wave (km/s) = 6.98164 6.73025 6.85710
#
# Compressibility (1/GPa) = 0.02067546
#
# Stress axis : x y z
#
# Youngs Moduli (GPa) = 49.22509 271.45150 64.42164
#
# Poissons Ratio (x) = 0.70599 0.42685
# Poissons Ratio (y) = 0.12802 0.01265
# Poissons Ratio (z) = 0.32616 0.05331
#
# Static dielectric constant tensor:
#      x y z
#    x 1.982080 0.000000 -0.003840 
#    y 0.000000 2.380270 0.000000 
#    z -0.003840 0.000000 2.054710 
# 
# From -- ./inp_files/60913.got.cif
#   From: 2010.05.17/outbox.cif.g08.bks.cpg/sg11_31_cif.got.tgz:60913.got - 2010.06.03 12:22:45.
