data_PCOD9162459
_publ_section_title
;
Structure prediction by ZEFSAII (Michael W. Deem and Ramdas Pophale) SiO2 
 PCOD9162459
Probable space group: P 21/M
;
_chemical_formula_sum "Si O2"
_cell_formula_units_Z 32
_cell_length_a 24.567541
_cell_length_b 7.665897
_cell_length_c 15.279811
_cell_angle_alpha 90.000000
_cell_angle_beta 151.151675
_cell_angle_gamma 90.000000
_cell_volume 1388.459813
_symmetry_space_group_name_H-M "P 21/M"
_symmetry_group_IT_number 11
_symmetry_cell_setting 'monoclinic'
loop_
_space_group_symop_operation_xyz
x,y,z
-x,1/2+y,-z
-x,-y,-z
x,1/2-y,z
loop_
_atom_site_type_symbol
_atom_site_label
_atom_site_fract_x
_atom_site_fract_y
_atom_site_fract_z
Si Si1 0.937664 0.458949 0.001594
Si Si2 0.284536 0.539709 0.399340
Si Si3 0.229619 0.047073 0.991564
Si Si4 0.983054 0.545420 0.700881
Si Si5 0.387510 0.963652 0.716294
Si Si6 0.379078 0.956423 0.365173
Si Si7 0.260668 0.546539 0.710371
Si Si8 0.379662 0.449109 0.045308
O O1 0.930321 0.250000 0.003237
O O2 0.992855 0.528898 0.167535
O O3 0.814974 0.525790 0.802692
O O4 0.000000 0.500000 0.000000
O O5 0.273116 0.750000 0.391150
O O6 0.297500 0.477478 0.515722
O O7 0.386288 0.495136 0.478324
O O8 0.215666 0.250000 0.949885
O O9 0.316570 0.971862 0.041236
O O10 0.102563 0.973175 0.818761
O O11 0.288257 0.031865 0.169127
O O12 0.958159 0.750000 0.673206
O O13 0.870183 0.465959 0.501281
O O14 0.389721 0.750000 0.723232
O O15 0.342806 0.020922 0.747849
O O16 0.507694 0.021032 0.844830
O O17 0.356346 0.750000 0.332068
O O18 0.500000 0.000000 0.500000
O O19 0.287359 0.750000 0.761571
O O20 0.287881 0.450707 0.838519
O O21 0.411630 0.250000 0.115094
#
# Coordination Sequence:
#
# PCOD9162459 Si02
#       8
#     4   4   4   4   4   4   4   4
#     4  10  20  35  56  84 117 157 197 237 292 351
#     4   9  17  33  55  81 116 155 190 227 286 353
#     4  11  23  40  63  90 122 162 209 256 305 366
#     4  11  23  41  62  87 124 166 204 252 309 365
#     4   9  18  35  61  90 122 156 197 247 305 368
#     4  11  21  36  58  86 122 162 202 244 295 355
#     4  11  23  39  63  92 118 155 205 260 312 367
#     4  10  22  41  63  88 119 160 203 253 318 376
#
# _framework density 23.04712
#
# number of rings (size 3 to 8) (size 9 to 14) (size 15 to 20)
#    0.000    1.750    1.250    3.375    0.000    5.500 
#    0.000    0.625    0.000    4.500    0.000    0.000 
#    0.000    0.000    0.000    0.000    0.000    0.000 
#
# Total GULP energy -178527.422856 kJ/mol
# GULP energy per Si atom -5578.981964 kJ/mol
# Density = 2.299466 g / cm^3
# Si number density = 23.047120 Si / 1000 Ang^3
#
#
#
# Elastic Constant Matrix: (Units=GPa)
#
#
# Indices 1 2 3 4 5 6 
#
# 1 118.4040 -4.1425 14.0255 0.0000 -5.0697 0.0000
# 2 -4.1425 48.4819 -8.1124 0.0000 -2.4174 0.0000
# 3 14.0255 -8.1124 81.0610 0.0000 -1.5842 0.0000
# 4 0.0000 0.0000 0.0000 16.9412 0.0000 -0.0675
# 5 -5.0697 -2.4174 -1.5842 0.0000 36.7858 0.0000
# 6 0.0000 0.0000 0.0000 -0.0675 0.0000 15.0169
#
#
#
# Elastic Compliance Matrix: (Units=1/GPa)
#
#
# Indices 1 2 3 4 5 6 
#
# 1 0.008684 0.000562 -0.001423 0.000000 0.001172 0.000000
# 2 0.000562 0.021094 0.002044 0.000000 0.001552 0.000000
# 3 -0.001423 0.002044 0.012797 0.000000 0.000489 0.000000
# 4 0.000000 0.000000 0.000000 0.059029 0.000000 0.000265
# 5 0.001172 0.001552 0.000489 0.000000 0.027469 0.000000
# 6 0.000000 0.000000 0.000000 0.000265 0.000000 0.066593
#
#
# Mechanical properties :
#
#
# Convention : Reuss Voigt Hill
#
# Bulk Modulus (GPa) = 22.25163 27.94314 25.09739
# Shear Modulus (GPa) = 24.00622 30.16054 27.08338
#
# Velocity S-wave (km/s) = 3.23091 3.62145 3.43174
# Velocity P-wave (km/s) = 4.85738 5.44400 5.15904
#
# Compressibility (1/GPa) = 0.04494052
#
# Stress axis : x y z
#
# Youngs Moduli (GPa) = 115.15242 47.40758 78.14455
#
# Poissons Ratio (x) = -0.02666 0.11123
# Poissons Ratio (y) = -0.06475 -0.15973
# Poissons Ratio (z) = 0.16391 -0.09690
#
# Static dielectric constant tensor:
#      x y z
#    x 2.187890 0.000000 0.205510 
#    y 0.000000 1.879380 0.000000 
#    z 0.205510 0.000000 1.976900 
# 
# From -- ./inp_files/55659.got.cif
#   From: 2010.05.17/outbox.cif.g08.bks.cpg/sg11_28_cif.got.tgz:55659.got - 2010.06.03 12:22:45.
