data_PCOD9162778
_publ_section_title
;
Structure prediction by ZEFSAII (Michael W. Deem and Ramdas Pophale) SiO2 
 PCOD9162778
Probable space group: P 21/M
;
_chemical_formula_sum "Si O2"
_cell_formula_units_Z 28
_cell_length_a 8.973406
_cell_length_b 14.275587
_cell_length_c 10.118558
_cell_angle_alpha 90.000000
_cell_angle_beta 103.436834
_cell_angle_gamma 90.000000
_cell_volume 1260.712626
_symmetry_space_group_name_H-M "P 21/M"
_symmetry_group_IT_number 11
_symmetry_cell_setting 'monoclinic'
loop_
_space_group_symop_operation_xyz
x,y,z
-x,1/2+y,-z
-x,-y,-z
x,1/2-y,z
loop_
_atom_site_type_symbol
_atom_site_label
_atom_site_fract_x
_atom_site_fract_y
_atom_site_fract_z
Si Si1 0.137534 0.639039 0.240409
Si Si2 0.234021 0.147228 0.461013
Si Si3 0.030605 0.362021 0.066825
Si Si4 0.352837 0.141184 0.180288
Si Si5 0.676006 0.357153 0.317948
Si Si6 0.030571 0.526445 0.676291
Si Si7 0.448321 0.598712 0.429008
O O1 0.137761 0.750000 0.270114
O O2 0.081085 0.626397 0.078970
O O3 0.308795 0.598156 0.297870
O O4 0.017946 0.579974 0.304226
O O5 0.164640 0.250000 0.462651
O O6 0.297413 0.139058 0.322602
O O7 0.387763 0.139970 0.579792
O O8 0.103891 0.069811 0.443328
O O9 0.036236 0.250000 0.099229
O O10 0.984439 0.420732 0.184565
O O11 0.205718 0.393313 0.069864
O O12 0.372864 0.250000 0.149683
O O13 0.524990 0.104006 0.210895
O O14 0.717254 0.250000 0.283159
O O15 0.808354 0.433191 0.337297
O O16 0.623864 0.349458 0.459487
O O17 0.500000 0.500000 0.500000
#
# Coordination Sequence:
#
# PCOD9162778 Si02
#       7
#     4   4   4   4   4   4   4
#     4  11  23  38  58  83 122 165 197 238 294 357
#     4   9  16  31  56  82 110 142 189 244 280 329
#     4   9  18  35  61  88 117 154 199 243 291 350
#     4   7  13  28  52  80 107 142 185 230 278 330
#     4  10  20  35  61  91 119 147 190 255 305 337
#     4  11  20  35  59  93 117 149 200 249 292 343
#     4  11  21  39  59  83 114 155 201 237 289 361
#
# _framework density 22.209662000000002
#
# number of rings (size 3 to 8) (size 9 to 14) (size 15 to 20)
#    0.000    2.286    1.429    4.714    0.000    0.571 
#    0.000    0.714    0.000    1.714    0.000    0.000 
#    0.000    0.000    0.000    0.000    0.000    0.000 
#
# Total GULP energy -156206.671573 kJ/mol
# GULP energy per Si atom -5578.809699 kJ/mol
# Density = 2.215911 g / cm^3
# Si number density = 22.209662 Si / 1000 Ang^3
#
#
#
# Elastic Constant Matrix: (Units=GPa)
#
#
# Indices 1 2 3 4 5 6 
#
# 1 101.7692 28.7629 44.4088 0.0000 42.3555 0.0000
# 2 28.7629 115.5223 29.3611 0.0000 14.4335 0.0000
# 3 44.4088 29.3611 117.7498 0.0000 47.9332 0.0000
# 4 0.0000 0.0000 0.0000 21.1998 0.0000 10.1311
# 5 42.3555 14.4335 47.9332 0.0000 42.4921 0.0000
# 6 0.0000 0.0000 0.0000 10.1311 0.0000 27.4418
#
#
#
# Elastic Compliance Matrix: (Units=1/GPa)
#
#
# Indices 1 2 3 4 5 6 
#
# 1 0.017462 -0.002438 0.001425 0.000000 -0.018185 0.000000
# 2 -0.002438 0.009605 -0.002102 0.000000 0.001538 0.000000
# 3 0.001425 -0.002102 0.016211 0.000000 -0.018993 0.000000
# 4 0.000000 0.000000 0.000000 0.057275 0.000000 -0.021145
# 5 -0.018185 0.001538 -0.018993 0.000000 0.062563 0.000000
# 6 0.000000 0.000000 0.000000 -0.021145 0.000000 0.044247
#
#
# Mechanical properties :
#
#
# Convention : Reuss Voigt Hill
#
# Bulk Modulus (GPa) = 26.99159 60.01187 43.50173
# Shear Modulus (GPa) = 22.12952 33.72731 27.92841
#
# Velocity S-wave (km/s) = 3.15999 3.90113 3.54996
# Velocity P-wave (km/s) = 5.04911 6.88266 6.03592
#
# Compressibility (1/GPa) = 0.03704858
#
# Stress axis : x y z
#
# Youngs Moduli (GPa) = 57.26786 104.10895 61.68660
#
# Poissons Ratio (x) = 0.25379 -0.08790
# Poissons Ratio (y) = 0.13961 0.12966
# Poissons Ratio (z) = -0.08160 0.21883
#
# Static dielectric constant tensor:
#      x y z
#    x 1.854700 0.000000 0.037110 
#    y 0.000000 1.888010 0.000000 
#    z 0.037110 0.000000 1.871980 
# 
# From -- ./inp_files/31974.got.cif
#   From: 2010.05.17/outbox.cif.g08.bks.cpg/sg11_16_cif.got.tgz:31974.got - 2010.06.03 12:22:45.
