data_PCOD9162779
_publ_section_title
;
Structure prediction by ZEFSAII (Michael W. Deem and Ramdas Pophale) SiO2 
 PCOD9162779
Probable space group: P 21/M
;
_chemical_formula_sum "Si O2"
_cell_formula_units_Z 32
_cell_length_a 18.725764
_cell_length_b 14.431072
_cell_length_c 11.907875
_cell_angle_alpha 90.000000
_cell_angle_beta 150.479191
_cell_angle_gamma 90.000000
_cell_volume 1585.586348
_symmetry_space_group_name_H-M "P 21/M"
_symmetry_group_IT_number 11
_symmetry_cell_setting 'monoclinic'
loop_
_space_group_symop_operation_xyz
x,y,z
-x,1/2+y,-z
-x,-y,-z
x,1/2-y,z
loop_
_atom_site_type_symbol
_atom_site_label
_atom_site_fract_x
_atom_site_fract_y
_atom_site_fract_z
Si Si1 0.167354 0.561321 0.667534
Si Si2 0.857436 0.014059 0.880267
Si Si3 0.105735 0.477103 0.812373
Si Si4 0.391990 0.140119 0.448228
Si Si5 0.311326 0.639964 0.515730
Si Si6 0.524811 0.142097 0.852513
Si Si7 0.607238 0.857833 0.803297
Si Si8 0.661549 0.984371 0.268744
O O1 0.109895 0.549015 0.714783
O O2 0.227190 0.470639 0.680890
O O3 0.031243 0.588795 0.404356
O O4 0.318717 0.615657 0.883632
O O5 0.777170 0.101154 0.712290
O O6 0.745856 0.926683 0.722322
O O7 0.898235 0.019038 0.068199
O O8 0.000000 0.000000 0.000000
O O9 0.252996 0.420601 0.997081
O O10 0.354342 0.250000 0.408410
O O11 0.514113 0.116565 0.706574
O O12 0.449962 0.126941 0.401769
O O13 0.288002 0.750000 0.502441
O O14 0.480589 0.623876 0.717818
O O15 0.284444 0.572321 0.584441
O O16 0.512167 0.250000 0.849164
O O17 0.378069 0.098493 0.702902
O O18 0.647438 0.750000 0.867661
O O19 0.500000 0.000000 0.000000
#
# Coordination Sequence:
#
# PCOD9162779 Si02
#       8
#     4   4   4   4   4   4   4   4
#     4  10  22  39  57  85 120 162 209 247 296 368
#     4  11  23  39  63  90 123 159 201 252 313 368
#     4  10  22  38  60  84 119 166 200 247 310 358
#     4   9  19  35  59  89 120 155 197 249 306 360
#     4  11  23  39  63  94 122 157 203 254 309 362
#     4  10  20  35  61  91 120 161 205 251 302 358
#     4   9  19  35  57  88 118 149 195 246 299 362
#     4  10  20  37  59  86 123 155 201 250 294 356
#
# _framework density 20.181808
#
# number of rings (size 3 to 8) (size 9 to 14) (size 15 to 20)
#    0.000    2.000    1.250    2.250    1.750    4.000 
#    0.000    3.125    0.000    1.500    0.000    0.000 
#    0.000    0.000    0.000    0.000    0.000    0.000 
#
# Total GULP energy -178229.618417 kJ/mol
# GULP energy per Si atom -5569.675576 kJ/mol
# Density = 2.013587 g / cm^3
# Si number density = 20.181808 Si / 1000 Ang^3
#
#
#
# Elastic Constant Matrix: (Units=GPa)
#
#
# Indices 1 2 3 4 5 6 
#
# 1 104.1293 23.7694 33.3356 0.0000 -6.1575 0.0000
# 2 23.7694 51.7342 28.6836 0.0000 -3.6523 0.0000
# 3 33.3356 28.6836 96.0576 0.0000 -18.0847 0.0000
# 4 0.0000 0.0000 0.0000 14.3915 0.0000 -1.2809
# 5 -6.1575 -3.6523 -18.0847 0.0000 37.9561 0.0000
# 6 0.0000 0.0000 0.0000 -1.2809 0.0000 12.4792
#
#
#
# Elastic Compliance Matrix: (Units=1/GPa)
#
#
# Indices 1 2 3 4 5 6 
#
# 1 0.011346 -0.003637 -0.002824 0.000000 0.000145 0.000000
# 2 -0.003637 0.024378 -0.006247 0.000000 -0.001221 0.000000
# 3 -0.002824 -0.006247 0.014343 0.000000 0.005775 0.000000
# 4 0.000000 0.000000 0.000000 0.070126 0.000000 0.007198
# 5 0.000145 -0.001221 0.005775 0.000000 0.029004 0.000000
# 6 0.000000 0.000000 0.000000 0.007198 0.000000 0.080872
#
#
# Mechanical properties :
#
#
# Convention : Reuss Voigt Hill
#
# Bulk Modulus (GPa) = 40.56659 47.05536 43.81097
# Shear Modulus (GPa) = 18.96068 24.04087 21.50078
#
# Velocity S-wave (km/s) = 3.06844 3.45514 3.26752
# Velocity P-wave (km/s) = 5.71822 6.26767 5.99924
#
# Compressibility (1/GPa) = 0.02465083
#
# Stress axis : x y z
#
# Youngs Moduli (GPa) = 88.13383 41.02043 69.71939
#
# Poissons Ratio (x) = 0.14919 0.19691
# Poissons Ratio (y) = 0.32054 0.43555
# Poissons Ratio (z) = 0.24891 0.25626
#
# Static dielectric constant tensor:
#      x y z
#    x 1.817150 0.000000 -0.051060 
#    y 0.000000 1.738830 0.000000 
#    z -0.051060 0.000000 1.763330 
# 
# From -- ./inp_files/41714.got.cif
#   From: 2010.05.17/outbox.cif.g08.bks.cpg/sg11_21_cif.got.tgz:41714.got - 2010.06.03 12:22:45.
