data_PCOD9162282
_publ_section_title
;
Structure prediction by ZEFSAII (Michael W. Deem and Ramdas Pophale) SiO2 
 PCOD9162282
Probable space group: P 21/M
;
_chemical_formula_sum "Si O2"
_cell_formula_units_Z 28
_cell_length_a 8.167869
_cell_length_b 7.949481
_cell_length_c 22.626613
_cell_angle_alpha 90.000000
_cell_angle_beta 131.471996
_cell_angle_gamma 90.000000
_cell_volume 1100.806375
_symmetry_space_group_name_H-M "P 21/M"
_symmetry_group_IT_number 11
_symmetry_cell_setting 'monoclinic'
loop_
_space_group_symop_operation_xyz
x,y,z
-x,1/2+y,-z
-x,-y,-z
x,1/2-y,z
loop_
_atom_site_type_symbol
_atom_site_label
_atom_site_fract_x
_atom_site_fract_y
_atom_site_fract_z
Si Si1 0.748332 0.950703 0.448896
Si Si2 0.303410 0.449024 0.305290
Si Si3 0.204954 0.047471 0.970931
Si Si4 0.709977 0.442742 0.263574
Si Si5 0.274153 0.553174 0.113494
Si Si6 0.154744 0.446568 0.832336
Si Si7 0.170164 0.455925 0.405032
O O1 0.731391 0.750000 0.443104
O O2 0.708397 0.012889 0.507066
O O3 0.562054 0.019729 0.360779
O O4 0.000000 0.000000 0.500000
O O5 0.264002 0.250000 0.290323
O O6 0.109953 0.540175 0.223483
O O7 0.259683 0.507180 0.362832
O O8 0.199860 0.250000 0.964936
O O9 0.959794 0.977371 0.925422
O O10 0.260942 0.987443 0.918479
O O11 0.332795 0.004015 0.060997
O O12 0.688321 0.250000 0.275530
O O13 0.469877 0.518248 0.204921
O O14 0.787479 0.455070 0.213254
O O15 0.917633 0.517488 0.347101
O O16 0.242398 0.750000 0.102816
O O17 0.211863 0.250000 0.836323
O O18 0.166371 0.250000 0.404304
#
# Coordination Sequence:
#
# PCOD9162282 Si02
#       7
#     4   4   4   4   4   4   4
#     4  11  22  37  55  80 111 142 178 220 265 312
#     4  10  20  37  58  81 107 139 178 218 265 319
#     4   9  20  37  55  77 107 141 178 219 265 318
#     4  10  20  36  56  80 108 139 177 220 265 313
#     4  10  20  35  55  79 106 140 180 219 263 315
#     4  10  20  36  57  82 109 138 175 220 267 314
#     4   8  18  36  57  78 104 139 178 218 262 314
#
# _framework density 25.435896
#
# number of rings (size 3 to 8) (size 9 to 14) (size 15 to 20)
#    0.000    2.286    0.000    3.429    0.000    3.429 
#    0.000   10.714    0.000    0.000    0.000    0.000 
#    0.000    0.000    0.000    0.000    0.000    0.000 
#
# Total GULP energy -156550.239468 kJ/mol
# GULP energy per Si atom -5591.079981 kJ/mol
# Density = 2.537800 g / cm^3
# Si number density = 25.435896 Si / 1000 Ang^3
#
#
#
# Elastic Constant Matrix: (Units=GPa)
#
#
# Indices 1 2 3 4 5 6 
#
# 1 57.7144 -6.3867 8.7332 0.0000 6.4543 0.0000
# 2 -6.3867 45.9182 -15.0953 0.0000 -8.2665 0.0000
# 3 8.7332 -15.0953 137.6066 0.0000 -6.9549 0.0000
# 4 0.0000 0.0000 0.0000 29.3126 0.0000 7.5961
# 5 6.4543 -8.2665 -6.9549 0.0000 44.6733 0.0000
# 6 0.0000 0.0000 0.0000 7.5961 0.0000 18.7525
#
#
#
# Elastic Compliance Matrix: (Units=1/GPa)
#
#
# Indices 1 2 3 4 5 6 
#
# 1 0.017951 0.001703 -0.001076 0.000000 -0.002446 0.000000
# 2 0.001703 0.023734 0.002726 0.000000 0.004570 0.000000
# 3 -0.001076 0.002726 0.007729 0.000000 0.001863 0.000000
# 4 0.000000 0.000000 0.000000 0.038116 0.000000 -0.015440
# 5 -0.002446 0.004570 0.001863 0.000000 0.023874 0.000000
# 6 0.000000 0.000000 0.000000 -0.015440 0.000000 0.059580
#
#
# Mechanical properties :
#
#
# Convention : Reuss Voigt Hill
#
# Bulk Modulus (GPa) = 17.81890 23.97126 20.89508
# Shear Modulus (GPa) = 27.32468 35.48022 31.40245
#
# Velocity S-wave (km/s) = 3.28114 3.73887 3.51746
# Velocity P-wave (km/s) = 4.62333 5.29939 4.97286
#
# Compressibility (1/GPa) = 0.05612019
#
# Stress axis : x y z
#
# Youngs Moduli (GPa) = 55.70566 42.13404 129.38865
#
# Poissons Ratio (x) = -0.07174 0.13924
# Poissons Ratio (y) = -0.09485 -0.35278
# Poissons Ratio (z) = 0.05995 -0.11488
#
# Static dielectric constant tensor:
#      x y z
#    x 2.150130 0.000000 0.035100 
#    y 0.000000 1.864890 0.000000 
#    z 0.035100 0.000000 2.003450 
# 
# From -- ./inp_files/70916.got.cif
#   From: 2010.05.17/outbox.cif.g08.bks.cpg/sg11_36_cif.got.tgz:70916.got - 2010.06.03 12:22:45.
