data_PCOD9162481
_publ_section_title
;
Structure prediction by ZEFSAII (Michael W. Deem and Ramdas Pophale) SiO2 
 PCOD9162481
Probable space group: P 21/M
;
_chemical_formula_sum "Si O2"
_cell_formula_units_Z 32
_cell_length_a 17.094419
_cell_length_b 15.767096
_cell_length_c 11.466888
_cell_angle_alpha 90.000000
_cell_angle_beta 32.181699
_cell_angle_gamma 90.000000
_cell_volume 1646.105449
_symmetry_space_group_name_H-M "P 21/M"
_symmetry_group_IT_number 11
_symmetry_cell_setting 'monoclinic'
loop_
_space_group_symop_operation_xyz
x,y,z
-x,1/2+y,-z
-x,-y,-z
x,1/2-y,z
loop_
_atom_site_type_symbol
_atom_site_label
_atom_site_fract_x
_atom_site_fract_y
_atom_site_fract_z
Si Si1 0.907741 0.912552 0.101057
Si Si2 0.787020 0.157834 0.252109
Si Si3 0.831036 0.851132 0.453223
Si Si4 0.328143 0.996122 0.751217
Si Si5 0.916303 0.022383 0.459220
Si Si6 0.725137 0.347071 0.581651
Si Si7 0.234647 0.026000 0.123839
Si Si8 0.588023 0.848146 0.941271
O O1 0.837958 0.881801 0.311468
O O2 0.777835 0.930069 0.171646
O O3 0.045729 0.849424 0.910565
O O4 0.000000 0.000000 0.000000
O O5 0.768918 0.250000 0.221498
O O6 0.686341 0.149709 0.493859
O O7 0.743848 0.087110 0.215118
O O8 0.872082 0.750000 0.411266
O O9 0.670575 0.860757 0.714533
O O10 0.922461 0.923245 0.410650
O O11 0.500000 0.000000 0.500000
O O12 0.312754 0.992016 0.910137
O O13 0.839427 0.078821 0.459846
O O14 0.077148 0.058191 0.277575
O O15 0.820958 0.031499 0.697687
O O16 0.774452 0.250000 0.543209
O O17 0.583665 0.365931 0.838710
O O18 0.333420 0.095402 0.061539
O O19 0.606284 0.750000 0.949703
#
# Coordination Sequence:
#
# PCOD9162481 Si02
#       8
#     4   4   4   4   4   4   4   4
#     4  10  20  35  57  80 105 141 187 232 274 326
#     4  10  20  36  58  80 106 144 189 234 278 330
#     4  10  20  36  59  84 110 144 190 240 285 328
#     4  11  22  36  54  79 113 149 180 219 278 344
#     4  10  20  36  57  82 110 142 186 235 278 333
#     4  10  20  36  59  85 110 143 190 240 287 331
#     4  10  21  35  53  79 111 147 182 219 279 340
#     4   9  20  37  57  81 110 146 188 233 283 342
#
# _framework density 19.439824999999999
#
# number of rings (size 3 to 8) (size 9 to 14) (size 15 to 20)
#    0.000    2.000    0.000    4.875    0.000    3.500 
#    0.000    5.000    0.000    0.000    0.000    0.875 
#    0.000    0.000    0.000    0.000    0.000    0.000 
#
# Total GULP energy -178179.833079 kJ/mol
# GULP energy per Si atom -5568.119784 kJ/mol
# Density = 1.939558 g / cm^3
# Si number density = 19.439825 Si / 1000 Ang^3
#
#
#
# Elastic Constant Matrix: (Units=GPa)
#
#
# Indices 1 2 3 4 5 6 
#
# 1 58.8033 33.6986 35.8031 0.0000 14.0629 0.0000
# 2 33.6986 78.8224 28.0353 0.0000 -4.9481 0.0000
# 3 35.8031 28.0353 97.0220 0.0000 21.9031 0.0000
# 4 0.0000 0.0000 0.0000 22.2736 0.0000 0.5601
# 5 14.0629 -4.9481 21.9031 0.0000 30.9830 0.0000
# 6 0.0000 0.0000 0.0000 0.5601 0.0000 46.4087
#
#
#
# Elastic Compliance Matrix: (Units=1/GPa)
#
#
# Indices 1 2 3 4 5 6 
#
# 1 0.029416 -0.011591 -0.004847 0.000000 -0.011776 0.000000
# 2 -0.011591 0.019757 -0.003964 0.000000 0.011219 0.000000
# 3 -0.004847 -0.003964 0.015335 0.000000 -0.009274 0.000000
# 4 0.000000 0.000000 0.000000 0.044910 0.000000 -0.000542
# 5 -0.011776 0.011219 -0.009274 0.000000 0.045968 0.000000
# 6 0.000000 0.000000 0.000000 -0.000542 0.000000 0.021554
#
#
# Mechanical properties :
#
#
# Convention : Reuss Voigt Hill
#
# Bulk Modulus (GPa) = 42.19035 47.74687 44.96861
# Shear Modulus (GPa) = 22.15864 29.07379 25.61621
#
# Velocity S-wave (km/s) = 3.37984 3.87147 3.63398
# Velocity P-wave (km/s) = 6.08122 6.67825 6.38672
#
# Compressibility (1/GPa) = 0.02370210
#
# Stress axis : x y z
#
# Youngs Moduli (GPa) = 33.99499 50.61622 65.21172
#
# Poissons Ratio (x) = 0.58671 0.31610
# Poissons Ratio (y) = 0.39405 0.25850
# Poissons Ratio (z) = 0.16478 0.20064
#
# Static dielectric constant tensor:
#      x y z
#    x 1.661370 0.000000 0.008840 
#    y 0.000000 1.692910 0.000000 
#    z 0.008840 0.000000 1.773240 
# 
# From -- ./inp_files/41660.got.cif
#   From: 2010.05.17/outbox.cif.g08.bks.cpg/sg11_21_cif.got.tgz:41660.got - 2010.06.03 12:22:45.
