data_PCOD9162783
_publ_section_title
;
Structure prediction by ZEFSAII (Michael W. Deem and Ramdas Pophale) SiO2 
 PCOD9162783
Probable space group: P 21/M
;
_chemical_formula_sum "Si O2"
_cell_formula_units_Z 32
_cell_length_a 21.073432
_cell_length_b 14.148678
_cell_length_c 13.737869
_cell_angle_alpha 90.000000
_cell_angle_beta 159.805937
_cell_angle_gamma 90.000000
_cell_volume 1413.977460
_symmetry_space_group_name_H-M "P 21/M"
_symmetry_group_IT_number 11
_symmetry_cell_setting 'monoclinic'
loop_
_space_group_symop_operation_xyz
x,y,z
-x,1/2+y,-z
-x,-y,-z
x,1/2-y,z
loop_
_atom_site_type_symbol
_atom_site_label
_atom_site_fract_x
_atom_site_fract_y
_atom_site_fract_z
Si Si1 0.526682 0.545835 0.832377
Si Si2 0.877631 0.956957 0.909550
Si Si3 0.484436 0.141494 0.588948
Si Si4 0.415659 0.640460 0.976263
Si Si5 0.795982 0.359192 0.522677
Si Si6 0.856744 0.037904 0.081312
Si Si7 0.336323 0.140946 0.153838
Si Si8 0.763935 0.639921 0.334842
O O1 0.333808 0.570036 0.604891
O O2 0.529000 0.591338 0.729278
O O3 0.585126 0.438558 0.941760
O O4 0.673697 0.608135 0.104330
O O5 0.001527 0.878889 0.144919
O O6 0.837563 0.032484 0.936676
O O7 0.683782 0.911767 0.599350
O O8 0.000000 0.000000 0.000000
O O9 0.491133 0.250000 0.629020
O O10 0.420954 0.137661 0.383857
O O11 0.685376 0.095570 0.877813
O O12 0.407768 0.750000 0.996519
O O13 0.255408 0.625468 0.664663
O O14 0.605031 0.626012 0.187511
O O15 0.744681 0.250000 0.468285
O O16 0.052946 0.081721 0.383802
O O17 0.833509 0.931780 0.089150
O O18 0.295918 0.250000 0.072279
O O19 0.809205 0.750000 0.398991
#
# Coordination Sequence:
#
# PCOD9162783 Si02
#       8
#     4   4   4   4   4   4   4   4
#     4  11  20  36  63  95 129 164 215 269 323 376
#     4  11  23  38  64  93 127 163 215 274 321 372
#     4  10  23  45  65  90 128 173 214 261 322 389
#     4   9  19  37  61  92 132 170 212 264 326 386
#     4  10  20  35  61  93 127 169 212 267 329 384
#     4  11  23  42  64  88 127 180 212 253 327 387
#     4  10  22  39  63  88 122 165 217 267 312 372
#     4  10  20  38  61  92 128 169 213 258 318 388
#
# _framework density 22.631194000000001
#
# number of rings (size 3 to 8) (size 9 to 14) (size 15 to 20)
#    0.000    1.750    0.000    7.125    3.500    1.000 
#    0.000    3.750    0.000    0.750    0.000    0.000 
#    0.000    0.000    0.000    0.000    0.000    0.000 
#
# Total GULP energy -178942.634032 kJ/mol
# GULP energy per Si atom -5591.957314 kJ/mol
# Density = 2.257968 g / cm^3
# Si number density = 22.631194 Si / 1000 Ang^3
#
#
#
# Elastic Constant Matrix: (Units=GPa)
#
#
# Indices 1 2 3 4 5 6 
#
# 1 94.4943 38.3006 7.2876 0.0000 5.7502 0.0000
# 2 38.3006 148.8996 46.9851 0.0000 11.7569 0.0000
# 3 7.2876 46.9851 108.3369 0.0000 1.9627 0.0000
# 4 0.0000 0.0000 0.0000 38.8992 0.0000 4.8301
# 5 5.7502 11.7569 1.9627 0.0000 26.5959 0.0000
# 6 0.0000 0.0000 0.0000 4.8301 0.0000 26.7747
#
#
#
# Elastic Compliance Matrix: (Units=1/GPa)
#
#
# Indices 1 2 3 4 5 6 
#
# 1 0.011887 -0.003146 0.000587 0.000000 -0.001223 0.000000
# 2 -0.003146 0.008894 -0.003592 0.000000 -0.002987 0.000000
# 3 0.000587 -0.003592 0.010737 0.000000 0.000668 0.000000
# 4 0.000000 0.000000 0.000000 0.026297 0.000000 -0.004744
# 5 -0.001223 -0.002987 0.000668 0.000000 0.039135 0.000000
# 6 0.000000 0.000000 0.000000 -0.004744 0.000000 0.038205
#
#
# Mechanical properties :
#
#
# Convention : Reuss Voigt Hill
#
# Bulk Modulus (GPa) = 52.03976 59.65305 55.84640
# Shear Modulus (GPa) = 32.49678 35.73111 34.11394
#
# Velocity S-wave (km/s) = 3.79348 3.97778 3.88672
# Velocity P-wave (km/s) = 6.49861 6.89296 6.69869
#
# Compressibility (1/GPa) = 0.01921608
#
# Stress axis : x y z
#
# Youngs Moduli (GPa) = 84.12510 112.42996 93.13971
#
# Poissons Ratio (x) = 0.35375 -0.05468
# Poissons Ratio (y) = 0.26469 0.33453
# Poissons Ratio (z) = -0.04939 0.40382
#
# Static dielectric constant tensor:
#      x y z
#    x 1.892370 0.000000 -0.012270 
#    y 0.000000 1.847620 0.000000 
#    z -0.012270 0.000000 1.838250 
# 
# From -- ./inp_files/55016.got.cif
#   From: 2010.05.17/outbox.cif.g08.bks.cpg/sg11_28_cif.got.tgz:55016.got - 2010.06.03 12:22:45.
