data_PCOD9162516
_publ_section_title
;
Structure prediction by ZEFSAII (Michael W. Deem and Ramdas Pophale) SiO2 
 PCOD9162516
Probable space group: P 21/M
;
_chemical_formula_sum "Si O2"
_cell_formula_units_Z 28
_cell_length_a 20.019589
_cell_length_b 7.516987
_cell_length_c 23.305783
_cell_angle_alpha 90.000000
_cell_angle_beta 159.274163
_cell_angle_gamma 90.000000
_cell_volume 1241.192353
_symmetry_space_group_name_H-M "P 21/M"
_symmetry_group_IT_number 11
_symmetry_cell_setting 'monoclinic'
loop_
_space_group_symop_operation_xyz
x,y,z
-x,1/2+y,-z
-x,-y,-z
x,1/2-y,z
loop_
_atom_site_type_symbol
_atom_site_label
_atom_site_fract_x
_atom_site_fract_y
_atom_site_fract_z
Si Si1 0.182472 0.463248 0.608465
Si Si2 0.379740 0.536699 0.459913
Si Si3 0.460447 0.963247 0.034455
Si Si4 0.391789 0.458591 0.246429
Si Si5 0.044295 0.041407 0.898933
Si Si6 0.104618 0.965478 0.820007
Si Si7 0.749209 0.534520 0.464599
O O1 0.198170 0.250000 0.617714
O O2 0.366230 0.532892 0.788744
O O3 0.181766 0.526866 0.542411
O O4 0.000000 0.500000 0.500000
O O5 0.500000 0.500000 0.500000
O O6 0.361655 0.750000 0.453885
O O7 0.497242 0.465730 0.609177
O O8 0.166952 0.465731 0.278887
O O9 0.456796 0.750000 0.037254
O O10 0.263697 0.026869 0.903052
O O11 0.500000 0.000000 0.000000
O O12 0.359988 0.250000 0.232905
O O13 0.541572 0.473950 0.314986
O O14 0.190947 0.534082 0.063649
O O15 0.021269 0.250000 0.894181
O O16 0.138186 0.026040 0.911599
O O17 0.104668 0.750000 0.820481
O O18 0.900266 0.025519 0.633421
O O19 0.747878 0.750000 0.463695
#
# Coordination Sequence:
#
# PCOD9162516 Si02
#       7
#     4   4   4   4   4   4   4
#     4  10  21  36  53  76 107 144 187 235 286 339
#     4  10  22  40  60  86 120 152 188 234 280 338
#     4  10  21  36  53  76 107 144 187 235 286 339
#     4  10  21  38  60  86 116 151 190 232 281 336
#     4  10  21  38  60  86 116 151 190 232 281 336
#     4  10  20  35  57  83 111 145 187 236 287 338
#     4  10  20  35  57  83 111 145 187 236 287 338
#
# _framework density 22.558952000000001
#
# number of rings (size 3 to 8) (size 9 to 14) (size 15 to 20)
#    0.000    2.000    1.429    1.714    0.000    6.286 
#    0.000    0.000    0.000    0.000    0.000    0.000 
#    0.000    0.000    0.000    0.000    0.000    0.000 
#
# Total GULP energy -156424.604948 kJ/mol
# GULP energy per Si atom -5586.593034 kJ/mol
# Density = 2.250761 g / cm^3
# Si number density = 22.558952 Si / 1000 Ang^3
#
#
#
# Elastic Constant Matrix: (Units=GPa)
#
#
# Indices 1 2 3 4 5 6 
#
# 1 114.2188 -11.3774 64.0930 0.0000 -1.6526 0.0000
# 2 -11.3774 60.8260 10.9830 0.0000 -4.5631 0.0000
# 3 64.0930 10.9830 198.9244 0.0000 -15.6371 0.0000
# 4 0.0000 0.0000 0.0000 7.7512 0.0000 3.8414
# 5 -1.6526 -4.5631 -15.6371 0.0000 31.9661 0.0000
# 6 0.0000 0.0000 0.0000 3.8414 0.0000 26.5700
#
#
#
# Elastic Compliance Matrix: (Units=1/GPa)
#
#
# Indices 1 2 3 4 5 6 
#
# 1 0.011152 0.002707 -0.003813 0.000000 -0.000903 0.000000
# 2 0.002707 0.017387 -0.001691 0.000000 0.001795 0.000000
# 3 -0.003813 -0.001691 0.006567 0.000000 0.002774 0.000000
# 4 0.000000 0.000000 0.000000 0.138969 0.000000 -0.020092
# 5 -0.000903 0.001795 0.002774 0.000000 0.032850 0.000000
# 6 0.000000 0.000000 0.000000 -0.020092 0.000000 0.040541
#
#
# Mechanical properties :
#
#
# Convention : Reuss Voigt Hill
#
# Bulk Modulus (GPa) = 33.88685 55.70739 44.79712
# Shear Modulus (GPa) = 19.01886 33.94218 26.48052
#
# Velocity S-wave (km/s) = 2.90672 3.88312 3.42985
# Velocity P-wave (km/s) = 5.13025 6.69721 5.96540
#
# Compressibility (1/GPa) = 0.02950997
#
# Stress axis : x y z
#
# Youngs Moduli (GPa) = 89.67366 57.51558 152.27372
#
# Poissons Ratio (x) = -0.15568 0.58068
# Poissons Ratio (y) = -0.24272 0.25749
# Poissons Ratio (z) = 0.34196 0.09726
#
# Static dielectric constant tensor:
#      x y z
#    x 1.794920 0.000000 -0.012240 
#    y 0.000000 1.848790 0.000000 
#    z -0.012240 0.000000 1.854910 
# 
# From -- ./inp_files/66212.got.cif
#   From: 2010.05.17/outbox.cif.g08.bks.cpg/sg11_34_cif.got.tgz:66212.got - 2010.06.03 12:22:45.
