data_PCOD9162177
_publ_section_title
;
Structure prediction by ZEFSAII (Michael W. Deem and Ramdas Pophale) SiO2 
 PCOD9162177
Probable space group: P 21/M
;
_chemical_formula_sum "Si O2"
_cell_formula_units_Z 32
_cell_length_a 23.835750
_cell_length_b 8.732691
_cell_length_c 14.756441
_cell_angle_alpha 90.000000
_cell_angle_beta 143.843038
_cell_angle_gamma 90.000000
_cell_volume 1812.216470
_symmetry_space_group_name_H-M "P 21/M"
_symmetry_group_IT_number 11
_symmetry_cell_setting 'monoclinic'
loop_
_space_group_symop_operation_xyz
x,y,z
-x,1/2+y,-z
-x,-y,-z
x,1/2-y,z
loop_
_atom_site_type_symbol
_atom_site_label
_atom_site_fract_x
_atom_site_fract_y
_atom_site_fract_z
Si Si1 0.685878 0.931134 0.456562
Si Si2 0.206689 0.568781 0.915136
Si Si3 0.700201 0.931309 0.133070
Si Si4 0.621825 0.933188 0.745164
Si Si5 0.807750 0.935426 0.453276
Si Si6 0.407876 0.933122 0.492070
Si Si7 0.999022 0.935803 0.601354
Si Si8 0.493036 0.930310 0.090779
O O1 0.700117 0.750000 0.492707
O O2 0.771683 0.989975 0.504335
O O3 0.591275 0.946592 0.271871
O O4 0.660905 0.013036 0.517482
O O5 0.212949 0.750000 0.936450
O O6 0.233268 0.523901 0.847370
O O7 0.096589 0.521559 0.780096
O O8 0.286628 0.491826 0.081475
O O9 0.713313 0.750000 0.136441
O O10 0.728750 0.968339 0.273429
O O11 0.592714 0.979791 0.974041
O O12 0.623679 0.750000 0.746762
O O13 0.518765 0.981213 0.652168
O O14 0.621642 0.995932 0.642599
O O15 0.812082 0.750000 0.465678
O O16 0.907486 0.986843 0.540245
O O17 0.406183 0.750000 0.483263
O O18 0.995511 0.750000 0.589625
O O19 0.000000 0.000000 0.500000
O O20 0.470238 0.750000 0.055997
O O21 0.500000 0.000000 0.000000
#
# Coordination Sequence:
#
# PCOD9162177 Si02
#       8
#     4   4   4   4   4   4   4   4
#     4  10  20  35  53  74 104 147 185 216 266 328
#     4  11  22  34  53  83 112 140 179 232 282 324
#     4  11  20  33  51  72 104 147 186 222 267 322
#     4  10  21  38  60  83 109 145 179 216 272 334
#     4   9  18  34  52  72 103 144 185 222 264 319
#     4  10  21  37  58  85 112 138 175 225 272 321
#     4  10  20  35  55  78 107 144 186 232 280 322
#     4  11  21  32  47  72 106 143 182 222 263 316
#
# _framework density 17.657935999999999
#
# number of rings (size 3 to 8) (size 9 to 14) (size 15 to 20)
#    0.000    1.750    2.500    2.625    0.000    5.000 
#    0.000    0.625    0.000    0.750    0.000    0.000 
#    0.000    0.000    0.000    0.000    0.000    0.000 
#
# Total GULP energy -178555.719706 kJ/mol
# GULP energy per Si atom -5579.866241 kJ/mol
# Density = 1.761775 g / cm^3
# Si number density = 17.657936 Si / 1000 Ang^3
#
#
#
# Elastic Constant Matrix: (Units=GPa)
#
#
# Indices 1 2 3 4 5 6 
#
# 1 133.1337 22.5053 50.4493 0.0000 10.9322 0.0000
# 2 22.5053 21.7863 24.0011 0.0000 1.6019 0.0000
# 3 50.4493 24.0011 78.9975 0.0000 9.5237 0.0000
# 4 0.0000 0.0000 0.0000 21.3744 0.0000 -5.0484
# 5 10.9322 1.6019 9.5237 0.0000 26.9538 0.0000
# 6 0.0000 0.0000 0.0000 -5.0484 0.0000 28.2020
#
#
#
# Elastic Compliance Matrix: (Units=1/GPa)
#
#
# Indices 1 2 3 4 5 6 
#
# 1 0.010396 -0.005346 -0.004747 0.000000 -0.002222 0.000000
# 2 -0.005346 0.072051 -0.019032 0.000000 0.004611 0.000000
# 3 -0.004747 -0.019032 0.022043 0.000000 -0.004732 0.000000
# 4 0.000000 0.000000 0.000000 0.048850 0.000000 0.008745
# 5 -0.002222 0.004611 -0.004732 0.000000 0.039400 0.000000
# 6 0.000000 0.000000 0.000000 0.008745 0.000000 0.037024
#
#
# Mechanical properties :
#
#
# Convention : Reuss Voigt Hill
#
# Bulk Modulus (GPa) = 21.62666 47.53652 34.58159
# Shear Modulus (GPa) = 16.47832 24.43683 20.45757
#
# Velocity S-wave (km/s) = 3.05814 3.72412 3.40744
# Velocity P-wave (km/s) = 4.97431 6.74324 5.92516
#
# Compressibility (1/GPa) = 0.04623923
#
# Stress axis : x y z
#
# Youngs Moduli (GPa) = 96.18818 13.87900 45.36562
#
# Poissons Ratio (x) = 0.07420 0.21536
# Poissons Ratio (y) = 0.51425 0.86341
# Poissons Ratio (z) = 0.45662 0.26415
#
# Static dielectric constant tensor:
#      x y z
#    x 1.614540 0.000000 0.023310 
#    y 0.000000 1.597200 0.000000 
#    z 0.023310 0.000000 1.599600 
# 
# From -- ./inp_files/54370.got.cif
#   From: 2010.05.17/outbox.cif.g08.bks.cpg/sg11_28_cif.got.tgz:54370.got - 2010.06.03 12:22:45.
