data_PCOD9162043
_publ_section_title
;
Structure prediction by ZEFSAII (Michael W. Deem and Ramdas Pophale) SiO2 
 PCOD9162043
Probable space group: P 21/M
;
_chemical_formula_sum "Si O2"
_cell_formula_units_Z 32
_cell_length_a 11.529148
_cell_length_b 9.125153
_cell_length_c 30.193560
_cell_angle_alpha 90.000000
_cell_angle_beta 145.777635
_cell_angle_gamma 90.000000
_cell_volume 1786.494878
_symmetry_space_group_name_H-M "P 21/M"
_symmetry_group_IT_number 11
_symmetry_cell_setting 'monoclinic'
loop_
_space_group_symop_operation_xyz
x,y,z
-x,1/2+y,-z
-x,-y,-z
x,1/2-y,z
loop_
_atom_site_type_symbol
_atom_site_label
_atom_site_fract_x
_atom_site_fract_y
_atom_site_fract_z
Si Si1 0.446055 0.425460 0.759486
Si Si2 0.803883 0.917663 0.492678
Si Si3 0.918964 0.074483 0.930172
Si Si4 0.284718 0.925396 0.443810
Si Si5 0.709757 0.082215 0.377039
Si Si6 0.772438 0.574469 0.050439
Si Si7 0.296956 0.924805 0.879286
Si Si8 0.128478 0.426113 0.737856
O O1 0.426807 0.250000 0.746398
O O2 0.678819 0.458772 0.847323
O O3 0.395256 0.507686 0.698164
O O4 0.286052 0.465990 0.747849
O O5 0.737855 0.750000 0.479876
O O6 0.045331 0.915652 0.556116
O O7 0.779526 0.014794 0.528473
O O8 0.684406 0.988898 0.413685
O O9 0.939972 0.250000 0.941071
O O10 0.056112 0.030055 0.931129
O O11 0.000000 0.000000 0.000000
O O12 0.303975 0.750000 0.450878
O O13 0.101497 0.962650 0.351544
O O14 0.500000 0.000000 0.500000
O O15 0.642313 0.250000 0.361864
O O16 0.786431 0.750000 0.062101
O O17 0.790852 0.493034 0.103047
O O18 0.543559 0.543888 0.958826
O O19 0.270320 0.750000 0.870559
O O20 0.195255 0.995457 0.803939
O O21 0.141167 0.250000 0.747820
#
# Coordination Sequence:
#
# PCOD9162043 Si02
#       8
#     4   4   4   4   4   4   4   4
#     4  10  20  36  57  83 113 148 189 232 283 341
#     4  10  20  36  59  84 112 146 186 231 284 342
#     4  10  21  36  57  84 116 152 184 227 281 334
#     4  11  23  40  60  83 113 149 189 235 288 341
#     4  10  20  34  57  86 113 146 186 234 284 333
#     4   9  19  37  56  80 115 150 187 228 278 332
#     4  10  20  34  58  85 109 146 192 235 275 323
#     4  10  21  37  58  82 111 145 184 229 281 339
#
# _framework density 17.91217
#
# number of rings (size 3 to 8) (size 9 to 14) (size 15 to 20)
#    0.000    2.000    1.250    2.250    0.000    4.000 
#    2.250    0.000    0.000    0.000    0.000    0.000 
#    0.000    0.000    0.000    0.000    0.000    0.000 
#
# Total GULP energy -178675.984451 kJ/mol
# GULP energy per Si atom -5583.624514 kJ/mol
# Density = 1.787140 g / cm^3
# Si number density = 17.912170 Si / 1000 Ang^3
#
#
#
# Elastic Constant Matrix: (Units=GPa)
#
#
# Indices 1 2 3 4 5 6 
#
# 1 75.4190 40.1697 68.8971 0.0000 -7.8364 0.0000
# 2 40.1697 67.6392 75.7895 0.0000 -12.9043 0.0000
# 3 68.8971 75.7895 147.4883 0.0000 -27.0894 0.0000
# 4 0.0000 0.0000 0.0000 32.6775 0.0000 -8.0116
# 5 -7.8364 -12.9043 -27.0894 0.0000 34.5230 0.0000
# 6 0.0000 0.0000 0.0000 -8.0116 0.0000 32.2905
#
#
#
# Elastic Compliance Matrix: (Units=1/GPa)
#
#
# Indices 1 2 3 4 5 6 
#
# 1 0.023975 -0.003848 -0.009916 0.000000 -0.003777 0.000000
# 2 -0.003848 0.035511 -0.016560 0.000000 -0.000594 0.000000
# 3 -0.009916 -0.016560 0.021465 0.000000 0.008402 0.000000
# 4 0.000000 0.000000 0.000000 0.032584 0.000000 0.008084
# 5 -0.003777 -0.000594 0.008402 0.000000 0.034480 0.000000
# 6 0.000000 0.000000 0.000000 0.008084 0.000000 0.032975
#
#
# Mechanical properties :
#
#
# Convention : Reuss Voigt Hill
#
# Bulk Modulus (GPa) = 49.25134 73.36212 61.30673
# Shear Modulus (GPa) = 20.12842 26.94420 23.53631
#
# Velocity S-wave (km/s) = 3.35584 3.88266 3.62882
# Velocity P-wave (km/s) = 6.52467 7.81956 7.20128
#
# Compressibility (1/GPa) = 0.02030402
#
# Stress axis : x y z
#
# Youngs Moduli (GPa) = 41.71071 28.15996 46.58773
#
# Poissons Ratio (x) = 0.10837 0.46195
# Poissons Ratio (y) = 0.16051 0.77147
# Poissons Ratio (z) = 0.41359 0.46632
#
# Static dielectric constant tensor:
#      x y z
#    x 1.596980 0.000000 0.019250 
#    y 0.000000 1.601250 0.000000 
#    z 0.019250 0.000000 1.587470 
# 
# From -- ./inp_files/73166.got.cif
#   From: 2010.05.17/outbox.cif.g08.bks.cpg/sg11_37_cif.got.tgz:73166.got - 2010.06.03 12:22:45.
