data_PCOD9162707
_publ_section_title
;
Structure prediction by ZEFSAII (Michael W. Deem and Ramdas Pophale) SiO2 
 PCOD9162707
Probable space group: P 21/M
;
_chemical_formula_sum "Si O2"
_cell_formula_units_Z 24
_cell_length_a 15.260207
_cell_length_b 17.928124
_cell_length_c 10.412542
_cell_angle_alpha 90.000000
_cell_angle_beta 154.556466
_cell_angle_gamma 90.000000
_cell_volume 1223.877408
_symmetry_space_group_name_H-M "P 21/M"
_symmetry_group_IT_number 11
_symmetry_cell_setting 'monoclinic'
loop_
_space_group_symop_operation_xyz
x,y,z
-x,1/2+y,-z
-x,-y,-z
x,1/2-y,z
loop_
_atom_site_type_symbol
_atom_site_label
_atom_site_fract_x
_atom_site_fract_y
_atom_site_fract_z
Si Si1 0.931535 0.583300 0.569523
Si Si2 0.393311 0.491897 0.720592
Si Si3 0.900864 0.420771 0.831625
Si Si4 0.727762 0.163924 0.844164
Si Si5 0.234588 0.450871 0.922708
Si Si6 0.275144 0.337359 0.208485
O O1 0.762463 0.576166 0.458456
O O2 0.828095 0.589218 0.293454
O O3 0.049714 0.503790 0.721986
O O4 0.103828 0.643390 0.827328
O O5 0.254687 0.561146 0.490068
O O6 0.500000 0.500000 0.000000
O O7 0.576218 0.494300 0.860260
O O8 0.780271 0.388547 0.793169
O O9 0.000000 0.500000 0.000000
O O10 0.080508 0.365357 0.029531
O O11 0.750490 0.250000 0.835962
O O12 0.491187 0.153008 0.566810
O O13 0.283921 0.390522 0.095468
O O14 0.255331 0.250000 0.149330
#
# Coordination Sequence:
#
# PCOD9162707 Si02
#       6
#     4   4   4   4   4   4
#     4  10  21  37  60  87 113 148 190 240 281 333
#     4  10  20  35  59  88 111 141 190 241 282 327
#     4  12  22  38  62  86 112 149 195 239 287 334
#     4  11  24  39  56  84 120 155 188 231 289 348
#     4  10  20  37  61  86 112 144 194 239 281 334
#     4  11  24  39  56  84 119 154 190 232 288 347
#
# _framework density 19.609805999999999
#
# number of rings (size 3 to 8) (size 9 to 14) (size 15 to 20)
#    0.000    1.333    5.000    0.500    2.333    2.000 
#    0.000    0.000    0.000    0.000    0.000    0.000 
#    0.000    0.000    0.000    0.000    0.000    0.000 
#
# Total GULP energy -133883.848982 kJ/mol
# GULP energy per Si atom -5578.493708 kJ/mol
# Density = 1.956517 g / cm^3
# Si number density = 19.609806 Si / 1000 Ang^3
#
#
#
# Elastic Constant Matrix: (Units=GPa)
#
#
# Indices 1 2 3 4 5 6 
#
# 1 44.7012 -6.6617 7.2500 0.0000 10.5460 0.0000
# 2 -6.6617 51.3241 12.6153 0.0000 -13.7296 0.0000
# 3 7.2500 12.6153 92.9934 0.0000 4.2729 0.0000
# 4 0.0000 0.0000 0.0000 30.5956 0.0000 4.7052
# 5 10.5460 -13.7296 4.2729 0.0000 26.9987 0.0000
# 6 0.0000 0.0000 0.0000 4.7052 0.0000 22.4943
#
#
#
# Elastic Compliance Matrix: (Units=1/GPa)
#
#
# Indices 1 2 3 4 5 6 
#
# 1 0.024919 0.001302 -0.001715 0.000000 -0.008800 0.000000
# 2 0.001302 0.023893 -0.003906 0.000000 0.012260 0.000000
# 3 -0.001715 -0.003906 0.011562 0.000000 -0.003146 0.000000
# 4 0.000000 0.000000 0.000000 0.033771 0.000000 -0.007064
# 5 -0.008800 0.012260 -0.003146 0.000000 0.047209 0.000000
# 6 0.000000 0.000000 0.000000 -0.007064 0.000000 0.045933
#
#
# Mechanical properties :
#
#
# Convention : Reuss Voigt Hill
#
# Bulk Modulus (GPa) = 19.32929 23.93620 21.63274
# Shear Modulus (GPa) = 23.45547 27.73871 25.59709
#
# Velocity S-wave (km/s) = 3.46223 3.76511 3.61684
# Velocity P-wave (km/s) = 5.08538 5.57980 5.33832
#
# Compressibility (1/GPa) = 0.05173496
#
# Stress axis : x y z
#
# Youngs Moduli (GPa) = 40.12991 41.85373 86.49314
#
# Poissons Ratio (x) = -0.05449 0.14833
# Poissons Ratio (y) = -0.05224 0.33785
# Poissons Ratio (z) = 0.06882 0.16348
#
# Static dielectric constant tensor:
#      x y z
#    x 1.701320 0.000000 0.008890 
#    y 0.000000 1.638810 0.000000 
#    z 0.008890 0.000000 1.747570 
# 
# From -- ./inp_files/41922.got.cif
#   From: 2010.05.17/outbox.cif.g08.bks.cpg/sg11_21_cif.got.tgz:41922.got - 2010.06.03 12:22:45.
