data_PCOD9162380
_publ_section_title
;
Structure prediction by ZEFSAII (Michael W. Deem and Ramdas Pophale) SiO2 
 PCOD9162380
Probable space group: P 21/M
;
_chemical_formula_sum "Si O2"
_cell_formula_units_Z 28
_cell_length_a 12.893576
_cell_length_b 7.509571
_cell_length_c 12.423463
_cell_angle_alpha 90.000000
_cell_angle_beta 68.602877
_cell_angle_gamma 90.000000
_cell_volume 1119.993355
_symmetry_space_group_name_H-M "P 21/M"
_symmetry_group_IT_number 11
_symmetry_cell_setting 'monoclinic'
loop_
_space_group_symop_operation_xyz
x,y,z
-x,1/2+y,-z
-x,-y,-z
x,1/2-y,z
loop_
_atom_site_type_symbol
_atom_site_label
_atom_site_fract_x
_atom_site_fract_y
_atom_site_fract_z
Si Si1 0.926817 0.038187 0.924518
Si Si2 0.965943 0.048741 0.339030
Si Si3 0.311927 0.049452 0.047561
Si Si4 0.403650 0.962059 0.794691
Si Si5 0.620632 0.534734 0.585964
Si Si6 0.798902 0.531487 0.690937
Si Si7 0.259288 0.956566 0.662101
O O1 0.919874 0.250000 0.910427
O O2 0.802628 0.963628 0.976846
O O3 0.982984 0.948796 0.800563
O O4 0.000000 0.000000 0.000000
O O5 0.948862 0.250000 0.386254
O O6 0.846385 0.960405 0.360563
O O7 0.072715 0.968728 0.360733
O O8 0.344109 0.250000 0.061860
O O9 0.271080 0.968754 0.176986
O O10 0.399590 0.987350 0.924704
O O11 0.400755 0.750000 0.780569
O O12 0.515131 0.028168 0.694626
O O13 0.300910 0.031920 0.760103
O O14 0.616881 0.750000 0.581893
O O15 0.728964 0.482108 0.613829
O O16 0.637572 0.464435 0.459510
O O17 0.804242 0.750000 0.695906
O O18 0.227518 0.750000 0.692211
#
# Coordination Sequence:
#
# PCOD9162380 Si02
#       7
#     4   4   4   4   4   4   4
#     4  11  20  31  50  78 111 144 180 221 267 323
#     4   9  18  34  54  75 105 142 177 221 274 322
#     4  10  20  35  56  80 108 142 179 222 272 326
#     4  10  21  36  54  79 110 142 179 226 277 324
#     4  10  21  37  56  76 105 145 184 225 271 325
#     4   8  17  35  55  78 108 141 177 219 273 327
#     4  10  21  36  54  78 107 139 178 226 275 320
#
# _framework density 25.000150999999999
#
# number of rings (size 3 to 8) (size 9 to 14) (size 15 to 20)
#    0.000    2.286    0.000    3.857    0.000    4.000 
#    0.000    3.571    0.000    0.000    0.000    0.000 
#    0.000    0.000    0.000    0.000    0.000    0.000 
#
# Total GULP energy -156327.464307 kJ/mol
# GULP energy per Si atom -5583.123725 kJ/mol
# Density = 2.494325 g / cm^3
# Si number density = 25.000151 Si / 1000 Ang^3
#
#
#
# Elastic Constant Matrix: (Units=GPa)
#
#
# Indices 1 2 3 4 5 6 
#
# 1 59.5328 3.5508 8.1241 0.0000 3.4478 0.0000
# 2 3.5508 81.2443 -1.6232 0.0000 -1.6031 0.0000
# 3 8.1241 -1.6232 115.4515 0.0000 -0.8094 0.0000
# 4 0.0000 0.0000 0.0000 11.1412 0.0000 -7.2166
# 5 3.4478 -1.6031 -0.8094 0.0000 39.0508 0.0000
# 6 0.0000 0.0000 0.0000 -7.2166 0.0000 -4.9937
#
#
#
# Elastic Compliance Matrix: (Units=1/GPa)
#
#
# Indices 1 2 3 4 5 6 
#
# 1 0.017103 -0.000803 -0.001226 0.000000 -0.001568 0.000000
# 2 -0.000803 0.012360 0.000234 0.000000 0.000583 0.000000
# 3 -0.001226 0.000234 0.008753 0.000000 0.000299 0.000000
# 4 0.000000 0.000000 0.000000 0.046360 0.000000 -0.066997
# 5 -0.001568 0.000583 0.000299 0.000000 0.025776 0.000000
# 6 0.000000 0.000000 0.000000 -0.066997 0.000000 -0.103432
#
#
# Mechanical properties :
#
#
# Convention : Reuss Voigt Hill
#
# Bulk Modulus (GPa) = 28.87855 30.70356 29.79106
# Shear Modulus (GPa) = 226.73311 25.45146 126.09229
#
# Velocity S-wave (km/s) = 9.53360 3.19415 7.10958
# Velocity P-wave (km/s) = 11.52226 5.09033 8.90713
#
# Compressibility (1/GPa) = 0.03462777
#
# Stress axis : x y z
#
# Youngs Moduli (GPa) = 58.46770 80.90726 114.24264
#
# Poissons Ratio (x) = 0.06496 0.14004
# Poissons Ratio (y) = 0.04695 -0.02677
# Poissons Ratio (z) = 0.07167 -0.01896
#
# Static dielectric constant tensor:
#      x y z
#    x 2.220950 0.000000 -0.032450 
#    y 0.000000 1.957570 0.000000 
#    z -0.032450 0.000000 1.949830 
# 
# From -- ./inp_files/37866.got.cif
#   From: 2010.05.17/outbox.cif.g08.bks.cpg/sg11_19_cif.got.tgz:37866.got - 2010.06.03 12:22:45.
