data_PCOD9162718
_publ_section_title
;
Structure prediction by ZEFSAII (Michael W. Deem and Ramdas Pophale) SiO2 
 PCOD9162718
Probable space group: P 21/M
;
_chemical_formula_sum "Si O2"
_cell_formula_units_Z 32
_cell_length_a 14.603968
_cell_length_b 8.377489
_cell_length_c 23.852976
_cell_angle_alpha 90.000000
_cell_angle_beta 143.828806
_cell_angle_gamma 90.000000
_cell_volume 1722.369917
_symmetry_space_group_name_H-M "P 21/M"
_symmetry_group_IT_number 11
_symmetry_cell_setting 'monoclinic'
loop_
_space_group_symop_operation_xyz
x,y,z
-x,1/2+y,-z
-x,-y,-z
x,1/2-y,z
loop_
_atom_site_type_symbol
_atom_site_label
_atom_site_fract_x
_atom_site_fract_y
_atom_site_fract_z
Si Si1 0.441560 0.558960 0.138327
Si Si2 0.900373 0.062603 0.191121
Si Si3 0.879293 0.935093 0.894435
Si Si4 0.462727 0.561860 0.270670
Si Si5 0.403997 0.559903 0.898240
Si Si6 0.754708 0.440134 0.630827
Si Si7 0.484061 0.055811 0.579951
Si Si8 0.881413 0.932995 0.062701
O O1 0.420871 0.750000 0.130788
O O2 0.509974 0.502380 0.232088
O O3 0.538441 0.516859 0.131024
O O4 0.272556 0.481265 0.046628
O O5 0.882434 0.250000 0.168736
O O6 0.777320 0.026932 0.179139
O O7 0.850140 0.961603 0.112302
O O8 0.079198 0.023669 0.290862
O O9 0.844495 0.750000 0.886882
O O10 0.722064 0.034226 0.817551
O O11 0.973634 0.959775 0.883715
O O12 0.000000 0.000000 0.000000
O O13 0.496306 0.750000 0.288086
O O14 0.526721 0.497324 0.361268
O O15 0.426847 0.750000 0.905310
O O16 0.500000 0.500000 0.000000
O O17 0.779526 0.250000 0.645848
O O18 0.648476 0.484776 0.525165
O O19 0.649538 0.486389 0.632904
O O20 0.474077 0.250000 0.573499
O O21 0.921478 0.750000 0.071380
#
# Coordination Sequence:
#
# PCOD9162718 Si02
#       8
#     4   4   4   4   4   4   4   4
#     4  11  22  36  55  79 111 148 190 234 280 336
#     4  11  23  38  58  83 112 147 188 236 288 342
#     4  12  23  34  50  74 109 150 189 229 273 329
#     4  10  21  37  57  80 111 152 193 232 280 340
#     4  11  23  38  58  81 111 149 192 240 290 341
#     4  10  20  35  59  89 117 147 185 233 285 338
#     4   9  19  37  59  84 116 151 186 227 280 341
#     4  12  23  35  53  77 110 149 188 231 280 335
#
# _framework density 18.579051
#
# number of rings (size 3 to 8) (size 9 to 14) (size 15 to 20)
#    0.000    1.250    2.500    4.500    0.000    4.000 
#    0.000    0.000    0.000    0.750    0.000    0.000 
#    0.000    0.000    0.000    0.000    0.000    0.000 
#
# Total GULP energy -178736.263047 kJ/mol
# GULP energy per Si atom -5585.508220 kJ/mol
# Density = 1.853676 g / cm^3
# Si number density = 18.579051 Si / 1000 Ang^3
#
#
#
# Elastic Constant Matrix: (Units=GPa)
#
#
# Indices 1 2 3 4 5 6 
#
# 1 109.6235 8.7462 32.0352 0.0000 -19.5396 0.0000
# 2 8.7462 22.6317 10.2848 0.0000 -0.1529 0.0000
# 3 32.0352 10.2848 63.4866 0.0000 -12.9635 0.0000
# 4 0.0000 0.0000 0.0000 22.7977 0.0000 1.8069
# 5 -19.5396 -0.1529 -12.9635 0.0000 33.2750 0.0000
# 6 0.0000 0.0000 0.0000 1.8069 0.0000 27.7777
#
#
#
# Elastic Compliance Matrix: (Units=1/GPa)
#
#
# Indices 1 2 3 4 5 6 
#
# 1 0.011492 -0.002417 -0.004380 0.000000 0.005031 0.000000
# 2 -0.002417 0.048489 -0.007475 0.000000 -0.004108 0.000000
# 3 -0.004380 -0.007475 0.020251 0.000000 0.005283 0.000000
# 4 0.000000 0.000000 0.000000 0.044091 0.000000 -0.002868
# 5 0.005031 -0.004108 0.005283 0.000000 0.035046 0.000000
# 6 0.000000 0.000000 0.000000 -0.002868 0.000000 0.036187
#
#
# Mechanical properties :
#
#
# Convention : Reuss Voigt Hill
#
# Bulk Modulus (GPa) = 19.34641 33.09715 26.22178
# Shear Modulus (GPa) = 20.71872 26.41513 23.56693
#
# Velocity S-wave (km/s) = 3.34303 3.77473 3.56542
# Velocity P-wave (km/s) = 5.03357 6.07050 5.57619
#
# Compressibility (1/GPa) = 0.05168919
#
# Stress axis : x y z
#
# Youngs Moduli (GPa) = 87.02053 20.62329 49.37990
#
# Poissons Ratio (x) = 0.04984 0.21628
# Poissons Ratio (y) = 0.21029 0.36910
# Poissons Ratio (z) = 0.38114 0.15415
#
# Static dielectric constant tensor:
#      x y z
#    x 1.688040 0.000000 -0.033210 
#    y 0.000000 2.020250 0.000000 
#    z -0.033210 0.000000 1.625720 
# 
# From -- ./inp_files/69144.got.cif
#   From: 2010.05.17/outbox.cif.g08.bks.cpg/sg11_35_cif.got.tgz:69144.got - 2010.06.03 12:22:45.
