data_PCOD9162388
_publ_section_title
;
Structure prediction by ZEFSAII (Michael W. Deem and Ramdas Pophale) SiO2 
 PCOD9162388
Probable space group: P 21/M
;
_chemical_formula_sum "Si O2"
_cell_formula_units_Z 32
_cell_length_a 12.505361
_cell_length_b 8.652305
_cell_length_c 29.924232
_cell_angle_alpha 90.000000
_cell_angle_beta 148.658197
_cell_angle_gamma 90.000000
_cell_volume 1684.121083
_symmetry_space_group_name_H-M "P 21/M"
_symmetry_group_IT_number 11
_symmetry_cell_setting 'monoclinic'
loop_
_space_group_symop_operation_xyz
x,y,z
-x,1/2+y,-z
-x,-y,-z
x,1/2-y,z
loop_
_atom_site_type_symbol
_atom_site_label
_atom_site_fract_x
_atom_site_fract_y
_atom_site_fract_z
Si Si1 0.621771 0.063986 0.453629
Si Si2 0.596310 0.062653 0.253075
Si Si3 0.601299 0.564760 0.965197
Si Si4 0.228630 0.935854 0.588729
Si Si5 0.984793 0.936062 0.644079
Si Si6 0.164378 0.062997 0.312112
Si Si7 0.794372 0.934566 0.129568
Si Si8 0.221345 0.934214 0.064530
O O1 0.632471 0.250000 0.460881
O O2 0.642936 0.021550 0.409252
O O3 0.400826 0.013318 0.392942
O O4 0.812470 0.995787 0.548668
O O5 0.576137 0.250000 0.244879
O O6 0.663733 0.014411 0.326983
O O7 0.788114 0.017286 0.290055
O O8 0.390007 0.988796 0.160844
O O9 0.595761 0.750000 0.958592
O O10 0.372111 0.506446 0.895511
O O11 0.699610 0.495441 0.955523
O O12 0.729603 0.523381 0.055821
O O13 0.212560 0.750000 0.585083
O O14 0.000000 0.000000 0.500000
O O15 0.979410 0.750000 0.641160
O O16 0.927655 0.987571 0.673288
O O17 0.158695 0.250000 0.307722
O O18 0.018395 0.995685 0.221967
O O19 0.784702 0.750000 0.129830
O O20 0.210772 0.750000 0.059199
O O21 0.000000 0.000000 0.000000
#
# Coordination Sequence:
#
# PCOD9162388 Si02
#       8
#     4   4   4   4   4   4   4   4
#     4  10  21  35  53  80 113 149 193 242 292 346
#     4  10  21  38  60  86 115 153 200 247 300 359
#     4  10  21  40  64  89 121 156 196 246 300 359
#     4  10  20  36  58  83 113 150 195 246 297 349
#     4  10  20  35  56  80 111 152 194 236 289 346
#     4  10  21  35  52  80 118 156 192 236 295 353
#     4  10  21  37  61  92 119 152 199 246 296 357
#     4  12  26  43  64  91 123 160 203 252 307 365
#
# _framework density 19.001010000000001
#
# number of rings (size 3 to 8) (size 9 to 14) (size 15 to 20)
#    0.000    1.750    1.250    3.000    0.000    5.500 
#    0.000    1.250    0.000    0.000    0.000    0.000 
#    0.000    0.000    0.000    0.000    0.000    0.000 
#
# Total GULP energy -178783.985752 kJ/mol
# GULP energy per Si atom -5586.999555 kJ/mol
# Density = 1.895776 g / cm^3
# Si number density = 19.001010 Si / 1000 Ang^3
#
#
#
# Elastic Constant Matrix: (Units=GPa)
#
#
# Indices 1 2 3 4 5 6 
#
# 1 69.5680 25.3723 62.9298 0.0000 -14.2937 0.0000
# 2 25.3723 33.7583 34.2630 0.0000 -1.8940 0.0000
# 3 62.9298 34.2630 147.0825 0.0000 10.8716 0.0000
# 4 0.0000 0.0000 0.0000 36.2757 0.0000 -2.9545
# 5 -14.2937 -1.8940 10.8716 0.0000 24.2344 0.0000
# 6 0.0000 0.0000 0.0000 -2.9545 0.0000 17.0779
#
#
#
# Elastic Compliance Matrix: (Units=1/GPa)
#
#
# Indices 1 2 3 4 5 6 
#
# 1 0.039550 -0.011312 -0.016492 0.000000 0.029841 0.000000
# 2 -0.011312 0.043331 -0.005183 0.000000 -0.000960 0.000000
# 3 -0.016492 -0.005183 0.016354 0.000000 -0.017468 0.000000
# 4 0.000000 0.000000 0.000000 0.027961 0.000000 0.004837
# 5 0.029841 -0.000960 -0.017468 0.000000 0.066625 0.000000
# 6 0.000000 0.000000 0.000000 0.004837 0.000000 0.059392
#
#
# Mechanical properties :
#
#
# Convention : Reuss Voigt Hill
#
# Bulk Modulus (GPa) = 30.06622 55.05988 42.56305
# Shear Modulus (GPa) = 15.13899 24.04054 19.58976
#
# Velocity S-wave (km/s) = 2.82573 3.56086 3.21438
# Velocity P-wave (km/s) = 5.14822 6.77839 6.01875
#
# Compressibility (1/GPa) = 0.03325992
#
# Stress axis : x y z
#
# Youngs Moduli (GPa) = 25.28474 23.07808 61.14857
#
# Poissons Ratio (x) = 0.26106 1.00846
# Poissons Ratio (y) = 0.28603 0.31694
# Poissons Ratio (z) = 0.41699 0.11962
#
# Static dielectric constant tensor:
#      x y z
#    x 1.660350 0.000000 -0.011730 
#    y 0.000000 1.642420 0.000000 
#    z -0.011730 0.000000 1.634120 
# 
# From -- ./inp_files/73135.got.cif
#   From: 2010.05.17/outbox.cif.g08.bks.cpg/sg11_37_cif.got.tgz:73135.got - 2010.06.03 12:22:45.
