data_PCOD9162918
_publ_section_title
;
Structure prediction by ZEFSAII (Michael W. Deem and Ramdas Pophale) SiO2 
 PCOD9162918
Probable space group: P 21/M
;
_chemical_formula_sum "Si O2"
_cell_formula_units_Z 28
_cell_length_a 5.397239
_cell_length_b 11.628125
_cell_length_c 21.693080
_cell_angle_alpha 90.000000
_cell_angle_beta 61.884913
_cell_angle_gamma 90.000000
_cell_volume 1200.805112
_symmetry_space_group_name_H-M "P 21/M"
_symmetry_group_IT_number 11
_symmetry_cell_setting 'monoclinic'
loop_
_space_group_symop_operation_xyz
x,y,z
-x,1/2+y,-z
-x,-y,-z
x,1/2-y,z
loop_
_atom_site_type_symbol
_atom_site_label
_atom_site_fract_x
_atom_site_fract_y
_atom_site_fract_z
Si Si1 0.827504 0.750000 0.136047
Si Si2 0.275264 0.380598 0.361831
Si Si3 0.807864 0.489041 0.745708
Si Si4 0.543662 0.120988 0.032725
Si Si5 0.719371 0.984326 0.115821
Si Si6 0.601089 0.115438 0.452375
Si Si7 0.853550 0.250000 0.770682
Si Si8 0.014764 0.628750 0.818874
O O1 0.862297 0.862548 0.090046
O O2 0.492884 0.750000 0.194313
O O3 0.022926 0.750000 0.173740
O O4 0.325919 0.250000 0.334145
O O5 0.329444 0.472820 0.301657
O O6 0.459885 0.396797 0.401295
O O7 0.940294 0.389998 0.413253
O O8 0.606898 0.467852 0.829412
O O9 0.956540 0.366332 0.725128
O O10 0.971723 0.599346 0.752698
O O11 0.588559 0.250000 0.999280
O O12 0.264165 0.136023 0.106667
O O13 0.763663 0.080462 0.059590
O O14 0.500000 0.000000 0.000000
O O15 0.825776 0.026206 0.168583
O O16 0.529933 0.250000 0.480752
O O17 0.500000 0.000000 0.500000
O O18 0.164833 0.750000 0.809427
#
# Coordination Sequence:
#
# PCOD9162918 Si02
#       8
#     2   4   4   4   4   4   2   4
#     4  10  20  36  60  86 118 164 206 238 307 366
#     4  10  22  38  63  94 126 163 211 260 307 369
#     4  10  21  37  56  90 126 157 198 250 316 372
#     4  10  23  41  58  86 117 153 209 263 310 374
#     4  10  21  37  60  84 119 160 199 254 315 381
#     4  10  22  43  65  92 127 167 216 262 307 364
#     4  10  20  36  56  86 130 162 196 248 289 376
#     4  10  20  36  60  84 116 154 199 252 313 377
#
# _framework density 23.317691
#
# number of rings (size 3 to 8) (size 9 to 14) (size 15 to 20)
#    0.000    2.000    1.429    1.286    3.000    2.286 
#    5.143    0.000    0.000    0.000    0.000    0.000 
#    0.000    0.000    0.000    0.000    0.000    0.000 
#
# Total GULP energy -155895.834701 kJ/mol
# GULP energy per Si atom -5567.708382 kJ/mol
# Density = 2.326462 g / cm^3
# Si number density = 23.317691 Si / 1000 Ang^3
#
#
#
# Elastic Constant Matrix: (Units=GPa)
#
#
# Indices 1 2 3 4 5 6 
#
# 1 94.3400 19.4861 29.4057 0.0000 12.1999 0.0000
# 2 19.4861 195.1652 61.9250 0.0000 8.1767 0.0000
# 3 29.4057 61.9250 72.4425 0.0000 2.7750 0.0000
# 4 0.0000 0.0000 0.0000 14.4112 0.0000 -15.7212
# 5 12.1999 8.1767 2.7750 0.0000 33.9349 0.0000
# 6 0.0000 0.0000 0.0000 -15.7212 0.0000 -34.7407
#
#
#
# Elastic Compliance Matrix: (Units=1/GPa)
#
#
# Indices 1 2 3 4 5 6 
#
# 1 0.012759 0.000682 -0.005598 0.000000 -0.004294 0.000000
# 2 0.000682 0.007117 -0.006305 0.000000 -0.001444 0.000000
# 3 -0.005598 -0.006305 0.021398 0.000000 0.001782 0.000000
# 4 0.000000 0.000000 0.000000 0.046457 0.000000 -0.021023
# 5 -0.004294 -0.001444 0.001782 0.000000 0.031214 0.000000
# 6 0.000000 0.000000 0.000000 -0.021023 0.000000 -0.019271
#
#
# Mechanical properties :
#
#
# Convention : Reuss Voigt Hill
#
# Bulk Modulus (GPa) = 53.10071 64.84237 58.97154
# Shear Modulus (GPa) = 38.94314 19.46315 29.20314
#
# Velocity S-wave (km/s) = 4.09113 2.89224 3.54277
# Velocity P-wave (km/s) = 6.71853 6.24676 6.48694
#
# Compressibility (1/GPa) = 0.01883214
#
# Stress axis : x y z
#
# Youngs Moduli (GPa) = 78.37522 140.51100 46.73382
#
# Poissons Ratio (x) = -0.09584 0.26160
# Poissons Ratio (y) = -0.05346 0.29466
# Poissons Ratio (z) = 0.43873 0.88595
#
# Static dielectric constant tensor:
#      x y z
#    x 2.032910 0.000000 -0.097390 
#    y 0.000000 1.986080 0.000000 
#    z -0.097390 0.000000 1.893230 
# 
# From -- ./inp_files/8792.got.cif
#   From: 2010.05.17/outbox.cif.g08.bks.cpg/sg11_5_cif.got.tgz:8792.got - 2010.06.03 12:22:45.
