data_PCOD9162739
_publ_section_title
;
Structure prediction by ZEFSAII (Michael W. Deem and Ramdas Pophale) SiO2 
 PCOD9162739
Probable space group: P 21/M
;
_chemical_formula_sum "Si O2"
_cell_formula_units_Z 32
_cell_length_a 16.701873
_cell_length_b 13.602947
_cell_length_c 10.489895
_cell_angle_alpha 90.000000
_cell_angle_beta 146.395082
_cell_angle_gamma 90.000000
_cell_volume 1319.039950
_symmetry_space_group_name_H-M "P 21/M"
_symmetry_group_IT_number 11
_symmetry_cell_setting 'monoclinic'
loop_
_space_group_symop_operation_xyz
x,y,z
-x,1/2+y,-z
-x,-y,-z
x,1/2-y,z
loop_
_atom_site_type_symbol
_atom_site_label
_atom_site_fract_x
_atom_site_fract_y
_atom_site_fract_z
Si Si1 0.774337 0.362894 0.288251
Si Si2 0.992576 0.633161 0.789776
Si Si3 0.686677 0.941715 0.294771
Si Si4 0.581612 0.532571 0.432802
Si Si5 0.403663 0.134842 0.092308
Si Si6 0.301480 0.637396 0.106274
Si Si7 0.135449 0.366065 0.109222
Si Si8 0.910912 0.866686 0.238338
O O1 0.770858 0.250000 0.333268
O O2 0.696630 0.443276 0.272013
O O3 0.709945 0.362055 0.062093
O O4 0.942447 0.395936 0.497482
O O5 0.991489 0.750000 0.764536
O O6 0.852837 0.592242 0.531936
O O7 0.966848 0.616184 0.905654
O O8 0.148929 0.597302 0.953914
O O9 0.609153 0.923122 0.326464
O O10 0.610443 0.886787 0.076922
O O11 0.727859 0.562534 0.696705
O O12 0.531892 0.422886 0.332216
O O13 0.447410 0.580254 0.328430
O O14 0.416197 0.250000 0.132843
O O15 0.247329 0.094602 0.935243
O O16 0.315225 0.750000 0.169403
O O17 0.182293 0.250000 0.177916
O O18 0.061277 0.379648 0.875057
O O19 0.897551 0.750000 0.246545
#
# Coordination Sequence:
#
# PCOD9162739 Si02
#       8
#     4   4   4   4   4   4   4   4
#     4  10  21  36  60  90 121 155 195 249 303 357
#     4   9  19  35  59  88 116 153 201 250 294 345
#     4  11  22  38  59  90 120 158 201 240 304 363
#     4  11  23  38  58  93 122 161 204 241 301 356
#     4  11  23  37  59  88 124 161 197 245 299 362
#     4  10  20  35  59  92 124 152 193 251 309 354
#     4   9  19  40  66  87 119 160 204 248 287 352
#     4   9  20  39  62  89 117 160 206 242 298 355
#
# _framework density 24.260069000000001
#
# number of rings (size 3 to 8) (size 9 to 14) (size 15 to 20)
#    0.000    2.000    1.250    1.875    1.750    5.500 
#    0.000    2.500    2.750    0.000    0.000    0.875 
#    0.000    0.000    0.000    0.000    0.000    0.000 
#
# Total GULP energy -179167.087234 kJ/mol
# GULP energy per Si atom -5598.971476 kJ/mol
# Density = 2.420485 g / cm^3
# Si number density = 24.260069 Si / 1000 Ang^3
#
#
#
# Elastic Constant Matrix: (Units=GPa)
#
#
# Indices 1 2 3 4 5 6 
#
# 1 70.9483 18.2027 35.1535 0.0000 24.9909 0.0000
# 2 18.2027 102.0933 30.2909 0.0000 11.7516 0.0000
# 3 35.1535 30.2909 73.4086 0.0000 13.7939 0.0000
# 4 0.0000 0.0000 0.0000 38.7808 0.0000 4.1321
# 5 24.9909 11.7516 13.7939 0.0000 41.2128 0.0000
# 6 0.0000 0.0000 0.0000 4.1321 0.0000 24.3274
#
#
#
# Elastic Compliance Matrix: (Units=1/GPa)
#
#
# Indices 1 2 3 4 5 6 
#
# 1 0.022049 -0.000202 -0.008509 0.000000 -0.010464 0.000000
# 2 -0.000202 0.011283 -0.004244 0.000000 -0.001674 0.000000
# 3 -0.008509 -0.004244 0.019476 0.000000 -0.000149 0.000000
# 4 0.000000 0.000000 0.000000 0.026261 0.000000 -0.004461
# 5 -0.010464 -0.001674 -0.000149 0.000000 0.031137 0.000000
# 6 0.000000 0.000000 0.000000 -0.004461 0.000000 0.041863
#
#
# Mechanical properties :
#
#
# Convention : Reuss Voigt Hill
#
# Bulk Modulus (GPa) = 37.17830 45.97159 41.57495
# Shear Modulus (GPa) = 26.74572 31.71777 29.23175
#
# Velocity S-wave (km/s) = 3.32393 3.61973 3.47498
# Velocity P-wave (km/s) = 5.48539 6.03826 5.76845
#
# Compressibility (1/GPa) = 0.02689741
#
# Stress axis : x y z
#
# Youngs Moduli (GPa) = 45.35454 88.62884 51.34428
#
# Poissons Ratio (x) = 0.01791 0.43688
# Poissons Ratio (y) = 0.00916 0.21793
# Poissons Ratio (z) = 0.38591 0.37618
#
# Static dielectric constant tensor:
#      x y z
#    x 1.923420 0.000000 0.024070 
#    y 0.000000 1.952440 0.000000 
#    z 0.024070 0.000000 1.880480 
# 
# From -- ./inp_files/41685.got.cif
#   From: 2010.05.17/outbox.cif.g08.bks.cpg/sg11_21_cif.got.tgz:41685.got - 2010.06.03 12:22:45.
