data_PCOD9162764
_publ_section_title
;
Structure prediction by ZEFSAII (Michael W. Deem and Ramdas Pophale) SiO2 
 PCOD9162764
Probable space group: P 21/M
;
_chemical_formula_sum "Si O2"
_cell_formula_units_Z 32
_cell_length_a 12.361652
_cell_length_b 8.519704
_cell_length_c 32.031569
_cell_angle_alpha 90.000000
_cell_angle_beta 150.042873
_cell_angle_gamma 90.000000
_cell_volume 1684.557664
_symmetry_space_group_name_H-M "P 21/M"
_symmetry_group_IT_number 11
_symmetry_cell_setting 'monoclinic'
loop_
_space_group_symop_operation_xyz
x,y,z
-x,1/2+y,-z
-x,-y,-z
x,1/2-y,z
loop_
_atom_site_type_symbol
_atom_site_label
_atom_site_fract_x
_atom_site_fract_y
_atom_site_fract_z
Si Si1 0.449792 0.438862 0.029542
Si Si2 0.324554 0.937766 0.757762
Si Si3 0.046412 0.559240 0.129819
Si Si4 0.206392 0.561664 0.094367
Si Si5 0.845972 0.937946 0.216342
Si Si6 0.141223 0.560485 0.607633
Si Si7 0.689678 0.062067 0.425567
Si Si8 0.780268 0.439697 0.721994
O O1 0.459886 0.250000 0.033525
O O2 0.629392 0.506721 0.120299
O O3 0.500000 0.500000 0.000000
O O4 0.204804 0.487002 0.958905
O O5 0.329587 0.750000 0.759608
O O6 0.247041 0.993400 0.686198
O O7 0.566637 0.999391 0.846850
O O8 0.166653 0.995894 0.741354
O O9 0.050772 0.750000 0.132097
O O10 0.178995 0.508528 0.133497
O O11 0.137948 0.504916 0.204948
O O12 0.206013 0.750000 0.093010
O O13 0.000000 0.500000 0.000000
O O14 0.848277 0.750000 0.218536
O O15 0.050340 0.991086 0.256832
O O16 0.136988 0.750000 0.606379
O O17 0.272800 0.510176 0.610208
O O18 0.897454 0.499611 0.520115
O O19 0.688600 0.250000 0.426158
O O20 0.462455 0.997963 0.365701
O O21 0.781656 0.250000 0.723009
#
# Coordination Sequence:
#
# PCOD9162764 Si02
#       8
#     4   4   4   4   4   4   4   4
#     4  11  20  35  56  81 114 152 195 240 287 337
#     4  11  23  40  60  83 116 154 194 237 286 346
#     4   9  19  35  55  79 109 147 189 233 283 338
#     4  11  22  37  58  83 115 153 193 237 286 340
#     4  11  23  39  58  82 113 153 199 241 287 343
#     4   9  20  39  61  86 117 152 184 225 285 346
#     4  10  20  35  60  92 118 141 182 235 284 341
#     4  10  20  37  57  80 113 148 185 233 289 342
#
# _framework density 18.996085000000001
#
# number of rings (size 3 to 8) (size 9 to 14) (size 15 to 20)
#    0.000    1.750    1.250    3.375    0.000    3.500 
#    0.000    3.125    0.000    0.000    0.000    0.000 
#    0.000    0.000    0.000    0.000    0.000    0.000 
#
# Total GULP energy -178808.550450 kJ/mol
# GULP energy per Si atom -5587.767202 kJ/mol
# Density = 1.895285 g / cm^3
# Si number density = 18.996085 Si / 1000 Ang^3
#
#
#
# Elastic Constant Matrix: (Units=GPa)
#
#
# Indices 1 2 3 4 5 6 
#
# 1 114.3002 20.9007 47.3154 0.0000 8.9593 0.0000
# 2 20.9007 31.3754 15.4958 0.0000 -0.8761 0.0000
# 3 47.3154 15.4958 95.4559 0.0000 5.2359 0.0000
# 4 0.0000 0.0000 0.0000 27.5758 0.0000 -0.9215
# 5 8.9593 -0.8761 5.2359 0.0000 34.9427 0.0000
# 6 0.0000 0.0000 0.0000 -0.9215 0.0000 26.5973
#
#
#
# Elastic Compliance Matrix: (Units=1/GPa)
#
#
# Indices 1 2 3 4 5 6 
#
# 1 0.012003 -0.005647 -0.004897 0.000000 -0.002486 0.000000
# 2 -0.005647 0.037410 -0.003433 0.000000 0.002900 0.000000
# 3 -0.004897 -0.003433 0.013507 0.000000 -0.000855 0.000000
# 4 0.000000 0.000000 0.000000 0.036306 0.000000 0.001258
# 5 -0.002486 0.002900 -0.000855 0.000000 0.029456 0.000000
# 6 0.000000 0.000000 0.000000 0.001258 0.000000 0.037641
#
#
# Mechanical properties :
#
#
# Convention : Reuss Voigt Hill
#
# Bulk Modulus (GPa) = 28.59786 45.39503 36.99644
# Shear Modulus (GPa) = 24.27964 28.31782 26.29873
#
# Velocity S-wave (km/s) = 3.57899 3.86517 3.72483
# Velocity P-wave (km/s) = 5.67152 6.62332 6.16581
#
# Compressibility (1/GPa) = 0.03496766
#
# Stress axis : x y z
#
# Youngs Moduli (GPa) = 83.30995 26.73056 74.03340
#
# Poissons Ratio (x) = 0.15095 0.36252
# Poissons Ratio (y) = 0.47045 0.25415
# Poissons Ratio (z) = 0.40795 0.09176
#
# Static dielectric constant tensor:
#      x y z
#    x 1.665850 0.000000 -0.014340 
#    y 0.000000 1.643410 0.000000 
#    z -0.014340 0.000000 1.629770 
# 
# From -- ./inp_files/45294.got.cif
#   From: 2010.05.17/outbox.cif.g08.bks.cpg/sg11_23_cif.got.tgz:45294.got - 2010.06.03 12:22:45.
