data_PCOD9162786
_publ_section_title
;
Structure prediction by ZEFSAII (Michael W. Deem and Ramdas Pophale) SiO2 
 PCOD9162786
Probable space group: P 21/M
;
_chemical_formula_sum "Si O2"
_cell_formula_units_Z 24
_cell_length_a 5.449887
_cell_length_b 13.691467
_cell_length_c 13.767581
_cell_angle_alpha 90.000000
_cell_angle_beta 79.192375
_cell_angle_gamma 90.000000
_cell_volume 1009.073033
_symmetry_space_group_name_H-M "P 21/M"
_symmetry_group_IT_number 11
_symmetry_cell_setting 'monoclinic'
loop_
_space_group_symop_operation_xyz
x,y,z
-x,1/2+y,-z
-x,-y,-z
x,1/2-y,z
loop_
_atom_site_type_symbol
_atom_site_label
_atom_site_fract_x
_atom_site_fract_y
_atom_site_fract_z
Si Si1 0.812950 0.479318 0.621641
Si Si2 0.758048 0.750000 0.957997
Si Si3 0.762345 0.550229 0.971514
Si Si4 0.752576 0.861662 0.492175
Si Si5 0.102542 0.944210 0.768171
Si Si6 0.602503 0.636975 0.275894
Si Si7 0.315257 0.750000 0.831677
O O1 0.646335 0.555793 0.572669
O O2 0.670883 0.411277 0.709651
O O3 0.966153 0.403201 0.544380
O O4 0.002527 0.548112 0.666897
O O5 0.714168 0.654378 0.022224
O O6 0.556177 0.750000 0.884089
O O7 0.053374 0.750000 0.910969
O O8 0.859770 0.568866 0.854964
O O9 0.500000 0.500000 0.000000
O O10 0.000000 0.500000 0.000000
O O11 0.741907 0.750000 0.528709
O O12 0.645052 0.862638 0.390783
O O13 0.285083 0.852334 0.775468
O O14 0.222955 0.050792 0.778755
O O15 0.626413 0.750000 0.243939
#
# Coordination Sequence:
#
# PCOD9162786 Si02
#       7
#     4   2   4   4   4   4   2
#     4  10  20  35  62  86 130 169 221 275 339 402
#     4  10  22  44  70  98 130 176 210 273 349 384
#     4  11  24  44  71  97 136 176 223 278 334 407
#     4   9  19  36  56  88 124 170 223 274 333 402
#     4  10  24  40  62  96 129 169 223 273 344 403
#     4  10  21  39  61  88 131 175 221 280 340 401
#     4  10  22  40  70  94 138 170 214 279 339 402
#
# _framework density 23.784205
#
# number of rings (size 3 to 8) (size 9 to 14) (size 15 to 20)
#    0.000    2.000    0.000    3.000    8.167    0.667 
#    4.500    0.000    0.000    0.000    0.000    0.000 
#    0.000    0.000    0.000    0.000    0.000    0.000 
#
# Total GULP energy -133846.243028 kJ/mol
# GULP energy per Si atom -5576.926793 kJ/mol
# Density = 2.373007 g / cm^3
# Si number density = 23.784205 Si / 1000 Ang^3
#
#
#
# Elastic Constant Matrix: (Units=GPa)
#
#
# Indices 1 2 3 4 5 6 
#
# 1 111.6156 54.1163 17.0778 0.0000 6.5946 0.0000
# 2 54.1163 227.1957 24.2465 0.0000 14.1490 0.0000
# 3 17.0778 24.2465 52.9976 0.0000 12.2173 0.0000
# 4 0.0000 0.0000 0.0000 37.9850 0.0000 -0.7860
# 5 6.5946 14.1490 12.2173 0.0000 34.3821 0.0000
# 6 0.0000 0.0000 0.0000 -0.7860 0.0000 39.7937
#
#
#
# Elastic Compliance Matrix: (Units=1/GPa)
#
#
# Indices 1 2 3 4 5 6 
#
# 1 0.010398 -0.002217 -0.002273 0.000000 -0.000274 0.000000
# 2 -0.002217 0.005150 -0.001363 0.000000 -0.001210 0.000000
# 3 -0.002273 -0.001363 0.021779 0.000000 -0.006742 0.000000
# 4 0.000000 0.000000 0.000000 0.026337 0.000000 0.000520
# 5 -0.000274 -0.001210 -0.006742 0.000000 0.032031 0.000000
# 6 0.000000 0.000000 0.000000 0.000520 0.000000 0.025140
#
#
# Mechanical properties :
#
#
# Convention : Reuss Voigt Hill
#
# Bulk Modulus (GPa) = 39.03004 64.74334 51.88669
# Shear Modulus (GPa) = 35.44021 42.19004 38.81512
#
# Velocity S-wave (km/s) = 3.86433 4.21630 4.04415
# Velocity P-wave (km/s) = 6.02963 7.14025 6.60831
#
# Compressibility (1/GPa) = 0.02562129
#
# Stress axis : x y z
#
# Youngs Moduli (GPa) = 96.16969 194.15972 45.91569
#
# Poissons Ratio (x) = 0.43048 0.10437
# Poissons Ratio (y) = 0.21322 0.06258
# Poissons Ratio (z) = 0.21861 0.26463
#
# Static dielectric constant tensor:
#      x y z
#    x 1.932690 0.000000 -0.029790 
#    y 0.000000 2.053620 0.000000 
#    z -0.029790 0.000000 1.987680 
# 
# From -- ./inp_files/56807.got.cif
#   From: 2010.05.17/outbox.cif.g08.bks.cpg/sg11_29_cif.got.tgz:56807.got - 2010.06.03 12:22:45.
