data_PCOD9162554
_publ_section_title
;
Structure prediction by ZEFSAII (Michael W. Deem and Ramdas Pophale) SiO2 
 PCOD9162554
Probable space group: P 21/M
;
_chemical_formula_sum "Si O2"
_cell_formula_units_Z 20
_cell_length_a 9.105533
_cell_length_b 8.980014
_cell_length_c 14.115118
_cell_angle_alpha 90.000000
_cell_angle_beta 71.214066
_cell_angle_gamma 90.000000
_cell_volume 1092.678205
_symmetry_space_group_name_H-M "P 21/M"
_symmetry_group_IT_number 11
_symmetry_cell_setting 'monoclinic'
loop_
_space_group_symop_operation_xyz
x,y,z
-x,1/2+y,-z
-x,-y,-z
x,1/2-y,z
loop_
_atom_site_type_symbol
_atom_site_label
_atom_site_fract_x
_atom_site_fract_y
_atom_site_fract_z
Si Si1 0.027058 0.428288 0.596849
Si Si2 0.665198 0.428919 0.994246
Si Si3 0.625221 0.926630 0.404875
Si Si4 0.781898 0.927838 0.790255
Si Si5 0.433555 0.926725 0.783736
O O1 0.005355 0.250000 0.596781
O O2 0.202329 0.459231 0.593556
O O3 0.000000 0.500000 0.500000
O O4 0.908554 0.499356 0.696249
O O5 0.659469 0.250000 0.984816
O O6 0.677394 0.462337 0.103578
O O7 0.500000 0.500000 0.000000
O O8 0.782711 0.499893 0.894776
O O9 0.602953 0.750000 0.410833
O O10 0.500000 0.000000 0.500000
O O11 0.604674 0.986235 0.302983
O O12 0.801478 0.750000 0.792544
O O13 0.610937 0.955808 0.780399
O O14 0.422199 0.750000 0.767925
#
# Coordination Sequence:
#
# PCOD9162554 Si02
#       5
#     4   4   4   4   4
#     4  11  24  40  57  81 110 142 182 227 274 329
#     4   9  17  31  53  82 114 147 183 225 268 318
#     4  11  24  39  57  81 109 141 181 225 272 327
#     4  10  20  35  57  85 113 145 185 227 270 322
#     4   9  19  35  56  83 113 143 181 224 267 318
#
# _framework density 18.303650000000001
#
# number of rings (size 3 to 8) (size 9 to 14) (size 15 to 20)
#    0.000    2.000    0.000    4.800    0.000   12.800 
#    0.000    1.000    0.000    0.000    0.000    0.000 
#    0.000    0.000    0.000    0.000    0.000    0.000 
#
# Total GULP energy -111658.780161 kJ/mol
# GULP energy per Si atom -5582.939008 kJ/mol
# Density = 1.826199 g / cm^3
# Si number density = 18.303650 Si / 1000 Ang^3
#
#
#
# Elastic Constant Matrix: (Units=GPa)
#
#
# Indices 1 2 3 4 5 6 
#
# 1 78.8728 76.9137 93.2786 0.0000 -6.8475 0.0000
# 2 76.9137 90.2660 101.9664 0.0000 -2.5213 0.0000
# 3 93.2786 101.9664 225.9478 0.0000 -14.8999 0.0000
# 4 0.0000 0.0000 0.0000 43.4449 0.0000 -0.6610
# 5 -6.8475 -2.5213 -14.8999 0.0000 32.7921 0.0000
# 6 0.0000 0.0000 0.0000 -0.6610 0.0000 28.0230
#
#
#
# Elastic Compliance Matrix: (Units=1/GPa)
#
#
# Indices 1 2 3 4 5 6 
#
# 1 0.080277 -0.064138 -0.003522 0.000000 0.010231 0.000000
# 2 -0.064138 0.074130 -0.007714 0.000000 -0.011198 0.000000
# 3 -0.003522 -0.007714 0.009560 0.000000 0.003015 0.000000
# 4 0.000000 0.000000 0.000000 0.023026 0.000000 0.000543
# 5 0.010231 -0.011198 0.003015 0.000000 0.033141 0.000000
# 6 0.000000 0.000000 0.000000 0.000543 0.000000 0.035698
#
#
# Mechanical properties :
#
#
# Convention : Reuss Voigt Hill
#
# Bulk Modulus (GPa) = 75.64786 104.37822 90.01304
# Shear Modulus (GPa) = 12.16592 29.04722 20.60657
#
# Velocity S-wave (km/s) = 2.58092 3.98799 3.35896
# Velocity P-wave (km/s) = 7.09229 8.85184 8.02047
#
# Compressibility (1/GPa) = 0.01321915
#
# Stress axis : x y z
#
# Youngs Moduli (GPa) = 12.45688 13.48986 104.60718
#
# Poissons Ratio (x) = 0.86521 0.36840
# Poissons Ratio (y) = 0.79896 0.80691
# Poissons Ratio (z) = 0.04387 0.10406
#
# Static dielectric constant tensor:
#      x y z
#    x 1.630520 0.000000 -0.013580 
#    y 0.000000 1.605820 0.000000 
#    z -0.013580 0.000000 1.635510 
# 
# From -- ./inp_files/15947.got.cif
#   From: 2010.05.17/outbox.cif.g08.bks.cpg/sg11_8_cif.got.tgz:15947.got - 2010.06.03 12:22:45.
