data_PCOD9162076
_publ_section_title
;
Structure prediction by ZEFSAII (Michael W. Deem and Ramdas Pophale) SiO2 
 PCOD9162076
Probable space group: P 21/M
;
_chemical_formula_sum "Si O2"
_cell_formula_units_Z 28
_cell_length_a 13.636335
_cell_length_b 13.902629
_cell_length_c 8.043945
_cell_angle_alpha 90.000000
_cell_angle_beta 63.220074
_cell_angle_gamma 90.000000
_cell_volume 1361.414894
_symmetry_space_group_name_H-M "P 21/M"
_symmetry_group_IT_number 11
_symmetry_cell_setting 'monoclinic'
loop_
_space_group_symop_operation_xyz
x,y,z
-x,1/2+y,-z
-x,-y,-z
x,1/2-y,z
loop_
_atom_site_type_symbol
_atom_site_label
_atom_site_fract_x
_atom_site_fract_y
_atom_site_fract_z
Si Si1 0.953677 0.141910 0.336956
Si Si2 0.378803 0.965599 0.541740
Si Si3 0.840795 0.950394 0.375561
Si Si4 0.279403 0.637768 0.930738
Si Si5 0.378692 0.971095 0.148096
Si Si6 0.799158 0.641208 0.736267
Si Si7 0.043756 0.640551 0.058271
O O1 0.927884 0.250000 0.425754
O O2 0.082590 0.122613 0.269283
O O3 0.877179 0.050589 0.441433
O O4 0.938090 0.147272 0.151750
O O5 0.341590 0.892539 0.714499
O O6 0.379385 0.942024 0.343041
O O7 0.500000 0.000000 0.500000
O O8 0.275887 0.039293 0.625200
O O9 0.829005 0.867697 0.519675
O O10 0.939624 0.923061 0.180738
O O11 0.261931 0.750000 0.931657
O O12 0.342666 0.611018 0.048648
O O13 0.156436 0.595691 0.039600
O O14 0.296009 0.061103 0.174778
O O15 0.500000 0.000000 0.000000
O O16 0.764084 0.750000 0.807679
O O17 0.025916 0.750000 0.134607
#
# Coordination Sequence:
#
# PCOD9162076 Si02
#       7
#     4   4   4   4   4   4   4
#     4  10  20  34  57  89 124 164 209 258 319 391
#     4  11  24  43  66  97 129 173 224 278 324 392
#     4  11  21  37  64  91 127 174 214 266 338 393
#     4  11  24  44  69  98 136 174 220 277 332 394
#     4  11  24  43  69  93 132 176 226 273 332 398
#     4  10  23  40  60  93 131 166 213 277 333 393
#     4  10  21  37  60  95 130 168 217 267 328 402
#
# _framework density 20.566837
#
# number of rings (size 3 to 8) (size 9 to 14) (size 15 to 20)
#    0.000    1.429    2.857    2.143    2.000    2.286 
#    0.000    5.714    0.000    0.000    0.000    0.000 
#    0.000    0.000    0.000    0.000    0.000    0.000 
#
# Total GULP energy -156105.945119 kJ/mol
# GULP energy per Si atom -5575.212326 kJ/mol
# Density = 2.052003 g / cm^3
# Si number density = 20.566837 Si / 1000 Ang^3
#
#
#
# Elastic Constant Matrix: (Units=GPa)
#
#
# Indices 1 2 3 4 5 6 
#
# 1 149.6123 27.9331 34.4645 0.0000 -11.1635 0.0000
# 2 27.9331 72.7913 14.1501 0.0000 -8.3064 0.0000
# 3 34.4645 14.1501 80.5853 0.0000 -7.0314 0.0000
# 4 0.0000 0.0000 0.0000 23.3454 0.0000 -0.6726
# 5 -11.1635 -8.3064 -7.0314 0.0000 38.2304 0.0000
# 6 0.0000 0.0000 0.0000 -0.6726 0.0000 7.5248
#
#
#
# Elastic Compliance Matrix: (Units=1/GPa)
#
#
# Indices 1 2 3 4 5 6 
#
# 1 0.007868 -0.002321 -0.002847 0.000000 0.001270 0.000000
# 2 -0.002321 0.015182 -0.001468 0.000000 0.002351 0.000000
# 3 -0.002847 -0.001468 0.014009 0.000000 0.001426 0.000000
# 4 0.000000 0.000000 0.000000 0.042946 0.000000 0.003839
# 5 0.001270 0.002351 0.001426 0.000000 0.027301 0.000000
# 6 0.000000 0.000000 0.000000 0.003839 0.000000 0.133237
#
#
# Mechanical properties :
#
#
# Convention : Reuss Voigt Hill
#
# Bulk Modulus (GPa) = 42.03873 50.67604 46.35739
# Shear Modulus (GPa) = 19.10270 28.91618 24.00944
#
# Velocity S-wave (km/s) = 3.05095 3.75368 3.42041
# Velocity P-wave (km/s) = 5.73546 6.59394 6.17962
#
# Compressibility (1/GPa) = 0.02378759
#
# Stress axis : x y z
#
# Youngs Moduli (GPa) = 127.10144 65.86650 71.38340
#
# Poissons Ratio (x) = 0.15287 0.20320
# Poissons Ratio (y) = 0.29500 0.10480
# Poissons Ratio (z) = 0.36180 0.09670
#
# Static dielectric constant tensor:
#      x y z
#    x 1.740730 0.000000 0.009780 
#    y 0.000000 1.795770 0.000000 
#    z 0.009780 0.000000 1.729730 
# 
# From -- ./inp_files/17919.got.cif
#   From: 2010.05.17/outbox.cif.g08.bks.cpg/sg11_9_cif.got.tgz:17919.got - 2010.06.03 12:22:45.
