data_PCOD9162988
_publ_section_title
;
Structure prediction by ZEFSAII (Michael W. Deem and Ramdas Pophale) SiO2 
 PCOD9162988
Probable space group: P 21/M
;
_chemical_formula_sum "Si O2"
_cell_formula_units_Z 28
_cell_length_a 22.299883
_cell_length_b 8.540817
_cell_length_c 15.085852
_cell_angle_alpha 90.000000
_cell_angle_beta 150.285577
_cell_angle_gamma 90.000000
_cell_volume 1424.199684
_symmetry_space_group_name_H-M "P 21/M"
_symmetry_group_IT_number 11
_symmetry_cell_setting 'monoclinic'
loop_
_space_group_symop_operation_xyz
x,y,z
-x,1/2+y,-z
-x,-y,-z
x,1/2-y,z
loop_
_atom_site_type_symbol
_atom_site_label
_atom_site_fract_x
_atom_site_fract_y
_atom_site_fract_z
Si Si1 0.340302 0.063635 0.382699
Si Si2 0.831252 0.059066 0.534366
Si Si3 0.338557 0.938741 0.995571
Si Si4 0.377716 0.938768 0.240649
Si Si5 0.886011 0.437298 0.799451
Si Si6 0.888795 0.060752 0.413775
Si Si7 0.552817 0.437189 0.160036
O O1 0.331786 0.250000 0.381041
O O2 0.479566 0.017081 0.582012
O O3 0.322331 0.015564 0.256988
O O4 0.239564 0.987363 0.315523
O O5 0.833676 0.250000 0.537454
O O6 0.887732 0.006143 0.699517
O O7 0.890597 0.007155 0.518211
O O8 0.690621 0.010957 0.350578
O O9 0.344835 0.750000 0.000627
O O10 0.234379 0.989817 0.793918
O O11 0.316438 0.983779 0.069139
O O12 0.465628 0.004328 0.125406
O O13 0.372465 0.750000 0.243874
O O14 0.891082 0.250000 0.805369
O O15 0.000000 0.500000 0.000000
O O16 0.889285 0.250000 0.414275
O O17 0.000000 0.000000 0.500000
O O18 0.552346 0.250000 0.156183
O O19 0.500000 0.500000 0.000000
#
# Coordination Sequence:
#
# PCOD9162988 Si02
#       7
#     4   4   4   4   4   4   4
#     4  10  20  36  57  84 117 150 187 235 289 344
#     4   9  20  39  60  82 114 151 184 231 290 340
#     4  10  20  36  57  83 116 148 185 235 283 332
#     4   9  19  35  58  86 116 150 187 233 288 340
#     4  11  23  40  61  83 111 151 197 243 290 342
#     4  10  21  39  57  77 110 147 186 227 274 332
#     4  11  20  34  58  87 117 149 186 229 283 343
#
# _framework density 19.660166
#
# number of rings (size 3 to 8) (size 9 to 14) (size 15 to 20)
#    0.000    2.000    1.429    2.143    0.000    2.857 
#    0.000    6.429    0.000    0.000    0.000    0.000 
#    0.000    0.000    0.000    0.000    0.000    0.000 
#
# Total GULP energy -156380.403544 kJ/mol
# GULP energy per Si atom -5585.014412 kJ/mol
# Density = 1.961542 g / cm^3
# Si number density = 19.660166 Si / 1000 Ang^3
#
#
#
# Elastic Constant Matrix: (Units=GPa)
#
#
# Indices 1 2 3 4 5 6 
#
# 1 158.7263 23.6990 69.2925 0.0000 -19.9933 0.0000
# 2 23.6990 16.2884 17.8966 0.0000 -6.0898 0.0000
# 3 69.2925 17.8966 89.3017 0.0000 -21.7660 0.0000
# 4 0.0000 0.0000 0.0000 23.1829 0.0000 5.7267
# 5 -19.9933 -6.0898 -21.7660 0.0000 39.6005 0.0000
# 6 0.0000 0.0000 0.0000 5.7267 0.0000 34.2559
#
#
#
# Elastic Compliance Matrix: (Units=1/GPa)
#
#
# Indices 1 2 3 4 5 6 
#
# 1 0.010279 -0.007868 -0.006269 0.000000 0.000534 0.000000
# 2 -0.007868 0.085294 -0.010115 0.000000 0.003585 0.000000
# 3 -0.006269 -0.010115 0.019559 0.000000 0.006030 0.000000
# 4 0.000000 0.000000 0.000000 0.044993 0.000000 -0.007522
# 5 0.000534 0.003585 0.006030 0.000000 0.029387 0.000000
# 6 0.000000 0.000000 0.000000 -0.007522 0.000000 0.030450
#
#
# Mechanical properties :
#
#
# Convention : Reuss Voigt Hill
#
# Bulk Modulus (GPa) = 15.00840 54.01030 34.50935
# Shear Modulus (GPa) = 17.20133 29.63641 23.41887
#
# Velocity S-wave (km/s) = 2.96114 3.88678 3.45510
# Velocity P-wave (km/s) = 4.39791 6.90466 5.78861
#
# Compressibility (1/GPa) = 0.06662937
#
# Stress axis : x y z
#
# Youngs Moduli (GPa) = 97.28757 11.72409 51.12745
#
# Poissons Ratio (x) = 0.09224 0.32051
# Poissons Ratio (y) = 0.76545 0.51714
# Poissons Ratio (z) = 0.60987 0.11859
#
# Static dielectric constant tensor:
#      x y z
#    x 1.684260 0.000000 -0.025530 
#    y 0.000000 1.670570 0.000000 
#    z -0.025530 0.000000 1.687370 
# 
# From -- ./inp_files/54630.got.cif
#   From: 2010.05.17/outbox.cif.g08.bks.cpg/sg11_28_cif.got.tgz:54630.got - 2010.06.03 12:22:45.
