data_PCOD9162197
_publ_section_title
;
Structure prediction by ZEFSAII (Michael W. Deem and Ramdas Pophale) SiO2 
 PCOD9162197
Probable space group: P 21/M
;
_chemical_formula_sum "Si O2"
_cell_formula_units_Z 32
_cell_length_a 14.808524
_cell_length_b 22.359859
_cell_length_c 10.343556
_cell_angle_alpha 90.000000
_cell_angle_beta 29.153894
_cell_angle_gamma 90.000000
_cell_volume 1668.475004
_symmetry_space_group_name_H-M "P 21/M"
_symmetry_group_IT_number 11
_symmetry_cell_setting 'monoclinic'
loop_
_space_group_symop_operation_xyz
x,y,z
-x,1/2+y,-z
-x,-y,-z
x,1/2-y,z
loop_
_atom_site_type_symbol
_atom_site_label
_atom_site_fract_x
_atom_site_fract_y
_atom_site_fract_z
Si Si1 0.782655 0.030693 0.181806
Si Si2 0.119779 0.941340 0.380178
Si Si3 0.645030 0.818515 0.149410
Si Si4 0.955277 0.183673 0.480494
Si Si5 0.154602 0.515036 0.610135
Si Si6 0.462053 0.083013 0.193595
Si Si7 0.456658 0.680756 0.118605
Si Si8 0.568296 0.594449 0.478244
O O1 0.640178 0.073063 0.289061
O O2 0.802967 0.047191 0.307261
O O3 0.696029 0.963965 0.295583
O O4 0.976439 0.025358 0.866700
O O5 0.046757 0.876077 0.429077
O O6 0.117540 0.940840 0.539281
O O7 0.330650 0.944745 0.068028
O O8 0.000000 0.000000 0.500000
O O9 0.596274 0.750000 0.238622
O O10 0.517008 0.837675 0.187628
O O11 0.620330 0.857436 0.307143
O O12 0.857893 0.820495 0.836240
O O13 0.957620 0.250000 0.541048
O O14 0.762872 0.181726 0.639714
O O15 0.319219 0.471480 0.359263
O O16 0.420643 0.111400 0.385615
O O17 0.456938 0.133084 0.089178
O O18 0.521977 0.750000 0.020024
#
# Coordination Sequence:
#
# PCOD9162197 Si02
#       8
#     4   4   4   4   4   4   4   4
#     4   9  20  36  56  76 114 155 184 236 293 341
#     4  11  22  34  57  86 119 154 194 242 296 355
#     4  10  21  37  63  87 109 152 201 245 290 348
#     4   9  20  38  58  84 115 150 198 243 291 349
#     4  10  20  35  53  83 112 149 194 232 290 352
#     4  10  22  36  54  85 117 152 186 242 305 350
#     4   9  20  39  60  84 115 152 195 241 295 356
#     4  10  20  37  56  79 112 147 193 234 289 350
#
# _framework density 19.179190999999999
#
# number of rings (size 3 to 8) (size 9 to 14) (size 15 to 20)
#    0.000    2.250    0.000    1.875    5.250    2.500 
#    0.000    0.000    0.000    0.750    0.000    0.000 
#    0.000    0.000    0.000    0.000    0.000    0.000 
#
# Total GULP energy -178496.114340 kJ/mol
# GULP energy per Si atom -5578.003573 kJ/mol
# Density = 1.913554 g / cm^3
# Si number density = 19.179191 Si / 1000 Ang^3
#
#
#
# Elastic Constant Matrix: (Units=GPa)
#
#
# Indices 1 2 3 4 5 6 
#
# 1 26.8970 9.6143 -0.3648 0.0000 2.2099 0.0000
# 2 9.6143 80.3828 26.3064 0.0000 1.1754 0.0000
# 3 -0.3648 26.3064 63.2631 0.0000 -6.5531 0.0000
# 4 0.0000 0.0000 0.0000 22.2598 0.0000 8.9496
# 5 2.2099 1.1754 -6.5531 0.0000 21.0229 0.0000
# 6 0.0000 0.0000 0.0000 8.9496 0.0000 14.8226
#
#
#
# Elastic Compliance Matrix: (Units=1/GPa)
#
#
# Indices 1 2 3 4 5 6 
#
# 1 0.039385 -0.005360 0.002127 0.000000 -0.003177 0.000000
# 2 -0.005360 0.015286 -0.006632 0.000000 -0.002358 0.000000
# 3 0.002127 -0.006632 0.019212 0.000000 0.006136 0.000000
# 4 0.000000 0.000000 0.000000 0.059325 0.000000 -0.035819
# 5 -0.003177 -0.002358 0.006136 0.000000 0.049946 0.000000
# 6 0.000000 0.000000 0.000000 -0.035819 0.000000 0.089091
#
#
# Mechanical properties :
#
#
# Convention : Reuss Voigt Hill
#
# Bulk Modulus (GPa) = 18.46599 26.85051 22.65825
# Shear Modulus (GPa) = 16.12763 20.62021 18.37392
#
# Velocity S-wave (km/s) = 2.90296 3.28248 3.09854
# Velocity P-wave (km/s) = 4.57004 5.32883 4.96396
#
# Compressibility (1/GPa) = 0.05415361
#
# Stress axis : x y z
#
# Youngs Moduli (GPa) = 25.39053 65.41763 52.04952
#
# Poissons Ratio (x) = 0.35066 -0.11071
# Poissons Ratio (y) = 0.13610 0.34518
# Poissons Ratio (z) = -0.05400 0.43383
#
# Static dielectric constant tensor:
#      x y z
#    x 1.709860 0.000000 -0.018160 
#    y 0.000000 1.698610 0.000000 
#    z -0.018160 0.000000 1.645920 
# 
# From -- ./inp_files/23345.got.cif
#   From: 2010.05.17/outbox.cif.g08.bks.cpg/sg11_12_cif.got.tgz:23345.got - 2010.06.03 12:22:45.
