data_PCOD9162677
_publ_section_title
;
Structure prediction by ZEFSAII (Michael W. Deem and Ramdas Pophale) SiO2 
 PCOD9162677
Probable space group: P 21/M
;
_chemical_formula_sum "Si O2"
_cell_formula_units_Z 28
_cell_length_a 13.867150
_cell_length_b 13.407910
_cell_length_c 7.439987
_cell_angle_alpha 90.000000
_cell_angle_beta 49.268043
_cell_angle_gamma 90.000000
_cell_volume 1048.233837
_symmetry_space_group_name_H-M "P 21/M"
_symmetry_group_IT_number 11
_symmetry_cell_setting 'monoclinic'
loop_
_space_group_symop_operation_xyz
x,y,z
-x,1/2+y,-z
-x,-y,-z
x,1/2-y,z
loop_
_atom_site_type_symbol
_atom_site_label
_atom_site_fract_x
_atom_site_fract_y
_atom_site_fract_z
Si Si1 0.539514 0.632192 0.795045
Si Si2 0.867519 0.857558 0.523577
Si Si3 0.585598 0.634115 0.171774
Si Si4 0.124946 0.360151 0.086094
Si Si5 0.737912 0.434757 0.794681
Si Si6 0.677445 0.055333 0.486268
Si Si7 0.904038 0.426695 0.940483
O O1 0.532437 0.750000 0.756116
O O2 0.726770 0.604656 0.066655
O O3 0.642324 0.563094 0.564625
O O4 0.402250 0.577260 0.943454
O O5 0.796914 0.750000 0.589424
O O6 0.799627 0.963210 0.639134
O O7 0.928857 0.849350 0.647078
O O8 0.966206 0.866827 0.242190
O O9 0.585697 0.750000 0.208300
O O10 0.459409 0.592495 0.415459
O O11 0.570440 0.623576 0.972553
O O12 0.121310 0.250000 0.008623
O O13 0.057495 0.456409 0.091694
O O14 0.707305 0.386844 0.638031
O O15 0.834065 0.404411 0.833738
O O16 0.794101 0.083831 0.219391
#
# Coordination Sequence:
#
# PCOD9162677 Si02
#       7
#     4   4   4   4   4   4   4
#     4  10  20  35  58  89 121 152 189 234 286 343
#     4  10  21  39  62  84 111 152 198 241 288 339
#     4   9  18  35  59  86 117 152 190 234 286 344
#     4   9  17  33  58  82 109 151 194 233 283 339
#     4  10  21  41  63  84 115 155 194 239 289 338
#     4  11  22  36  59  89 120 152 188 232 286 347
#     4  11  23  37  57  85 117 151 193 240 284 336
#
# _framework density 26.711599
#
# number of rings (size 3 to 8) (size 9 to 14) (size 15 to 20)
#    0.000    2.000    0.000    6.857    0.000    6.286 
#    0.000    2.143    0.000    3.429    0.000    0.000 
#    0.000    0.000    0.000    0.000    0.000    0.000 
#
# Total GULP energy -156141.914317 kJ/mol
# GULP energy per Si atom -5576.496940 kJ/mol
# Density = 2.665080 g / cm^3
# Si number density = 26.711599 Si / 1000 Ang^3
#
#
#
# Elastic Constant Matrix: (Units=GPa)
#
#
# Indices 1 2 3 4 5 6 
#
# 1 65.3044 24.4077 29.2255 0.0000 4.5741 0.0000
# 2 24.4077 65.6270 12.6631 0.0000 -14.0571 0.0000
# 3 29.2255 12.6631 195.3139 0.0000 -12.6819 0.0000
# 4 0.0000 0.0000 0.0000 24.7015 0.0000 -4.5251
# 5 4.5741 -14.0571 -12.6819 0.0000 27.1346 0.0000
# 6 0.0000 0.0000 0.0000 -4.5251 0.0000 30.1188
#
#
#
# Elastic Compliance Matrix: (Units=1/GPa)
#
#
# Indices 1 2 3 4 5 6 
#
# 1 0.020868 -0.009248 -0.003158 0.000000 -0.009785 0.000000
# 2 -0.009248 0.021295 0.000846 0.000000 0.012986 0.000000
# 3 -0.003158 0.000846 0.005776 0.000000 0.003670 0.000000
# 4 0.000000 0.000000 0.000000 0.041629 0.000000 0.006255
# 5 -0.009785 0.012986 0.003670 0.000000 0.046946 0.000000
# 6 0.000000 0.000000 0.000000 0.006255 0.000000 0.034142
#
#
# Mechanical properties :
#
#
# Convention : Reuss Voigt Hill
#
# Bulk Modulus (GPa) = 40.28980 50.98197 45.63589
# Shear Modulus (GPa) = 24.74658 33.72091 29.23374
#
# Velocity S-wave (km/s) = 3.04704 3.55689 3.31179
# Velocity P-wave (km/s) = 5.24360 5.99968 5.63433
#
# Compressibility (1/GPa) = 0.02482018
#
# Stress axis : x y z
#
# Youngs Moduli (GPa) = 47.92035 46.95880 173.13013
#
# Poissons Ratio (x) = 0.43425 0.54680
# Poissons Ratio (y) = 0.44314 -0.14652
# Poissons Ratio (z) = 0.15135 -0.03974
#
# Static dielectric constant tensor:
#      x y z
#    x 2.191100 0.000000 0.020820 
#    y 0.000000 2.204280 0.000000 
#    z 0.020820 0.000000 2.138300 
# 
# From -- ./inp_files/24915.got.cif
#   From: 2010.05.17/outbox.cif.g08.bks.cpg/sg11_13_cif.got.tgz:24915.got - 2010.06.03 12:22:45.
