data_PCOD9162124
_publ_section_title
;
Structure prediction by ZEFSAII (Michael W. Deem and Ramdas Pophale) SiO2 
 PCOD9162124
Probable space group: P 21/M
;
_chemical_formula_sum "Si O2"
_cell_formula_units_Z 30
_cell_length_a 16.475954
_cell_length_b 7.413022
_cell_length_c 9.990836
_cell_angle_alpha 90.000000
_cell_angle_beta 81.185038
_cell_angle_gamma 90.000000
_cell_volume 1205.833764
_symmetry_space_group_name_H-M "P 21/M"
_symmetry_group_IT_number 11
_symmetry_cell_setting 'monoclinic'
loop_
_space_group_symop_operation_xyz
x,y,z
-x,1/2+y,-z
-x,-y,-z
x,1/2-y,z
loop_
_atom_site_type_symbol
_atom_site_label
_atom_site_fract_x
_atom_site_fract_y
_atom_site_fract_z
Si Si1 0.799252 0.970777 0.818087
Si Si2 0.020528 0.464003 0.149037
Si Si3 0.622435 0.533519 0.927216
Si Si4 0.426660 0.954523 0.361191
Si Si5 0.746093 0.250000 0.184418
Si Si6 0.845385 0.955746 0.254966
Si Si7 0.752262 0.542737 0.534453
Si Si8 0.597599 0.530348 0.229818
O O1 0.798798 0.750000 0.823110
O O2 0.717766 0.027273 0.920073
O O3 0.778766 0.030074 0.671429
O O4 0.889193 0.032152 0.835961
O O5 0.021427 0.250000 0.171366
O O6 0.942979 0.541043 0.248715
O O7 0.000000 0.500000 0.000000
O O8 0.620683 0.750000 0.911412
O O9 0.592545 0.456853 0.794213
O O10 0.578112 0.490152 0.077064
O O11 0.427205 0.750000 0.406474
O O12 0.519880 0.023303 0.340750
O O13 0.346732 0.041266 0.448283
O O14 0.816940 0.408673 0.148501
O O15 0.676651 0.409606 0.233462
O O16 0.819774 0.750000 0.233538
O O17 0.799787 0.037117 0.397146
O O18 0.778891 0.750000 0.527119
O O19 0.609618 0.750000 0.237628
#
# Coordination Sequence:
#
# PCOD9162124 Si02
#       8
#     4   4   4   4   2   4   4   4
#     4   8  17  35  61  94 121 164 215 254 314 372
#     4  11  23  40  65  97 135 174 210 259 311 383
#     4   9  18  34  58  89 131 173 206 259 319 378
#     4  10  20  34  60  93 129 163 215 268 322 378
#     4  12  26  42  68  88 124 170 222 258 330 384
#     4  11  25  46  68  93 124 169 216 265 325 379
#     4   9  20  41  68  88 123 169 211 272 322 375
#     4  10  23  39  60  93 130 170 214 269 317 386
#
# _framework density 24.879051
#
# number of rings (size 3 to 8) (size 9 to 14) (size 15 to 20)
#    0.000    2.133    0.667    2.400    5.600    0.533 
#    0.000    6.000    0.000    0.000    0.000    0.000 
#    0.000    0.000    0.000    0.000    0.000    0.000 
#
# Total GULP energy -167268.186217 kJ/mol
# GULP energy per Si atom -5575.606207 kJ/mol
# Density = 2.482242 g / cm^3
# Si number density = 24.879051 Si / 1000 Ang^3
#
#
#
# Elastic Constant Matrix: (Units=GPa)
#
#
# Indices 1 2 3 4 5 6 
#
# 1 143.9588 9.0059 29.4663 0.0000 -23.9845 0.0000
# 2 9.0059 124.3215 1.0932 0.0000 -2.0212 0.0000
# 3 29.4663 1.0932 104.4409 0.0000 -25.3687 0.0000
# 4 0.0000 0.0000 0.0000 15.0770 0.0000 20.8685
# 5 -23.9845 -2.0212 -25.3687 0.0000 39.0557 0.0000
# 6 0.0000 0.0000 0.0000 20.8685 0.0000 88.9883
#
#
#
# Elastic Compliance Matrix: (Units=1/GPa)
#
#
# Indices 1 2 3 4 5 6 
#
# 1 0.007902 -0.000496 -0.001249 0.000000 0.004016 0.000000
# 2 -0.000496 0.008082 0.000099 0.000000 0.000178 0.000000
# 3 -0.001249 0.000099 0.011566 0.000000 0.006751 0.000000
# 4 0.000000 0.000000 0.000000 0.098201 0.000000 -0.023029
# 5 0.004016 0.000178 0.006751 0.000000 0.032465 0.000000
# 6 0.000000 0.000000 0.000000 -0.023029 0.000000 0.016638
#
#
# Mechanical properties :
#
#
# Convention : Reuss Voigt Hill
#
# Bulk Modulus (GPa) = 41.22557 50.20577 45.71567
# Shear Modulus (GPa) = 26.84819 50.83458 38.84138
#
# Velocity S-wave (km/s) = 3.28860 4.52516 3.95550
# Velocity P-wave (km/s) = 5.57012 6.89394 6.26709
#
# Compressibility (1/GPa) = 0.02425679
#
# Stress axis : x y z
#
# Youngs Moduli (GPa) = 126.54752 123.73750 86.46128
#
# Poissons Ratio (x) = 0.06139 0.10797
# Poissons Ratio (y) = 0.06279 -0.00852
# Poissons Ratio (z) = 0.15803 -0.01219
#
# Static dielectric constant tensor:
#      x y z
#    x 1.986350 0.000000 0.057830 
#    y 0.000000 1.905800 0.000000 
#    z 0.057830 0.000000 2.049260 
# 
# From -- ./inp_files/38006.got.cif
#   From: 2010.05.17/outbox.cif.g08.bks.cpg/sg11_20_cif.got.tgz:38006.got - 2010.06.03 12:22:45.
