data_PCOD9162932
_publ_section_title
;
Structure prediction by ZEFSAII (Michael W. Deem and Ramdas Pophale) SiO2 
 PCOD9162932
Probable space group: P 21/M
;
_chemical_formula_sum "Si O2"
_cell_formula_units_Z 28
_cell_length_a 15.273975
_cell_length_b 7.728385
_cell_length_c 20.726197
_cell_angle_alpha 90.000000
_cell_angle_beta 32.338597
_cell_angle_gamma 90.000000
_cell_volume 1308.731661
_symmetry_space_group_name_H-M "P 21/M"
_symmetry_group_IT_number 11
_symmetry_cell_setting 'monoclinic'
loop_
_space_group_symop_operation_xyz
x,y,z
-x,1/2+y,-z
-x,-y,-z
x,1/2-y,z
loop_
_atom_site_type_symbol
_atom_site_label
_atom_site_fract_x
_atom_site_fract_y
_atom_site_fract_z
Si Si1 0.135591 0.542912 0.469185
Si Si2 0.325876 0.047415 0.639830
Si Si3 0.386777 0.958405 0.212272
Si Si4 0.010439 0.041236 0.204089
Si Si5 0.187841 0.458457 0.862887
Si Si6 0.279207 0.038393 0.942863
Si Si7 0.118024 0.458259 0.273603
O O1 0.153443 0.750000 0.465178
O O2 0.298212 0.477567 0.333232
O O3 0.000000 0.500000 0.500000
O O4 0.048182 0.476540 0.587772
O O5 0.336806 0.250000 0.643951
O O6 0.262475 0.972008 0.748774
O O7 0.500000 0.000000 0.500000
O O8 0.177567 0.011051 0.682963
O O9 0.386740 0.750000 0.214134
O O10 0.572740 0.017341 0.102953
O O11 0.276124 0.002064 0.219116
O O12 0.014025 0.250000 0.201961
O O13 0.107328 0.980454 0.207150
O O14 0.108777 0.979905 0.080091
O O15 0.194827 0.250000 0.855508
O O16 0.291853 0.516168 0.860829
O O17 0.000000 0.500000 0.000000
O O18 0.279283 0.250000 0.942748
O O19 0.110256 0.250000 0.277512
#
# Coordination Sequence:
#
# PCOD9162932 Si02
#       7
#     4   4   4   4   4   4   4
#     4   8  14  26  44  65  92 129 175 222 266 320
#     4  11  24  40  61  90 119 150 190 239 293 348
#     4   9  17  30  49  73 102 140 183 226 273 329
#     4  10  20  36  57  79 110 151 188 230 287 344
#     4  10  20  37  62  86 111 148 191 234 287 346
#     4   9  18  33  55  81 108 143 186 230 281 342
#     4   9  18  31  49  74 105 144 183 225 280 332
#
# _framework density 21.394759000000001
#
# number of rings (size 3 to 8) (size 9 to 14) (size 15 to 20)
#    0.000    2.571    1.429    0.429    0.000    2.857 
#    0.000    5.714    0.000    5.143    0.000    0.000 
#    0.000    0.000    0.000    0.000    0.000    0.000 
#
# Total GULP energy -155927.101616 kJ/mol
# GULP energy per Si atom -5568.825058 kJ/mol
# Density = 2.134606 g / cm^3
# Si number density = 21.394759 Si / 1000 Ang^3
#
#
#
# Elastic Constant Matrix: (Units=GPa)
#
#
# Indices 1 2 3 4 5 6 
#
# 1 132.4582 6.0424 70.3036 0.0000 2.3056 0.0000
# 2 6.0424 33.5498 8.0806 0.0000 5.0328 0.0000
# 3 70.3036 8.0806 119.3730 0.0000 -8.9847 0.0000
# 4 0.0000 0.0000 0.0000 17.7722 0.0000 -5.8832
# 5 2.3056 5.0328 -8.9847 0.0000 36.2909 0.0000
# 6 0.0000 0.0000 0.0000 -5.8832 0.0000 10.9434
#
#
#
# Elastic Compliance Matrix: (Units=1/GPa)
#
#
# Indices 1 2 3 4 5 6 
#
# 1 0.011182 -0.000028 -0.006763 0.000000 -0.002381 0.000000
# 2 -0.000028 0.031144 -0.002463 0.000000 -0.004927 0.000000
# 3 -0.006763 -0.002463 0.012824 0.000000 0.003946 0.000000
# 4 0.000000 0.000000 0.000000 0.068449 0.000000 0.036799
# 5 -0.002381 -0.004927 0.003946 0.000000 0.029367 0.000000
# 6 0.000000 0.000000 0.000000 0.036799 0.000000 0.111162
#
#
# Mechanical properties :
#
#
# Convention : Reuss Voigt Hill
#
# Bulk Modulus (GPa) = 27.29057 50.47045 38.88051
# Shear Modulus (GPa) = 16.95795 26.39826 21.67810
#
# Velocity S-wave (km/s) = 2.81841 3.51645 3.18660
# Velocity P-wave (km/s) = 4.83473 6.33471 5.63486
#
# Compressibility (1/GPa) = 0.03664269
#
# Stress axis : x y z
#
# Youngs Moduli (GPa) = 89.43284 32.10926 77.98152
#
# Poissons Ratio (x) = 0.00090 0.52736
# Poissons Ratio (y) = 0.00250 0.19203
# Poissons Ratio (z) = 0.60480 0.07907
#
# Static dielectric constant tensor:
#      x y z
#    x 1.772940 0.000000 0.038680 
#    y 0.000000 1.796900 0.000000 
#    z 0.038680 0.000000 1.871300 
# 
# From -- ./inp_files/65339.got.cif
#   From: 2010.05.17/outbox.cif.g08.bks.cpg/sg11_33_cif.got.tgz:65339.got - 2010.06.03 12:22:45.
