data_PCOD9162338
_publ_section_title
;
Structure prediction by ZEFSAII (Michael W. Deem and Ramdas Pophale) SiO2 
 PCOD9162338
Probable space group: P 21/M
;
_chemical_formula_sum "Si O2"
_cell_formula_units_Z 32
_cell_length_a 29.548292
_cell_length_b 7.793687
_cell_length_c 12.184653
_cell_angle_alpha 90.000000
_cell_angle_beta 149.167261
_cell_angle_gamma 90.000000
_cell_volume 1438.172050
_symmetry_space_group_name_H-M "P 21/M"
_symmetry_group_IT_number 11
_symmetry_cell_setting 'monoclinic'
loop_
_space_group_symop_operation_xyz
x,y,z
-x,1/2+y,-z
-x,-y,-z
x,1/2-y,z
loop_
_atom_site_type_symbol
_atom_site_label
_atom_site_fract_x
_atom_site_fract_y
_atom_site_fract_z
Si Si1 0.652811 0.043427 0.095672
Si Si2 0.711263 0.450987 0.445429
Si Si3 0.142402 0.960222 0.851493
Si Si4 0.820574 0.450515 0.314549
Si Si5 0.513630 0.454032 0.400724
Si Si6 0.007813 0.546893 0.739686
Si Si7 0.308120 0.960462 0.346425
Si Si8 0.092771 0.452653 0.136739
O O1 0.661842 0.250000 0.122810
O O2 0.656182 0.976780 0.227869
O O3 0.738644 0.974511 0.209606
O O4 0.567354 0.008326 0.845042
O O5 0.689562 0.250000 0.409315
O O6 0.696087 0.522918 0.536188
O O7 0.815408 0.466173 0.632728
O O8 0.138645 0.750000 0.841848
O O9 0.161371 0.023986 0.768826
O O10 0.051726 0.019468 0.719143
O O11 0.222757 0.009990 0.098130
O O12 0.800154 0.250000 0.255495
O O13 0.913700 0.465449 0.569829
O O14 0.500000 0.500000 0.500000
O O15 0.518586 0.250000 0.407421
O O16 0.604676 0.519413 0.536729
O O17 0.994037 0.750000 0.704618
O O18 0.077538 0.510014 0.980030
O O19 0.307759 0.750000 0.347910
O O20 0.103585 0.250000 0.167573
O O21 0.000000 0.500000 0.000000
#
# Coordination Sequence:
#
# PCOD9162338 Si02
#       8
#     4   4   4   4   4   4   4   4
#     4  10  22  39  61  88 120 156 196 245 301 360
#     4  10  20  39  64  88 119 160 203 244 297 364
#     4   9  17  32  56  81 113 156 199 243 294 360
#     4  10  20  35  55  82 118 160 203 248 303 361
#     4  11  23  40  65  92 121 158 200 251 303 361
#     4  11  21  35  56  83 115 155 201 250 302 357
#     4   9  18  36  62  88 117 159 203 243 302 366
#     4  12  24  38  58  85 119 159 203 251 298 353
#
# _framework density 22.250468000000001
#
# number of rings (size 3 to 8) (size 9 to 14) (size 15 to 20)
#    0.000    1.750    1.250    3.750    0.000    4.500 
#    0.000    1.875    0.000    0.000    0.000    0.000 
#    0.000    0.000    0.000    0.000    0.000    0.000 
#
# Total GULP energy -178796.719482 kJ/mol
# GULP energy per Si atom -5587.397484 kJ/mol
# Density = 2.219982 g / cm^3
# Si number density = 22.250468 Si / 1000 Ang^3
#
#
#
# Elastic Constant Matrix: (Units=GPa)
#
#
# Indices 1 2 3 4 5 6 
#
# 1 119.9748 1.4843 40.6023 0.0000 3.9752 0.0000
# 2 1.4843 29.2223 -20.4952 0.0000 -3.3956 0.0000
# 3 40.6023 -20.4952 109.2375 0.0000 -5.5478 0.0000
# 4 0.0000 0.0000 0.0000 25.0656 0.0000 1.0682
# 5 3.9752 -3.3956 -5.5478 0.0000 42.4415 0.0000
# 6 0.0000 0.0000 0.0000 1.0682 0.0000 7.9112
#
#
#
# Elastic Compliance Matrix: (Units=1/GPa)
#
#
# Indices 1 2 3 4 5 6 
#
# 1 0.009979 -0.003901 -0.004534 0.000000 -0.001839 0.000000
# 2 -0.003901 0.041669 0.009519 0.000000 0.004943 0.000000
# 3 -0.004534 0.009519 0.012771 0.000000 0.002856 0.000000
# 4 0.000000 0.000000 0.000000 0.040126 0.000000 -0.005418
# 5 -0.001839 0.004943 0.002856 0.000000 0.024503 0.000000
# 6 0.000000 0.000000 0.000000 -0.005418 0.000000 0.127135
#
#
# Mechanical properties :
#
#
# Convention : Reuss Voigt Hill
#
# Bulk Modulus (GPa) = 15.01808 33.51305 24.26557
# Shear Modulus (GPa) = 18.10217 30.87321 24.48769
#
# Velocity S-wave (km/s) = 2.85540 3.72900 3.32105
# Velocity P-wave (km/s) = 4.19944 5.79957 5.06312
#
# Compressibility (1/GPa) = 0.06658639
#
# Stress axis : x y z
#
# Youngs Moduli (GPa) = 100.21249 23.99857 78.30440
#
# Poissons Ratio (x) = 0.09361 0.35505
# Poissons Ratio (y) = 0.39090 -0.74537
# Poissons Ratio (z) = 0.45439 -0.22844
#
# Static dielectric constant tensor:
#      x y z
#    x 1.828150 0.000000 0.033410 
#    y 0.000000 1.811980 0.000000 
#    z 0.033410 0.000000 1.665770 
# 
# From -- ./inp_files/45366.got.cif
#   From: 2010.05.17/outbox.cif.g08.bks.cpg/sg11_23_cif.got.tgz:45366.got - 2010.06.03 12:22:45.
