data_PCOD9162285
_publ_section_title
;
Structure prediction by ZEFSAII (Michael W. Deem and Ramdas Pophale) SiO2 
 PCOD9162285
Probable space group: P 21/M
;
_chemical_formula_sum "Si O2"
_cell_formula_units_Z 28
_cell_length_a 16.750658
_cell_length_b 9.146809
_cell_length_c 14.805941
_cell_angle_alpha 90.000000
_cell_angle_beta 138.571700
_cell_angle_gamma 90.000000
_cell_volume 1501.021817
_symmetry_space_group_name_H-M "P 21/M"
_symmetry_group_IT_number 11
_symmetry_cell_setting 'monoclinic'
loop_
_space_group_symop_operation_xyz
x,y,z
-x,1/2+y,-z
-x,-y,-z
x,1/2-y,z
loop_
_atom_site_type_symbol
_atom_site_label
_atom_site_fract_x
_atom_site_fract_y
_atom_site_fract_z
Si Si1 0.417348 0.923425 0.669961
Si Si2 0.873277 0.917119 0.405979
Si Si3 0.582797 0.921307 0.642774
Si Si4 0.002451 0.083583 0.857298
Si Si5 0.179351 0.081541 0.424627
Si Si6 0.823407 0.084770 0.876593
Si Si7 0.400208 0.427914 0.849371
O O1 0.400841 0.750000 0.673430
O O2 0.529164 0.942911 0.697682
O O3 0.301186 0.988061 0.519292
O O4 0.427666 0.011152 0.772185
O O5 0.890426 0.750000 0.389755
O O6 0.849658 0.917165 0.493499
O O7 0.742677 0.968091 0.254319
O O8 0.000000 0.000000 0.500000
O O9 0.584066 0.750000 0.625158
O O10 0.500000 0.000000 0.500000
O O11 0.714005 0.988726 0.749744
O O12 0.030406 0.250000 0.853488
O O13 0.919325 0.091250 0.876474
O O14 0.927166 0.997062 0.719071
O O15 0.117695 0.992669 0.987100
O O16 0.195321 0.250000 0.408469
O O17 0.785358 0.250000 0.864945
O O18 0.406999 0.250000 0.857227
O O19 0.500000 0.500000 0.000000
#
# Coordination Sequence:
#
# PCOD9162285 Si02
#       7
#     4   4   4   4   4   4   4
#     4  10  21  37  57  83 113 147 189 233 277 335
#     4   9  20  37  57  84 114 143 184 231 279 336
#     4  11  23  37  55  81 113 148 187 231 279 330
#     4  10  20  35  55  79 106 142 184 225 275 329
#     4  10  20  35  56  82 110 142 182 226 273 330
#     4  10  21  36  54  77 108 143 183 229 274 326
#     4  10  21  39  62  88 116 152 193 238 291 351
#
# _framework density 18.653960000000001
#
# number of rings (size 3 to 8) (size 9 to 14) (size 15 to 20)
#    0.000    2.000    0.000    4.286    0.000   10.857 
#    2.571    0.000    0.000    0.000    0.000    0.000 
#    0.000    0.000    0.000    0.000    0.000    0.000 
#
# Total GULP energy -156205.935060 kJ/mol
# GULP energy per Si atom -5578.783395 kJ/mol
# Density = 1.861150 g / cm^3
# Si number density = 18.653960 Si / 1000 Ang^3
#
#
#
# Elastic Constant Matrix: (Units=GPa)
#
#
# Indices 1 2 3 4 5 6 
#
# 1 21.0303 32.5824 6.3037 0.0000 8.2187 0.0000
# 2 32.5824 98.6207 37.8701 0.0000 0.9923 0.0000
# 3 6.3037 37.8701 126.6967 0.0000 -8.0992 0.0000
# 4 0.0000 0.0000 0.0000 37.0385 0.0000 -0.9524
# 5 8.2187 0.9923 -8.0992 0.0000 21.7727 0.0000
# 6 0.0000 0.0000 0.0000 -0.9524 0.0000 28.2487
#
#
#
# Elastic Compliance Matrix: (Units=1/GPa)
#
#
# Indices 1 2 3 4 5 6 
#
# 1 0.136717 -0.046196 0.003935 0.000000 -0.048039 0.000000
# 2 -0.046196 0.027137 -0.004893 0.000000 0.014381 0.000000
# 3 0.003935 -0.004893 0.009300 0.000000 0.002197 0.000000
# 4 0.000000 0.000000 0.000000 0.027022 0.000000 0.000911
# 5 -0.048039 0.014381 0.002197 0.000000 0.064225 0.000000
# 6 0.000000 0.000000 0.000000 0.000911 0.000000 0.035431
#
#
# Mechanical properties :
#
#
# Convention : Reuss Voigt Hill
#
# Bulk Modulus (GPa) = 12.68324 44.42892 28.55608
# Shear Modulus (GPa) = 11.89282 28.71806 20.30544
#
# Velocity S-wave (km/s) = 2.52771 3.92792 3.30287
# Velocity P-wave (km/s) = 3.91575 6.66638 5.46688
#
# Compressibility (1/GPa) = 0.07884420
#
# Stress axis : x y z
#
# Youngs Moduli (GPa) = 7.31440 36.85063 107.52449
#
# Poissons Ratio (x) = 1.70236 -0.42312
# Poissons Ratio (y) = 0.33790 0.52617
# Poissons Ratio (z) = -0.02878 0.18033
#
# Static dielectric constant tensor:
#      x y z
#    x 1.638370 0.000000 -0.000110 
#    y 0.000000 1.642020 0.000000 
#    z -0.000110 0.000000 1.616960 
# 
# From -- ./inp_files/61303.got.cif
#   From: 2010.05.17/outbox.cif.g08.bks.cpg/sg11_31_cif.got.tgz:61303.got - 2010.06.03 12:22:45.
