data_PCOD9162620
_publ_section_title
;
Structure prediction by ZEFSAII (Michael W. Deem and Ramdas Pophale) SiO2 
 PCOD9162620
Probable space group: P 21/M
;
_chemical_formula_sum "Si O2"
_cell_formula_units_Z 32
_cell_length_a 14.628573
_cell_length_b 17.119165
_cell_length_c 6.521765
_cell_angle_alpha 90.000000
_cell_angle_beta 102.455445
_cell_angle_gamma 90.000000
_cell_volume 1594.798921
_symmetry_space_group_name_H-M "P 21/M"
_symmetry_group_IT_number 11
_symmetry_cell_setting 'monoclinic'
loop_
_space_group_symop_operation_xyz
x,y,z
-x,1/2+y,-z
-x,-y,-z
x,1/2-y,z
loop_
_atom_site_type_symbol
_atom_site_label
_atom_site_fract_x
_atom_site_fract_y
_atom_site_fract_z
Si Si1 0.904594 0.438016 0.233235
Si Si2 0.536868 0.444565 0.335400
Si Si3 0.050534 0.162893 0.793109
Si Si4 0.351541 0.656032 0.311625
Si Si5 0.369029 0.508774 0.011416
Si Si6 0.110048 0.416563 0.463633
Si Si7 0.156770 0.657052 0.446273
Si Si8 0.177953 0.045355 0.094203
O O1 0.895165 0.513581 0.375147
O O2 0.841116 0.375442 0.320047
O O3 0.875137 0.465776 0.995650
O O4 0.012355 0.415007 0.293293
O O5 0.500000 0.500000 0.500000
O O6 0.575180 0.368339 0.472104
O O7 0.450485 0.450787 0.134211
O O8 0.618677 0.476114 0.224685
O O9 0.039125 0.250000 0.864933
O O10 0.106972 0.158883 0.604523
O O11 0.113689 0.113957 0.975864
O O12 0.945831 0.131824 0.689869
O O13 0.356997 0.750000 0.266479
O O14 0.369038 0.592792 0.135310
O O15 0.248045 0.638375 0.355834
O O16 0.274282 0.465113 0.023282
O O17 0.188696 0.437775 0.338820
O O18 0.152659 0.750000 0.454928
#
# Coordination Sequence:
#
# PCOD9162620 Si02
#       8
#     4   4   4   4   4   4   4   4
#     4   9  17  30  46  71 105 140 179 214 248 302
#     4   9  20  40  61  79 106 141 175 221 280 334
#     4   9  20  36  50  72 110 149 185 223 263 313
#     4  10  20  35  58  85 113 144 177 219 272 323
#     4  10  21  36  58  86 111 137 180 228 273 329
#     4   9  18  30  48  71 100 139 179 219 257 297
#     4   9  17  32  52  75 110 150 181 217 265 313
#     4  11  20  31  54  79 103 138 178 219 265 315
#
# _framework density 20.065225999999999
#
# number of rings (size 3 to 8) (size 9 to 14) (size 15 to 20)
#    0.000    2.500    0.000    2.625    0.000    5.000 
#    0.000    1.250    0.000   12.750    0.000    0.000 
#    0.000    0.000    0.000    0.000    0.000    0.000 
#
# Total GULP energy -178150.792137 kJ/mol
# GULP energy per Si atom -5567.212254 kJ/mol
# Density = 2.001956 g / cm^3
# Si number density = 20.065226 Si / 1000 Ang^3
#
#
#
# Elastic Constant Matrix: (Units=GPa)
#
#
# Indices 1 2 3 4 5 6 
#
# 1 63.4305 37.6336 27.5613 0.0000 -15.1741 0.0000
# 2 37.6336 70.4293 32.0634 0.0000 -3.0095 0.0000
# 3 27.5613 32.0634 78.8878 0.0000 -21.9571 0.0000
# 4 0.0000 0.0000 0.0000 20.8176 0.0000 2.9211
# 5 -15.1741 -3.0095 -21.9571 0.0000 36.9824 0.0000
# 6 0.0000 0.0000 0.0000 2.9211 0.0000 27.3059
#
#
#
# Elastic Compliance Matrix: (Units=1/GPa)
#
#
# Indices 1 2 3 4 5 6 
#
# 1 0.026196 -0.012976 -0.001414 0.000000 0.008853 0.000000
# 2 -0.012976 0.024200 -0.007471 0.000000 -0.007790 0.000000
# 3 -0.001414 -0.007471 0.019019 0.000000 0.010104 0.000000
# 4 0.000000 0.000000 0.000000 0.048768 0.000000 -0.005217
# 5 0.008853 -0.007790 0.010104 0.000000 0.036037 0.000000
# 6 0.000000 0.000000 0.000000 -0.005217 0.000000 0.037180
#
#
# Mechanical properties :
#
#
# Convention : Reuss Voigt Hill
#
# Bulk Modulus (GPa) = 38.92016 45.25158 42.08587
# Shear Modulus (GPa) = 20.51803 24.72045 22.61924
#
# Velocity S-wave (km/s) = 3.20123 3.51380 3.36115
# Velocity P-wave (km/s) = 5.75350 6.25009 6.00693
#
# Compressibility (1/GPa) = 0.02569363
#
# Stress axis : x y z
#
# Youngs Moduli (GPa) = 38.17358 41.32152 52.57856
#
# Poissons Ratio (x) = 0.53617 0.07436
# Poissons Ratio (y) = 0.49533 0.39282
# Poissons Ratio (z) = 0.05399 0.30872
#
# Static dielectric constant tensor:
#      x y z
#    x 1.759620 0.000000 -0.008030 
#    y 0.000000 1.735780 0.000000 
#    z -0.008030 0.000000 1.799340 
# 
# From -- ./inp_files/6835.got.cif
#   From: 2010.05.17/outbox.cif.g08.bks.cpg/sg11_4_cif.got.tgz:6835.got - 2010.06.03 12:22:45.
