data_PCOD9162463
_publ_section_title
;
Structure prediction by ZEFSAII (Michael W. Deem and Ramdas Pophale) SiO2 
 PCOD9162463
Probable space group: P 21/M
;
_chemical_formula_sum "Si O2"
_cell_formula_units_Z 32
_cell_length_a 13.362599
_cell_length_b 7.923626
_cell_length_c 21.500532
_cell_angle_alpha 90.000000
_cell_angle_beta 37.027613
_cell_angle_gamma 90.000000
_cell_volume 1370.896761
_symmetry_space_group_name_H-M "P 21/M"
_symmetry_group_IT_number 11
_symmetry_cell_setting 'monoclinic'
loop_
_space_group_symop_operation_xyz
x,y,z
-x,1/2+y,-z
-x,-y,-z
x,1/2-y,z
loop_
_atom_site_type_symbol
_atom_site_label
_atom_site_fract_x
_atom_site_fract_y
_atom_site_fract_z
Si Si1 0.360617 0.450616 0.621258
Si Si2 0.851082 0.051207 0.006753
Si Si3 0.975082 0.542514 0.273630
Si Si4 0.214724 0.946451 0.820615
Si Si5 0.254827 0.545575 0.369241
Si Si6 0.329070 0.951764 0.115581
Si Si7 0.496301 0.453462 0.849887
Si Si8 0.966690 0.551564 0.419355
O O1 0.500000 0.500000 0.500000
O O2 0.361184 0.250000 0.618484
O O3 0.184105 0.520446 0.683821
O O4 0.344702 0.490975 0.703563
O O5 0.885107 0.250000 0.995059
O O6 0.800423 0.980835 0.100864
O O7 0.685109 0.026218 0.049058
O O8 0.020688 0.972007 0.896746
O O9 0.970162 0.750000 0.271590
O O10 0.958773 0.489040 0.353647
O O11 0.162061 0.484381 0.166164
O O12 0.249279 0.750000 0.810830
O O13 0.248996 0.750000 0.374353
O O14 0.429207 0.494287 0.253543
O O15 0.206390 0.476696 0.459928
O O16 0.109776 0.482685 0.393953
O O17 0.314273 0.750000 0.123742
O O18 0.364152 0.004800 0.169229
O O19 0.500000 0.000000 0.000000
O O20 0.484375 0.250000 0.857799
O O21 0.002458 0.750000 0.396487
#
# Coordination Sequence:
#
# PCOD9162463 Si02
#       8
#     4   4   4   4   4   4   4   4
#     4  11  24  42  65  92 122 162 211 261 311 367
#     4  10  22  39  63  92 121 157 198 248 310 373
#     4   9  19  38  61  82 113 158 199 237 291 354
#     4  10  22  43  66  89 120 155 200 256 314 370
#     4   9  17  30  49  75 108 145 181 225 277 331
#     4  10  21  38  57  83 118 157 197 240 293 355
#     4  10  20  35  56  84 121 156 191 235 293 358
#     4   9  16  31  53  74 102 143 187 228 275 335
#
# _framework density 23.342386000000001
#
# number of rings (size 3 to 8) (size 9 to 14) (size 15 to 20)
#    0.000    2.250    1.250    1.125    1.750    3.500 
#    0.000    6.250    0.000    0.000    0.000    0.000 
#    0.000    0.000    0.000    0.000    0.000    0.000 
#
# Total GULP energy -178428.375929 kJ/mol
# GULP energy per Si atom -5575.886748 kJ/mol
# Density = 2.328926 g / cm^3
# Si number density = 23.342386 Si / 1000 Ang^3
#
#
#
# Elastic Constant Matrix: (Units=GPa)
#
#
# Indices 1 2 3 4 5 6 
#
# 1 43.8616 2.5501 33.2710 0.0000 -5.8527 0.0000
# 2 2.5501 26.0234 4.1484 0.0000 4.9241 0.0000
# 3 33.2710 4.1484 161.9377 0.0000 15.6456 0.0000
# 4 0.0000 0.0000 0.0000 31.7976 0.0000 0.5453
# 5 -5.8527 4.9241 15.6456 0.0000 38.7043 0.0000
# 6 0.0000 0.0000 0.0000 0.5453 0.0000 13.3622
#
#
#
# Elastic Compliance Matrix: (Units=1/GPa)
#
#
# Indices 1 2 3 4 5 6 
#
# 1 0.028980 -0.003199 -0.006592 0.000000 0.007454 0.000000
# 2 -0.003199 0.039774 0.000181 0.000000 -0.005617 0.000000
# 3 -0.006592 0.000181 0.007933 0.000000 -0.004227 0.000000
# 4 0.000000 0.000000 0.000000 0.031471 0.000000 -0.001284
# 5 0.007454 -0.005617 -0.004227 0.000000 0.029387 0.000000
# 6 0.000000 0.000000 0.000000 -0.001284 0.000000 0.074890
#
#
# Mechanical properties :
#
#
# Convention : Reuss Voigt Hill
#
# Bulk Modulus (GPa) = 17.40134 34.64018 26.02076
# Shear Modulus (GPa) = 19.93513 29.56304 24.74908
#
# Velocity S-wave (km/s) = 2.92555 3.56265 3.25970
# Velocity P-wave (km/s) = 4.34544 5.63875 5.03380
#
# Compressibility (1/GPa) = 0.05746685
#
# Stress axis : x y z
#
# Youngs Moduli (GPa) = 34.50628 25.14176 126.04952
#
# Poissons Ratio (x) = 0.08044 0.83097
# Poissons Ratio (y) = 0.11040 -0.02283
# Poissons Ratio (z) = 0.22748 -0.00455
#
# Static dielectric constant tensor:
#      x y z
#    x 1.964590 0.000000 0.042950 
#    y 0.000000 1.848990 0.000000 
#    z 0.042950 0.000000 1.950820 
# 
# From -- ./inp_files/69025.got.cif
#   From: 2010.05.17/outbox.cif.g08.bks.cpg/sg11_35_cif.got.tgz:69025.got - 2010.06.03 12:22:45.
