data_PCOD9162809
_publ_section_title
;
Structure prediction by ZEFSAII (Michael W. Deem and Ramdas Pophale) SiO2 
 PCOD9162809
Probable space group: P 21/M
;
_chemical_formula_sum "Si O2"
_cell_formula_units_Z 32
_cell_length_a 13.907187
_cell_length_b 7.867258
_cell_length_c 23.922546
_cell_angle_alpha 90.000000
_cell_angle_beta 37.315182
_cell_angle_gamma 90.000000
_cell_volume 1586.665636
_symmetry_space_group_name_H-M "P 21/M"
_symmetry_group_IT_number 11
_symmetry_cell_setting 'monoclinic'
loop_
_space_group_symop_operation_xyz
x,y,z
-x,1/2+y,-z
-x,-y,-z
x,1/2-y,z
loop_
_atom_site_type_symbol
_atom_site_label
_atom_site_fract_x
_atom_site_fract_y
_atom_site_fract_z
Si Si1 0.486633 0.055103 0.213583
Si Si2 0.685337 0.453370 0.410890
Si Si3 0.482382 0.949456 0.089238
Si Si4 0.233152 0.553473 0.118922
Si Si5 0.818359 0.047578 0.582387
Si Si6 0.341843 0.455297 0.750874
Si Si7 0.918601 0.553343 0.207543
Si Si8 0.345892 0.543927 0.454788
O O1 0.525713 0.250000 0.185632
O O2 0.497625 0.965615 0.148628
O O3 0.304947 0.035693 0.318040
O O4 0.596842 0.995891 0.214912
O O5 0.500000 0.500000 0.500000
O O6 0.702794 0.250000 0.395353
O O7 0.784985 0.544754 0.317446
O O8 0.733873 0.509099 0.450779
O O9 0.494183 0.750000 0.069036
O O10 0.317534 0.013508 0.136780
O O11 0.626882 0.041596 0.991405
O O12 0.191349 0.750000 0.150201
O O13 0.076341 0.474481 0.162643
O O14 0.797889 0.250000 0.598061
O O15 0.759952 0.996552 0.548256
O O16 0.000000 0.000000 0.500000
O O17 0.338801 0.250000 0.748804
O O18 0.172449 0.518184 0.805321
O O19 0.478664 0.517698 0.644287
O O20 0.957379 0.750000 0.176193
O O21 0.358147 0.750000 0.452497
#
# Coordination Sequence:
#
# PCOD9162809 Si02
#       8
#     4   4   4   4   4   4   4   4
#     4  11  22  36  57  83 109 144 190 231 273 329
#     4  11  20  32  50  76 107 144 186 225 268 321
#     4  10  20  38  62  86 114 145 182 227 282 338
#     4   9  20  38  61  87 113 144 181 228 280 335
#     4  10  20  36  54  76 108 145 184 228 277 324
#     4   9  17  34  55  75 107 146 181 222 277 330
#     4  10  20  36  56  81 114 147 182 229 284 334
#     4   8  16  31  49  69 100 141 180 217 267 319
#
# _framework density 20.168081000000001
#
# number of rings (size 3 to 8) (size 9 to 14) (size 15 to 20)
#    0.000    2.250    1.250    3.000    0.000    2.500 
#    0.000    5.000    0.000    0.000    0.000    0.000 
#    0.000    0.000    0.000    0.000    0.000    0.000 
#
# Total GULP energy -178255.895863 kJ/mol
# GULP energy per Si atom -5570.496746 kJ/mol
# Density = 2.012218 g / cm^3
# Si number density = 20.168081 Si / 1000 Ang^3
#
#
#
# Elastic Constant Matrix: (Units=GPa)
#
#
# Indices 1 2 3 4 5 6 
#
# 1 146.3269 -1.1153 53.1884 0.0000 -14.6621 0.0000
# 2 -1.1153 35.2909 -9.7933 0.0000 -2.3739 0.0000
# 3 53.1884 -9.7933 39.5400 0.0000 -2.5849 0.0000
# 4 0.0000 0.0000 0.0000 21.5381 0.0000 3.6807
# 5 -14.6621 -2.3739 -2.5849 0.0000 43.2961 0.0000
# 6 0.0000 0.0000 0.0000 3.6807 0.0000 15.3517
#
#
#
# Elastic Compliance Matrix: (Units=1/GPa)
#
#
# Indices 1 2 3 4 5 6 
#
# 1 0.014709 -0.005080 -0.020819 0.000000 0.003460 0.000000
# 2 -0.005080 0.032378 0.014914 0.000000 0.000945 0.000000
# 3 -0.020819 0.014914 0.056804 0.000000 -0.002841 0.000000
# 4 0.000000 0.000000 0.000000 0.048413 0.000000 -0.011607
# 5 0.003460 0.000945 -0.002841 0.000000 0.024151 0.000000
# 6 0.000000 0.000000 0.000000 -0.011607 0.000000 0.067922
#
#
# Mechanical properties :
#
#
# Convention : Reuss Voigt Hill
#
# Bulk Modulus (GPa) = 12.20662 33.96859 23.08761
# Shear Modulus (GPa) = 17.02690 27.96238 22.49464
#
# Velocity S-wave (km/s) = 2.90875 3.72757 3.34332
# Velocity P-wave (km/s) = 4.16494 5.95027 5.13577
#
# Compressibility (1/GPa) = 0.08192277
#
# Stress axis : x y z
#
# Youngs Moduli (GPa) = 67.98396 30.88543 17.60440
#
# Poissons Ratio (x) = 0.15689 0.36650
# Poissons Ratio (y) = 0.34533 -0.26256
# Poissons Ratio (z) = 1.41534 -0.46063
#
# Static dielectric constant tensor:
#      x y z
#    x 1.820190 0.000000 -0.016250 
#    y 0.000000 1.754330 0.000000 
#    z -0.016250 0.000000 1.672610 
# 
# From -- ./inp_files/68966.got.cif
#   From: 2010.05.17/outbox.cif.g08.bks.cpg/sg11_35_cif.got.tgz:68966.got - 2010.06.03 12:22:45.
