data_PCOD9162829
_publ_section_title
;
Structure prediction by ZEFSAII (Michael W. Deem and Ramdas Pophale) SiO2 
 PCOD9162829
Probable space group: P 21/M
;
_chemical_formula_sum "Si O2"
_cell_formula_units_Z 32
_cell_length_a 12.773845
_cell_length_b 14.076265
_cell_length_c 16.260750
_cell_angle_alpha 90.000000
_cell_angle_beta 152.335815
_cell_angle_gamma 90.000000
_cell_volume 1357.492942
_symmetry_space_group_name_H-M "P 21/M"
_symmetry_group_IT_number 11
_symmetry_cell_setting 'monoclinic'
loop_
_space_group_symop_operation_xyz
x,y,z
-x,1/2+y,-z
-x,-y,-z
x,1/2-y,z
loop_
_atom_site_type_symbol
_atom_site_label
_atom_site_fract_x
_atom_site_fract_y
_atom_site_fract_z
Si Si1 0.583869 0.139436 0.899103
Si Si2 0.080105 0.365940 0.546275
Si Si3 0.066420 0.053754 0.947912
Si Si4 0.335603 0.358684 0.989567
Si Si5 0.301758 0.483305 0.427131
Si Si6 0.130239 0.859519 0.432207
Si Si7 0.230459 0.865634 0.807000
Si Si8 0.319980 0.903822 0.218835
O O1 0.559482 0.250000 0.903330
O O2 0.669297 0.136712 0.865418
O O3 0.333340 0.097894 0.732853
O O4 0.742720 0.100029 0.081489
O O5 0.089808 0.250000 0.553176
O O6 0.905051 0.388252 0.497450
O O7 0.984814 0.399164 0.392687
O O8 0.248586 0.095665 0.012322
O O9 0.914554 0.983286 0.784243
O O10 0.878175 0.125852 0.855372
O O11 0.217806 0.008420 0.125699
O O12 0.392906 0.250000 0.049244
O O13 0.124571 0.358772 0.780694
O O14 0.550618 0.396888 0.091283
O O15 0.500000 0.500000 0.500000
O O16 0.261277 0.568571 0.463950
O O17 0.428072 0.401438 0.568533
O O18 0.214509 0.750000 0.486332
O O19 0.219443 0.750000 0.798392
#
# Coordination Sequence:
#
# PCOD9162829 Si02
#       8
#     4   4   4   4   4   4   4   4
#     4  10  20  36  55  78 109 140 179 222 260 318
#     4   9  17  30  51  79 106 136 174 220 270 312
#     4   9  20  37  55  75 105 138 177 219 261 317
#     4   9  16  30  55  81 106 133 171 223 268 306
#     4   9  19  36  55  75 108 146 175 217 275 314
#     4   9  16  30  55  81 106 137 180 225 263 312
#     4   9  17  30  51  79 108 138 166 211 275 312
#     4  10  21  37  56  75 102 149 179 207 273 325
#
# _framework density 23.572866000000001
#
# number of rings (size 3 to 8) (size 9 to 14) (size 15 to 20)
#    0.000    2.750    1.250    0.000    1.750    1.500 
#    0.000    3.125    0.000    4.500    0.000    0.000 
#    0.000    0.000    0.000    0.000    0.000    0.000 
#
# Total GULP energy -178417.393135 kJ/mol
# GULP energy per Si atom -5575.543535 kJ/mol
# Density = 2.351921 g / cm^3
# Si number density = 23.572866 Si / 1000 Ang^3
#
#
#
# Elastic Constant Matrix: (Units=GPa)
#
#
# Indices 1 2 3 4 5 6 
#
# 1 147.2578 13.4639 42.1677 0.0000 -6.0533 0.0000
# 2 13.4639 40.3083 19.2217 0.0000 5.8523 0.0000
# 3 42.1677 19.2217 67.1850 0.0000 -26.8698 0.0000
# 4 0.0000 0.0000 0.0000 21.7362 0.0000 3.7710
# 5 -6.0533 5.8523 -26.8698 0.0000 42.0375 0.0000
# 6 0.0000 0.0000 0.0000 3.7710 0.0000 33.0543
#
#
#
# Elastic Compliance Matrix: (Units=1/GPa)
#
#
# Indices 1 2 3 4 5 6 
#
# 1 0.008570 0.000970 -0.007009 0.000000 -0.003381 0.000000
# 2 0.000970 0.034652 -0.016654 0.000000 -0.015329 0.000000
# 3 -0.007009 -0.016654 0.033010 0.000000 0.022409 0.000000
# 4 0.000000 0.000000 0.000000 0.046935 0.000000 -0.005355
# 5 -0.003381 -0.015329 0.022409 0.000000 0.039759 0.000000
# 6 0.000000 0.000000 0.000000 -0.005355 0.000000 0.030864
#
#
# Mechanical properties :
#
#
# Convention : Reuss Voigt Hill
#
# Bulk Modulus (GPa) = 32.41710 44.93975 38.67843
# Shear Modulus (GPa) = 20.04354 31.35878 25.70116
#
# Velocity S-wave (km/s) = 2.91912 3.65127 3.30553
# Velocity P-wave (km/s) = 5.01432 6.07300 5.56887
#
# Compressibility (1/GPa) = 0.03084792
#
# Stress axis : x y z
#
# Youngs Moduli (GPa) = 116.68536 28.85837 30.29392
#
# Poissons Ratio (x) = -0.02801 0.21232
# Poissons Ratio (y) = -0.11324 0.50451
# Poissons Ratio (z) = 0.81781 0.48060
#
# Static dielectric constant tensor:
#      x y z
#    x 1.953310 0.000000 -0.030040 
#    y 0.000000 1.941110 0.000000 
#    z -0.030040 0.000000 1.929850 
# 
# From -- ./inp_files/40053.got.cif
#   From: 2010.05.17/outbox.cif.g08.bks.cpg/sg11_21_cif.got.tgz:40053.got - 2010.06.03 12:22:45.
