data_PCOD9162311
_publ_section_title
;
Structure prediction by ZEFSAII (Michael W. Deem and Ramdas Pophale) SiO2 
 PCOD9162311
Probable space group: P 21/M
;
_chemical_formula_sum "Si O2"
_cell_formula_units_Z 32
_cell_length_a 25.487946
_cell_length_b 7.445637
_cell_length_c 16.877323
_cell_angle_alpha 90.000000
_cell_angle_beta 154.276717
_cell_angle_gamma 90.000000
_cell_volume 1390.129374
_symmetry_space_group_name_H-M "P 21/M"
_symmetry_group_IT_number 11
_symmetry_cell_setting 'monoclinic'
loop_
_space_group_symop_operation_xyz
x,y,z
-x,1/2+y,-z
-x,-y,-z
x,1/2-y,z
loop_
_atom_site_type_symbol
_atom_site_label
_atom_site_fract_x
_atom_site_fract_y
_atom_site_fract_z
Si Si1 0.427126 0.030785 0.248229
Si Si2 0.981865 0.032113 0.233012
Si Si3 0.791570 0.969507 0.561722
Si Si4 0.315108 0.455520 0.939550
Si Si5 0.722417 0.541045 0.811003
Si Si6 0.706940 0.958918 0.615779
Si Si7 0.084596 0.035731 0.540122
Si Si8 0.542185 0.963252 0.146451
O O1 0.427160 0.250000 0.247510
O O2 0.379600 0.967072 0.268728
O O3 0.561944 0.970353 0.411514
O O4 0.336696 0.966233 0.055910
O O5 0.977507 0.250000 0.227595
O O6 0.082720 0.975467 0.306323
O O7 0.026396 0.967447 0.379788
O O8 0.849538 0.968721 0.028950
O O9 0.791170 0.750000 0.561768
O O10 0.767268 0.033597 0.618202
O O11 0.677213 0.024380 0.351872
O O12 0.275987 0.250000 0.899782
O O13 0.215605 0.535899 0.745289
O O14 0.443695 0.455922 0.071398
O O15 0.690152 0.750000 0.755204
O O16 0.734634 0.460558 0.739871
O O17 0.744074 0.750000 0.668095
O O18 0.096410 0.250000 0.543102
O O19 0.000000 0.000000 0.500000
O O20 0.539287 0.750000 0.155124
O O21 0.500000 0.000000 0.000000
#
# Coordination Sequence:
#
# PCOD9162311 Si02
#       8
#     4   4   4   4   4   4   4   4
#     4  10  20  35  56  84 118 148 180 232 289 338
#     4  10  21  38  58  80 110 151 195 232 276 337
#     4   9  19  37  58  80 111 148 184 231 283 331
#     4  10  20  35  55  80 112 147 184 228 281 337
#     4  10  22  38  57  83 114 149 187 235 291 334
#     4  10  20  37  60  84 112 147 189 233 282 343
#     4  10  21  37  57  81 113 153 192 235 283 338
#     4  11  21  35  56  81 111 146 185 229 278 334
#
# _framework density 23.019439999999999
#
# number of rings (size 3 to 8) (size 9 to 14) (size 15 to 20)
#    0.000    2.000    1.250    2.250    0.000    5.500 
#    0.000    3.125    0.000    0.000    0.000    0.000 
#    0.000    0.000    0.000    0.000    0.000    0.000 
#
# Total GULP energy -178838.130367 kJ/mol
# GULP energy per Si atom -5588.691574 kJ/mol
# Density = 2.296705 g / cm^3
# Si number density = 23.019440 Si / 1000 Ang^3
#
#
#
# Elastic Constant Matrix: (Units=GPa)
#
#
# Indices 1 2 3 4 5 6 
#
# 1 138.3688 -13.0067 16.9835 0.0000 -23.4420 0.0000
# 2 -13.0067 72.9987 -14.0553 0.0000 -7.7046 0.0000
# 3 16.9835 -14.0553 69.3582 0.0000 -22.0809 0.0000
# 4 0.0000 0.0000 0.0000 15.0070 0.0000 9.2214
# 5 -23.4420 -7.7046 -22.0809 0.0000 47.6172 0.0000
# 6 0.0000 0.0000 0.0000 9.2214 0.0000 2.7521
#
#
#
# Elastic Compliance Matrix: (Units=1/GPa)
#
#
# Indices 1 2 3 4 5 6 
#
# 1 0.008142 0.001834 -0.000295 0.000000 0.004168 0.000000
# 2 0.001834 0.015452 0.004418 0.000000 0.005451 0.000000
# 3 -0.000295 0.004418 0.018263 0.000000 0.009038 0.000000
# 4 0.000000 0.000000 0.000000 -0.062931 0.000000 0.210857
# 5 0.004168 0.005451 0.009038 0.000000 0.028126 0.000000
# 6 0.000000 0.000000 0.000000 0.210857 0.000000 -0.343152
#
#
# Mechanical properties :
#
#
# Convention : Reuss Voigt Hill
#
# Bulk Modulus (GPa) = 18.59801 28.95206 23.77504
# Shear Modulus (GPa) = -15.14739 32.46221 8.65741
#
# Velocity S-wave (km/s) = -2.56798 3.75935 1.94141
# Velocity P-wave (km/s) = 0.83422 5.60786 3.92124
#
# Compressibility (1/GPa) = 0.05376920
#
# Stress axis : x y z
#
# Youngs Moduli (GPa) = 122.82287 64.71824 54.75587
#
# Poissons Ratio (x) = -0.11868 0.01616
# Poissons Ratio (y) = -0.22523 -0.24190
# Poissons Ratio (z) = 0.03624 -0.28591
#
# Static dielectric constant tensor:
#      x y z
#    x 1.838970 0.000000 -0.036480 
#    y 0.000000 1.987110 0.000000 
#    z -0.036480 0.000000 1.844720 
# 
# From -- ./inp_files/55698.got.cif
#   From: 2010.05.17/outbox.cif.g08.bks.cpg/sg11_28_cif.got.tgz:55698.got - 2010.06.03 12:22:45.
