data_PCOD9162551
_publ_section_title
;
Structure prediction by ZEFSAII (Michael W. Deem and Ramdas Pophale) SiO2 
 PCOD9162551
Probable space group: P 21/M
;
_chemical_formula_sum "Si O2"
_cell_formula_units_Z 30
_cell_length_a 11.616294
_cell_length_b 7.672513
_cell_length_c 23.875627
_cell_angle_alpha 90.000000
_cell_angle_beta 137.550522
_cell_angle_gamma 90.000000
_cell_volume 1436.233567
_symmetry_space_group_name_H-M "P 21/M"
_symmetry_group_IT_number 11
_symmetry_cell_setting 'monoclinic'
loop_
_space_group_symop_operation_xyz
x,y,z
-x,1/2+y,-z
-x,-y,-z
x,1/2-y,z
loop_
_atom_site_type_symbol
_atom_site_label
_atom_site_fract_x
_atom_site_fract_y
_atom_site_fract_z
Si Si1 0.932470 0.250000 0.663365
Si Si2 0.745359 0.539513 0.383879
Si Si3 0.474539 0.960828 0.864413
Si Si4 0.922852 0.951566 0.564156
Si Si5 0.610023 0.453525 0.791493
Si Si6 0.878427 0.051268 0.217267
Si Si7 0.730164 0.947062 0.049064
Si Si8 0.987495 0.553373 0.930856
O O1 0.904995 0.405739 0.605899
O O2 0.979542 0.405057 0.726299
O O3 0.751502 0.750000 0.378405
O O4 0.803123 0.503271 0.467924
O O5 0.555565 0.479522 0.300855
O O6 0.885658 0.461574 0.392452
O O7 0.484171 0.750000 0.867068
O O8 0.275510 0.007932 0.796372
O O9 0.563637 0.027809 0.840516
O O10 0.574806 0.019262 0.956014
O O11 0.888322 0.750000 0.567984
O O12 0.631714 0.250000 0.786527
O O13 0.789490 0.541911 0.843681
O O14 0.929013 0.250000 0.248330
O O15 0.790431 0.049495 0.124910
O O16 0.687501 0.750000 0.051123
O O17 0.889182 0.942432 0.063461
O O18 0.049531 0.750000 0.947428
O O19 0.000000 0.500000 0.000000
#
# Coordination Sequence:
#
# PCOD9162551 Si02
#       8
#     2   4   4   4   4   4   4   4
#     4  12  22  38  56  86 116 156 200 246 296 358
#     4   9  19  35  54  85 124 158 199 240 299 366
#     4  10  22  36  56  85 119 162 201 247 297 352
#     4  10  20  35  57  84 123 165 194 241 301 370
#     4  11  22  35  58  87 120 160 198 247 297 359
#     4  11  24  40  59  88 120 160 208 254 299 353
#     4  11  22  41  62  82 117 157 208 257 302 351
#     4  12  24  40  58  84 117 158 205 250 303 357
#
# _framework density 20.887968000000001
#
# number of rings (size 3 to 8) (size 9 to 14) (size 15 to 20)
#    0.000    1.333    2.667    3.600    3.733    2.667 
#    0.000    0.000    0.000    0.000    0.000    0.933 
#    0.000    0.000    0.000    0.000    0.000    0.000 
#
# Total GULP energy -167205.135216 kJ/mol
# GULP energy per Si atom -5573.504507 kJ/mol
# Density = 2.084043 g / cm^3
# Si number density = 20.887968 Si / 1000 Ang^3
#
#
#
# Elastic Constant Matrix: (Units=GPa)
#
#
# Indices 1 2 3 4 5 6 
#
# 1 36.2731 0.4235 6.6544 0.0000 -0.7457 0.0000
# 2 0.4235 100.4089 14.8886 0.0000 -4.9743 0.0000
# 3 6.6544 14.8886 113.8410 0.0000 -7.6056 0.0000
# 4 0.0000 0.0000 0.0000 28.6339 0.0000 -8.8280
# 5 -0.7457 -4.9743 -7.6056 0.0000 22.1716 0.0000
# 6 0.0000 0.0000 0.0000 -8.8280 0.0000 23.1446
#
#
#
# Elastic Compliance Matrix: (Units=1/GPa)
#
#
# Indices 1 2 3 4 5 6 
#
# 1 0.027873 0.000143 -0.001620 0.000000 0.000414 0.000000
# 2 0.000143 0.010233 -0.001221 0.000000 0.001882 0.000000
# 3 -0.001620 -0.001221 0.009228 0.000000 0.002837 0.000000
# 4 0.000000 0.000000 0.000000 0.039578 0.000000 0.015096
# 5 0.000414 0.001882 0.002837 0.000000 0.046512 0.000000
# 6 0.000000 0.000000 0.000000 0.015096 0.000000 0.048965
#
#
# Mechanical properties :
#
#
# Convention : Reuss Voigt Hill
#
# Bulk Modulus (GPa) = 23.84496 32.71732 28.28114
# Shear Modulus (GPa) = 24.78142 30.02711 27.40426
#
# Velocity S-wave (km/s) = 3.44815 3.79559 3.62603
# Velocity P-wave (km/s) = 5.22431 5.90812 5.57671
#
# Compressibility (1/GPa) = 0.04193759
#
# Stress axis : x y z
#
# Youngs Moduli (GPa) = 35.87736 97.72359 108.36433
#
# Poissons Ratio (x) = -0.01399 0.17559
# Poissons Ratio (y) = -0.00514 0.13231
# Poissons Ratio (z) = 0.05813 0.11932
#
# Static dielectric constant tensor:
#      x y z
#    x 1.795690 0.000000 0.012060 
#    y 0.000000 1.726370 0.000000 
#    z 0.012060 0.000000 1.780970 
# 
# From -- ./inp_files/68441.got.cif
#   From: 2010.05.17/outbox.cif.g08.bks.cpg/sg11_35_cif.got.tgz:68441.got - 2010.06.03 12:22:45.
