data_PCOD9162560
_publ_section_title
;
Structure prediction by ZEFSAII (Michael W. Deem and Ramdas Pophale) SiO2 
 PCOD9162560
Probable space group: P 21/M
;
_chemical_formula_sum "Si O2"
_cell_formula_units_Z 30
_cell_length_a 12.394987
_cell_length_b 7.629695
_cell_length_c 28.954301
_cell_angle_alpha 90.000000
_cell_angle_beta 31.580794
_cell_angle_gamma 90.000000
_cell_volume 1434.000224
_symmetry_space_group_name_H-M "P 21/M"
_symmetry_group_IT_number 11
_symmetry_cell_setting 'monoclinic'
loop_
_space_group_symop_operation_xyz
x,y,z
-x,1/2+y,-z
-x,-y,-z
x,1/2-y,z
loop_
_atom_site_type_symbol
_atom_site_label
_atom_site_fract_x
_atom_site_fract_y
_atom_site_fract_z
Si Si1 0.517001 0.041014 0.677391
Si Si2 0.734767 0.459088 0.505178
Si Si3 0.607102 0.539002 0.010246
Si Si4 0.298244 0.961314 0.201503
Si Si5 0.121700 0.540630 0.697680
Si Si6 0.500000 0.000000 0.500000
Si Si7 0.060267 0.539073 0.825094
Si Si8 0.215623 0.537991 0.334071
O O1 0.548507 0.250000 0.664090
O O2 0.602406 0.973669 0.597046
O O3 0.650324 0.973078 0.671639
O O4 0.274055 0.008912 0.771214
O O5 0.704935 0.250000 0.510491
O O6 0.665756 0.537175 0.481666
O O7 0.976229 0.489507 0.426050
O O8 0.612783 0.750000 0.011714
O O9 0.471185 0.472629 0.102664
O O10 0.500000 0.500000 0.000000
O O11 0.842954 0.474378 0.924179
O O12 0.313524 0.750000 0.196964
O O13 0.301208 0.024141 0.253240
O O14 0.078760 0.008813 0.259693
O O15 0.165816 0.750000 0.680642
O O16 0.323827 0.457256 0.602746
O O17 0.078072 0.480338 0.765394
O O18 0.049488 0.750000 0.827971
O O19 0.226283 0.750000 0.329949
#
# Coordination Sequence:
#
# PCOD9162560 Si02
#       8
#     4   4   4   4   4   2   4   4
#     4  10  22  40  57  78 109 149 192 231 271 323
#     4  11  23  37  57  83 112 147 188 229 272 327
#     4  10  20  35  57  85 115 143 179 225 280 338
#     4  10  21  36  57  84 112 146 182 226 281 335
#     4  11  22  36  55  81 115 151 183 224 275 331
#     4  12  22  34  52  84 120 144 176 220 278 326
#     4  10  21  37  56  81 110 144 183 227 277 329
#     4  10  22  39  58  79 110 149 189 230 274 324
#
# _framework density 20.920497999999998
#
# number of rings (size 3 to 8) (size 9 to 14) (size 15 to 20)
#    0.000    1.600    4.000    0.800    0.000    4.267 
#    0.000    0.667    0.000    0.000    0.000    0.000 
#    0.000    0.000    0.000    0.000    0.000    0.000 
#
# Total GULP energy -167153.574544 kJ/mol
# GULP energy per Si atom -5571.785818 kJ/mol
# Density = 2.087288 g / cm^3
# Si number density = 20.920498 Si / 1000 Ang^3
#
#
#
# Elastic Constant Matrix: (Units=GPa)
#
#
# Indices 1 2 3 4 5 6 
#
# 1 131.8025 0.8261 44.8947 0.0000 -24.4159 0.0000
# 2 0.8261 46.3799 4.2586 0.0000 5.7577 0.0000
# 3 44.8947 4.2586 155.3553 0.0000 -8.9701 0.0000
# 4 0.0000 0.0000 0.0000 26.1948 0.0000 -20.2469
# 5 -24.4159 5.7577 -8.9701 0.0000 25.7198 0.0000
# 6 0.0000 0.0000 0.0000 -20.2469 0.0000 14.1867
#
#
#
# Elastic Compliance Matrix: (Units=1/GPa)
#
#
# Indices 1 2 3 4 5 6 
#
# 1 0.010059 -0.001076 -0.002360 0.000000 0.008967 0.000000
# 2 -0.001076 0.022420 -0.000666 0.000000 -0.006272 0.000000
# 3 -0.002360 -0.000666 0.007160 0.000000 0.000406 0.000000
# 4 0.000000 0.000000 0.000000 -0.370235 0.000000 -0.528389
# 5 0.008967 -0.006272 0.000406 0.000000 0.048939 0.000000
# 6 0.000000 0.000000 0.000000 -0.528389 0.000000 -0.683613
#
#
# Mechanical properties :
#
#
# Convention : Reuss Voigt Hill
#
# Bulk Modulus (GPa) = 31.80977 48.16631 39.98804
# Shear Modulus (GPa) = -5.28212 32.12414 13.42101
#
# Velocity S-wave (km/s) = -1.59070 3.92284 2.53558
# Velocity P-wave (km/s) = 3.44446 6.60240 5.26574
#
# Compressibility (1/GPa) = 0.03143688
#
# Stress axis : x y z
#
# Youngs Moduli (GPa) = 99.41764 44.60301 139.65625
#
# Poissons Ratio (x) = 0.04798 0.32952
# Poissons Ratio (y) = 0.10694 0.09300
# Poissons Ratio (z) = 0.23458 0.02970
#
# Static dielectric constant tensor:
#      x y z
#    x 1.723680 0.000000 0.012730 
#    y 0.000000 1.815920 0.000000 
#    z 0.012730 0.000000 1.752990 
# 
# From -- ./inp_files/72980.got.cif
#   From: 2010.05.17/outbox.cif.g08.bks.cpg/sg11_37_cif.got.tgz:72980.got - 2010.06.03 12:22:45.
