data_PCOD9162934
_publ_section_title
;
Structure prediction by ZEFSAII (Michael W. Deem and Ramdas Pophale) SiO2 
 PCOD9162934
Probable space group: P 21/M
;
_chemical_formula_sum "Si O2"
_cell_formula_units_Z 28
_cell_length_a 17.050198
_cell_length_b 8.994772
_cell_length_c 8.124464
_cell_angle_alpha 90.000000
_cell_angle_beta 84.745609
_cell_angle_gamma 90.000000
_cell_volume 1240.753520
_symmetry_space_group_name_H-M "P 21/M"
_symmetry_group_IT_number 11
_symmetry_cell_setting 'monoclinic'
loop_
_space_group_symop_operation_xyz
x,y,z
-x,1/2+y,-z
-x,-y,-z
x,1/2-y,z
loop_
_atom_site_type_symbol
_atom_site_label
_atom_site_fract_x
_atom_site_fract_y
_atom_site_fract_z
Si Si1 0.459000 0.427783 0.850322
Si Si2 0.267145 0.574621 0.189707
Si Si3 0.406455 0.078813 0.339433
Si Si4 0.117340 0.574521 0.057788
Si Si5 0.310371 0.077188 0.700659
Si Si6 0.977904 0.424878 0.264158
Si Si7 0.171079 0.925023 0.548231
O O1 0.456464 0.250000 0.864441
O O2 0.517825 0.475041 0.692318
O O3 0.370735 0.482736 0.826398
O O4 0.500000 0.500000 0.000000
O O5 0.288580 0.750000 0.166626
O O6 0.342947 0.477442 0.216893
O O7 0.207316 0.521116 0.059450
O O8 0.211925 0.560621 0.363652
O O9 0.428385 0.250000 0.304425
O O10 0.362636 0.070555 0.522493
O O11 0.121364 0.750000 0.090079
O O12 0.058432 0.504528 0.202238
O O13 0.076590 0.555376 0.889406
O O14 0.293414 0.250000 0.737937
O O15 0.230715 0.995197 0.668234
O O16 0.994524 0.250000 0.284049
O O17 0.918297 0.483310 0.415971
O O18 0.165961 0.750000 0.585376
#
# Coordination Sequence:
#
# PCOD9162934 Si02
#       7
#     4   4   4   4   4   4   4
#     4  11  23  38  55  79 109 139 173 214 258 304
#     4   9  18  33  51  73 101 132 167 207 252 302
#     4  10  20  36  57  80 105 136 173 212 258 310
#     4   9  18  32  49  69  96 131 168 205 250 303
#     4   9  20  37  56  78 105 136 172 213 257 308
#     4   9  18  32  48  69  97 129 166 206 250 301
#     4   9  18  32  51  74 100 131 167 207 252 303
#
# _framework density 22.566932000000001
#
# number of rings (size 3 to 8) (size 9 to 14) (size 15 to 20)
#    0.000    2.571    0.000    1.286    0.000    4.571 
#    0.000    1.429    0.000    0.000    0.000    0.000 
#    0.000    0.000    0.000    0.000    0.000    0.000 
#
# Total GULP energy -156407.220377 kJ/mol
# GULP energy per Si atom -5585.972156 kJ/mol
# Density = 2.251557 g / cm^3
# Si number density = 22.566932 Si / 1000 Ang^3
#
#
#
# Elastic Constant Matrix: (Units=GPa)
#
#
# Indices 1 2 3 4 5 6 
#
# 1 105.6435 12.3625 -8.5151 0.0000 11.2816 0.0000
# 2 12.3625 18.8440 3.3161 0.0000 6.5925 0.0000
# 3 -8.5151 3.3161 47.1331 0.0000 6.7996 0.0000
# 4 0.0000 0.0000 0.0000 19.9249 0.0000 -0.8979
# 5 11.2816 6.5925 6.7996 0.0000 44.0883 0.0000
# 6 0.0000 0.0000 0.0000 -0.8979 0.0000 31.5432
#
#
#
# Elastic Compliance Matrix: (Units=1/GPa)
#
#
# Indices 1 2 3 4 5 6 
#
# 1 0.010704 -0.006749 0.002719 0.000000 -0.002149 0.000000
# 2 -0.006749 0.060614 -0.004526 0.000000 -0.006639 0.000000
# 3 0.002719 -0.004526 0.022530 0.000000 -0.003494 0.000000
# 4 0.000000 0.000000 0.000000 0.050253 0.000000 0.001431
# 5 -0.002149 -0.006639 -0.003494 0.000000 0.024763 0.000000
# 6 0.000000 0.000000 0.000000 0.001431 0.000000 0.031743
#
#
# Mechanical properties :
#
#
# Convention : Reuss Voigt Hill
#
# Bulk Modulus (GPa) = 13.03180 20.66085 16.84633
# Shear Modulus (GPa) = 20.55089 30.07509 25.31299
#
# Velocity S-wave (km/s) = 3.02099 3.65459 3.35279
# Velocity P-wave (km/s) = 4.23743 5.19454 4.74020
#
# Compressibility (1/GPa) = 0.07673536
#
# Stress axis : x y z
#
# Youngs Moduli (GPa) = 93.42119 16.49792 44.38507
#
# Poissons Ratio (x) = 0.11134 -0.12067
# Poissons Ratio (y) = 0.63050 0.20089
# Poissons Ratio (z) = -0.25398 0.07467
#
# Static dielectric constant tensor:
#      x y z
#    x 1.841680 0.000000 -0.010330 
#    y 0.000000 1.757210 0.000000 
#    z -0.010330 0.000000 1.952100 
# 
# From -- ./inp_files/24104.got.cif
#   From: 2010.05.17/outbox.cif.g08.bks.cpg/sg11_13_cif.got.tgz:24104.got - 2010.06.03 12:22:45.
