data_PCOD9162450
_publ_section_title
;
Structure prediction by ZEFSAII (Michael W. Deem and Ramdas Pophale) SiO2 
 PCOD9162450
Probable space group: P 21/M
;
_chemical_formula_sum "Si O2"
_cell_formula_units_Z 24
_cell_length_a 8.206157
_cell_length_b 8.232217
_cell_length_c 15.033123
_cell_angle_alpha 90.000000
_cell_angle_beta 102.962868
_cell_angle_gamma 90.000000
_cell_volume 989.679691
_symmetry_space_group_name_H-M "P 21/M"
_symmetry_group_IT_number 11
_symmetry_cell_setting 'monoclinic'
loop_
_space_group_symop_operation_xyz
x,y,z
-x,1/2+y,-z
-x,-y,-z
x,1/2-y,z
loop_
_atom_site_type_symbol
_atom_site_label
_atom_site_fract_x
_atom_site_fract_y
_atom_site_fract_z
Si Si1 0.817114 0.945674 0.447357
Si Si2 0.068069 0.553104 0.222320
Si Si3 0.814972 0.056819 0.947187
Si Si4 0.423557 0.942500 0.723307
Si Si5 0.684482 0.557428 0.612178
Si Si6 0.303384 0.442390 0.888354
O O1 0.812859 0.750000 0.441382
O O2 0.695722 0.005387 0.513090
O O3 0.751216 0.016176 0.346896
O O4 0.000000 0.000000 0.500000
O O5 0.072111 0.750000 0.231430
O O6 0.136896 0.474478 0.319706
O O7 0.880831 0.506636 0.170729
O O8 0.189090 0.498696 0.155321
O O9 0.812889 0.250000 0.943188
O O10 0.689229 0.006577 0.009910
O O11 0.000000 0.000000 0.000000
O O12 0.445273 0.750000 0.731544
O O13 0.555170 0.014526 0.667926
O O14 0.425926 0.008344 0.823781
O O15 0.654626 0.750000 0.602685
O O16 0.305843 0.250000 0.895734
#
# Coordination Sequence:
#
# PCOD9162450 Si02
#       6
#     4   4   4   4   4   4
#     4  11  23  40  61  86 112 143 183 228 274 327
#     4   9  19  34  55  82 111 142 183 229 274 324
#     4   9  17  31  52  81 113 146 185 233 280 326
#     4  11  23  39  57  81 112 147 184 227 276 330
#     4  10  23  39  56  80 112 147 184 224 274 330
#     4  10  20  35  56  84 112 145 188 233 279 331
#
# _framework density 24.250268999999999
#
# number of rings (size 3 to 8) (size 9 to 14) (size 15 to 20)
#    0.000    2.000    0.000    4.500    0.000    9.333 
#    0.000    0.833    0.000    0.000    0.000    0.000 
#    0.000    0.000    0.000    0.000    0.000    0.000 
#
# Total GULP energy -134181.079826 kJ/mol
# GULP energy per Si atom -5590.878326 kJ/mol
# Density = 2.419507 g / cm^3
# Si number density = 24.250269 Si / 1000 Ang^3
#
#
#
# Elastic Constant Matrix: (Units=GPa)
#
#
# Indices 1 2 3 4 5 6 
#
# 1 76.7158 -8.8516 16.4766 0.0000 -24.9147 0.0000
# 2 -8.8516 25.9234 10.5809 0.0000 -12.1417 0.0000
# 3 16.4766 10.5809 175.0999 0.0000 -25.7109 0.0000
# 4 0.0000 0.0000 0.0000 27.7983 0.0000 -7.7544
# 5 -24.9147 -12.1417 -25.7109 0.0000 46.0165 0.0000
# 6 0.0000 0.0000 0.0000 -7.7544 0.0000 16.1433
#
#
#
# Elastic Compliance Matrix: (Units=1/GPa)
#
#
# Indices 1 2 3 4 5 6 
#
# 1 0.019016 0.013012 -0.000610 0.000000 0.013388 0.000000
# 2 0.013012 0.053093 -0.001461 0.000000 0.020238 0.000000
# 3 -0.000610 -0.001461 0.006266 0.000000 0.002785 0.000000
# 4 0.000000 0.000000 0.000000 0.041539 0.000000 0.019953
# 5 0.013388 0.020238 0.002785 0.000000 0.035876 0.000000
# 6 0.000000 0.000000 0.000000 0.019953 0.000000 0.071530
#
#
# Mechanical properties :
#
#
# Convention : Reuss Voigt Hill
#
# Bulk Modulus (GPa) = 9.97431 34.90565 22.43998
# Shear Modulus (GPa) = 20.93311 35.29384 28.11347
#
# Velocity S-wave (km/s) = 2.94123 3.81911 3.40855
# Velocity P-wave (km/s) = 3.95683 5.82002 4.97640
#
# Compressibility (1/GPa) = 0.10025753
#
# Stress axis : x y z
#
# Youngs Moduli (GPa) = 52.58859 18.83475 159.60024
#
# Poissons Ratio (x) = -0.24509 0.09732
# Poissons Ratio (y) = -0.68430 0.23319
# Poissons Ratio (z) = 0.03207 0.02752
#
# Static dielectric constant tensor:
#      x y z
#    x 2.068380 0.000000 -0.062800 
#    y 0.000000 1.822380 0.000000 
#    z -0.062800 0.000000 1.929090 
# 
# From -- ./inp_files/20578.got.cif
#   From: 2010.05.17/outbox.cif.g08.bks.cpg/sg11_11_cif.got.tgz:20578.got - 2010.06.03 12:22:45.
