data_PCOD9162405
_publ_section_title
;
Structure prediction by ZEFSAII (Michael W. Deem and Ramdas Pophale) SiO2 
 PCOD9162405
Probable space group: P 21/M
;
_chemical_formula_sum "Si O2"
_cell_formula_units_Z 32
_cell_length_a 9.522105
_cell_length_b 11.926181
_cell_length_c 31.334237
_cell_angle_alpha 90.000000
_cell_angle_beta 28.135323
_cell_angle_gamma 90.000000
_cell_volume 1677.978594
_symmetry_space_group_name_H-M "P 21/M"
_symmetry_group_IT_number 11
_symmetry_cell_setting 'monoclinic'
loop_
_space_group_symop_operation_xyz
x,y,z
-x,1/2+y,-z
-x,-y,-z
x,1/2-y,z
loop_
_atom_site_type_symbol
_atom_site_label
_atom_site_fract_x
_atom_site_fract_y
_atom_site_fract_z
Si Si1 0.870723 0.877030 0.018596
Si Si2 0.592841 0.615935 0.339806
Si Si3 0.651742 0.379156 0.507412
Si Si4 0.469791 0.377641 0.740392
Si Si5 0.977384 0.953232 0.358883
Si Si6 0.050602 0.035245 0.092869
Si Si7 0.392365 0.120452 0.080449
Si Si8 0.774492 0.471345 0.799247
O O1 0.956582 0.750000 0.011827
O O2 0.948419 0.881816 0.947524
O O3 0.515482 0.891757 0.120984
O O4 0.000000 0.000000 0.000000
O O5 0.574959 0.750000 0.347521
O O6 0.391636 0.572899 0.432997
O O7 0.500974 0.584856 0.316716
O O8 0.934677 0.582987 0.256891
O O9 0.743540 0.250000 0.484496
O O10 0.320252 0.388550 0.575942
O O11 0.869097 0.449482 0.419462
O O12 0.350013 0.250000 0.772819
O O13 0.783368 0.380537 0.680048
O O14 0.246729 0.462931 0.823099
O O15 0.135135 0.995842 0.273430
O O16 0.135982 0.092768 0.114647
O O17 0.319230 0.949485 0.010800
O O18 0.459759 0.250000 0.061617
O O19 0.303550 0.078336 0.151087
#
# Coordination Sequence:
#
# PCOD9162405 Si02
#       8
#     4   4   4   4   4   4   4   4
#     4  11  24  39  59  86 122 162 204 249 300 351
#     4   9  18  34  59  83 109 145 190 240 291 353
#     4   9  19  38  58  80 111 150 188 233 298 361
#     4  11  21  35  58  89 117 149 198 249 295 345
#     4  10  21  35  58  86 112 145 186 244 289 352
#     4  10  21  37  55  82 116 155 195 244 292 339
#     4  10  20  35  56  81 113 154 198 241 287 345
#     4  10  20  37  57  82 113 151 197 241 295 345
#
# _framework density 19.070564999999998
#
# number of rings (size 3 to 8) (size 9 to 14) (size 15 to 20)
#    0.000    2.000    1.250    2.250    0.000    6.000 
#    0.000    2.500    0.000    0.000    0.000    0.000 
#    0.000    0.000    0.000    0.000    0.000    0.000 
#
# Total GULP energy -178436.933343 kJ/mol
# GULP energy per Si atom -5576.154167 kJ/mol
# Density = 1.902716 g / cm^3
# Si number density = 19.070565 Si / 1000 Ang^3
#
#
#
# Elastic Constant Matrix: (Units=GPa)
#
#
# Indices 1 2 3 4 5 6 
#
# 1 74.2582 17.9494 34.7610 0.0000 8.6856 0.0000
# 2 17.9494 84.5662 21.7264 0.0000 11.6547 0.0000
# 3 34.7610 21.7264 73.2508 0.0000 25.3773 0.0000
# 4 0.0000 0.0000 0.0000 2.5667 0.0000 0.6267
# 5 8.6856 11.6547 25.3773 0.0000 22.9947 0.0000
# 6 0.0000 0.0000 0.0000 0.6267 0.0000 19.2108
#
#
#
# Elastic Compliance Matrix: (Units=1/GPa)
#
#
# Indices 1 2 3 4 5 6 
#
# 1 0.017856 -0.002000 -0.009544 0.000000 0.004802 0.000000
# 2 -0.002000 0.013224 -0.001478 0.000000 -0.004316 0.000000
# 3 -0.009544 -0.001478 0.027703 0.000000 -0.026219 0.000000
# 4 0.000000 0.000000 0.000000 0.392727 0.000000 -0.012812
# 5 0.004802 -0.004316 -0.026219 0.000000 0.072798 0.000000
# 6 0.000000 0.000000 0.000000 -0.012812 0.000000 0.052472
#
#
# Mechanical properties :
#
#
# Convention : Reuss Voigt Hill
#
# Bulk Modulus (GPa) = 30.54461 42.32765 36.43613
# Shear Modulus (GPa) = 8.14683 19.46367 13.80525
#
# Velocity S-wave (km/s) = 2.06911 3.19817 2.69346
# Velocity P-wave (km/s) = 4.66473 5.99009 5.36847
#
# Compressibility (1/GPa) = 0.03273900
#
# Stress axis : x y z
#
# Youngs Moduli (GPa) = 56.00405 75.61966 36.09779
#
# Poissons Ratio (x) = 0.15122 0.34451
# Poissons Ratio (y) = 0.11199 0.05335
# Poissons Ratio (z) = 0.53450 0.11177
#
# Static dielectric constant tensor:
#      x y z
#    x 1.705610 0.000000 0.009400 
#    y 0.000000 1.658220 0.000000 
#    z 0.009400 0.000000 1.651980 
# 
# From -- ./inp_files/29279.got.cif
#   From: 2010.05.17/outbox.cif.g08.bks.cpg/sg11_15_cif.got.tgz:29279.got - 2010.06.03 12:22:45.
