data_PCOD9162919
_publ_section_title
;
Structure prediction by ZEFSAII (Michael W. Deem and Ramdas Pophale) SiO2 
 PCOD9162919
Probable space group: P 21/M
;
_chemical_formula_sum "Si O2"
_cell_formula_units_Z 24
_cell_length_a 5.385867
_cell_length_b 11.075161
_cell_length_c 19.186631
_cell_angle_alpha 90.000000
_cell_angle_beta 100.682172
_cell_angle_gamma 90.000000
_cell_volume 1124.636887
_symmetry_space_group_name_H-M "P 21/M"
_symmetry_group_IT_number 11
_symmetry_cell_setting 'monoclinic'
loop_
_space_group_symop_operation_xyz
x,y,z
-x,1/2+y,-z
-x,-y,-z
x,1/2-y,z
loop_
_atom_site_type_symbol
_atom_site_label
_atom_site_fract_x
_atom_site_fract_y
_atom_site_fract_z
Si Si1 0.835842 0.250000 0.054648
Si Si2 0.965897 0.991258 0.081275
Si Si3 0.050380 0.958586 0.582436
Si Si4 0.914017 0.606798 0.281616
Si Si5 0.632427 0.396655 0.798852
Si Si6 0.722465 0.750000 0.040428
Si Si7 0.526490 0.622144 0.546505
O O1 0.860146 0.377243 0.096688
O O2 0.565420 0.250000 0.000913
O O3 0.074155 0.250000 0.012887
O O4 0.789398 0.873375 0.085209
O O5 0.234972 0.960299 0.128961
O O6 0.000000 0.000000 0.000000
O O7 0.311264 0.887933 0.592780
O O8 0.806974 0.882606 0.590313
O O9 0.070991 0.065829 0.637858
O O10 0.000000 0.000000 0.500000
O O11 0.898808 0.750000 0.278465
O O12 0.649775 0.562378 0.234794
O O13 0.167525 0.574088 0.252803
O O14 0.633890 0.250000 0.809133
O O15 0.500000 0.500000 0.500000
O O16 0.491366 0.750000 0.505506
#
# Coordination Sequence:
#
# PCOD9162919 Si02
#       7
#     2   4   4   4   4   2   4
#     4  10  22  34  56  86 122 156 199 244 307 360
#     4  10  21  39  62  93 125 163 208 258 307 369
#     4  10  21  37  61  92 125 159 200 257 314 369
#     4  10  22  39  64  94 124 161 211 260 313 372
#     4  10  21  39  62  91 126 165 207 262 313 363
#     4  10  20  36  56  88 120 154 195 258 301 348
#     4  10  21  36  59  91 126 160 200 249 307 363
#
# _framework density 21.340221
#
# number of rings (size 3 to 8) (size 9 to 14) (size 15 to 20)
#    0.000    2.000    0.833    2.000    0.000   10.667 
#    0.000    1.667   11.000    0.000    0.000    0.000 
#    0.000    0.000    0.000    0.000    0.000    0.000 
#
# Total GULP energy -133843.710044 kJ/mol
# GULP energy per Si atom -5576.821252 kJ/mol
# Density = 2.129165 g / cm^3
# Si number density = 21.340221 Si / 1000 Ang^3
#
#
#
# Elastic Constant Matrix: (Units=GPa)
#
#
# Indices 1 2 3 4 5 6 
#
# 1 143.1419 17.1442 13.1587 0.0000 16.3130 0.0000
# 2 17.1442 111.5806 -0.8182 0.0000 1.5063 0.0000
# 3 13.1587 -0.8182 75.1594 0.0000 -8.9693 0.0000
# 4 0.0000 0.0000 0.0000 36.4438 0.0000 5.1801
# 5 16.3130 1.5063 -8.9693 0.0000 21.0804 0.0000
# 6 0.0000 0.0000 0.0000 5.1801 0.0000 11.2500
#
#
#
# Elastic Compliance Matrix: (Units=1/GPa)
#
#
# Indices 1 2 3 4 5 6 
#
# 1 0.008160 -0.001173 -0.002302 0.000000 -0.007210 0.000000
# 2 -0.001173 0.009140 0.000353 0.000000 0.000405 0.000000
# 3 -0.002302 0.000353 0.014666 0.000000 0.007996 0.000000
# 4 0.000000 0.000000 0.000000 0.029361 0.000000 -0.013520
# 5 -0.007210 0.000405 0.007996 0.000000 0.056390 0.000000
# 6 0.000000 0.000000 0.000000 -0.013520 0.000000 0.095114
#
#
# Mechanical properties :
#
#
# Convention : Reuss Voigt Hill
#
# Bulk Modulus (GPa) = 38.87745 43.20572 41.04158
# Shear Modulus (GPa) = 21.96371 33.78131 27.87251
#
# Velocity S-wave (km/s) = 3.21162 3.98299 3.61792
# Velocity P-wave (km/s) = 5.65775 6.43758 6.06022
#
# Compressibility (1/GPa) = 0.02572185
#
# Stress axis : x y z
#
# Youngs Moduli (GPa) = 122.55087 109.41481 68.18432
#
# Poissons Ratio (x) = 0.12838 0.15695
# Poissons Ratio (y) = 0.14379 -0.02409
# Poissons Ratio (z) = 0.28209 -0.03865
#
# Static dielectric constant tensor:
#      x y z
#    x 1.823120 0.000000 0.016500 
#    y 0.000000 1.812190 0.000000 
#    z 0.016500 0.000000 1.721860 
# 
# From -- ./inp_files/62614.got.cif
#   From: 2010.05.17/outbox.cif.g08.bks.cpg/sg11_32_cif.got.tgz:62614.got - 2010.06.03 12:22:45.
