data_PCOD9162134
_publ_section_title
;
Structure prediction by ZEFSAII (Michael W. Deem and Ramdas Pophale) SiO2 
 PCOD9162134
Probable space group: P 21/M
;
_chemical_formula_sum "Si O2"
_cell_formula_units_Z 24
_cell_length_a 13.838649
_cell_length_b 10.945793
_cell_length_c 17.304603
_cell_angle_alpha 90.000000
_cell_angle_beta 23.703432
_cell_angle_gamma 90.000000
_cell_volume 1053.735115
_symmetry_space_group_name_H-M "P 21/M"
_symmetry_group_IT_number 11
_symmetry_cell_setting 'monoclinic'
loop_
_space_group_symop_operation_xyz
x,y,z
-x,1/2+y,-z
-x,-y,-z
x,1/2-y,z
loop_
_atom_site_type_symbol
_atom_site_label
_atom_site_fract_x
_atom_site_fract_y
_atom_site_fract_z
Si Si1 0.959887 0.250000 0.127854
Si Si2 0.856501 0.388573 0.720762
Si Si3 0.248478 0.511115 0.770879
Si Si4 0.675190 0.750000 0.288334
Si Si5 0.740300 0.250000 0.525746
Si Si6 0.759687 0.750000 0.918984
Si Si7 0.488131 0.513927 0.900078
Si Si8 0.381842 0.018894 0.359760
O O1 0.795645 0.129935 0.247423
O O2 0.129085 0.250000 0.077189
O O3 0.135191 0.250000 0.923697
O O4 0.854428 0.250000 0.691665
O O5 0.758960 0.490319 0.732002
O O6 0.122988 0.419102 0.554918
O O7 0.667470 0.402332 0.929501
O O8 0.285203 0.381266 0.701561
O O9 0.457658 0.530024 0.681151
O O10 0.000000 0.500000 0.000000
O O11 0.413163 0.750000 0.441342
O O12 0.664368 0.374821 0.621342
O O13 0.019925 0.250000 0.302218
O O14 0.621965 0.877415 0.011856
O O15 0.485064 0.561920 0.815159
#
# Coordination Sequence:
#
# PCOD9162134 Si02
#       8
#     2   4   4   2   2   2   4   4
#     4  10  20  34  63  89 121 164 219 268 334 380
#     4  11  25  42  62  99 136 163 219 273 324 389
#     4   9  18  35  60  91 121 168 215 268 317 388
#     4   8  16  34  54  79 120 156 210 259 309 383
#     4  10  20  36  64  95 116 165 221 262 308 391
#     4  12  20  40  67  91 127 169 218 271 317 394
#     4  11  23  43  67  94 127 178 213 265 324 397
#     4  11  22  41  68  92 132 170 217 263 329 385
#
# _framework density 22.776122000000001
#
# number of rings (size 3 to 8) (size 9 to 14) (size 15 to 20)
#    0.000    1.667    2.500    4.000    1.167    0.667 
#    0.000    3.333    5.500    0.000    0.000    0.000 
#    0.000    0.000    0.000    0.000    0.000    0.000 
#
# Total GULP energy -134154.769629 kJ/mol
# GULP energy per Si atom -5589.782068 kJ/mol
# Density = 2.272428 g / cm^3
# Si number density = 22.776122 Si / 1000 Ang^3
#
#
#
# Elastic Constant Matrix: (Units=GPa)
#
#
# Indices 1 2 3 4 5 6 
#
# 1 52.7079 16.3179 8.2870 0.0000 -7.9783 0.0000
# 2 16.3179 90.0252 2.3914 0.0000 -16.7621 0.0000
# 3 8.2870 2.3914 92.6365 0.0000 -14.1318 0.0000
# 4 0.0000 0.0000 0.0000 8.2206 0.0000 -6.2165
# 5 -7.9783 -16.7621 -14.1318 0.0000 37.0352 0.0000
# 6 0.0000 0.0000 0.0000 -6.2165 0.0000 22.3607
#
#
#
# Elastic Compliance Matrix: (Units=1/GPa)
#
#
# Indices 1 2 3 4 5 6 
#
# 1 0.020561 -0.003236 -0.001384 0.000000 0.002436 0.000000
# 2 -0.003236 0.012667 0.000776 0.000000 0.005332 0.000000
# 3 -0.001384 0.000776 0.011581 0.000000 0.004472 0.000000
# 4 0.000000 0.000000 0.000000 0.154026 0.000000 0.042821
# 5 0.002436 0.005332 0.004472 0.000000 0.031646 0.000000
# 6 0.000000 0.000000 0.000000 0.042821 0.000000 0.056626
#
#
# Mechanical properties :
#
#
# Convention : Reuss Voigt Hill
#
# Bulk Modulus (GPa) = 26.94021 32.15137 29.54579
# Shear Modulus (GPa) = 16.27768 27.41487 21.84628
#
# Velocity S-wave (km/s) = 2.67625 3.47315 3.10041
# Velocity P-wave (km/s) = 4.62642 5.49824 5.08106
#
# Compressibility (1/GPa) = 0.03711923
#
# Stress axis : x y z
#
# Youngs Moduli (GPa) = 48.63612 78.94665 86.34925
#
# Poissons Ratio (x) = 0.25551 0.11952
# Poissons Ratio (y) = 0.15741 -0.06700
# Poissons Ratio (z) = 0.06732 -0.06126
#
# Static dielectric constant tensor:
#      x y z
#    x 1.826750 0.000000 0.051220 
#    y 0.000000 1.880390 0.000000 
#    z 0.051220 0.000000 1.961270 
# 
# From -- ./inp_files/27693.got.cif
#   From: 2010.05.17/outbox.cif.g08.bks.cpg/sg11_14_cif.got.tgz:27693.got - 2010.06.03 12:22:45.
