data_PCOD9162327
_publ_section_title
;
Structure prediction by ZEFSAII (Michael W. Deem and Ramdas Pophale) SiO2 
 PCOD9162327
Probable space group: P 21/M
;
_chemical_formula_sum "Si O2"
_cell_formula_units_Z 32
_cell_length_a 16.337065
_cell_length_b 8.375900
_cell_length_c 21.821830
_cell_angle_alpha 90.000000
_cell_angle_beta 26.330861
_cell_angle_gamma 90.000000
_cell_volume 1324.473235
_symmetry_space_group_name_H-M "P 21/M"
_symmetry_group_IT_number 11
_symmetry_cell_setting 'monoclinic'
loop_
_space_group_symop_operation_xyz
x,y,z
-x,1/2+y,-z
-x,-y,-z
x,1/2-y,z
loop_
_atom_site_type_symbol
_atom_site_label
_atom_site_fract_x
_atom_site_fract_y
_atom_site_fract_z
Si Si1 0.760210 0.559414 0.541809
Si Si2 0.457117 0.061021 0.435733
Si Si3 0.101531 0.939086 0.235328
Si Si4 0.791805 0.559450 0.146488
Si Si5 0.228019 0.444183 0.972700
Si Si6 0.795242 0.063043 0.646829
Si Si7 0.875563 0.063692 0.271550
Si Si8 0.452324 0.056399 0.945108
O O1 0.736824 0.750000 0.566846
O O2 0.648778 0.509932 0.555932
O O3 0.707673 0.468064 0.638441
O O4 0.976632 0.532189 0.378983
O O5 0.458110 0.250000 0.436834
O O6 0.665101 0.003436 0.286343
O O7 0.324698 0.004821 0.579159
O O8 0.082380 0.750000 0.234881
O O9 0.997274 0.037036 0.251863
O O10 0.317457 0.982683 0.086817
O O11 0.790469 0.750000 0.150253
O O12 0.706716 0.503700 0.137828
O O13 0.000000 0.500000 0.000000
O O14 0.221961 0.250000 0.976205
O O15 0.018370 0.503854 0.125700
O O16 0.348017 0.486566 0.951053
O O17 0.807567 0.250000 0.650176
O O18 0.658877 0.998303 0.790965
O O19 0.000000 0.000000 0.500000
O O20 0.851121 0.250000 0.276080
O O21 0.452213 0.250000 0.952258
#
# Coordination Sequence:
#
# PCOD9162327 Si02
#       8
#     4   4   4   4   4   4   4   4
#     4   9  19  35  55  80 109 136 170 214 260 311
#     4  10  20  35  55  82 110 137 172 217 263 311
#     4   9  17  30  51  81 110 134 164 212 264 309
#     4  11  22  37  54  75 106 143 180 220 265 315
#     4   8  16  32  55  79 103 131 170 216 260 308
#     4  11  23  37  54  76 106 142 181 220 263 311
#     4   9  16  30  53  80 106 134 169 212 260 311
#     4   9  18  34  55  79 103 133 173 215 258 312
#
# _framework density 24.160547999999999
#
# number of rings (size 3 to 8) (size 9 to 14) (size 15 to 20)
#    0.000    2.500    0.000    4.125    0.000    5.000 
#    0.000    8.750    0.000    0.000    0.000    0.000 
#    0.000    0.000    0.000    0.000    0.000    0.000 
#
# Total GULP energy -178769.641520 kJ/mol
# GULP energy per Si atom -5586.551298 kJ/mol
# Density = 2.410556 g / cm^3
# Si number density = 24.160548 Si / 1000 Ang^3
#
#
#
# Elastic Constant Matrix: (Units=GPa)
#
#
# Indices 1 2 3 4 5 6 
#
# 1 58.7000 -4.4472 29.9734 0.0000 8.2949 0.0000
# 2 -4.4472 20.0088 27.8459 0.0000 3.7845 0.0000
# 3 29.9734 27.8459 217.3688 0.0000 11.1186 0.0000
# 4 0.0000 0.0000 0.0000 34.2525 0.0000 -5.2244
# 5 8.2949 3.7845 11.1186 0.0000 47.4020 0.0000
# 6 0.0000 0.0000 0.0000 -5.2244 0.0000 10.3103
#
#
#
# Elastic Compliance Matrix: (Units=1/GPa)
#
#
# Indices 1 2 3 4 5 6 
#
# 1 0.020396 0.010781 -0.004015 0.000000 -0.003488 0.000000
# 2 0.010781 0.066963 -0.009813 0.000000 -0.004931 0.000000
# 3 -0.004015 -0.009813 0.006412 0.000000 -0.000018 0.000000
# 4 0.000000 0.000000 0.000000 0.031640 0.000000 0.016033
# 5 -0.003488 -0.004931 -0.000018 0.000000 0.022104 0.000000
# 6 0.000000 0.000000 0.000000 0.016033 0.000000 0.105115
#
#
# Mechanical properties :
#
#
# Convention : Reuss Voigt Hill
#
# Bulk Modulus (GPa) = 11.40557 44.75797 28.08177
# Shear Modulus (GPa) = 17.36413 34.57331 25.96872
#
# Velocity S-wave (km/s) = 2.68376 3.78694 3.28203
# Velocity P-wave (km/s) = 3.78608 6.13894 5.10005
#
# Compressibility (1/GPa) = 0.08767648
#
# Stress axis : x y z
#
# Youngs Moduli (GPa) = 49.03024 14.93365 155.95598
#
# Poissons Ratio (x) = -0.16099 0.62616
# Poissons Ratio (y) = -0.52857 1.53033
# Poissons Ratio (z) = 0.19686 0.14654
#
# Static dielectric constant tensor:
#      x y z
#    x 2.004570 0.000000 -0.058000 
#    y 0.000000 1.809310 0.000000 
#    z -0.058000 0.000000 1.975300 
# 
# From -- ./inp_files/72101.got.cif
#   From: 2010.05.17/outbox.cif.g08.bks.cpg/sg11_37_cif.got.tgz:72101.got - 2010.06.03 12:22:45.
