data_PCOD9162689
_publ_section_title
;
Structure prediction by ZEFSAII (Michael W. Deem and Ramdas Pophale) SiO2 
 PCOD9162689
Probable space group: P 21/M
;
_chemical_formula_sum "Si O2"
_cell_formula_units_Z 32
_cell_length_a 14.180761
_cell_length_b 16.419820
_cell_length_c 20.163601
_cell_angle_alpha 90.000000
_cell_angle_beta 20.774877
_cell_angle_gamma 90.000000
_cell_volume 1665.304181
_symmetry_space_group_name_H-M "P 21/M"
_symmetry_group_IT_number 11
_symmetry_cell_setting 'monoclinic'
loop_
_space_group_symop_operation_xyz
x,y,z
-x,1/2+y,-z
-x,-y,-z
x,1/2-y,z
loop_
_atom_site_type_symbol
_atom_site_label
_atom_site_fract_x
_atom_site_fract_y
_atom_site_fract_z
Si Si1 0.054366 0.966401 0.760551
Si Si2 0.006054 0.091623 0.468206
Si Si3 0.808467 0.502144 0.779616
Si Si4 0.414537 0.552165 0.729999
Si Si5 0.611331 0.922092 0.370799
Si Si6 0.912037 0.837238 0.065546
Si Si7 0.409228 0.408840 0.838356
Si Si8 0.885515 0.655655 0.468322
O O1 0.315362 0.908447 0.592891
O O2 0.171422 0.047592 0.719046
O O3 0.972814 0.981316 0.738542
O O4 0.797523 0.932844 0.968229
O O5 0.700533 0.121155 0.666936
O O6 0.158293 0.144206 0.423326
O O7 0.000000 0.000000 0.500000
O O8 0.126619 0.073934 0.316227
O O9 0.895292 0.413140 0.694720
O O10 0.500000 0.500000 0.000000
O O11 0.423826 0.498250 0.657525
O O12 0.460165 0.489829 0.760535
O O13 0.629493 0.623216 0.596550
O O14 0.125338 0.591148 0.925380
O O15 0.725001 0.850229 0.251856
O O16 0.045782 0.750000 0.979355
O O17 0.736152 0.847638 0.115751
O O18 0.947614 0.750000 0.413486
#
# Coordination Sequence:
#
# PCOD9162689 Si02
#       8
#     4   4   4   4   4   4   4   4
#     4  11  19  34  61  88 109 153 203 237 289 342
#     4  10  20  39  61  86 111 152 205 242 288 358
#     4  11  22  37  62  91 120 159 199 241 297 368
#     4  11  18  39  59  88 115 157 203 243 283 360
#     4  10  20  35  59  82 117 156 201 239 282 361
#     4  11  22  36  55  87 122 158 196 247 301 344
#     4  11  19  36  65  83 113 153 212 245 277 357
#     4  11  23  40  63  91 120 152 199 259 306 346
#
# _framework density 19.215709
#
# number of rings (size 3 to 8) (size 9 to 14) (size 15 to 20)
#    0.000    1.250    6.250    3.375    0.000    0.500 
#    0.000    1.875    0.000    3.000    0.000    0.000 
#    0.000    0.000    0.000    0.000    0.000    0.000 
#
# Total GULP energy -178454.654175 kJ/mol
# GULP energy per Si atom -5576.707943 kJ/mol
# Density = 1.917197 g / cm^3
# Si number density = 19.215709 Si / 1000 Ang^3
#
#
#
# Elastic Constant Matrix: (Units=GPa)
#
#
# Indices 1 2 3 4 5 6 
#
# 1 88.3109 -3.6227 10.8473 0.0000 1.2079 0.0000
# 2 -3.6227 59.6428 2.0172 0.0000 1.3339 0.0000
# 3 10.8473 2.0172 91.5794 0.0000 0.9858 0.0000
# 4 0.0000 0.0000 0.0000 8.5342 0.0000 -10.1603
# 5 1.2079 1.3339 0.9858 0.0000 34.9282 0.0000
# 6 0.0000 0.0000 0.0000 -10.1603 0.0000 5.4701
#
#
#
# Elastic Compliance Matrix: (Units=1/GPa)
#
#
# Indices 1 2 3 4 5 6 
#
# 1 0.011529 0.000756 -0.001378 0.000000 -0.000389 0.000000
# 2 0.000756 0.016842 -0.000453 0.000000 -0.000657 0.000000
# 3 -0.001378 -0.000453 0.011095 0.000000 -0.000248 0.000000
# 4 0.000000 0.000000 0.000000 -0.096734 0.000000 -0.179675
# 5 -0.000389 -0.000657 -0.000248 0.000000 0.028676 0.000000
# 6 0.000000 0.000000 0.000000 -0.179675 0.000000 -0.150919
#
#
# Mechanical properties :
#
#
# Convention : Reuss Voigt Hill
#
# Bulk Modulus (GPa) = 26.79872 28.66850 27.73361
# Shear Modulus (GPa) = -30.31772 25.13927 -2.58922
#
# Velocity S-wave (km/s) = -3.97641 3.62092 -1.16206
# Velocity P-wave (km/s) = 2.66569 5.69501 3.55860
#
# Compressibility (1/GPa) = 0.03731522
#
# Stress axis : x y z
#
# Youngs Moduli (GPa) = 86.73620 59.37401 90.12768
#
# Poissons Ratio (x) = -0.04486 0.12420
# Poissons Ratio (y) = -0.06554 0.04086
# Poissons Ratio (z) = 0.11953 0.02692
#
# Static dielectric constant tensor:
#      x y z
#    x 1.726160 0.000000 -0.000550 
#    y 0.000000 1.661730 0.000000 
#    z -0.000550 0.000000 1.729370 
# 
# From -- ./inp_files/32233.got.cif
#   From: 2010.05.17/outbox.cif.g08.bks.cpg/sg11_17_cif.got.tgz:32233.got - 2010.06.03 12:22:45.
