data_PCOD9162548
_publ_section_title
;
Structure prediction by ZEFSAII (Michael W. Deem and Ramdas Pophale) SiO2 
 PCOD9162548
Probable space group: P 21/M
;
_chemical_formula_sum "Si O2"
_cell_formula_units_Z 32
_cell_length_a 13.215761
_cell_length_b 8.602692
_cell_length_c 14.532930
_cell_angle_alpha 90.000000
_cell_angle_beta 94.320421
_cell_angle_gamma 90.000000
_cell_volume 1647.569945
_symmetry_space_group_name_H-M "P 21/M"
_symmetry_group_IT_number 11
_symmetry_cell_setting 'monoclinic'
loop_
_space_group_symop_operation_xyz
x,y,z
-x,1/2+y,-z
-x,-y,-z
x,1/2-y,z
loop_
_atom_site_type_symbol
_atom_site_label
_atom_site_fract_x
_atom_site_fract_y
_atom_site_fract_z
Si Si1 0.261535 0.935844 0.101766
Si Si2 0.994441 0.564076 0.288527
Si Si3 0.207216 0.937916 0.395415
Si Si4 0.390774 0.939174 0.732775
Si Si5 0.601071 0.062790 0.055366
Si Si6 0.192599 0.938032 0.607958
Si Si7 0.617337 0.936437 0.719287
Si Si8 0.038565 0.433672 0.099075
O O1 0.246880 0.750000 0.106240
O O2 0.342479 0.988240 0.183451
O O3 0.156210 0.019057 0.115026
O O4 0.304878 0.977115 0.004317
O O5 0.992694 0.750000 0.288187
O O6 0.906388 0.501792 0.348146
O O7 0.105029 0.514404 0.334442
O O8 0.982584 0.503361 0.184024
O O9 0.214539 0.750000 0.390469
O O10 0.197152 0.983083 0.501300
O O11 0.306168 0.008684 0.354432
O O12 0.387429 0.750000 0.733673
O O13 0.387435 0.991716 0.838965
O O14 0.293890 0.991532 0.668136
O O15 0.499954 0.982696 0.698280
O O16 0.593696 0.250000 0.056638
O O17 0.500000 0.000000 0.000000
O O18 0.189059 0.750000 0.611164
O O19 0.621830 0.750000 0.728419
O O20 0.026239 0.250000 0.098828
O O21 0.000000 0.500000 0.000000
#
# Coordination Sequence:
#
# PCOD9162548 Si02
#       8
#     4   4   4   4   4   4   4   4
#     4  11  22  37  59  89 123 160 202 251 302 362
#     4  11  23  41  63  92 127 160 203 259 306 367
#     4  10  22  40  63  89 121 158 205 262 317 372
#     4   9  20  38  58  87 123 158 204 255 306 368
#     4  10  20  35  57  84 117 158 198 243 294 355
#     4  10  22  41  64  88 119 166 209 255 319 374
#     4  11  21  36  62  89 119 162 208 255 307 367
#     4  12  26  43  64  92 125 164 202 246 304 366
#
# _framework density 19.422546000000001
#
# number of rings (size 3 to 8) (size 9 to 14) (size 15 to 20)
#    0.000    1.500    2.500    2.625    1.750    2.000 
#    0.000    1.875    0.000    0.000    0.000    0.000 
#    0.000    0.000    0.000    0.000    0.000    0.000 
#
# Total GULP energy -178857.199614 kJ/mol
# GULP energy per Si atom -5589.287488 kJ/mol
# Density = 1.937834 g / cm^3
# Si number density = 19.422546 Si / 1000 Ang^3
#
#
#
# Elastic Constant Matrix: (Units=GPa)
#
#
# Indices 1 2 3 4 5 6 
#
# 1 91.3889 23.2058 60.4130 0.0000 -22.2536 0.0000
# 2 23.2058 30.4589 35.1397 0.0000 -6.6572 0.0000
# 3 60.4130 35.1397 158.6014 0.0000 -18.4422 0.0000
# 4 0.0000 0.0000 0.0000 24.7375 0.0000 -2.0662
# 5 -22.2536 -6.6572 -18.4422 0.0000 36.3225 0.0000
# 6 0.0000 0.0000 0.0000 -2.0662 0.0000 22.4175
#
#
#
# Elastic Compliance Matrix: (Units=1/GPa)
#
#
# Indices 1 2 3 4 5 6 
#
# 1 0.017169 -0.006626 -0.004240 0.000000 0.007152 0.000000
# 2 -0.006626 0.047041 -0.007830 0.000000 0.000587 0.000000
# 3 -0.004240 -0.007830 0.009763 0.000000 0.000924 0.000000
# 4 0.000000 0.000000 0.000000 0.040738 0.000000 0.003755
# 5 0.007152 0.000587 0.000924 0.000000 0.032489 0.000000
# 6 0.000000 0.000000 0.000000 0.003755 0.000000 0.044954
#
#
# Mechanical properties :
#
#
# Convention : Reuss Voigt Hill
#
# Bulk Modulus (GPa) = 27.33734 57.55180 42.44457
# Shear Modulus (GPa) = 20.68334 27.47488 24.07911
#
# Velocity S-wave (km/s) = 3.26684 3.76518 3.52483
# Velocity P-wave (km/s) = 5.32309 6.97122 6.20214
#
# Compressibility (1/GPa) = 0.03658001
#
# Stress axis : x y z
#
# Youngs Moduli (GPa) = 58.24370 21.25807 102.43148
#
# Poissons Ratio (x) = 0.14085 0.43435
# Poissons Ratio (y) = 0.38590 0.80208
# Poissons Ratio (z) = 0.24697 0.16646
#
# Static dielectric constant tensor:
#      x y z
#    x 1.668490 0.000000 -0.001040 
#    y 0.000000 1.660010 0.000000 
#    z -0.001040 0.000000 1.672400 
# 
# From -- ./inp_files/49390.got.cif
#   From: 2010.05.17/outbox.cif.g08.bks.cpg/sg11_25_cif.got.tgz:49390.got - 2010.06.03 12:22:45.
