data_PCOD9162710
_publ_section_title
;
Structure prediction by ZEFSAII (Michael W. Deem and Ramdas Pophale) SiO2 
 PCOD9162710
Probable space group: P 21/M
;
_chemical_formula_sum "Si O2"
_cell_formula_units_Z 28
_cell_length_a 25.478681
_cell_length_b 8.819557
_cell_length_c 9.531462
_cell_angle_alpha 90.000000
_cell_angle_beta 139.441250
_cell_angle_gamma 90.000000
_cell_volume 1392.670923
_symmetry_space_group_name_H-M "P 21/M"
_symmetry_group_IT_number 11
_symmetry_cell_setting 'monoclinic'
loop_
_space_group_symop_operation_xyz
x,y,z
-x,1/2+y,-z
-x,-y,-z
x,1/2-y,z
loop_
_atom_site_type_symbol
_atom_site_label
_atom_site_fract_x
_atom_site_fract_y
_atom_site_fract_z
Si Si1 0.831567 0.575302 0.458599
Si Si2 0.917529 0.429037 0.391599
Si Si3 0.073744 0.076624 0.073110
Si Si4 0.347775 0.433892 0.530252
Si Si5 0.180882 0.065496 0.044246
Si Si6 0.651010 0.934160 0.140828
Si Si7 0.503962 0.067305 0.664510
O O1 0.838900 0.750000 0.424660
O O2 0.896498 0.477379 0.506910
O O3 0.853241 0.575400 0.666948
O O4 0.739207 0.525016 0.259458
O O5 0.922572 0.250000 0.388683
O O6 0.000000 0.500000 0.500000
O O7 0.842155 0.496037 0.150803
O O8 0.051203 0.250000 0.999361
O O9 0.109199 0.011663 0.002389
O O10 0.000000 0.000000 0.000000
O O11 0.345361 0.250000 0.529597
O O12 0.265768 0.481258 0.284581
O O13 0.353693 0.482941 0.704863
O O14 0.425071 0.477992 0.595027
O O15 0.179396 0.250000 0.034376
O O16 0.645269 0.750000 0.125525
O O17 0.581203 0.005968 0.905663
O O18 0.506105 0.250000 0.660974
O O19 0.500000 0.000000 0.500000
#
# Coordination Sequence:
#
# PCOD9162710 Si02
#       7
#     4   4   4   4   4   4   4
#     4  10  21  39  63  89 119 157 200 247 304 364
#     4  12  26  42  59  86 122 163 207 253 303 359
#     4  10  20  35  59  88 117 150 194 246 295 355
#     4   9  19  39  66  91 119 159 204 245 300 365
#     4  10  20  39  64  89 117 157 204 249 299 359
#     4  10  20  40  67  92 120 159 202 247 302 365
#     4  11  24  40  61  93 128 163 202 248 299 357
#
# _framework density 20.105252
#
# number of rings (size 3 to 8) (size 9 to 14) (size 15 to 20)
#    0.000    1.714    1.429    3.000    2.000    4.000 
#    0.000    2.143    0.000    0.000    0.000    0.000 
#    0.000    0.000    0.000    0.000    0.000    0.000 
#
# Total GULP energy -156413.002668 kJ/mol
# GULP energy per Si atom -5586.178667 kJ/mol
# Density = 2.005949 g / cm^3
# Si number density = 20.105252 Si / 1000 Ang^3
#
#
#
# Elastic Constant Matrix: (Units=GPa)
#
#
# Indices 1 2 3 4 5 6 
#
# 1 98.2958 29.1459 27.8399 0.0000 6.0191 0.0000
# 2 29.1459 44.0659 20.4879 0.0000 3.9051 0.0000
# 3 27.8399 20.4879 104.0487 0.0000 3.1214 0.0000
# 4 0.0000 0.0000 0.0000 29.4340 0.0000 0.5718
# 5 6.0191 3.9051 3.1214 0.0000 37.7048 0.0000
# 6 0.0000 0.0000 0.0000 0.5718 0.0000 28.0651
#
#
#
# Elastic Compliance Matrix: (Units=1/GPa)
#
#
# Indices 1 2 3 4 5 6 
#
# 1 0.013059 -0.007626 -0.001958 0.000000 -0.001133 0.000000
# 2 -0.007626 0.029615 -0.003745 0.000000 -0.001540 0.000000
# 3 -0.001958 -0.003745 0.010878 0.000000 -0.000200 0.000000
# 4 0.000000 0.000000 0.000000 0.033988 0.000000 -0.000692
# 5 -0.001133 -0.001540 -0.000200 0.000000 0.026879 0.000000
# 6 0.000000 0.000000 0.000000 -0.000692 0.000000 0.035646
#
#
# Mechanical properties :
#
#
# Convention : Reuss Voigt Hill
#
# Bulk Modulus (GPa) = 37.18422 44.59531 40.88976
# Shear Modulus (GPa) = 26.92704 30.30324 28.61514
#
# Velocity S-wave (km/s) = 3.66362 3.88652 3.77671
# Velocity P-wave (km/s) = 6.03582 6.50916 6.27695
#
# Compressibility (1/GPa) = 0.02689313
#
# Stress axis : x y z
#
# Youngs Moduli (GPa) = 76.57732 33.76674 91.92672
#
# Poissons Ratio (x) = 0.25752 0.18003
# Poissons Ratio (y) = 0.58400 0.34423
# Poissons Ratio (z) = 0.14997 0.12644
#
# Static dielectric constant tensor:
#      x y z
#    x 1.699650 0.000000 0.004420 
#    y 0.000000 1.689400 0.000000 
#    z 0.004420 0.000000 1.709770 
# 
# From -- ./inp_files/28559.got.cif
#   From: 2010.05.17/outbox.cif.g08.bks.cpg/sg11_15_cif.got.tgz:28559.got - 2010.06.03 12:22:45.
