data_PCOD9162942
_publ_section_title
;
Structure prediction by ZEFSAII (Michael W. Deem and Ramdas Pophale) SiO2 
 PCOD9162942
Probable space group: P 21/M
;
_chemical_formula_sum "Si O2"
_cell_formula_units_Z 32
_cell_length_a 23.870608
_cell_length_b 8.255015
_cell_length_c 14.789781
_cell_angle_alpha 90.000000
_cell_angle_beta 144.378999
_cell_angle_gamma 90.000000
_cell_volume 1697.383939
_symmetry_space_group_name_H-M "P 21/M"
_symmetry_group_IT_number 11
_symmetry_cell_setting 'monoclinic'
loop_
_space_group_symop_operation_xyz
x,y,z
-x,1/2+y,-z
-x,-y,-z
x,1/2-y,z
loop_
_atom_site_type_symbol
_atom_site_label
_atom_site_fract_x
_atom_site_fract_y
_atom_site_fract_z
Si Si1 0.516078 0.937213 0.122760
Si Si2 0.623261 0.942485 0.755794
Si Si3 0.996572 0.555520 0.390684
Si Si4 0.318800 0.064242 0.879832
Si Si5 0.595855 0.052747 0.516114
Si Si6 0.791451 0.437748 0.101609
Si Si7 0.306667 0.940011 0.534619
Si Si8 0.807076 0.053399 0.448868
O O1 0.544729 0.750000 0.160496
O O2 0.596192 0.038829 0.279465
O O3 0.500000 0.000000 0.000000
O O4 0.411143 0.960023 0.028537
O O5 0.633337 0.750000 0.783754
O O6 0.516155 0.991013 0.649131
O O7 0.623182 0.982397 0.649241
O O8 0.710734 0.029270 0.920757
O O9 0.994968 0.750000 0.388040
O O10 0.899271 0.488440 0.218546
O O11 0.000000 0.500000 0.500000
O O12 0.090898 0.501735 0.458736
O O13 0.349277 0.250000 0.914037
O O14 0.238654 0.041365 0.850637
O O15 0.274128 0.007228 0.726990
O O16 0.598827 0.250000 0.524643
O O17 0.665528 0.993441 0.527364
O O18 0.791227 0.250000 0.127692
O O19 0.287247 0.750000 0.495958
O O20 0.222165 0.004414 0.488961
O O21 0.804551 0.250000 0.445340
#
# Coordination Sequence:
#
# PCOD9162942 Si02
#       8
#     4   4   4   4   4   4   4   4
#     4  12  23  34  49  74 110 150 190 229 273 329
#     4  10  20  36  59  87 117 148 186 232 282 340
#     4  11  22  37  57  82 113 149 193 239 289 343
#     4  12  23  35  53  77 109 148 188 232 280 337
#     4   9  19  36  59  86 116 149 184 227 283 343
#     4  12  24  38  58  83 113 148 189 239 291 343
#     4  10  20  36  57  80 111 150 191 232 280 338
#     4  10  21  36  55  78 109 148 189 232 279 334
#
# _framework density 18.852540000000001
#
# number of rings (size 3 to 8) (size 9 to 14) (size 15 to 20)
#    0.000    1.250    2.500    4.875    0.000    2.500 
#    0.000    0.000    0.000    0.750    0.000    0.000 
#    0.000    0.000    0.000    0.000    0.000    0.000 
#
# Total GULP energy -178760.721774 kJ/mol
# GULP energy per Si atom -5586.272555 kJ/mol
# Density = 1.880963 g / cm^3
# Si number density = 18.852540 Si / 1000 Ang^3
#
#
#
# Elastic Constant Matrix: (Units=GPa)
#
#
# Indices 1 2 3 4 5 6 
#
# 1 135.1007 6.6021 29.3465 0.0000 10.9378 0.0000
# 2 6.6021 31.6203 7.8204 0.0000 2.6241 0.0000
# 3 29.3465 7.8204 60.0495 0.0000 9.7627 0.0000
# 4 0.0000 0.0000 0.0000 24.4340 0.0000 -0.5375
# 5 10.9378 2.6241 9.7627 0.0000 26.8478 0.0000
# 6 0.0000 0.0000 0.0000 -0.5375 0.0000 20.5641
#
#
#
# Elastic Compliance Matrix: (Units=1/GPa)
#
#
# Indices 1 2 3 4 5 6 
#
# 1 0.008399 -0.000674 -0.003690 0.000000 -0.002014 0.000000
# 2 -0.000674 0.032809 -0.003685 0.000000 -0.001592 0.000000
# 3 -0.003690 -0.003685 0.019804 0.000000 -0.005338 0.000000
# 4 0.000000 0.000000 0.000000 0.040950 0.000000 0.001070
# 5 -0.002014 -0.001592 -0.005338 0.000000 0.040164 0.000000
# 6 0.000000 0.000000 0.000000 0.001070 0.000000 0.048656
#
#
# Mechanical properties :
#
#
# Convention : Reuss Voigt Hill
#
# Bulk Modulus (GPa) = 22.26369 34.92316 28.59342
# Shear Modulus (GPa) = 22.53756 26.56926 24.55341
#
# Velocity S-wave (km/s) = 3.46130 3.75816 3.61278
# Velocity P-wave (km/s) = 5.27344 6.11525 5.70988
#
# Compressibility (1/GPa) = 0.04491619
#
# Stress axis : x y z
#
# Youngs Moduli (GPa) = 119.05682 30.47907 50.49553
#
# Poissons Ratio (x) = 0.02054 0.18630
# Poissons Ratio (y) = 0.08025 0.18605
# Poissons Ratio (z) = 0.43926 0.11230
#
# Static dielectric constant tensor:
#      x y z
#    x 1.713340 0.000000 0.023250 
#    y 0.000000 1.621950 0.000000 
#    z 0.023250 0.000000 1.621060 
# 
# From -- ./inp_files/55712.got.cif
#   From: 2010.05.17/outbox.cif.g08.bks.cpg/sg11_28_cif.got.tgz:55712.got - 2010.06.03 12:22:45.
