data_PCOD9162325
_publ_section_title
;
Structure prediction by ZEFSAII (Michael W. Deem and Ramdas Pophale) SiO2 
 PCOD9162325
Probable space group: P 21/M
;
_chemical_formula_sum "Si O2"
_cell_formula_units_Z 32
_cell_length_a 9.908122
_cell_length_b 10.455495
_cell_length_c 16.395642
_cell_angle_alpha 90.000000
_cell_angle_beta 81.689792
_cell_angle_gamma 90.000000
_cell_volume 1680.661275
_symmetry_space_group_name_H-M "P 21/M"
_symmetry_group_IT_number 11
_symmetry_cell_setting 'monoclinic'
loop_
_space_group_symop_operation_xyz
x,y,z
-x,1/2+y,-z
-x,-y,-z
x,1/2-y,z
loop_
_atom_site_type_symbol
_atom_site_label
_atom_site_fract_x
_atom_site_fract_y
_atom_site_fract_z
Si Si1 0.245153 0.396897 0.086659
Si Si2 0.978057 0.599532 0.669279
Si Si3 0.819191 0.103083 0.474202
Si Si4 0.309620 0.491884 0.348890
Si Si5 0.596688 0.105770 0.820058
Si Si6 0.716253 0.897857 0.108149
Si Si7 0.933041 0.097327 0.159730
Si Si8 0.462872 0.890848 0.567029
O O1 0.270915 0.250000 0.112250
O O2 0.322435 0.500063 0.135089
O O3 0.081604 0.415891 0.104739
O O4 0.291953 0.408367 0.989120
O O5 0.006442 0.750000 0.663343
O O6 0.816399 0.582228 0.680150
O O7 0.052076 0.541966 0.583047
O O8 0.039879 0.555247 0.749101
O O9 0.848924 0.250000 0.494290
O O10 0.754897 0.041780 0.560474
O O11 0.700352 0.103299 0.415002
O O12 0.356818 0.593753 0.277997
O O13 0.444451 0.413383 0.362282
O O14 0.624760 0.250000 0.847413
O O15 0.434805 0.083341 0.842297
O O16 0.759150 0.750000 0.122673
O O17 0.821065 0.004226 0.131095
O O18 0.897412 0.250000 0.159988
O O19 0.496368 0.750000 0.530615
O O20 0.500000 0.000000 0.500000
#
# Coordination Sequence:
#
# PCOD9162325 Si02
#       8
#     4   4   4   4   4   4   4   4
#     4  10  21  41  65  89 118 152 196 245 296 354
#     4  10  20  35  55  81 115 147 193 245 283 333
#     4   9  19  35  54  78 110 149 191 238 283 336
#     4  11  20  35  56  81 115 153 196 233 291 342
#     4  11  24  39  59  89 124 157 195 243 295 352
#     4  10  23  41  61  88 121 156 194 242 297 354
#     4  10  21  38  61  90 118 152 195 244 293 346
#     4   9  19  34  56  81 108 146 190 235 288 343
#
# _framework density 19.040125
#
# number of rings (size 3 to 8) (size 9 to 14) (size 15 to 20)
#    0.000    2.000    1.250    1.875    1.750    2.500 
#    0.000    0.000    0.000    1.500    0.000    0.000 
#    0.000    0.000    0.000    0.000    0.000    0.000 
#
# Total GULP energy -178291.941516 kJ/mol
# GULP energy per Si atom -5571.623172 kJ/mol
# Density = 1.899679 g / cm^3
# Si number density = 19.040125 Si / 1000 Ang^3
#
#
#
# Elastic Constant Matrix: (Units=GPa)
#
#
# Indices 1 2 3 4 5 6 
#
# 1 87.6232 50.6889 33.7025 0.0000 0.8544 0.0000
# 2 50.6889 93.0429 20.7526 0.0000 16.2171 0.0000
# 3 33.7025 20.7526 75.5526 0.0000 -10.4867 0.0000
# 4 0.0000 0.0000 0.0000 21.8182 0.0000 3.1994
# 5 0.8544 16.2171 -10.4867 0.0000 34.5622 0.0000
# 6 0.0000 0.0000 0.0000 3.1994 0.0000 30.8714
#
#
#
# Elastic Compliance Matrix: (Units=1/GPa)
#
#
# Indices 1 2 3 4 5 6 
#
# 1 0.019045 -0.009542 -0.005553 0.000000 0.002322 0.000000
# 2 -0.009542 0.017882 -0.001866 0.000000 -0.008721 0.000000
# 3 -0.005553 -0.001866 0.017085 0.000000 0.006197 0.000000
# 4 0.000000 0.000000 0.000000 0.046541 0.000000 -0.004823
# 5 0.002322 -0.008721 0.006197 0.000000 0.034848 0.000000
# 6 0.000000 0.000000 0.000000 -0.004823 0.000000 0.032892
#
#
# Mechanical properties :
#
#
# Convention : Reuss Voigt Hill
#
# Bulk Modulus (GPa) = 49.77038 51.83408 50.80223
# Shear Modulus (GPa) = 23.93348 27.52201 25.72774
#
# Velocity S-wave (km/s) = 3.54927 3.80606 3.67991
# Velocity P-wave (km/s) = 6.55690 6.82624 6.69292
#
# Compressibility (1/GPa) = 0.02009227
#
# Stress axis : x y z
#
# Youngs Moduli (GPa) = 52.50594 55.92118 58.52976
#
# Poissons Ratio (x) = 0.53360 0.32499
# Poissons Ratio (y) = 0.50101 0.10921
# Poissons Ratio (z) = 0.29154 0.10434
#
# Static dielectric constant tensor:
#      x y z
#    x 1.675250 0.000000 -0.006460 
#    y 0.000000 1.656780 0.000000 
#    z -0.006460 0.000000 1.689760 
# 
# From -- ./inp_files/47191.got.cif
#   From: 2010.05.17/outbox.cif.g08.bks.cpg/sg11_24_cif.got.tgz:47191.got - 2010.06.03 12:22:45.
