data_PCOD9162367
_publ_section_title
;
Structure prediction by ZEFSAII (Michael W. Deem and Ramdas Pophale) SiO2 
 PCOD9162367
Probable space group: P 21/M
;
_chemical_formula_sum "Si O2"
_cell_formula_units_Z 32
_cell_length_a 6.436046
_cell_length_b 9.370770
_cell_length_c 26.335011
_cell_angle_alpha 90.000000
_cell_angle_beta 108.984363
_cell_angle_gamma 90.000000
_cell_volume 1501.892267
_symmetry_space_group_name_H-M "P 21/M"
_symmetry_group_IT_number 11
_symmetry_cell_setting 'monoclinic'
loop_
_space_group_symop_operation_xyz
x,y,z
-x,1/2+y,-z
-x,-y,-z
x,1/2-y,z
loop_
_atom_site_type_symbol
_atom_site_label
_atom_site_fract_x
_atom_site_fract_y
_atom_site_fract_z
Si Si1 0.676432 0.912075 0.602410
Si Si2 0.676432 0.087925 0.102410
Si Si3 0.083482 0.087610 0.958335
Si Si4 0.083483 0.912390 0.458335
Si Si5 0.347973 0.911653 0.146792
Si Si6 0.652028 0.588347 0.353208
Si Si7 0.892296 0.412340 0.293473
Si Si8 0.892296 0.587660 0.793473
O O1 0.604612 0.750000 0.585941
O O2 0.906713 0.903291 0.650915
O O3 0.510978 0.993223 0.626380
O O4 0.725577 0.003063 0.555965
O O5 0.604612 0.250000 0.085941
O O6 0.906713 0.096709 0.150915
O O7 0.725577 0.996937 0.055965
O O8 0.510978 0.006777 0.126380
O O9 0.146132 0.250000 0.976433
O O10 0.877437 0.095858 0.903432
O O11 0.000000 0.000000 0.000000
O O12 0.146133 0.750000 0.476433
O O13 0.877437 0.904141 0.403432
O O14 0.000000 0.000000 0.500000
O O15 0.430316 0.750000 0.160161
O O16 0.287988 0.988566 0.194734
O O17 0.569685 0.750000 0.339839
O O18 0.712013 0.511434 0.305266
O O19 0.810793 0.250000 0.277823
O O20 1.000000 0.467199 0.250000
O O21 0.810792 0.750000 0.777823
#
# Coordination Sequence:
#
# PCOD9162367 Si02
#       8
#     4   4   4   4   4   4   4   4
#     4  10  20  35  56  79 105 139 176 215 259 307
#     4  10  20  35  56  79 105 139 176 215 259 307
#     4  10  21  37  56  78 105 137 174 216 261 309
#     4  10  21  37  56  78 105 137 174 216 261 309
#     4  10  21  36  54  78 108 139 172 214 262 311
#     4  10  21  36  54  78 108 139 172 214 262 311
#     4   9  19  36  56  78 105 138 177 218 258 304
#     4   9  19  36  56  78 105 138 177 218 258 304
#
# _framework density 21.306457000000002
#
# number of rings (size 3 to 8) (size 9 to 14) (size 15 to 20)
#    0.000    2.250    0.000    2.250    0.000    6.500 
#    0.000    5.000    0.000    0.000    0.000    0.000 
#    0.000    0.000    0.000    0.000    0.000    0.000 
#
# Total GULP energy -178789.759603 kJ/mol
# GULP energy per Si atom -5587.179988 kJ/mol
# Density = 2.125796 g / cm^3
# Si number density = 21.306457 Si / 1000 Ang^3
#
#
#
# Elastic Constant Matrix: (Units=GPa)
#
#
# Indices 1 2 3 4 5 6 
#
# 1 88.9205 85.7620 32.5455 0.0000 -48.0149 0.0000
# 2 85.7620 224.8546 65.9453 0.0000 -70.6250 0.0000
# 3 32.5455 65.9453 98.2985 0.0000 -51.2650 0.0000
# 4 0.0000 0.0000 0.0000 27.3931 0.0000 -14.4752
# 5 -48.0149 -70.6250 -51.2650 0.0000 68.2665 0.0000
# 6 0.0000 0.0000 0.0000 -14.4752 0.0000 27.3262
#
#
#
# Elastic Compliance Matrix: (Units=1/GPa)
#
#
# Indices 1 2 3 4 5 6 
#
# 1 0.021819 -0.005396 0.002446 0.000000 0.011601 0.000000
# 2 -0.005396 0.008046 -0.002054 0.000000 0.002986 0.000000
# 3 0.002446 -0.002054 0.017309 0.000000 0.012594 0.000000
# 4 0.000000 0.000000 0.000000 0.050696 0.000000 0.026855
# 5 0.011601 0.002986 0.012594 0.000000 0.035355 0.000000
# 6 0.000000 0.000000 0.000000 0.026855 0.000000 0.050820
#
#
# Mechanical properties :
#
#
# Convention : Reuss Voigt Hill
#
# Bulk Modulus (GPa) = 26.90546 86.73102 56.81824
# Shear Modulus (GPa) = 24.22002 39.78523 32.00262
#
# Velocity S-wave (km/s) = 3.37522 4.32590 3.87979
# Velocity P-wave (km/s) = 5.27681 8.10839 6.84072
#
# Compressibility (1/GPa) = 0.03716718
#
# Stress axis : x y z
#
# Youngs Moduli (GPa) = 45.83170 124.29297 57.77310
#
# Poissons Ratio (x) = 0.67062 -0.14131
# Poissons Ratio (y) = 0.24729 0.11864
# Poissons Ratio (z) = -0.11210 0.25525
#
# Static dielectric constant tensor:
#      x y z
#    x 1.757390 0.000000 0.041250 
#    y 0.000000 1.767350 0.000000 
#    z 0.041250 0.000000 1.767060 
# 
# From -- ./inp_files/72595.got.cif
#   From: 2010.05.17/outbox.cif.g08.bks.cpg/sg11_37_cif.got.tgz:72595.got - 2010.06.03 12:22:45.
