data_PCOD9162708
_publ_section_title
;
Structure prediction by ZEFSAII (Michael W. Deem and Ramdas Pophale) SiO2 
 PCOD9162708
Probable space group: P 21/M
;
_chemical_formula_sum "Si O2"
_cell_formula_units_Z 32
_cell_length_a 29.347466
_cell_length_b 8.930960
_cell_length_c 11.824519
_cell_angle_alpha 90.000000
_cell_angle_beta 148.030797
_cell_angle_gamma 90.000000
_cell_volume 1640.922774
_symmetry_space_group_name_H-M "P 21/M"
_symmetry_group_IT_number 11
_symmetry_cell_setting 'monoclinic'
loop_
_space_group_symop_operation_xyz
x,y,z
-x,1/2+y,-z
-x,-y,-z
x,1/2-y,z
loop_
_atom_site_type_symbol
_atom_site_label
_atom_site_fract_x
_atom_site_fract_y
_atom_site_fract_z
Si Si1 0.529804 0.574777 0.882320
Si Si2 0.030664 0.569887 0.890516
Si Si3 0.346253 0.427719 0.479762
Si Si4 0.300337 0.429447 0.631411
Si Si5 0.922970 0.069208 0.265886
Si Si6 0.729708 0.070815 0.905716
Si Si7 0.127527 0.928731 0.326190
Si Si8 0.582142 0.924120 0.732392
O O1 0.508005 0.750000 0.858589
O O2 0.444702 0.475995 0.707125
O O3 0.567984 0.566204 0.836340
O O4 0.605528 0.526464 0.125666
O O5 0.022621 0.750000 0.874733
O O6 0.938129 0.497753 0.721540
O O7 0.067646 0.525041 0.846506
O O8 0.090313 0.528080 0.123277
O O9 0.341175 0.250000 0.449005
O O10 0.295766 0.464189 0.488675
O O11 0.309865 0.516141 0.296456
O O12 0.293578 0.250000 0.631480
O O13 0.223357 0.508243 0.534938
O O14 0.927955 0.250000 0.281063
O O15 0.829572 0.024498 0.117032
O O16 0.000000 0.000000 0.500000
O O17 0.725034 0.250000 0.901571
O O18 0.669425 0.001178 0.874771
O O19 0.127033 0.750000 0.333731
O O20 0.584275 0.750000 0.703801
O O21 0.500000 0.000000 0.500000
#
# Coordination Sequence:
#
# PCOD9162708 Si02
#       8
#     4   4   4   4   4   4   4   4
#     4  10  22  39  58  80 114 156 191 233 291 347
#     4   9  19  38  60  82 114 152 189 235 292 347
#     4  11  22  36  59  87 115 149 195 242 285 341
#     4  10  22  38  55  83 120 154 188 231 289 351
#     4  10  23  41  61  86 118 156 196 242 296 350
#     4  11  23  40  62  87 118 156 196 242 296 353
#     4  10  20  35  59  88 113 147 192 237 285 343
#     4  11  22  38  61  87 115 152 198 245 291 343
#
# _framework density 19.501221999999999
#
# number of rings (size 3 to 8) (size 9 to 14) (size 15 to 20)
#    0.000    1.750    1.250    2.625    0.000    6.000 
#    0.000    3.750    0.000    0.000    0.000    0.000 
#    0.000    0.000    0.000    0.000    0.000    0.000 
#
# Total GULP energy -178834.241205 kJ/mol
# GULP energy per Si atom -5588.570038 kJ/mol
# Density = 1.945684 g / cm^3
# Si number density = 19.501222 Si / 1000 Ang^3
#
#
#
# Elastic Constant Matrix: (Units=GPa)
#
#
# Indices 1 2 3 4 5 6 
#
# 1 80.7921 27.0699 16.6930 0.0000 27.7342 0.0000
# 2 27.0699 35.8902 12.5657 0.0000 12.5102 0.0000
# 3 16.6930 12.5657 59.0079 0.0000 25.4103 0.0000
# 4 0.0000 0.0000 0.0000 29.9342 0.0000 3.6559
# 5 27.7342 12.5102 25.4103 0.0000 36.0419 0.0000
# 6 0.0000 0.0000 0.0000 3.6559 0.0000 26.4984
#
#
#
# Elastic Compliance Matrix: (Units=1/GPa)
#
#
# Indices 1 2 3 4 5 6 
#
# 1 0.020322 -0.011529 0.002465 0.000000 -0.013374 0.000000
# 2 -0.011529 0.038585 -0.004320 0.000000 -0.001476 0.000000
# 3 0.002465 -0.004320 0.024900 0.000000 -0.017953 0.000000
# 4 0.000000 0.000000 0.000000 0.033979 0.000000 -0.004688
# 5 -0.013374 -0.001476 -0.017953 0.000000 0.051206 0.000000
# 6 0.000000 0.000000 0.000000 -0.004688 0.000000 0.038385
#
#
# Mechanical properties :
#
#
# Convention : Reuss Voigt Hill
#
# Bulk Modulus (GPa) = 17.53121 32.03859 24.78490
# Shear Modulus (GPa) = 19.75047 26.45235 23.10141
#
# Velocity S-wave (km/s) = 3.18587 3.68699 3.44556
# Velocity P-wave (km/s) = 4.74788 5.88132 5.34473
#
# Compressibility (1/GPa) = 0.05704111
#
# Stress axis : x y z
#
# Youngs Moduli (GPa) = 49.20771 25.91656 40.16007
#
# Poissons Ratio (x) = 0.29879 -0.09901
# Poissons Ratio (y) = 0.56732 0.17347
# Poissons Ratio (z) = -0.12132 0.11195
#
# Static dielectric constant tensor:
#      x y z
#    x 1.681380 0.000000 -0.006790 
#    y 0.000000 1.657840 0.000000 
#    z -0.006790 0.000000 1.668880 
# 
# From -- ./inp_files/45292.got.cif
#   From: 2010.05.17/outbox.cif.g08.bks.cpg/sg11_23_cif.got.tgz:45292.got - 2010.06.03 12:22:45.
