data_PCOD9162061
_publ_section_title
;
Structure prediction by ZEFSAII (Michael W. Deem and Ramdas Pophale) SiO2 
 PCOD9162061
Probable space group: P 21/M
;
_chemical_formula_sum "Si O2"
_cell_formula_units_Z 32
_cell_length_a 30.076606
_cell_length_b 8.915374
_cell_length_c 11.234730
_cell_angle_alpha 90.000000
_cell_angle_beta 145.338872
_cell_angle_gamma 90.000000
_cell_volume 1713.289551
_symmetry_space_group_name_H-M "P 21/M"
_symmetry_group_IT_number 11
_symmetry_cell_setting 'monoclinic'
loop_
_space_group_symop_operation_xyz
x,y,z
-x,1/2+y,-z
-x,-y,-z
x,1/2-y,z
loop_
_atom_site_type_symbol
_atom_site_label
_atom_site_fract_x
_atom_site_fract_y
_atom_site_fract_z
Si Si1 0.880368 0.427979 0.685311
Si Si2 0.812266 0.429129 0.176206
Si Si3 0.583383 0.572429 0.050986
Si Si4 0.044025 0.428943 0.383428
Si Si5 0.104790 0.427151 0.026697
Si Si6 0.282691 0.926062 0.793207
Si Si7 0.741656 0.927036 0.785629
Si Si8 0.596988 0.428477 0.337792
O O1 0.897519 0.250000 0.717216
O O2 0.923452 0.511965 0.672401
O O3 0.901939 0.495399 0.859747
O O4 0.787914 0.447554 0.456383
O O5 0.823706 0.250000 0.198569
O O6 0.894916 0.507714 0.386066
O O7 0.755552 0.462968 0.163650
O O8 0.772490 0.488557 0.969901
O O9 0.589646 0.750000 0.086348
O O10 0.643111 0.521732 0.081222
O O11 0.604707 0.486442 0.219479
O O12 0.492727 0.538590 0.823199
O O13 0.041945 0.250000 0.381915
O O14 0.957636 0.497959 0.199507
O O15 0.088758 0.250000 0.001187
O O16 0.191841 0.447824 0.168428
O O17 0.303371 0.750000 0.838787
O O18 0.735295 0.750000 0.795847
O O19 0.660372 0.991562 0.559276
O O20 0.608833 0.250000 0.367232
#
# Coordination Sequence:
#
# PCOD9162061 Si02
#       8
#     4   4   4   4   4   4   4   4
#     4  10  20  35  55  82 115 147 181 224 277 329
#     4  10  22  41  61  80 108 145 184 228 276 324
#     4  10  20  34  57  88 117 146 181 222 269 323
#     4  11  22  37  58  82 109 144 185 227 274 325
#     4  11  23  37  54  80 112 144 182 228 278 331
#     4   9  19  35  57  83 110 145 184 223 272 328
#     4  11  24  40  59  82 108 143 187 231 274 322
#     4  10  21  37  57  83 117 151 180 219 273 326
#
# _framework density 18.677520000000001
#
# number of rings (size 3 to 8) (size 9 to 14) (size 15 to 20)
#    0.000    1.750    0.000    5.250    0.000    9.000 
#    0.000    0.625    0.000    0.000    0.000    0.000 
#    0.000    0.000    0.000    0.000    0.000    0.000 
#
# Total GULP energy -178863.388164 kJ/mol
# GULP energy per Si atom -5589.480880 kJ/mol
# Density = 1.863501 g / cm^3
# Si number density = 18.677520 Si / 1000 Ang^3
#
#
#
# Elastic Constant Matrix: (Units=GPa)
#
#
# Indices 1 2 3 4 5 6 
#
# 1 15.5104 18.5398 25.5231 0.0000 -3.0792 0.0000
# 2 18.5398 79.5513 46.7728 0.0000 1.8029 0.0000
# 3 25.5231 46.7728 106.9981 0.0000 -11.0637 0.0000
# 4 0.0000 0.0000 0.0000 36.5480 0.0000 -0.4242
# 5 -3.0792 1.8029 -11.0637 0.0000 24.4540 0.0000
# 6 0.0000 0.0000 0.0000 -0.4242 0.0000 28.5909
#
#
#
# Elastic Compliance Matrix: (Units=1/GPa)
#
#
# Indices 1 2 3 4 5 6 
#
# 1 0.118645 -0.015569 -0.020805 0.000000 0.006674 0.000000
# 2 -0.015569 0.019521 -0.005425 0.000000 -0.005854 0.000000
# 3 -0.020805 -0.005425 0.017258 0.000000 0.005588 0.000000
# 4 0.000000 0.000000 0.000000 0.027366 0.000000 0.000406
# 5 0.006674 -0.005854 0.005588 0.000000 0.044693 0.000000
# 6 0.000000 0.000000 0.000000 0.000406 0.000000 0.034982
#
#
# Mechanical properties :
#
#
# Convention : Reuss Voigt Hill
#
# Bulk Modulus (GPa) = 13.92273 42.63681 28.27977
# Shear Modulus (GPa) = 13.51328 25.33351 19.42339
#
# Velocity S-wave (km/s) = 2.69272 3.68688 3.22830
# Velocity P-wave (km/s) = 4.13982 6.40324 5.39164
#
# Compressibility (1/GPa) = 0.07182501
#
# Stress axis : x y z
#
# Youngs Moduli (GPa) = 8.42853 51.22602 57.94395
#
# Poissons Ratio (x) = 0.79756 1.20553
# Poissons Ratio (y) = 0.13123 0.31434
# Poissons Ratio (z) = 0.17536 0.27790
#
# Static dielectric constant tensor:
#      x y z
#    x 1.632410 0.000000 0.017750 
#    y 0.000000 1.620400 0.000000 
#    z 0.017750 0.000000 1.635530 
# 
# From -- ./inp_files/45351.got.cif
#   From: 2010.05.17/outbox.cif.g08.bks.cpg/sg11_23_cif.got.tgz:45351.got - 2010.06.03 12:22:45.
