data_PCOD9162637
_publ_section_title
;
Structure prediction by ZEFSAII (Michael W. Deem and Ramdas Pophale) SiO2 
 PCOD9162637
Probable space group: P 21/M
;
_chemical_formula_sum "Si O2"
_cell_formula_units_Z 28
_cell_length_a 9.727858
_cell_length_b 8.892340
_cell_length_c 27.500942
_cell_angle_alpha 90.000000
_cell_angle_beta 139.103146
_cell_angle_gamma 90.000000
_cell_volume 1557.480922
_symmetry_space_group_name_H-M "P 21/M"
_symmetry_group_IT_number 11
_symmetry_cell_setting 'monoclinic'
loop_
_space_group_symop_operation_xyz
x,y,z
-x,1/2+y,-z
-x,-y,-z
x,1/2-y,z
loop_
_atom_site_type_symbol
_atom_site_label
_atom_site_fract_x
_atom_site_fract_y
_atom_site_fract_z
Si Si1 0.361023 0.070563 0.920510
Si Si2 0.865091 0.074131 0.796355
Si Si3 0.926712 0.566858 0.428592
Si Si4 0.715353 0.418095 0.549412
Si Si5 0.368225 0.925356 0.820244
Si Si6 0.534375 0.430379 0.264307
Si Si7 0.053655 0.582743 0.287251
O O1 0.377319 0.250000 0.925969
O O2 0.113150 0.032351 0.863436
O O3 0.435117 0.010700 0.887397
O O4 0.500000 0.000000 0.000000
O O5 0.847707 0.250000 0.805837
O O6 0.809702 0.061247 0.724267
O O7 0.698639 0.977615 0.781352
O O8 0.914644 0.750000 0.427411
O O9 0.709640 0.506052 0.346485
O O10 0.000000 0.500000 0.500000
O O11 0.112221 0.518648 0.441180
O O12 0.500000 0.500000 0.500000
O O13 0.669315 0.250000 0.519405
O O14 0.819991 0.412067 0.630000
O O15 0.420185 0.750000 0.838832
O O16 0.438197 0.977666 0.785147
O O17 0.119020 0.954998 0.754349
O O18 0.561294 0.250000 0.273788
O O19 0.950185 0.750000 0.253189
#
# Coordination Sequence:
#
# PCOD9162637 Si02
#       7
#     4   4   4   4   4   4   4
#     4  10  21  39  64  92 121 152 189 232 282 340
#     4   9  20  36  58  86 115 150 189 233 284 338
#     4  11  24  41  59  81 113 154 196 243 298 350
#     4  10  22  37  55  79 108 144 189 239 292 345
#     4  10  20  35  58  86 114 149 189 232 280 333
#     4  11  23  38  58  86 118 153 196 241 285 342
#     4   9  18  36  56  78 106 143 191 237 285 340
#
# _framework density 17.977747999999998
#
# number of rings (size 3 to 8) (size 9 to 14) (size 15 to 20)
#    0.000    2.000    1.429    2.571    2.000    6.286 
#    0.000    0.714    0.000    0.000    0.000    0.000 
#    0.000    0.000    0.000    0.000    0.000    0.000 
#
# Total GULP energy -155994.608025 kJ/mol
# GULP energy per Si atom -5571.236001 kJ/mol
# Density = 1.793683 g / cm^3
# Si number density = 17.977748 Si / 1000 Ang^3
#
#
#
# Elastic Constant Matrix: (Units=GPa)
#
#
# Indices 1 2 3 4 5 6 
#
# 1 121.1003 46.9240 65.7443 0.0000 -12.2672 0.0000
# 2 46.9240 53.1464 45.0990 0.0000 -7.9452 0.0000
# 3 65.7443 45.0990 106.3057 0.0000 -23.3060 0.0000
# 4 0.0000 0.0000 0.0000 32.0353 0.0000 1.1430
# 5 -12.2672 -7.9452 -23.3060 0.0000 27.0949 0.0000
# 6 0.0000 0.0000 0.0000 1.1430 0.0000 28.3684
#
#
#
# Elastic Compliance Matrix: (Units=1/GPa)
#
#
# Indices 1 2 3 4 5 6 
#
# 1 0.014339 -0.007984 -0.005633 0.000000 -0.000695 0.000000
# 2 -0.007984 0.033994 -0.009972 0.000000 -0.002223 0.000000
# 3 -0.005633 -0.009972 0.019621 0.000000 0.011403 0.000000
# 4 0.000000 0.000000 0.000000 0.031261 0.000000 -0.001260
# 5 -0.000695 -0.002223 0.011403 0.000000 0.045749 0.000000
# 6 0.000000 0.000000 0.000000 -0.001260 0.000000 0.035301
#
#
# Mechanical properties :
#
#
# Convention : Reuss Voigt Hill
#
# Bulk Modulus (GPa) = 48.13008 66.23189 57.18098
# Shear Modulus (GPa) = 21.33397 25.68539 23.50968
#
# Velocity S-wave (km/s) = 3.44857 3.78396 3.62015
# Velocity P-wave (km/s) = 6.53353 7.48413 7.02492
#
# Compressibility (1/GPa) = 0.02077703
#
# Stress axis : x y z
#
# Youngs Moduli (GPa) = 69.73970 29.41659 50.96627
#
# Poissons Ratio (x) = 0.23486 0.28710
# Poissons Ratio (y) = 0.55680 0.50822
# Poissons Ratio (z) = 0.39285 0.29333
#
# Static dielectric constant tensor:
#      x y z
#    x 1.614570 0.000000 -0.017280 
#    y 0.000000 1.592750 0.000000 
#    z -0.017280 0.000000 1.610180 
# 
# From -- ./inp_files/70899.got.cif
#   From: 2010.05.17/outbox.cif.g08.bks.cpg/sg11_36_cif.got.tgz:70899.got - 2010.06.03 12:22:45.
