data_PCOD9162600
_publ_section_title
;
Structure prediction by ZEFSAII (Michael W. Deem and Ramdas Pophale) SiO2 
 PCOD9162600
Probable space group: P 21/M
;
_chemical_formula_sum "Si O2"
_cell_formula_units_Z 20
_cell_length_a 7.209342
_cell_length_b 14.119976
_cell_length_c 8.620917
_cell_angle_alpha 90.000000
_cell_angle_beta 114.141002
_cell_angle_gamma 90.000000
_cell_volume 800.821614
_symmetry_space_group_name_H-M "P 21/M"
_symmetry_group_IT_number 11
_symmetry_cell_setting 'monoclinic'
loop_
_space_group_symop_operation_xyz
x,y,z
-x,1/2+y,-z
-x,-y,-z
x,1/2-y,z
loop_
_atom_site_type_symbol
_atom_site_label
_atom_site_fract_x
_atom_site_fract_y
_atom_site_fract_z
Si Si1 0.578907 0.614131 0.855373
Si Si2 0.398953 0.093601 0.794536
Si Si3 0.654200 0.647916 0.553480
Si Si4 0.982245 0.007334 0.738835
Si Si5 0.064876 0.641340 0.004430
O O1 0.514913 0.505626 0.833780
O O2 0.510466 0.645869 0.658051
O O3 0.818172 0.636508 0.921123
O O4 0.543879 0.644162 0.022943
O O5 0.444960 0.144867 0.649605
O O6 0.156456 0.067626 0.713115
O O7 0.766805 0.750000 0.600812
O O8 0.800897 0.555455 0.606426
O O9 0.111109 0.926033 0.874442
O O10 0.885123 0.081686 0.825503
O O11 0.128805 0.750000 0.021717
#
# Coordination Sequence:
#
# PCOD9162600 Si02
#       5
#     4   4   4   4   4
#     4   9  19  36  57  78 105 141 183 229 276 327
#     4  10  20  35  58  82 107 145 187 232 279 323
#     4  11  22  37  58  83 114 152 189 224 273 335
#     4   9  18  33  55  82 114 147 183 233 276 321
#     4   9  17  33  58  83 110 150 188 221 276 338
#
# _framework density 24.974350999999999
#
# number of rings (size 3 to 8) (size 9 to 14) (size 15 to 20)
#    0.000    2.400    0.000    4.800    0.000    4.000 
#    0.000    4.000    0.000   48.000    0.000    0.000 
#    0.000    0.000    0.000    0.000    0.000    0.000 
#
# Total GULP energy -111346.172363 kJ/mol
# GULP energy per Si atom -5567.308618 kJ/mol
# Density = 2.491751 g / cm^3
# Si number density = 24.974351 Si / 1000 Ang^3
#
#
#
# Elastic Constant Matrix: (Units=GPa)
#
#
# Indices 1 2 3 4 5 6 
#
# 1 36.9586 -3.6588 11.2837 0.0000 2.0862 0.0000
# 2 -3.6588 129.4170 50.5758 0.0000 -10.6327 0.0000
# 3 11.2837 50.5758 214.6083 0.0000 -55.4876 0.0000
# 4 0.0000 0.0000 0.0000 -4.4249 0.0000 16.4298
# 5 2.0862 -10.6327 -55.4876 0.0000 27.9036 0.0000
# 6 0.0000 0.0000 0.0000 16.4298 0.0000 12.7400
#
#
#
# Elastic Compliance Matrix: (Units=1/GPa)
#
#
# Indices 1 2 3 4 5 6 
#
# 1 0.029349 0.001810 -0.004855 0.000000 -0.011158 0.000000
# 2 0.001810 0.008654 -0.002711 0.000000 -0.002228 0.000000
# 3 -0.004855 -0.002711 0.011074 0.000000 0.021352 0.000000
# 4 0.000000 0.000000 0.000000 -0.039042 0.000000 0.050350
# 5 -0.011158 -0.002228 0.021352 0.000000 0.078282 0.000000
# 6 0.000000 0.000000 0.000000 0.050350 0.000000 0.013560
#
#
# Mechanical properties :
#
#
# Convention : Reuss Voigt Hill
#
# Bulk Modulus (GPa) = 26.61936 55.26504 40.94220
# Shear Modulus (GPa) = 39.71104 28.76263 34.23684
#
# Velocity S-wave (km/s) = 3.99190 3.39733 3.70656
# Velocity P-wave (km/s) = 5.65056 6.12910 5.89469
#
# Compressibility (1/GPa) = 0.03756664
#
# Stress axis : x y z
#
# Youngs Moduli (GPa) = 34.07329 115.54732 90.29924
#
# Poissons Ratio (x) = -0.20916 0.43837
# Poissons Ratio (y) = -0.06168 0.24479
# Poissons Ratio (z) = 0.16541 0.31323
#
# Static dielectric constant tensor:
#      x y z
#    x 2.019830 0.000000 -0.019780 
#    y 0.000000 1.943990 0.000000 
#    z -0.019780 0.000000 2.114900 
# 
# From -- ./inp_files/12386.got.cif
#   From: 2010.05.17/outbox.cif.g08.bks.cpg/sg11_7_cif.got.tgz:12386.got - 2010.06.03 12:22:45.
