data_PCOD9162866
_publ_section_title
;
Structure prediction by ZEFSAII (Michael W. Deem and Ramdas Pophale) SiO2 
 PCOD9162866
Probable space group: P 21/M
;
_chemical_formula_sum "Si O2"
_cell_formula_units_Z 32
_cell_length_a 14.983521
_cell_length_b 21.123975
_cell_length_c 14.959949
_cell_angle_alpha 90.000000
_cell_angle_beta 20.294976
_cell_angle_gamma 90.000000
_cell_volume 1642.349598
_symmetry_space_group_name_H-M "P 21/M"
_symmetry_group_IT_number 11
_symmetry_cell_setting 'monoclinic'
loop_
_space_group_symop_operation_xyz
x,y,z
-x,1/2+y,-z
-x,-y,-z
x,1/2-y,z
loop_
_atom_site_type_symbol
_atom_site_label
_atom_site_fract_x
_atom_site_fract_y
_atom_site_fract_z
Si Si1 0.959851 0.678382 0.513148
Si Si2 0.629641 0.173286 0.195653
Si Si3 0.918146 0.867786 0.363980
Si Si4 0.253041 0.912713 0.752975
Si Si5 0.706224 0.949960 0.196078
Si Si6 0.557696 0.565303 0.130896
Si Si7 0.507106 0.673717 0.060893
Si Si8 0.017675 0.501231 0.591723
O O1 0.973851 0.750000 0.533449
O O2 0.921375 0.679550 0.444387
O O3 0.232831 0.650056 0.282238
O O4 0.717824 0.650503 0.791501
O O5 0.615561 0.250000 0.204683
O O6 0.353157 0.142311 0.430860
O O7 0.709240 0.147110 0.218112
O O8 0.845244 0.147736 0.923721
O O9 0.948027 0.934137 0.388659
O O10 0.478920 0.919435 0.468346
O O11 0.271153 0.976344 0.796674
O O12 0.975643 0.916665 0.966839
O O13 0.640897 0.946287 0.153734
O O14 0.562261 0.639467 0.101635
O O15 0.271962 0.539775 0.381185
O O16 0.759906 0.531185 0.875368
O O17 0.508029 0.750000 0.065141
O O18 0.000000 0.500000 0.500000
#
# Coordination Sequence:
#
# PCOD9162866 Si02
#       8
#     4   4   4   4   4   4   4   4
#     4  10  20  36  56  79 112 157 201 237 279 345
#     4  12  25  41  63  92 126 161 200 253 313 378
#     4  12  23  39  59  87 122 162 204 243 298 365
#     4  10  21  40  60  87 114 145 190 239 298 353
#     4  10  21  38  65  86 110 149 192 241 291 352
#     4  12  23  40  60  89 119 154 205 247 298 362
#     4  10  21  37  57  80 113 152 192 242 291 341
#     4  12  25  39  60  90 128 166 202 256 309 352
#
# _framework density 19.484279999999998
#
# number of rings (size 3 to 8) (size 9 to 14) (size 15 to 20)
#    0.000    1.000    0.000    8.250    0.000    3.000 
#    0.000    1.250    0.000    0.000    0.000    0.000 
#    0.000    0.000    0.000    0.000    0.000    0.000 
#
# Total GULP energy -178756.124260 kJ/mol
# GULP energy per Si atom -5586.128883 kJ/mol
# Density = 1.943993 g / cm^3
# Si number density = 19.484280 Si / 1000 Ang^3
#
#
#
# Elastic Constant Matrix: (Units=GPa)
#
#
# Indices 1 2 3 4 5 6 
#
# 1 82.8433 0.2956 -16.7188 0.0000 -3.1655 0.0000
# 2 0.2956 70.3920 0.1295 0.0000 -1.4858 0.0000
# 3 -16.7188 0.1295 66.9627 0.0000 -15.1137 0.0000
# 4 0.0000 0.0000 0.0000 -157.6132 0.0000 11.3764
# 5 -3.1655 -1.4858 -15.1137 0.0000 32.6635 0.0000
# 6 0.0000 0.0000 0.0000 11.3764 0.0000 35.1240
#
#
#
# Elastic Compliance Matrix: (Units=1/GPa)
#
#
# Indices 1 2 3 4 5 6 
#
# 1 0.012983 0.000003 0.003937 0.000000 0.003080 0.000000
# 2 0.000003 0.014221 0.000133 0.000000 0.000709 0.000000
# 3 0.003937 0.000133 0.017870 0.000000 0.008656 0.000000
# 4 0.000000 0.000000 0.000000 -0.006200 0.000000 0.002008
# 5 0.003080 0.000709 0.008656 0.000000 0.034951 0.000000
# 6 0.000000 0.000000 0.000000 0.002008 0.000000 0.027820
#
#
# Mechanical properties :
#
#
# Convention : Reuss Voigt Hill
#
# Bulk Modulus (GPa) = 18.78974 20.84562 19.81768
# Shear Modulus (GPa) = 44.94810 -2.19901 21.37454
#
# Velocity S-wave (km/s) = 4.80822 -1.06351 3.31571
# Velocity P-wave (km/s) = 6.36316 3.03543 4.98516
#
# Compressibility (1/GPa) = 0.05322052
#
# Stress axis : x y z
#
# Youngs Moduli (GPa) = 77.02302 70.31917 55.95956
#
# Poissons Ratio (x) = -0.00023 -0.22030
# Poissons Ratio (y) = -0.00025 -0.00746
# Poissons Ratio (z) = -0.30322 -0.00937
#
# Static dielectric constant tensor:
#      x y z
#    x 1.639060 0.000000 -0.011700 
#    y 0.000000 1.755810 0.000000 
#    z -0.011700 0.000000 1.685130 
# 
# From -- ./inp_files/52698.got.cif
#   From: 2010.05.17/outbox.cif.g08.bks.cpg/sg11_27_cif.got.tgz:52698.got - 2010.06.03 12:22:45.
