data_PCOD9162636
_publ_section_title
;
Structure prediction by ZEFSAII (Michael W. Deem and Ramdas Pophale) SiO2 
 PCOD9162636
Probable space group: P 21/M
;
_chemical_formula_sum "Si O2"
_cell_formula_units_Z 16
_cell_length_a 6.805015
_cell_length_b 7.595554
_cell_length_c 17.199378
_cell_angle_alpha 90.000000
_cell_angle_beta 135.354223
_cell_angle_gamma 90.000000
_cell_volume 624.718913
_symmetry_space_group_name_H-M "P 21/M"
_symmetry_group_IT_number 11
_symmetry_cell_setting 'monoclinic'
loop_
_space_group_symop_operation_xyz
x,y,z
-x,1/2+y,-z
-x,-y,-z
x,1/2-y,z
loop_
_atom_site_type_symbol
_atom_site_label
_atom_site_fract_x
_atom_site_fract_y
_atom_site_fract_z
Si Si1 0.449758 0.042010 0.290962
Si Si2 0.901140 0.534266 0.236730
Si Si3 0.318611 0.558388 0.084456
Si Si4 0.223058 0.539688 0.472856
O O1 0.487840 0.250000 0.286906
O O2 0.693258 0.973557 0.417811
O O3 0.413788 0.939809 0.201226
O O4 0.154291 0.022253 0.253121
O O5 0.897783 0.750000 0.235801
O O6 0.593678 0.468020 0.125466
O O7 0.982968 0.473038 0.347419
O O8 0.304217 0.750000 0.044071
O O9 0.000000 0.500000 0.000000
O O10 0.500000 0.500000 0.500000
O O11 0.196753 0.750000 0.472171
#
# Coordination Sequence:
#
# PCOD9162636 Si02
#       4
#     4   4   4   4
#     4  10  20  35  58  86 114 143 175 219 274 327
#     4   9  19  37  59  82 110 145 182 221 268 321
#     4  11  24  40  57  78 107 145 189 232 270 316
#     4   8  15  30  53  82 112 139 172 214 264 324
#
# _framework density 25.611519000000001
#
# number of rings (size 3 to 8) (size 9 to 14) (size 15 to 20)
#    0.000    2.500    0.000    1.500    0.000    5.000 
#    0.000    0.000    0.000    0.000    0.000    0.000 
#    0.000    0.000    0.000    0.000    0.000    0.000 
#
# Total GULP energy -89332.555729 kJ/mol
# GULP energy per Si atom -5583.284733 kJ/mol
# Density = 2.555323 g / cm^3
# Si number density = 25.611519 Si / 1000 Ang^3
#
#
#
# Elastic Constant Matrix: (Units=GPa)
#
#
# Indices 1 2 3 4 5 6 
#
# 1 67.0671 2.5414 23.6925 0.0000 21.2850 0.0000
# 2 2.5414 95.2492 5.9572 0.0000 11.3928 0.0000
# 3 23.6925 5.9572 125.2946 0.0000 55.7261 0.0000
# 4 0.0000 0.0000 0.0000 18.2327 0.0000 3.5192
# 5 21.2850 11.3928 55.7261 0.0000 66.0714 0.0000
# 6 0.0000 0.0000 0.0000 3.5192 0.0000 29.4543
#
#
#
# Elastic Compliance Matrix: (Units=1/GPa)
#
#
# Indices 1 2 3 4 5 6 
#
# 1 0.016728 0.000155 -0.001219 0.000000 -0.004387 0.000000
# 2 0.000155 0.010741 0.000490 0.000000 -0.002315 0.000000
# 3 -0.001219 0.000490 0.012885 0.000000 -0.010559 0.000000
# 4 0.000000 0.000000 0.000000 0.056141 0.000000 -0.006708
# 5 -0.004387 -0.002315 -0.010559 0.000000 0.025853 0.000000
# 6 0.000000 0.000000 0.000000 -0.006708 0.000000 0.034752
#
#
# Mechanical properties :
#
#
# Convention : Reuss Voigt Hill
#
# Bulk Modulus (GPa) = 25.50800 39.11034 32.30917
# Shear Modulus (GPa) = 29.18557 39.77967 34.48262
#
# Velocity S-wave (km/s) = 3.37938 3.94533 3.67327
# Velocity P-wave (km/s) = 5.02077 6.00483 5.53472
#
# Compressibility (1/GPa) = 0.03920339
#
# Stress axis : x y z
#
# Youngs Moduli (GPa) = 59.78131 93.10202 77.61201
#
# Poissons Ratio (x) = -0.01440 0.09462
# Poissons Ratio (y) = -0.00925 -0.03800
# Poissons Ratio (z) = 0.07288 -0.04559
#
# Static dielectric constant tensor:
#      x y z
#    x 1.974470 0.000000 0.041450 
#    y 0.000000 1.916560 0.000000 
#    z 0.041450 0.000000 2.058230 
# 
# From -- ./inp_files/3873.got.cif
#   From: 2010.05.17/outbox.cif.g08.bks.cpg/sg11_2_cif.got.tgz:3873.got - 2010.06.03 12:22:45.
