data_PCOD9162566
_publ_section_title
;
Structure prediction by ZEFSAII (Michael W. Deem and Ramdas Pophale) SiO2 
 PCOD9162566
Probable space group: P 21/M
;
_chemical_formula_sum "Si O2"
_cell_formula_units_Z 32
_cell_length_a 13.299406
_cell_length_b 8.513420
_cell_length_c 14.586984
_cell_angle_alpha 90.000000
_cell_angle_beta 85.850052
_cell_angle_gamma 90.000000
_cell_volume 1647.258008
_symmetry_space_group_name_H-M "P 21/M"
_symmetry_group_IT_number 11
_symmetry_cell_setting 'monoclinic'
loop_
_space_group_symop_operation_xyz
x,y,z
-x,1/2+y,-z
-x,-y,-z
x,1/2-y,z
loop_
_atom_site_type_symbol
_atom_site_label
_atom_site_fract_x
_atom_site_fract_y
_atom_site_fract_z
Si Si1 0.201135 0.059393 0.894896
Si Si2 0.400314 0.439736 0.557261
Si Si3 0.041510 0.936230 0.402109
Si Si4 0.602506 0.939425 0.232074
Si Si5 0.994471 0.941709 0.206517
Si Si6 0.205782 0.938292 0.101419
Si Si7 0.614054 0.562519 0.785785
Si Si8 0.736149 0.560854 0.597812
O O1 0.200600 0.250000 0.898843
O O2 0.300059 0.009548 0.831667
O O3 0.099832 0.008102 0.848669
O O4 0.204048 0.994282 0.997038
O O5 0.500000 0.500000 0.500000
O O6 0.403889 0.250000 0.557965
O O7 0.393184 0.495381 0.662401
O O8 0.306776 0.485109 0.498607
O O9 0.030236 0.750000 0.404572
O O10 0.987977 0.994654 0.312609
O O11 0.158548 0.981028 0.387238
O O12 0.000000 0.000000 0.500000
O O13 0.603503 0.750000 0.234021
O O14 0.497250 0.993762 0.195705
O O15 0.994138 0.750000 0.206652
O O16 0.101984 0.991523 0.157526
O O17 0.208444 0.750000 0.105099
O O18 0.303211 0.003013 0.147842
O O19 0.608656 0.750000 0.791105
O O20 0.655646 0.518935 0.681786
O O21 0.749293 0.750000 0.598660
#
# Coordination Sequence:
#
# PCOD9162566 Si02
#       8
#     4   4   4   4   4   4   4   4
#     4  10  22  41  62  87 116 155 199 244 302 358
#     4  10  20  35  57  85 116 155 196 239 287 348
#     4  11  23  39  60  89 124 161 196 240 293 353
#     4  10  22  38  60  87 120 159 200 243 297 359
#     4   9  20  39  64  88 118 156 196 242 296 356
#     4  11  22  40  64  91 117 150 198 249 301 359
#     4  11  22  38  62  89 121 157 198 249 297 349
#     4  10  21  37  58  86 119 156 199 245 293 350
#
# _framework density 19.426224000000001
#
# number of rings (size 3 to 8) (size 9 to 14) (size 15 to 20)
#    0.000    1.750    2.500    1.500    1.750    2.000 
#    0.000    1.875    0.000    0.000    0.000    0.000 
#    0.000    0.000    0.000    0.000    0.000    0.000 
#
# Total GULP energy -178768.450264 kJ/mol
# GULP energy per Si atom -5586.514071 kJ/mol
# Density = 1.938201 g / cm^3
# Si number density = 19.426224 Si / 1000 Ang^3
#
#
#
# Elastic Constant Matrix: (Units=GPa)
#
#
# Indices 1 2 3 4 5 6 
#
# 1 114.4589 15.4713 79.6109 0.0000 19.8915 0.0000
# 2 15.4713 8.4431 20.1943 0.0000 0.5696 0.0000
# 3 79.6109 20.1943 162.5358 0.0000 12.0563 0.0000
# 4 0.0000 0.0000 0.0000 27.1811 0.0000 -3.0382
# 5 19.8915 0.5696 12.0563 0.0000 34.9722 0.0000
# 6 0.0000 0.0000 0.0000 -3.0382 0.0000 18.5054
#
#
#
# Elastic Compliance Matrix: (Units=1/GPa)
#
#
# Indices 1 2 3 4 5 6 
#
# 1 0.015696 -0.015834 -0.005211 0.000000 -0.006873 0.000000
# 2 -0.015834 0.185214 -0.016112 0.000000 0.011544 0.000000
# 3 -0.005211 -0.016112 0.010742 0.000000 -0.000477 0.000000
# 4 0.000000 0.000000 0.000000 0.037478 0.000000 0.006153
# 5 -0.006873 0.011544 -0.000477 0.000000 0.032480 0.000000
# 6 0.000000 0.000000 0.000000 0.006153 0.000000 0.055048
#
#
# Mechanical properties :
#
#
# Convention : Reuss Voigt Hill
#
# Bulk Modulus (GPa) = 7.28139 57.33230 32.30685
# Shear Modulus (GPa) = 10.94686 27.47585 19.21136
#
# Velocity S-wave (km/s) = 2.37641 3.76489 3.14815
# Velocity P-wave (km/s) = 3.35948 6.96248 5.46636
#
# Compressibility (1/GPa) = 0.13733635
#
# Stress axis : x y z
#
# Youngs Moduli (GPa) = 63.71120 5.39917 93.09262
#
# Poissons Ratio (x) = 0.08549 0.48508
# Poissons Ratio (y) = 1.00883 1.49995
# Poissons Ratio (z) = 0.33198 0.08699
#
# Static dielectric constant tensor:
#      x y z
#    x 1.659020 0.000000 0.001650 
#    y 0.000000 1.684150 0.000000 
#    z 0.001650 0.000000 1.675630 
# 
# From -- ./inp_files/49355.got.cif
#   From: 2010.05.17/outbox.cif.g08.bks.cpg/sg11_25_cif.got.tgz:49355.got - 2010.06.03 12:22:45.
