data_PCOD9162969
_publ_section_title
;
Structure prediction by ZEFSAII (Michael W. Deem and Ramdas Pophale) SiO2 
 PCOD9162969
Probable space group: P 21/M
;
_chemical_formula_sum "Si O2"
_cell_formula_units_Z 28
_cell_length_a 14.087764
_cell_length_b 9.195357
_cell_length_c 17.322432
_cell_angle_alpha 90.000000
_cell_angle_beta 41.058342
_cell_angle_gamma 90.000000
_cell_volume 1473.908907
_symmetry_space_group_name_H-M "P 21/M"
_symmetry_group_IT_number 11
_symmetry_cell_setting 'monoclinic'
loop_
_space_group_symop_operation_xyz
x,y,z
-x,1/2+y,-z
-x,-y,-z
x,1/2-y,z
loop_
_atom_site_type_symbol
_atom_site_label
_atom_site_fract_x
_atom_site_fract_y
_atom_site_fract_z
Si Si1 0.055507 0.425704 0.209774
Si Si2 0.488038 0.420363 0.425865
Si Si3 0.069084 0.078189 0.030471
Si Si4 0.598366 0.578201 0.211166
Si Si5 0.331623 0.423969 0.295895
Si Si6 0.829337 0.580605 0.456324
Si Si7 0.348228 0.076538 0.108217
O O1 0.051672 0.250000 0.213523
O O2 0.017270 0.474173 0.146368
O O3 0.218782 0.470187 0.131527
O O4 0.946409 0.487440 0.339682
O O5 0.500000 0.500000 0.500000
O O6 0.525338 0.250000 0.409541
O O7 0.585198 0.499047 0.301807
O O8 0.324195 0.430445 0.494073
O O9 0.038296 0.250000 0.043731
O O10 0.242060 0.059936 0.920487
O O11 0.000000 0.000000 0.000000
O O12 0.569949 0.750000 0.237541
O O13 0.476820 0.507006 0.231602
O O14 0.355266 0.250000 0.291884
O O15 0.207537 0.465295 0.433299
O O16 0.299658 0.451263 0.226284
O O17 0.872867 0.750000 0.429644
O O18 0.367936 0.250000 0.087321
O O19 0.500000 0.000000 0.000000
#
# Coordination Sequence:
#
# PCOD9162969 Si02
#       7
#     4   4   4   4   4   4   4
#     4  10  22  39  57  83 116 149 188 239 290 340
#     4  10  21  36  56  82 113 148 190 239 287 339
#     4  10  23  39  55  78 110 148 189 235 288 343
#     4  10  20  36  57  82 111 144 188 238 285 339
#     4   9  19  37  59  84 115 151 187 230 286 343
#     4   9  20  37  55  80 115 150 188 232 279 339
#     4  10  21  38  61  87 117 150 190 237 287 343
#
# _framework density 18.997102999999999
#
# number of rings (size 3 to 8) (size 9 to 14) (size 15 to 20)
#    0.000    2.286    0.000    2.571    2.000    7.429 
#    0.000    0.000    0.000    0.000    0.000    0.000 
#    0.000    0.000    0.000    0.000    0.000    0.000 
#
# Total GULP energy -156333.394829 kJ/mol
# GULP energy per Si atom -5583.335530 kJ/mol
# Density = 1.895386 g / cm^3
# Si number density = 18.997103 Si / 1000 Ang^3
#
#
#
# Elastic Constant Matrix: (Units=GPa)
#
#
# Indices 1 2 3 4 5 6 
#
# 1 78.3914 31.1695 40.7024 0.0000 23.3023 0.0000
# 2 31.1695 44.6869 40.0156 0.0000 7.0977 0.0000
# 3 40.7024 40.0156 96.7207 0.0000 13.0289 0.0000
# 4 0.0000 0.0000 0.0000 35.7304 0.0000 -1.9380
# 5 23.3023 7.0977 13.0289 0.0000 22.4092 0.0000
# 6 0.0000 0.0000 0.0000 -1.9380 0.0000 26.4572
#
#
#
# Elastic Compliance Matrix: (Units=1/GPa)
#
#
# Indices 1 2 3 4 5 6 
#
# 1 0.025010 -0.011488 -0.002993 0.000000 -0.020628 0.000000
# 2 -0.011488 0.041003 -0.013008 0.000000 0.006522 0.000000
# 3 -0.002993 -0.013008 0.017366 0.000000 -0.002864 0.000000
# 4 0.000000 0.000000 0.000000 0.028099 0.000000 0.002058
# 5 -0.020628 0.006522 -0.002864 0.000000 0.065674 0.000000
# 6 0.000000 0.000000 0.000000 0.002058 0.000000 0.037948
#
#
# Mechanical properties :
#
#
# Convention : Reuss Voigt Hill
#
# Bulk Modulus (GPa) = 35.21011 49.28600 42.24805
# Shear Modulus (GPa) = 17.88608 24.11347 20.99977
#
# Velocity S-wave (km/s) = 3.07174 3.56662 3.32839
# Velocity P-wave (km/s) = 5.58171 6.55449 6.08756
#
# Compressibility (1/GPa) = 0.02840094
#
# Stress axis : x y z
#
# Youngs Moduli (GPa) = 39.98347 24.38821 57.58271
#
# Poissons Ratio (x) = 0.28017 0.17236
# Poissons Ratio (y) = 0.45933 0.74905
# Poissons Ratio (z) = 0.11968 0.31725
#
# Static dielectric constant tensor:
#      x y z
#    x 1.657040 0.000000 0.018980 
#    y 0.000000 1.638860 0.000000 
#    z 0.018980 0.000000 1.656750 
# 
# From -- ./inp_files/60063.got.cif
#   From: 2010.05.17/outbox.cif.g08.bks.cpg/sg11_31_cif.got.tgz:60063.got - 2010.06.03 12:22:45.
