data_PCOD9162232
_publ_section_title
;
Structure prediction by ZEFSAII (Michael W. Deem and Ramdas Pophale) SiO2 
 PCOD9162232
Probable space group: P 21/M
;
_chemical_formula_sum "Si O2"
_cell_formula_units_Z 24
_cell_length_a 20.693536
_cell_length_b 12.055351
_cell_length_c 14.194093
_cell_angle_alpha 90.000000
_cell_angle_beta 22.254710
_cell_angle_gamma 90.000000
_cell_volume 1341.052695
_symmetry_space_group_name_H-M "P 21/M"
_symmetry_group_IT_number 11
_symmetry_cell_setting 'monoclinic'
loop_
_space_group_symop_operation_xyz
x,y,z
-x,1/2+y,-z
-x,-y,-z
x,1/2-y,z
loop_
_atom_site_type_symbol
_atom_site_label
_atom_site_fract_x
_atom_site_fract_y
_atom_site_fract_z
Si Si1 0.353730 0.632300 0.125700
Si Si2 0.499512 0.376998 0.760636
Si Si3 0.420008 0.881423 0.568920
Si Si4 0.171519 0.977424 0.210914
Si Si5 0.703746 0.529839 0.629226
Si Si6 0.929806 0.121099 0.852367
O O1 0.304215 0.750000 0.233542
O O2 0.271871 0.616592 0.133868
O O3 0.290063 0.536216 0.280456
O O4 0.557285 0.621338 0.842078
O O5 0.508128 0.250000 0.779419
O O6 0.552753 0.385708 0.579739
O O7 0.622892 0.449999 0.659455
O O8 0.306234 0.421791 0.030222
O O9 0.475431 0.750000 0.521938
O O10 0.500000 0.000000 0.500000
O O11 0.223469 0.886986 0.866321
O O12 0.128053 0.942483 0.163902
O O13 0.000000 0.000000 0.500000
O O14 0.890215 0.573990 0.355004
O O15 0.954200 0.250000 0.794954
#
# Coordination Sequence:
#
# PCOD9162232 Si02
#       6
#     4   4   4   4   4   4
#     4  10  20  35  54  78 116 158 192 232 285 349
#     4  10  22  40  62  84 118 157 195 244 298 355
#     4  10  21  41  65  89 118 156 200 249 303 355
#     4  11  21  37  56  88 117 150 197 240 292 353
#     4  10  21  37  54  83 118 151 196 234 290 354
#     4  11  22  38  61  87 119 153 195 250 297 349
#
# _framework density 17.896388000000002
#
# number of rings (size 3 to 8) (size 9 to 14) (size 15 to 20)
#    0.000    1.667    3.333    1.500    0.000    2.000 
#    0.000    2.500    0.000    0.000    0.000    0.000 
#    0.000    0.000    0.000    0.000    0.000    0.000 
#
# Total GULP energy -133702.213893 kJ/mol
# GULP energy per Si atom -5570.925579 kJ/mol
# Density = 1.785566 g / cm^3
# Si number density = 17.896388 Si / 1000 Ang^3
#
#
#
# Elastic Constant Matrix: (Units=GPa)
#
#
# Indices 1 2 3 4 5 6 
#
# 1 52.4156 9.4258 21.1508 0.0000 -1.7757 0.0000
# 2 9.4258 83.0015 18.0248 0.0000 -7.1157 0.0000
# 3 21.1508 18.0248 109.6840 0.0000 -0.4091 0.0000
# 4 0.0000 0.0000 0.0000 0.6238 0.0000 -4.6047
# 5 -1.7757 -7.1157 -0.4091 0.0000 29.7993 0.0000
# 6 0.0000 0.0000 0.0000 -4.6047 0.0000 5.4626
#
#
#
# Elastic Compliance Matrix: (Units=1/GPa)
#
#
# Indices 1 2 3 4 5 6 
#
# 1 0.020900 -0.001480 -0.003784 0.000000 0.000840 0.000000
# 2 -0.001480 0.012864 -0.001818 0.000000 0.002959 0.000000
# 3 -0.003784 -0.001818 0.010144 0.000000 -0.000520 0.000000
# 4 0.000000 0.000000 0.000000 -0.306967 0.000000 -0.258757
# 5 0.000840 0.002959 -0.000520 0.000000 0.034307 0.000000
# 6 0.000000 0.000000 0.000000 -0.258757 0.000000 -0.035056
#
#
# Mechanical properties :
#
#
# Convention : Reuss Voigt Hill
#
# Bulk Modulus (GPa) = 33.61891 38.03375 35.82633
# Shear Modulus (GPa) = -20.85678 20.27713 -0.28982
#
# Velocity S-wave (km/s) = -3.41753 3.36970 -0.40286
# Velocity P-wave (km/s) = 1.80373 6.03640 4.45486
#
# Compressibility (1/GPa) = 0.02974517
#
# Stress axis : x y z
#
# Youngs Moduli (GPa) = 47.84757 77.73391 98.58507
#
# Poissons Ratio (x) = 0.11502 0.37303
# Poissons Ratio (y) = 0.07080 0.17920
# Poissons Ratio (z) = 0.18105 0.14130
#
# Static dielectric constant tensor:
#      x y z
#    x 1.594460 0.000000 -0.008100 
#    y 0.000000 1.646470 0.000000 
#    z -0.008100 0.000000 1.588540 
# 
# From -- ./inp_files/16902.got.cif
#   From: 2010.05.17/outbox.cif.g08.bks.cpg/sg11_9_cif.got.tgz:16902.got - 2010.06.03 12:22:45.
