data_PCOD9162057
_publ_section_title
;
Structure prediction by ZEFSAII (Michael W. Deem and Ramdas Pophale) SiO2 
 PCOD9162057
Probable space group: P 21/M
;
_chemical_formula_sum "Si O2"
_cell_formula_units_Z 28
_cell_length_a 9.714348
_cell_length_b 9.420059
_cell_length_c 27.518075
_cell_angle_alpha 90.000000
_cell_angle_beta 140.479043
_cell_angle_gamma 90.000000
_cell_volume 1602.464753
_symmetry_space_group_name_H-M "P 21/M"
_symmetry_group_IT_number 11
_symmetry_cell_setting 'monoclinic'
loop_
_space_group_symop_operation_xyz
x,y,z
-x,1/2+y,-z
-x,-y,-z
x,1/2-y,z
loop_
_atom_site_type_symbol
_atom_site_label
_atom_site_fract_x
_atom_site_fract_y
_atom_site_fract_z
Si Si1 0.715204 0.587204 0.047223
Si Si2 0.852519 0.419272 0.498641
Si Si3 0.651031 0.920071 0.632333
Si Si4 0.213748 0.413037 0.048601
Si Si5 0.683073 0.418263 0.206604
Si Si6 0.949140 0.080046 0.637717
Si Si7 0.976336 0.414721 0.191199
O O1 0.689933 0.750000 0.056160
O O2 0.911838 0.514915 0.129594
O O3 0.500000 0.500000 0.000000
O O4 0.746784 0.584805 0.998279
O O5 0.871271 0.250000 0.495611
O O6 0.597883 0.456447 0.426124
O O7 0.921436 0.448284 0.573036
O O8 0.000000 0.500000 0.500000
O O9 0.666220 0.750000 0.626066
O O10 0.800183 0.946714 0.720202
O O11 0.758492 0.006276 0.617271
O O12 0.181478 0.250000 0.054915
O O13 0.434085 0.463599 0.134550
O O14 0.000000 0.500000 0.000000
O O15 0.693793 0.250000 0.222094
O O16 0.793866 0.430142 0.183544
O O17 0.829879 0.510703 0.282221
O O18 0.945665 0.250000 0.644422
O O19 0.977234 0.250000 0.176030
#
# Coordination Sequence:
#
# PCOD9162057 Si02
#       7
#     4   4   4   4   4   4   4
#     4  11  21  35  56  81 110 142 181 226 272 320
#     4  10  22  39  57  81 114 148 182 222 269 325
#     4   9  19  37  59  81 110 146 183 222 267 326
#     4  10  22  39  55  77 109 146 186 226 269 324
#     4   9  18  36  57  78 110 146 182 222 268 326
#     4  10  20  34  57  88 112 136 181 232 272 316
#     4   9  17  33  56  82 109 137 180 229 269 317
#
# _framework density 17.473082999999999
#
# number of rings (size 3 to 8) (size 9 to 14) (size 15 to 20)
#    0.000    2.286    1.429    2.143    0.000    5.714 
#    2.571    0.000    0.000    0.000    0.000    0.000 
#    0.000    0.000    0.000    0.000    0.000    0.000 
#
# Total GULP energy -156214.617010 kJ/mol
# GULP energy per Si atom -5579.093465 kJ/mol
# Density = 1.743331 g / cm^3
# Si number density = 17.473083 Si / 1000 Ang^3
#
#
#
# Elastic Constant Matrix: (Units=GPa)
#
#
# Indices 1 2 3 4 5 6 
#
# 1 76.9950 54.2313 73.8679 0.0000 21.2980 0.0000
# 2 54.2313 77.5604 72.2994 0.0000 5.7458 0.0000
# 3 73.8679 72.2994 146.1128 0.0000 22.7194 0.0000
# 4 0.0000 0.0000 0.0000 31.4228 0.0000 -0.7320
# 5 21.2980 5.7458 22.7194 0.0000 26.5488 0.0000
# 6 0.0000 0.0000 0.0000 -0.7320 0.0000 33.0630
#
#
#
# Elastic Compliance Matrix: (Units=1/GPa)
#
#
# Indices 1 2 3 4 5 6 
#
# 1 0.039121 -0.019354 -0.006889 0.000000 -0.021300 0.000000
# 2 -0.019354 0.034283 -0.009735 0.000000 0.016438 0.000000
# 3 -0.006889 -0.009735 0.016099 0.000000 -0.006144 0.000000
# 4 0.000000 0.000000 0.000000 0.031840 0.000000 0.000705
# 5 -0.021300 0.016438 -0.006144 0.000000 0.056454 0.000000
# 6 0.000000 0.000000 0.000000 0.000705 0.000000 0.030261
#
#
# Mechanical properties :
#
#
# Convention : Reuss Voigt Hill
#
# Bulk Modulus (GPa) = 56.99198 77.94061 67.46629
# Shear Modulus (GPa) = 17.49080 24.89155 21.19117
#
# Velocity S-wave (km/s) = 3.16731 3.77844 3.48629
# Velocity P-wave (km/s) = 6.78702 7.98363 7.40952
#
# Compressibility (1/GPa) = 0.01754633
#
# Stress axis : x y z
#
# Youngs Moduli (GPa) = 25.56164 29.16877 62.11480
#
# Poissons Ratio (x) = 0.56455 0.42790
# Poissons Ratio (y) = 0.49473 0.60470
# Poissons Ratio (z) = 0.17609 0.28397
#
# Static dielectric constant tensor:
#      x y z
#    x 1.566620 0.000000 0.007000 
#    y 0.000000 1.589010 0.000000 
#    z 0.007000 0.000000 1.604590 
# 
# From -- ./inp_files/70924.got.cif
#   From: 2010.05.17/outbox.cif.g08.bks.cpg/sg11_36_cif.got.tgz:70924.got - 2010.06.03 12:22:45.
