data_PCOD9162576
_publ_section_title
;
Structure prediction by ZEFSAII (Michael W. Deem and Ramdas Pophale) SiO2 
 PCOD9162576
Probable space group: P 21/M
;
_chemical_formula_sum "Si O2"
_cell_formula_units_Z 28
_cell_length_a 18.388611
_cell_length_b 15.269134
_cell_length_c 5.417612
_cell_angle_alpha 90.000000
_cell_angle_beta 120.427097
_cell_angle_gamma 90.000000
_cell_volume 1311.646030
_symmetry_space_group_name_H-M "P 21/M"
_symmetry_group_IT_number 11
_symmetry_cell_setting 'monoclinic'
loop_
_space_group_symop_operation_xyz
x,y,z
-x,1/2+y,-z
-x,-y,-z
x,1/2-y,z
loop_
_atom_site_type_symbol
_atom_site_label
_atom_site_fract_x
_atom_site_fract_y
_atom_site_fract_z
Si Si1 0.995531 0.153219 0.120591
Si Si2 0.215633 0.486066 0.941726
Si Si3 0.329810 0.106493 0.773881
Si Si4 0.617270 0.018311 0.507835
Si Si5 0.170315 0.153976 0.218628
Si Si6 0.940295 0.074309 0.514722
Si Si7 0.530124 0.649179 0.633105
O O1 0.975641 0.250000 0.994063
O O2 0.956498 0.144561 0.325055
O O3 0.097862 0.145952 0.302274
O O4 0.963275 0.093934 0.837295
O O5 0.263357 0.411113 0.873832
O O6 0.156576 0.544593 0.672248
O O7 0.292465 0.534347 0.210013
O O8 0.158952 0.431803 0.034933
O O9 0.268460 0.149759 0.468077
O O10 0.362545 0.011974 0.735191
O O11 0.409486 0.154126 0.023460
O O12 0.556416 0.100368 0.440734
O O13 0.574701 0.927113 0.540631
O O14 0.156445 0.250000 0.077738
O O15 0.000000 0.000000 0.500000
O O16 0.521662 0.750000 0.523505
#
# Coordination Sequence:
#
# PCOD9162576 Si02
#       7
#     4   4   4   4   4   4   4
#     4  11  25  42  62  90 128 167 213 268 319 372
#     4  10  22  36  59  84 118 158 202 252 307 369
#     4  10  20  35  57  86 116 153 193 246 309 369
#     4   9  21  38  57  86 120 153 194 252 306 368
#     4  10  21  35  54  86 122 155 195 251 316 371
#     4  12  23  40  67  92 123 166 221 259 315 379
#     4  10  20  37  60  86 115 154 196 243 303 377
#
# _framework density 21.347221999999999
#
# number of rings (size 3 to 8) (size 9 to 14) (size 15 to 20)
#    0.000    1.714    1.429    2.571    4.000    6.286 
#    0.000    1.429    0.000    0.000    0.000    0.000 
#    0.000    0.000    0.000    0.000    0.000    0.000 
#
# Total GULP energy -155954.281722 kJ/mol
# GULP energy per Si atom -5569.795776 kJ/mol
# Density = 2.129864 g / cm^3
# Si number density = 21.347222 Si / 1000 Ang^3
#
#
#
# Elastic Constant Matrix: (Units=GPa)
#
#
# Indices 1 2 3 4 5 6 
#
# 1 44.4277 16.6737 20.4648 0.0000 21.2000 0.0000
# 2 16.6737 86.8651 31.4384 0.0000 18.0163 0.0000
# 3 20.4648 31.4384 69.9038 0.0000 15.3478 0.0000
# 4 0.0000 0.0000 0.0000 17.8401 0.0000 -4.0334
# 5 21.2000 18.0163 15.3478 0.0000 34.6570 0.0000
# 6 0.0000 0.0000 0.0000 -4.0334 0.0000 15.3007
#
#
#
# Elastic Compliance Matrix: (Units=1/GPa)
#
#
# Indices 1 2 3 4 5 6 
#
# 1 0.033920 -0.000757 -0.005672 0.000000 -0.017844 0.000000
# 2 -0.000757 0.014556 -0.005278 0.000000 -0.004766 0.000000
# 3 -0.005672 -0.005278 0.018804 0.000000 -0.002114 0.000000
# 4 0.000000 0.000000 0.000000 0.059606 0.000000 0.015713
# 5 -0.017844 -0.004766 -0.002114 0.000000 0.043183 0.000000
# 6 0.000000 0.000000 0.000000 0.015713 0.000000 0.069498
#
#
# Mechanical properties :
#
#
# Convention : Reuss Voigt Hill
#
# Bulk Modulus (GPa) = 22.79724 37.59449 30.19587
# Shear Modulus (GPa) = 18.01121 22.40088 20.20604
#
# Velocity S-wave (km/s) = 2.90785 3.24289 3.07993
# Velocity P-wave (km/s) = 4.68791 5.62770 5.17917
#
# Compressibility (1/GPa) = 0.04386495
#
# Stress axis : x y z
#
# Youngs Moduli (GPa) = 29.48111 68.69838 53.18056
#
# Poissons Ratio (x) = 0.05202 0.30164
# Poissons Ratio (y) = 0.02232 0.28071
# Poissons Ratio (z) = 0.16722 0.36262
#
# Static dielectric constant tensor:
#      x y z
#    x 1.811390 0.000000 -0.057260 
#    y 0.000000 -3.051390 0.000000 
#    z -0.057260 0.000000 1.851600 
# 
# From -- ./inp_files/8154.got.cif
#   From: 2010.05.17/outbox.cif.g08.bks.cpg/sg11_5_cif.got.tgz:8154.got - 2010.06.03 12:22:45.
