data_PCOD9162531
_publ_section_title
;
Structure prediction by ZEFSAII (Michael W. Deem and Ramdas Pophale) SiO2 
 PCOD9162531
Probable space group: P 21/M
;
_chemical_formula_sum "Si O2"
_cell_formula_units_Z 28
_cell_length_a 19.138657
_cell_length_b 8.981501
_cell_length_c 11.010622
_cell_angle_alpha 90.000000
_cell_angle_beta 48.492536
_cell_angle_gamma 90.000000
_cell_volume 1417.353944
_symmetry_space_group_name_H-M "P 21/M"
_symmetry_group_IT_number 11
_symmetry_cell_setting 'monoclinic'
loop_
_space_group_symop_operation_xyz
x,y,z
-x,1/2+y,-z
-x,-y,-z
x,1/2-y,z
loop_
_atom_site_type_symbol
_atom_site_label
_atom_site_fract_x
_atom_site_fract_y
_atom_site_fract_z
Si Si1 0.860400 0.071813 0.690193
Si Si2 0.317658 0.927805 0.972950
Si Si3 0.745641 0.926450 0.201898
Si Si4 0.670727 0.421952 0.513231
Si Si5 0.877711 0.077805 0.221426
Si Si6 0.988198 0.069691 0.317928
Si Si7 0.483778 0.071642 0.149259
O O1 0.871638 0.250000 0.686233
O O2 0.908600 0.026417 0.508538
O O3 0.918305 0.997058 0.732962
O O4 0.751686 0.037465 0.834835
O O5 0.312593 0.750000 0.958073
O O6 0.424040 0.966134 0.878560
O O7 0.277927 0.009822 0.901605
O O8 0.744248 0.750000 0.204584
O O9 0.670685 0.994137 0.383788
O O10 0.844073 0.984489 0.144237
O O11 0.642144 0.250000 0.533997
O O12 0.781847 0.421997 0.412763
O O13 0.607106 0.504614 0.682405
O O14 0.895272 0.250000 0.167176
O O15 0.957421 0.020004 0.219019
O O16 0.993994 0.250000 0.307731
O O17 0.477395 0.250000 0.147397
O O18 0.500000 0.000000 0.000000
#
# Coordination Sequence:
#
# PCOD9162531 Si02
#       7
#     4   4   4   4   4   4   4
#     4   9  19  34  54  80 110 144 181 221 270 329
#     4  10  22  39  57  77 111 152 184 221 275 333
#     4  10  20  35  57  84 111 141 186 234 275 320
#     4   9  19  37  59  80 110 146 182 225 271 328
#     4   8  17  33  57  81 108 144 180 220 271 329
#     4   9  17  33  57  83 109 141 181 223 272 329
#     4  11  24  39  58  85 113 146 186 227 274 327
#
# _framework density 19.755120999999999
#
# number of rings (size 3 to 8) (size 9 to 14) (size 15 to 20)
#    0.857    1.714    0.000    1.714    2.000    2.857 
#    0.000    0.714    0.000    0.000    0.000    0.000 
#    0.000    0.000    0.000    0.000    0.000    0.000 
#
# Total GULP energy -156080.240003 kJ/mol
# GULP energy per Si atom -5574.294286 kJ/mol
# Density = 1.971016 g / cm^3
# Si number density = 19.755121 Si / 1000 Ang^3
#
#
#
# Elastic Constant Matrix: (Units=GPa)
#
#
# Indices 1 2 3 4 5 6 
#
# 1 77.5944 31.1931 4.3445 0.0000 12.6890 0.0000
# 2 31.1931 43.3124 17.5294 0.0000 2.9452 0.0000
# 3 4.3445 17.5294 75.4914 0.0000 -3.4844 0.0000
# 4 0.0000 0.0000 0.0000 21.8318 0.0000 3.0931
# 5 12.6890 2.9452 -3.4844 0.0000 20.6747 0.0000
# 6 0.0000 0.0000 0.0000 3.0931 0.0000 25.8879
#
#
#
# Elastic Compliance Matrix: (Units=1/GPa)
#
#
# Indices 1 2 3 4 5 6 
#
# 1 0.020340 -0.014680 0.001772 0.000000 -0.010094 0.000000
# 2 -0.014680 0.036531 -0.007521 0.000000 0.002538 0.000000
# 3 0.001772 -0.007521 0.015007 0.000000 0.002513 0.000000
# 4 0.000000 0.000000 0.000000 0.046594 0.000000 -0.005567
# 5 -0.010094 0.002538 0.002513 0.000000 0.054625 0.000000
# 6 0.000000 0.000000 0.000000 -0.005567 0.000000 0.039293
#
#
# Mechanical properties :
#
#
# Convention : Reuss Voigt Hill
#
# Bulk Modulus (GPa) = 32.23513 33.61469 32.92491
# Shear Modulus (GPa) = 18.96901 23.23429 21.10165
#
# Velocity S-wave (km/s) = 3.10208 3.43317 3.27182
# Velocity P-wave (km/s) = 5.40216 5.72435 5.56559
#
# Compressibility (1/GPa) = 0.03102206
#
# Stress axis : x y z
#
# Youngs Moduli (GPa) = 49.16373 27.37365 66.63605
#
# Poissons Ratio (x) = 0.40184 -0.11809
# Poissons Ratio (y) = 0.72171 0.50116
# Poissons Ratio (z) = -0.08713 0.20587
#
# Static dielectric constant tensor:
#      x y z
#    x 1.682300 0.000000 -0.013380 
#    y 0.000000 1.653940 0.000000 
#    z -0.013380 0.000000 1.725320 
# 
# From -- ./inp_files/42712.got.cif
#   From: 2010.05.17/outbox.cif.g08.bks.cpg/sg11_22_cif.got.tgz:42712.got - 2010.06.03 12:22:45.
