data_PCOD9162028
_publ_section_title
;
Structure prediction by ZEFSAII (Michael W. Deem and Ramdas Pophale) SiO2 
 PCOD9162028
Probable space group: P 21/M
;
_chemical_formula_sum "Si O2"
_cell_formula_units_Z 24
_cell_length_a 12.581793
_cell_length_b 9.343495
_cell_length_c 23.873990
_cell_angle_alpha 90.000000
_cell_angle_beta 153.429986
_cell_angle_gamma 90.000000
_cell_volume 1255.356645
_symmetry_space_group_name_H-M "P 21/M"
_symmetry_group_IT_number 11
_symmetry_cell_setting 'monoclinic'
loop_
_space_group_symop_operation_xyz
x,y,z
-x,1/2+y,-z
-x,-y,-z
x,1/2-y,z
loop_
_atom_site_type_symbol
_atom_site_label
_atom_site_fract_x
_atom_site_fract_y
_atom_site_fract_z
Si Si1 0.600615 0.081083 0.909296
Si Si2 0.337575 0.918142 0.697557
Si Si3 0.131528 0.579856 0.482305
Si Si4 0.467202 0.581259 0.542472
Si Si5 0.996125 0.581439 0.812007
Si Si6 0.290919 0.080241 0.868029
O O1 0.619216 0.250000 0.906345
O O2 0.554481 0.993235 0.831592
O O3 0.369653 0.060412 0.840982
O O4 0.828872 0.039053 0.054602
O O5 0.927492 0.250000 0.548865
O O6 0.098187 0.990684 0.608720
O O7 0.318374 0.936328 0.621612
O O8 0.337643 0.750000 0.709824
O O9 0.254036 0.534188 0.482306
O O10 0.500000 0.500000 0.500000
O O11 0.432723 0.750000 0.515024
O O12 0.718710 0.566028 0.693324
O O13 0.046016 0.750000 0.824444
O O14 0.060894 0.491614 0.786879
O O15 0.289835 0.250000 0.878054
O O16 0.500000 0.000000 0.000000
#
# Coordination Sequence:
#
# PCOD9162028 Si02
#       6
#     4   4   4   4   4   4
#     4   9  18  32  51  76 107 141 174 215 273 321
#     4  10  20  34  57  83 106 138 182 227 266 314
#     4   9  20  39  57  77 109 144 177 221 274 320
#     4  10  22  39  58  79 108 144 181 220 269 328
#     4   9  19  35  52  75 107 142 178 218 267 323
#     4   9  17  29  47  72 104 140 174 213 261 310
#
# _framework density 19.118072000000002
#
# number of rings (size 3 to 8) (size 9 to 14) (size 15 to 20)
#    0.000    2.667    0.000    2.000    2.333    5.333 
#    0.000    0.833    0.000    0.000    0.000    0.000 
#    0.000    0.000    0.000    0.000    0.000    0.000 
#
# Total GULP energy -133821.609808 kJ/mol
# GULP energy per Si atom -5575.900409 kJ/mol
# Density = 1.907456 g / cm^3
# Si number density = 19.118072 Si / 1000 Ang^3
#
#
#
# Elastic Constant Matrix: (Units=GPa)
#
#
# Indices 1 2 3 4 5 6 
#
# 1 77.3284 25.5781 21.4552 0.0000 -7.6131 0.0000
# 2 25.5781 38.8602 20.8226 0.0000 -15.0990 0.0000
# 3 21.4552 20.8226 63.3681 0.0000 -20.1834 0.0000
# 4 0.0000 0.0000 0.0000 27.7456 0.0000 -6.9401
# 5 -7.6131 -15.0990 -20.1834 0.0000 29.9404 0.0000
# 6 0.0000 0.0000 0.0000 -6.9401 0.0000 24.8577
#
#
#
# Elastic Compliance Matrix: (Units=1/GPa)
#
#
# Indices 1 2 3 4 5 6 
#
# 1 0.017081 -0.010759 -0.003302 0.000000 -0.003308 0.000000
# 2 -0.010759 0.041297 -0.005304 0.000000 0.014515 0.000000
# 3 -0.003302 -0.005304 0.022313 0.000000 0.011527 0.000000
# 4 0.000000 0.000000 0.000000 0.038748 0.000000 0.010818
# 5 -0.003308 0.014515 0.011527 0.000000 0.047649 0.000000
# 6 0.000000 0.000000 0.000000 0.010818 0.000000 0.043249
#
#
# Mechanical properties :
#
#
# Convention : Reuss Voigt Hill
#
# Bulk Modulus (GPa) = 23.83151 35.02982 29.43066
# Shear Modulus (GPa) = 19.00751 23.95545 21.48148
#
# Velocity S-wave (km/s) = 3.15654 3.54365 3.35568
# Velocity P-wave (km/s) = 5.07715 5.92503 5.51740
#
# Compressibility (1/GPa) = 0.04196126
#
# Stress axis : x y z
#
# Youngs Moduli (GPa) = 58.54441 24.21499 44.81661
#
# Poissons Ratio (x) = 0.26053 0.14797
# Poissons Ratio (y) = 0.62989 0.23771
# Poissons Ratio (z) = 0.19329 0.12844
#
# Static dielectric constant tensor:
#      x y z
#    x 1.666730 0.000000 -0.004290 
#    y 0.000000 1.635480 0.000000 
#    z -0.004290 0.000000 1.718570 
# 
# From -- ./inp_files/34910.got.cif
#   From: 2010.05.17/outbox.cif.g08.bks.cpg/sg11_18_cif.got.tgz:34910.got - 2010.06.03 12:22:45.
