data_PCOD9162438
_publ_section_title
;
Structure prediction by ZEFSAII (Michael W. Deem and Ramdas Pophale) SiO2 
 PCOD9162438
Probable space group: P 21/M
;
_chemical_formula_sum "Si O2"
_cell_formula_units_Z 28
_cell_length_a 19.443388
_cell_length_b 9.060145
_cell_length_c 23.839880
_cell_angle_alpha 90.000000
_cell_angle_beta 18.633822
_cell_angle_gamma 90.000000
_cell_volume 1341.860820
_symmetry_space_group_name_H-M "P 21/M"
_symmetry_group_IT_number 11
_symmetry_cell_setting 'monoclinic'
loop_
_space_group_symop_operation_xyz
x,y,z
-x,1/2+y,-z
-x,-y,-z
x,1/2-y,z
loop_
_atom_site_type_symbol
_atom_site_label
_atom_site_fract_x
_atom_site_fract_y
_atom_site_fract_z
Si Si1 0.531257 0.573113 0.221826
Si Si2 0.293626 0.927997 0.128112
Si Si3 0.197553 0.928107 0.812816
Si Si4 0.899570 0.587301 0.628044
Si Si5 0.622885 0.429852 0.536843
Si Si6 0.520048 0.086882 0.122196
Si Si7 0.972707 0.427660 0.178040
O O1 0.532079 0.750000 0.221317
O O2 0.410862 0.526271 0.371745
O O3 0.438808 0.513151 0.235056
O O4 0.781941 0.520458 0.022657
O O5 0.295236 0.750000 0.130962
O O6 0.104315 0.996365 0.311664
O O7 0.291334 0.972679 0.064292
O O8 0.500000 0.000000 0.000000
O O9 0.197596 0.750000 0.820302
O O10 0.159393 0.959977 0.776524
O O11 0.417742 0.000439 0.663895
O O12 0.000000 0.000000 0.000000
O O13 0.989924 0.750000 0.567508
O O14 0.662899 0.604479 0.783348
O O15 0.000000 0.500000 0.500000
O O16 0.610943 0.250000 0.543575
O O17 0.837673 0.477281 0.336976
O O18 0.574233 0.250000 0.102030
O O19 0.988974 0.250000 0.170057
#
# Coordination Sequence:
#
# PCOD9162438 Si02
#       7
#     4   4   4   4   4   4   4
#     4  10  20  36  56  78 110 152 189 223 271 334
#     4   9  17  32  54  77 104 136 175 219 267 321
#     4  11  20  34  57  83 111 144 185 232 285 335
#     4  10  20  35  56  83 113 143 180 229 281 330
#     4  10  20  37  58  80 111 144 183 235 282 326
#     4   9  20  37  55  78 110 144 176 221 277 324
#     4   9  19  36  56  80 110 142 183 233 279 328
#
# _framework density 20.866544999999999
#
# number of rings (size 3 to 8) (size 9 to 14) (size 15 to 20)
#    0.000    2.286    1.429    2.571    0.000    4.000 
#    2.571    1.429    0.000    0.000    0.000    0.000 
#    0.000    0.000    0.000    0.000    0.000    0.000 
#
# Total GULP energy -155939.753790 kJ/mol
# GULP energy per Si atom -5569.276921 kJ/mol
# Density = 2.081905 g / cm^3
# Si number density = 20.866545 Si / 1000 Ang^3
#
#
#
# Elastic Constant Matrix: (Units=GPa)
#
#
# Indices 1 2 3 4 5 6 
#
# 1 72.2964 23.5451 43.0006 0.0000 32.4967 0.0000
# 2 23.5451 54.7215 29.7687 0.0000 24.5430 0.0000
# 3 43.0006 29.7687 110.0750 0.0000 52.3656 0.0000
# 4 0.0000 0.0000 0.0000 20.7887 0.0000 2.8618
# 5 32.4967 24.5430 52.3656 0.0000 45.9127 0.0000
# 6 0.0000 0.0000 0.0000 2.8618 0.0000 26.3890
#
#
#
# Elastic Compliance Matrix: (Units=1/GPa)
#
#
# Indices 1 2 3 4 5 6 
#
# 1 0.020947 -0.003008 -0.002364 0.000000 -0.010523 0.000000
# 2 -0.003008 0.024505 -0.000510 0.000000 -0.010389 0.000000
# 3 -0.002364 -0.000510 0.020158 0.000000 -0.021045 0.000000
# 4 0.000000 0.000000 0.000000 0.048832 0.000000 -0.005296
# 5 -0.010523 -0.010389 -0.021045 0.000000 0.058785 0.000000
# 6 0.000000 0.000000 0.000000 -0.005296 0.000000 0.038469
#
#
# Mechanical properties :
#
#
# Convention : Reuss Voigt Hill
#
# Bulk Modulus (GPa) = 18.57082 47.74685 33.15883
# Shear Modulus (GPa) = 20.71180 28.00333 24.35756
#
# Velocity S-wave (km/s) = 3.15395 3.66733 3.42029
# Velocity P-wave (km/s) = 4.70981 6.39251 5.61455
#
# Compressibility (1/GPa) = 0.05384792
#
# Stress axis : x y z
#
# Youngs Moduli (GPa) = 47.73918 40.80718 49.60848
#
# Poissons Ratio (x) = 0.12273 0.11726
# Poissons Ratio (y) = 0.14358 0.02529
# Poissons Ratio (z) = 0.11284 0.02081
#
# Static dielectric constant tensor:
#      x y z
#    x 1.767090 0.000000 -0.022850 
#    y 0.000000 1.728640 0.000000 
#    z -0.022850 0.000000 1.942780 
# 
# From -- ./inp_files/69752.got.cif
#   From: 2010.05.17/outbox.cif.g08.bks.cpg/sg11_35_cif.got.tgz:69752.got - 2010.06.03 12:22:45.
