data_PCOD9162093
_publ_section_title
;
Structure prediction by ZEFSAII (Michael W. Deem and Ramdas Pophale) SiO2 
 PCOD9162093
Probable space group: P 21/M
;
_chemical_formula_sum "Si O2"
_cell_formula_units_Z 28
_cell_length_a 5.445515
_cell_length_b 9.262439
_cell_length_c 25.717204
_cell_angle_alpha 90.000000
_cell_angle_beta 73.109628
_cell_angle_gamma 90.000000
_cell_volume 1241.187999
_symmetry_space_group_name_H-M "P 21/M"
_symmetry_group_IT_number 11
_symmetry_cell_setting 'monoclinic'
loop_
_space_group_symop_operation_xyz
x,y,z
-x,1/2+y,-z
-x,-y,-z
x,1/2-y,z
loop_
_atom_site_type_symbol
_atom_site_label
_atom_site_fract_x
_atom_site_fract_y
_atom_site_fract_z
Si Si1 0.719933 0.425732 0.024046
Si Si2 0.956425 0.574299 0.558008
Si Si3 0.074649 0.409810 0.283927
Si Si4 0.620839 0.423406 0.381926
Si Si5 0.392364 0.908819 0.117882
Si Si6 0.497536 0.593831 0.231785
Si Si7 0.035798 0.592587 0.827814
O O1 0.729858 0.250000 0.019218
O O2 0.606394 0.478879 0.086357
O O3 0.500000 0.500000 0.000000
O O4 0.000000 0.500000 0.000000
O O5 0.959708 0.750000 0.553285
O O6 0.672703 0.527329 0.595505
O O7 0.000000 0.500000 0.500000
O O8 0.188191 0.532632 0.582770
O O9 0.132428 0.250000 0.303647
O O10 0.792053 0.454080 0.320231
O O11 0.098556 0.392478 0.220459
O O12 0.278111 0.533968 0.282776
O O13 0.602971 0.250000 0.385018
O O14 0.421289 0.750000 0.091619
O O15 0.399172 0.886271 0.178915
O O16 0.116655 0.982307 0.126310
O O17 0.603692 0.750000 0.242029
O O18 0.701253 0.470876 0.208448
O O19 0.051449 0.750000 0.851214
#
# Coordination Sequence:
#
# PCOD9162093 Si02
#       7
#     4   4   4   4   4   4   4
#     4  12  27  48  73 102 136 174 221 277 334 394
#     4  10  20  36  57  82 111 148 192 242 295 354
#     4   9  19  35  55  82 111 148 197 245 292 351
#     4   9  19  34  58  84 111 148 193 242 295 351
#     4  10  22  41  62  87 122 164 208 255 314 377
#     4  10  21  36  57  84 120 160 196 242 302 367
#     4  10  20  34  58  87 117 154 201 250 297 362
#
# _framework density 22.559032999999999
#
# number of rings (size 3 to 8) (size 9 to 14) (size 15 to 20)
#    0.000    2.000    0.000    3.000    4.000    2.286 
#    0.000    1.429    0.000    0.000    0.000    0.000 
#    0.000    0.000    0.000    0.000    0.000    0.000 
#
# Total GULP energy -156024.378335 kJ/mol
# GULP energy per Si atom -5572.299226 kJ/mol
# Density = 2.250769 g / cm^3
# Si number density = 22.559033 Si / 1000 Ang^3
#
#
#
# Elastic Constant Matrix: (Units=GPa)
#
#
# Indices 1 2 3 4 5 6 
#
# 1 97.2707 35.1544 27.8843 0.0000 -17.6308 0.0000
# 2 35.1544 118.6621 24.7084 0.0000 -2.4743 0.0000
# 3 27.8843 24.7084 86.8679 0.0000 -21.0270 0.0000
# 4 0.0000 0.0000 0.0000 19.0346 0.0000 -0.8155
# 5 -17.6308 -2.4743 -21.0270 0.0000 32.1118 0.0000
# 6 0.0000 0.0000 0.0000 -0.8155 0.0000 19.5585
#
#
#
# Elastic Compliance Matrix: (Units=1/GPa)
#
#
# Indices 1 2 3 4 5 6 
#
# 1 0.013061 -0.003364 -0.001857 0.000000 0.005696 0.000000
# 2 -0.003364 0.009861 -0.002363 0.000000 -0.002634 0.000000
# 3 -0.001857 -0.002363 0.014841 0.000000 0.008517 0.000000
# 4 0.000000 0.000000 0.000000 0.052630 0.000000 0.002194
# 5 0.005696 -0.002634 0.008517 0.000000 0.039642 0.000000
# 6 0.000000 0.000000 0.000000 0.002194 0.000000 0.051220
#
#
# Mechanical properties :
#
#
# Convention : Reuss Voigt Hill
#
# Bulk Modulus (GPa) = 44.25523 53.14388 48.69956
# Shear Modulus (GPa) = 24.51520 28.47787 26.49654
#
# Velocity S-wave (km/s) = 3.30011 3.55684 3.43088
# Velocity P-wave (km/s) = 5.84646 6.36215 6.10975
#
# Compressibility (1/GPa) = 0.02259620
#
# Stress axis : x y z
#
# Youngs Moduli (GPa) = 76.56310 101.41041 67.37943
#
# Poissons Ratio (x) = 0.34114 0.12512
# Poissons Ratio (y) = 0.25756 0.15919
# Poissons Ratio (z) = 0.14218 0.23959
#
# Static dielectric constant tensor:
#      x y z
#    x 1.946390 0.000000 0.083780 
#    y 0.000000 2.197920 0.000000 
#    z 0.083780 0.000000 1.875350 
# 
# From -- ./inp_files/9597.got.cif
#   From: 2010.05.17/outbox.cif.g08.bks.cpg/sg11_5_cif.got.tgz:9597.got - 2010.06.03 12:22:45.
