data_PCOD9162225
_publ_section_title
;
Structure prediction by ZEFSAII (Michael W. Deem and Ramdas Pophale) SiO2 
 PCOD9162225
Probable space group: P 21/M
;
_chemical_formula_sum "Si O2"
_cell_formula_units_Z 28
_cell_length_a 9.692866
_cell_length_b 8.842834
_cell_length_c 26.202730
_cell_angle_alpha 90.000000
_cell_angle_beta 139.968770
_cell_angle_gamma 90.000000
_cell_volume 1444.573603
_symmetry_space_group_name_H-M "P 21/M"
_symmetry_group_IT_number 11
_symmetry_cell_setting 'monoclinic'
loop_
_space_group_symop_operation_xyz
x,y,z
-x,1/2+y,-z
-x,-y,-z
x,1/2-y,z
loop_
_atom_site_type_symbol
_atom_site_label
_atom_site_fract_x
_atom_site_fract_y
_atom_site_fract_z
Si Si1 0.779818 0.072726 0.816891
Si Si2 0.085165 0.068773 0.750028
Si Si3 0.780093 0.069074 0.418312
Si Si4 0.681303 0.569494 0.680976
Si Si5 0.149233 0.427051 0.999709
Si Si6 0.363478 0.931263 0.737876
Si Si7 0.556357 0.929791 0.070485
O O1 0.740864 0.250000 0.794761
O O2 0.010898 0.060553 0.908501
O O3 0.758367 0.976699 0.759555
O O4 0.596019 0.010900 0.802874
O O5 0.088329 0.250000 0.745915
O O6 0.219150 0.028234 0.839366
O O7 0.210542 0.994270 0.738499
O O8 0.844013 0.009492 0.688367
O O9 0.792176 0.250000 0.425542
O O10 0.568468 0.020912 0.390194
O O11 0.734822 0.033676 0.345988
O O12 0.000000 0.000000 0.500000
O O13 0.692031 0.750000 0.678136
O O14 0.186957 0.250000 0.020682
O O15 0.370394 0.513970 0.055677
O O16 0.000000 0.500000 0.000000
O O17 0.388412 0.750000 0.749363
O O18 0.551959 0.750000 0.064093
O O19 0.500000 0.000000 0.000000
#
# Coordination Sequence:
#
# PCOD9162225 Si02
#       7
#     4   4   4   4   4   4   4
#     4  10  20  35  54  78 107 141 185 233 276 328
#     4  11  23  38  56  82 113 147 189 234 279 331
#     4   9  20  38  61  89 116 142 178 220 266 325
#     4  10  21  37  58  84 111 143 182 223 268 325
#     4  11  23  36  52  76 106 141 185 234 283 331
#     4  10  21  37  58  85 114 147 186 228 275 330
#     4  11  24  39  55  78 110 147 191 238 284 334
#
# _framework density 19.382883
#
# number of rings (size 3 to 8) (size 9 to 14) (size 15 to 20)
#    0.000    1.714    0.000    5.143    0.000   14.857 
#    0.000    0.714    0.000    0.000    0.000    0.000 
#    0.000    0.000    0.000    0.000    0.000    0.000 
#
# Total GULP energy -156483.011219 kJ/mol
# GULP energy per Si atom -5588.678972 kJ/mol
# Density = 1.933877 g / cm^3
# Si number density = 19.382883 Si / 1000 Ang^3
#
#
#
# Elastic Constant Matrix: (Units=GPa)
#
#
# Indices 1 2 3 4 5 6 
#
# 1 98.1208 15.9720 22.8929 0.0000 24.3261 0.0000
# 2 15.9720 44.8638 33.0017 0.0000 8.1318 0.0000
# 3 22.8929 33.0017 82.6146 0.0000 25.0971 0.0000
# 4 0.0000 0.0000 0.0000 30.4602 0.0000 1.3508
# 5 24.3261 8.1318 25.0971 0.0000 27.5737 0.0000
# 6 0.0000 0.0000 0.0000 1.3508 0.0000 35.8438
#
#
#
# Elastic Compliance Matrix: (Units=1/GPa)
#
#
# Indices 1 2 3 4 5 6 
#
# 1 0.013446 -0.003618 0.001381 0.000000 -0.012052 0.000000
# 2 -0.003618 0.032719 -0.013968 0.000000 0.006256 0.000000
# 3 0.001381 -0.013968 0.022695 0.000000 -0.017756 0.000000
# 4 0.000000 0.000000 0.000000 0.032885 0.000000 -0.001239
# 5 -0.012052 0.006256 -0.017756 0.000000 0.061215 0.000000
# 6 0.000000 0.000000 0.000000 -0.001239 0.000000 0.027946
#
#
# Mechanical properties :
#
#
# Convention : Reuss Voigt Hill
#
# Bulk Modulus (GPa) = 27.43521 41.03694 34.23607
# Shear Modulus (GPa) = 21.23447 29.02438 25.12943
#
# Velocity S-wave (km/s) = 3.31347 3.87385 3.60457
# Velocity P-wave (km/s) = 5.36878 6.42080 5.91821
#
# Compressibility (1/GPa) = 0.03644951
#
# Stress axis : x y z
#
# Youngs Moduli (GPa) = 74.36973 30.56372 44.06166
#
# Poissons Ratio (x) = 0.11058 -0.06083
# Poissons Ratio (y) = 0.26907 0.61545
# Poissons Ratio (z) = -0.10267 0.42691
#
# Static dielectric constant tensor:
#      x y z
#    x 1.686970 0.000000 -0.006900 
#    y 0.000000 1.643160 0.000000 
#    z -0.006900 0.000000 1.677140 
# 
# From -- ./inp_files/28159.got.cif
#   From: 2010.05.17/outbox.cif.g08.bks.cpg/sg11_15_cif.got.tgz:28159.got - 2010.06.03 12:22:45.
