data_PCOD9162750
_publ_section_title
;
Structure prediction by ZEFSAII (Michael W. Deem and Ramdas Pophale) SiO2 
 PCOD9162750
Probable space group: P 21/M
;
_chemical_formula_sum "Si O2"
_cell_formula_units_Z 32
_cell_length_a 15.350524
_cell_length_b 8.787387
_cell_length_c 12.532973
_cell_angle_alpha 90.000000
_cell_angle_beta 88.522524
_cell_angle_gamma 90.000000
_cell_volume 1690.023144
_symmetry_space_group_name_H-M "P 21/M"
_symmetry_group_IT_number 11
_symmetry_cell_setting 'monoclinic'
loop_
_space_group_symop_operation_xyz
x,y,z
-x,1/2+y,-z
-x,-y,-z
x,1/2-y,z
loop_
_atom_site_type_symbol
_atom_site_label
_atom_site_fract_x
_atom_site_fract_y
_atom_site_fract_z
Si Si1 0.935312 0.567120 0.090329
Si Si2 0.746659 0.431957 0.107148
Si Si3 0.449511 0.432536 0.267267
Si Si4 0.865386 0.431728 0.530241
Si Si5 0.639033 0.567465 0.297705
Si Si6 0.321234 0.067227 0.460093
Si Si7 0.410552 0.932185 0.049579
Si Si8 0.968131 0.933261 0.334349
O O1 0.937567 0.750000 0.085587
O O2 0.837864 0.507122 0.074095
O O3 0.960482 0.520650 0.211214
O O4 0.000000 0.500000 0.000000
O O5 0.756035 0.250000 0.112762
O O6 0.712992 0.497069 0.220558
O O7 0.670390 0.467390 0.024739
O O8 0.457016 0.250000 0.261279
O O9 0.545512 0.503983 0.265046
O O10 0.396597 0.476021 0.374963
O O11 0.399473 0.495411 0.166032
O O12 0.863468 0.250000 0.524188
O O13 0.771317 0.494246 0.563976
O O14 0.895172 0.497330 0.414654
O O15 0.939790 0.475979 0.613735
O O16 0.640304 0.750000 0.288143
O O17 0.653836 0.524543 0.420213
O O18 0.312485 0.250000 0.456491
O O19 0.418799 0.750000 0.056600
O O20 0.500000 0.000000 0.000000
O O21 0.960001 0.750000 0.338961
#
# Coordination Sequence:
#
# PCOD9162750 Si02
#       8
#     4   4   4   4   4   4   4   4
#     4  11  24  42  63  88 122 160 199 248 301 359
#     4  11  24  41  63  91 121 156 200 251 302 358
#     4  11  23  39  59  85 119 157 199 247 298 354
#     4  10  20  35  60  89 114 149 195 242 291 352
#     4  11  22  38  61  86 117 157 200 244 297 357
#     4  10  23  39  55  83 122 158 193 240 298 357
#     4  11  23  40  63  88 119 156 200 252 301 355
#     4   9  20  39  60  84 117 153 191 239 296 352
#
# _framework density 18.934653000000001
#
# number of rings (size 3 to 8) (size 9 to 14) (size 15 to 20)
#    0.000    1.500    1.250    3.375    0.000    9.000 
#    0.000    3.750    0.000    0.000    0.000    0.000 
#    0.000    0.000    0.000    0.000    0.000    0.000 
#
# Total GULP energy -178903.512941 kJ/mol
# GULP energy per Si atom -5590.734779 kJ/mol
# Density = 1.889156 g / cm^3
# Si number density = 18.934653 Si / 1000 Ang^3
#
#
#
# Elastic Constant Matrix: (Units=GPa)
#
#
# Indices 1 2 3 4 5 6 
#
# 1 114.8466 39.9860 68.7513 0.0000 -17.1431 0.0000
# 2 39.9860 38.5327 40.4046 0.0000 -0.8234 0.0000
# 3 68.7513 40.4046 104.0918 0.0000 -6.8501 0.0000
# 4 0.0000 0.0000 0.0000 30.8070 0.0000 -2.1926
# 5 -17.1431 -0.8234 -6.8501 0.0000 29.6164 0.0000
# 6 0.0000 0.0000 0.0000 -2.1926 0.0000 34.8358
#
#
#
# Elastic Compliance Matrix: (Units=1/GPa)
#
#
# Indices 1 2 3 4 5 6 
#
# 1 0.018103 -0.011222 -0.007039 0.000000 0.008539 0.000000
# 2 -0.011222 0.050945 -0.012893 0.000000 -0.008062 0.000000
# 3 -0.007039 -0.012893 0.019262 0.000000 0.000023 0.000000
# 4 0.000000 0.000000 0.000000 0.032606 0.000000 0.002052
# 5 0.008539 -0.008062 0.000023 0.000000 0.038489 0.000000
# 6 0.000000 0.000000 0.000000 0.002052 0.000000 0.028835
#
#
# Mechanical properties :
#
#
# Convention : Reuss Voigt Hill
#
# Bulk Modulus (GPa) = 38.45983 61.75055 50.10519
# Shear Modulus (GPa) = 19.28901 26.27378 22.78139
#
# Velocity S-wave (km/s) = 3.19519 3.72910 3.47242
# Velocity P-wave (km/s) = 5.82823 7.15715 6.52660
#
# Compressibility (1/GPa) = 0.02600116
#
# Stress axis : x y z
#
# Youngs Moduli (GPa) = 55.24058 19.62902 51.91590
#
# Poissons Ratio (x) = 0.22029 0.36541
# Poissons Ratio (y) = 0.61994 0.66936
# Poissons Ratio (z) = 0.38881 0.25308
#
# Static dielectric constant tensor:
#      x y z
#    x 1.634340 0.000000 0.016860 
#    y 0.000000 1.633590 0.000000 
#    z 0.016860 0.000000 1.659240 
# 
# From -- ./inp_files/38290.got.cif
#   From: 2010.05.17/outbox.cif.g08.bks.cpg/sg11_20_cif.got.tgz:38290.got - 2010.06.03 12:22:45.
