data_PCOD9162519
_publ_section_title
;
Structure prediction by ZEFSAII (Michael W. Deem and Ramdas Pophale) SiO2 
 PCOD9162519
Probable space group: P 21/M
;
_chemical_formula_sum "Si O2"
_cell_formula_units_Z 32
_cell_length_a 13.940675
_cell_length_b 12.698211
_cell_length_c 10.011731
_cell_angle_alpha 90.000000
_cell_angle_beta 97.040262
_cell_angle_gamma 90.000000
_cell_volume 1758.930354
_symmetry_space_group_name_H-M "P 21/M"
_symmetry_group_IT_number 11
_symmetry_cell_setting 'monoclinic'
loop_
_space_group_symop_operation_xyz
x,y,z
-x,1/2+y,-z
-x,-y,-z
x,1/2-y,z
loop_
_atom_site_type_symbol
_atom_site_label
_atom_site_fract_x
_atom_site_fract_y
_atom_site_fract_z
Si Si1 0.351311 0.373290 0.967031
Si Si2 0.938307 0.373192 0.852007
Si Si3 0.803183 0.130431 0.283602
Si Si4 0.140979 0.476098 0.939437
Si Si5 0.269390 0.374320 0.469330
Si Si6 0.901594 0.461838 0.552120
Si Si7 0.568875 0.627584 0.722882
Si Si8 0.383910 0.500094 0.714567
O O1 0.351138 0.250000 0.932927
O O2 0.241260 0.413759 0.962476
O O3 0.399141 0.439262 0.856064
O O4 0.403846 0.386298 0.117475
O O5 0.918027 0.250000 0.868161
O O6 0.921778 0.406192 0.695971
O O7 0.049187 0.399726 0.909948
O O8 0.874603 0.448141 0.936372
O O9 0.813439 0.250000 0.240759
O O10 0.854584 0.050688 0.190209
O O11 0.848555 0.113912 0.437257
O O12 0.691805 0.094375 0.270991
O O13 0.251868 0.250000 0.483670
O O14 0.170561 0.439364 0.440424
O O15 0.336955 0.390461 0.351631
O O16 0.329352 0.421717 0.603992
O O17 0.000000 0.500000 0.500000
O O18 0.539985 0.750000 0.697019
O O19 0.482046 0.548850 0.675118
#
# Coordination Sequence:
#
# PCOD9162519 Si02
#       8
#     4   4   4   4   4   4   4   4
#     4  10  20  35  57  83 113 147 186 232 280 329
#     4  11  22  37  57  80 113 151 191 237 287 340
#     4  10  20  36  55  79 112 148 187 232 285 344
#     4  10  21  37  55  82 112 148 194 234 285 335
#     4  10  22  38  59  84 114 148 189 234 281 338
#     4  11  22  39  55  86 112 149 190 236 290 337
#     4  10  20  36  57  83 112 149 187 230 285 336
#     4  10  20  35  57  83 114 145 188 232 283 334
#
# _framework density 18.192874
#
# number of rings (size 3 to 8) (size 9 to 14) (size 15 to 20)
#    0.000    1.750    1.250    3.375    0.000    1.000 
#    0.000    0.625    0.000   10.500    0.000    0.000 
#    0.000    0.000    0.000    0.000    0.000    0.000 
#
# Total GULP energy -178712.076617 kJ/mol
# GULP energy per Si atom -5584.752394 kJ/mol
# Density = 1.815147 g / cm^3
# Si number density = 18.192874 Si / 1000 Ang^3
#
#
#
# Elastic Constant Matrix: (Units=GPa)
#
#
# Indices 1 2 3 4 5 6 
#
# 1 71.7360 36.8806 1.4766 0.0000 -12.5974 0.0000
# 2 36.8806 66.7321 6.0258 0.0000 1.2925 0.0000
# 3 1.4766 6.0258 68.7081 0.0000 -5.8264 0.0000
# 4 0.0000 0.0000 0.0000 16.3670 0.0000 -3.2739
# 5 -12.5974 1.2925 -5.8264 0.0000 20.7945 0.0000
# 6 0.0000 0.0000 0.0000 -3.2739 0.0000 15.3904
#
#
#
# Elastic Compliance Matrix: (Units=1/GPa)
#
#
# Indices 1 2 3 4 5 6 
#
# 1 0.023619 -0.013539 0.002012 0.000000 0.015714 0.000000
# 2 -0.013539 0.022903 -0.002596 0.000000 -0.010353 0.000000
# 3 0.002012 -0.002596 0.015217 0.000000 0.005644 0.000000
# 4 0.000000 0.000000 0.000000 0.063814 0.000000 0.013575
# 5 0.015714 -0.010353 0.005644 0.000000 0.059834 0.000000
# 6 0.000000 0.000000 0.000000 0.013575 0.000000 0.067863
#
#
# Mechanical properties :
#
#
# Convention : Reuss Voigt Hill
#
# Bulk Modulus (GPa) = 29.85621 32.88249 31.36935
# Shear Modulus (GPa) = 17.08465 21.36327 19.22396
#
# Velocity S-wave (km/s) = 3.06777 3.43047 3.25418
# Velocity P-wave (km/s) = 5.38469 5.81416 5.60354
#
# Compressibility (1/GPa) = 0.03349387
#
# Stress axis : x y z
#
# Youngs Moduli (GPa) = 42.33901 43.66241 65.71455
#
# Poissons Ratio (x) = 0.59116 -0.13224
# Poissons Ratio (y) = 0.57325 0.17057
# Poissons Ratio (z) = -0.08520 0.11333
#
# Static dielectric constant tensor:
#      x y z
#    x 1.604210 0.000000 0.001580 
#    y 0.000000 1.592780 0.000000 
#    z 0.001580 0.000000 1.617820 
# 
# From -- ./inp_files/21529.got.cif
#   From: 2010.05.17/outbox.cif.g08.bks.cpg/sg11_11_cif.got.tgz:21529.got - 2010.06.03 12:22:45.
