data_PCOD9162602
_publ_section_title
;
Structure prediction by ZEFSAII (Michael W. Deem and Ramdas Pophale) SiO2 
 PCOD9162602
Probable space group: P 21/M
;
_chemical_formula_sum "Si O2"
_cell_formula_units_Z 28
_cell_length_a 12.465033
_cell_length_b 7.823990
_cell_length_c 17.409541
_cell_angle_alpha 90.000000
_cell_angle_beta 134.390707
_cell_angle_gamma 90.000000
_cell_volume 1213.287255
_symmetry_space_group_name_H-M "P 21/M"
_symmetry_group_IT_number 11
_symmetry_cell_setting 'monoclinic'
loop_
_space_group_symop_operation_xyz
x,y,z
-x,1/2+y,-z
-x,-y,-z
x,1/2-y,z
loop_
_atom_site_type_symbol
_atom_site_label
_atom_site_fract_x
_atom_site_fract_y
_atom_site_fract_z
Si Si1 0.327790 0.454991 0.898150
Si Si2 0.856314 0.552640 0.680186
Si Si3 0.101690 0.945025 0.913342
Si Si4 0.595508 0.055920 0.646987
Si Si5 0.735395 0.540816 0.467729
Si Si6 0.354708 0.043168 0.740807
Si Si7 0.683145 0.555923 0.849197
O O1 0.306354 0.250000 0.895351
O O2 0.228821 0.548907 0.911378
O O3 0.293978 0.507853 0.793480
O O4 0.500000 0.500000 0.000000
O O5 0.904948 0.750000 0.697871
O O6 0.689986 0.546296 0.632290
O O7 0.849816 0.479745 0.590697
O O8 0.962428 0.472081 0.798157
O O9 0.064149 0.750000 0.916284
O O10 0.176432 0.029196 0.024778
O O11 0.582805 0.250000 0.613029
O O12 0.430860 0.990021 0.586637
O O13 0.681728 0.054354 0.771723
O O14 0.739462 0.750000 0.470539
O O15 0.740838 0.486904 0.381567
O O16 0.361512 0.250000 0.743223
O O17 0.526822 0.982023 0.815557
O O18 0.679599 0.750000 0.820700
#
# Coordination Sequence:
#
# PCOD9162602 Si02
#       7
#     4   4   4   4   4   4   4
#     4  11  21  34  57  84 111 143 180 225 272 325
#     4  10  21  37  56  78 108 147 187 225 266 320
#     4  11  23  37  53  77 113 149 182 223 272 324
#     4  10  20  35  58  83 110 141 178 227 277 325
#     4   8  16  34  58  82 107 140 181 223 271 320
#     4   9  18  34  57  83 110 138 175 226 277 320
#     4  11  21  34  55  81 109 141 181 227 272 325
#
# _framework density 23.077798999999999
#
# number of rings (size 3 to 8) (size 9 to 14) (size 15 to 20)
#    0.000    2.000    1.429    3.857    0.000    2.286 
#    0.000    3.571    0.000    0.000    0.000    0.000 
#    0.000    0.000    0.000    0.000    0.000    0.000 
#
# Total GULP energy -156381.764859 kJ/mol
# GULP energy per Si atom -5585.063031 kJ/mol
# Density = 2.302527 g / cm^3
# Si number density = 23.077799 Si / 1000 Ang^3
#
#
#
# Elastic Constant Matrix: (Units=GPa)
#
#
# Indices 1 2 3 4 5 6 
#
# 1 25.1458 -8.4508 -1.4400 0.0000 -11.2394 0.0000
# 2 -8.4508 50.1116 5.8939 0.0000 -0.3388 0.0000
# 3 -1.4400 5.8939 123.8611 0.0000 -29.2758 0.0000
# 4 0.0000 0.0000 0.0000 5.2048 0.0000 -6.1395
# 5 -11.2394 -0.3388 -29.2758 0.0000 24.3560 0.0000
# 6 0.0000 0.0000 0.0000 -6.1395 0.0000 16.3850
#
#
#
# Elastic Compliance Matrix: (Units=1/GPa)
#
#
# Indices 1 2 3 4 5 6 
#
# 1 0.061527 0.009497 0.009786 0.000000 0.040287 0.000000
# 2 0.009497 0.021560 0.000267 0.000000 0.005004 0.000000
# 3 0.009786 0.000267 0.012911 0.000000 0.020038 0.000000
# 4 0.000000 0.000000 0.000000 0.344317 0.000000 0.129016
# 5 0.040287 0.005004 0.020038 0.000000 0.083804 0.000000
# 6 0.000000 0.000000 0.000000 0.129016 0.000000 0.109374
#
#
# Mechanical properties :
#
#
# Convention : Reuss Voigt Hill
#
# Bulk Modulus (GPa) = 7.40204 21.23609 14.31907
# Shear Modulus (GPa) = 7.81952 22.73018 15.27485
#
# Velocity S-wave (km/s) = 1.84274 3.14178 2.57550
# Velocity P-wave (km/s) = 2.78244 4.73106 3.88104
#
# Compressibility (1/GPa) = 0.13509782
#
# Stress axis : x y z
#
# Youngs Moduli (GPa) = 16.25297 46.38326 77.45443
#
# Poissons Ratio (x) = -0.44052 -0.75794
# Poissons Ratio (y) = -0.15436 -0.02070
# Poissons Ratio (z) = -0.15904 -0.01239
#
# Static dielectric constant tensor:
#      x y z
#    x 1.830830 0.000000 0.003700 
#    y 0.000000 1.822540 0.000000 
#    z 0.003700 0.000000 1.953710 
# 
# From -- ./inp_files/42619.got.cif
#   From: 2010.05.17/outbox.cif.g08.bks.cpg/sg11_22_cif.got.tgz:42619.got - 2010.06.03 12:22:45.
