data_PCOD9162050
_publ_section_title
;
Structure prediction by ZEFSAII (Michael W. Deem and Ramdas Pophale) SiO2 
 PCOD9162050
Probable space group: P 21/M
;
_chemical_formula_sum "Si O2"
_cell_formula_units_Z 32
_cell_length_a 28.712202
_cell_length_b 8.893558
_cell_length_c 22.119471
_cell_angle_alpha 90.000000
_cell_angle_beta 17.900882
_cell_angle_gamma 90.000000
_cell_volume 1736.121220
_symmetry_space_group_name_H-M "P 21/M"
_symmetry_group_IT_number 11
_symmetry_cell_setting 'monoclinic'
loop_
_space_group_symop_operation_xyz
x,y,z
-x,1/2+y,-z
-x,-y,-z
x,1/2-y,z
loop_
_atom_site_type_symbol
_atom_site_label
_atom_site_fract_x
_atom_site_fract_y
_atom_site_fract_z
Si Si1 0.402206 0.429286 0.032471
Si Si2 0.284114 0.070627 0.308452
Si Si3 0.245621 0.428859 0.547464
Si Si4 0.704491 0.569278 0.084743
Si Si5 0.952860 0.429502 0.311048
Si Si6 0.597040 0.429875 0.093345
Si Si7 0.450168 0.930809 0.497931
Si Si8 0.164393 0.070498 0.787243
O O1 0.418116 0.250000 0.006917
O O2 0.298443 0.460688 0.219248
O O3 0.566103 0.499998 0.845885
O O4 0.345368 0.499546 0.040286
O O5 0.288218 0.250000 0.312389
O O6 0.138135 0.002315 0.520865
O O7 0.230169 0.250000 0.555864
O O8 0.129673 0.513550 0.647336
O O9 0.418594 0.470988 0.318973
O O10 0.213831 0.458082 0.656951
O O11 0.698420 0.750000 0.084633
O O12 0.676419 0.492711 0.055010
O O13 0.573395 0.527172 0.294219
O O14 0.870364 0.529394 0.904932
O O15 0.940396 0.250000 0.330078
O O16 0.608543 0.250000 0.077316
O O17 0.444709 0.750000 0.508599
O O18 0.500000 0.000000 0.500000
O O19 0.288686 0.995583 0.676919
O O20 0.160936 0.250000 0.801199
O O21 0.000000 0.000000 0.000000
#
# Coordination Sequence:
#
# PCOD9162050 Si02
#       8
#     4   4   4   4   4   4   4   4
#     4  10  20  34  57  86 118 156 195 243 299 352
#     4  10  20  35  55  85 121 155 196 245 296 352
#     4  10  22  39  60  88 121 154 196 250 298 349
#     4  10  24  43  61  86 121 159 201 245 294 355
#     4  11  23  38  60  89 120 159 201 246 298 351
#     4  11  21  37  62  90 117 154 200 246 297 352
#     4  11  24  43  65  90 121 162 203 247 302 360
#     4  11  24  43  64  92 125 158 200 250 301 357
#
# _framework density 18.431892999999999
#
# number of rings (size 3 to 8) (size 9 to 14) (size 15 to 20)
#    0.000    1.500    2.500    2.250    1.750    4.500 
#    0.000    0.625    0.000    0.000    0.000    0.000 
#    0.000    0.000    0.000    0.000    0.000    0.000 
#
# Total GULP energy -178851.858862 kJ/mol
# GULP energy per Si atom -5589.120589 kJ/mol
# Density = 1.838994 g / cm^3
# Si number density = 18.431893 Si / 1000 Ang^3
#
#
#
# Elastic Constant Matrix: (Units=GPa)
#
#
# Indices 1 2 3 4 5 6 
#
# 1 131.0939 54.7944 43.3124 0.0000 -8.9743 0.0000
# 2 54.7944 52.7281 34.6570 0.0000 -4.2446 0.0000
# 3 43.3124 34.6570 81.2115 0.0000 -14.2814 0.0000
# 4 0.0000 0.0000 0.0000 27.4246 0.0000 -0.4120
# 5 -8.9743 -4.2446 -14.2814 0.0000 30.1235 0.0000
# 6 0.0000 0.0000 0.0000 -0.4120 0.0000 38.0406
#
#
#
# Elastic Compliance Matrix: (Units=1/GPa)
#
#
# Indices 1 2 3 4 5 6 
#
# 1 0.013720 -0.013208 -0.001407 0.000000 0.001560 0.000000
# 2 -0.013208 0.039159 -0.010243 0.000000 -0.003273 0.000000
# 3 -0.001407 -0.010243 0.018663 0.000000 0.006986 0.000000
# 4 0.000000 0.000000 0.000000 0.036470 0.000000 0.000395
# 5 0.001560 -0.003273 0.006986 0.000000 0.036512 0.000000
# 6 0.000000 0.000000 0.000000 0.000395 0.000000 0.026292
#
#
# Mechanical properties :
#
#
# Convention : Reuss Voigt Hill
#
# Bulk Modulus (GPa) = 45.81174 58.95123 52.38148
# Shear Modulus (GPa) = 21.94838 27.93572 24.94205
#
# Velocity S-wave (km/s) = 3.45452 3.89732 3.68258
# Velocity P-wave (km/s) = 6.38906 7.23221 6.82367
#
# Compressibility (1/GPa) = 0.02182847
#
# Stress axis : x y z
#
# Youngs Moduli (GPa) = 72.88542 25.53667 53.58073
#
# Poissons Ratio (x) = 0.33728 0.07537
# Poissons Ratio (y) = 0.96265 0.54882
# Poissons Ratio (z) = 0.10253 0.26157
#
# Static dielectric constant tensor:
#      x y z
#    x 1.617300 0.000000 0.016460 
#    y 0.000000 1.615230 0.000000 
#    z 0.016460 0.000000 1.620400 
# 
# From -- ./inp_files/67091.got.cif
#   From: 2010.05.17/outbox.cif.g08.bks.cpg/sg11_34_cif.got.tgz:67091.got - 2010.06.03 12:22:45.
