data_PCOD9162946
_publ_section_title
;
Structure prediction by ZEFSAII (Michael W. Deem and Ramdas Pophale) SiO2 
 PCOD9162946
Probable space group: P 21/M
;
_chemical_formula_sum "Si O2"
_cell_formula_units_Z 32
_cell_length_a 14.541447
_cell_length_b 8.537572
_cell_length_c 13.156487
_cell_angle_alpha 90.000000
_cell_angle_beta 85.558343
_cell_angle_gamma 90.000000
_cell_volume 1628.454656
_symmetry_space_group_name_H-M "P 21/M"
_symmetry_group_IT_number 11
_symmetry_cell_setting 'monoclinic'
loop_
_space_group_symop_operation_xyz
x,y,z
-x,1/2+y,-z
-x,-y,-z
x,1/2-y,z
loop_
_atom_site_type_symbol
_atom_site_label
_atom_site_fract_x
_atom_site_fract_y
_atom_site_fract_z
Si Si1 0.900429 0.059050 0.470547
Si Si2 0.816993 0.437225 0.264102
Si Si3 0.626334 0.062638 0.193664
Si Si4 0.575214 0.061793 0.772461
Si Si5 0.257647 0.569173 0.364817
Si Si6 0.671418 0.933605 0.967851
Si Si7 0.838601 0.070616 0.845852
Si Si8 0.965896 0.564372 0.109854
O O1 0.903436 0.250000 0.474386
O O2 0.871550 0.007519 0.359472
O O3 0.815393 0.002537 0.549076
O O4 0.000000 0.000000 0.500000
O O5 0.812631 0.250000 0.271810
O O6 0.712584 0.492934 0.254894
O O7 0.876277 0.483324 0.161216
O O8 0.618644 0.250000 0.202180
O O9 0.529858 0.986376 0.232493
O O10 0.647510 0.019269 0.074556
O O11 0.584616 0.250000 0.776321
O O12 0.642589 0.002463 0.675868
O O13 0.611439 0.995825 0.877583
O O14 0.273017 0.750000 0.395563
O O15 0.205936 0.568042 0.260971
O O16 0.654987 0.750000 0.982436
O O17 0.777123 0.965631 0.925241
O O18 0.833289 0.250000 0.885237
O O19 0.945364 0.029088 0.827501
O O20 0.950880 0.750000 0.106923
O O21 0.000000 0.500000 0.000000
#
# Coordination Sequence:
#
# PCOD9162946 Si02
#       8
#     4   4   4   4   4   4   4   4
#     4  10  20  38  62  87 112 143 181 225 277 332
#     4  10  23  39  56  80 113 149 187 229 278 333
#     4  11  22  37  53  74 109 150 186 227 275 326
#     4  10  20  36  57  81 108 143 184 227 273 327
#     4   8  16  33  57  79 103 135 174 217 268 323
#     4  11  21  33  53  82 111 144 184 227 271 324
#     4   9  18  33  51  75 106 142 178 219 271 326
#     4  11  22  35  54  78 110 148 186 225 271 327
#
# _framework density 19.650531000000001
#
# number of rings (size 3 to 8) (size 9 to 14) (size 15 to 20)
#    0.000    2.000    0.000    4.875    0.000    6.500 
#    0.000    5.000    0.000    0.000    0.000    0.000 
#    0.000    0.000    0.000    0.000    0.000    0.000 
#
# Total GULP energy -178572.142024 kJ/mol
# GULP energy per Si atom -5580.379438 kJ/mol
# Density = 1.960581 g / cm^3
# Si number density = 19.650531 Si / 1000 Ang^3
#
#
#
# Elastic Constant Matrix: (Units=GPa)
#
#
# Indices 1 2 3 4 5 6 
#
# 1 137.3761 14.1481 45.4978 0.0000 -0.2288 0.0000
# 2 14.1481 21.7157 2.6908 0.0000 5.7280 0.0000
# 3 45.4978 2.6908 78.5129 0.0000 -9.7358 0.0000
# 4 0.0000 0.0000 0.0000 14.2194 0.0000 -1.2179
# 5 -0.2288 5.7280 -9.7358 0.0000 27.5330 0.0000
# 6 0.0000 0.0000 0.0000 -1.2179 0.0000 32.0326
#
#
#
# Elastic Compliance Matrix: (Units=1/GPa)
#
#
# Indices 1 2 3 4 5 6 
#
# 1 0.009658 -0.005416 -0.005503 0.000000 -0.000739 0.000000
# 2 -0.005416 0.052474 -0.000020 0.000000 -0.010969 0.000000
# 3 -0.005503 -0.000020 0.016651 0.000000 0.005846 0.000000
# 4 0.000000 0.000000 0.000000 0.070556 0.000000 0.002683
# 5 -0.000739 -0.010969 0.005846 0.000000 0.040663 0.000000
# 6 0.000000 0.000000 0.000000 0.002683 0.000000 0.031320
#
#
# Mechanical properties :
#
#
# Convention : Reuss Voigt Hill
#
# Bulk Modulus (GPa) = 17.57291 40.25314 28.91303
# Shear Modulus (GPa) = 19.07162 26.44153 22.75658
#
# Velocity S-wave (km/s) = 3.11873 3.67221 3.40673
# Velocity P-wave (km/s) = 4.68303 6.20557 5.49727
#
# Compressibility (1/GPa) = 0.05690577
#
# Stress axis : x y z
#
# Youngs Moduli (GPa) = 103.53724 19.05711 60.05508
#
# Poissons Ratio (x) = 0.10321 0.33048
# Poissons Ratio (y) = 0.56074 0.00121
# Poissons Ratio (z) = 0.56976 0.00038
#
# Static dielectric constant tensor:
#      x y z
#    x 1.729170 0.000000 0.012740 
#    y 0.000000 1.671780 0.000000 
#    z 0.012740 0.000000 1.691150 
# 
# From -- ./inp_files/38200.got.cif
#   From: 2010.05.17/outbox.cif.g08.bks.cpg/sg11_20_cif.got.tgz:38200.got - 2010.06.03 12:22:45.
