data_PCOD9162769
_publ_section_title
;
Structure prediction by ZEFSAII (Michael W. Deem and Ramdas Pophale) SiO2 
 PCOD9162769
Probable space group: P 21/M
;
_chemical_formula_sum "Si O2"
_cell_formula_units_Z 20
_cell_length_a 16.070695
_cell_length_b 8.687102
_cell_length_c 10.352224
_cell_angle_alpha 90.000000
_cell_angle_beta 138.697663
_cell_angle_gamma 90.000000
_cell_volume 953.912272
_symmetry_space_group_name_H-M "P 21/M"
_symmetry_group_IT_number 11
_symmetry_cell_setting 'monoclinic'
loop_
_space_group_symop_operation_xyz
x,y,z
-x,1/2+y,-z
-x,-y,-z
x,1/2-y,z
loop_
_atom_site_type_symbol
_atom_site_label
_atom_site_fract_x
_atom_site_fract_y
_atom_site_fract_z
Si Si1 0.801904 0.430269 0.687730
Si Si2 0.530498 0.567364 0.393684
Si Si3 0.928611 0.570006 0.081588
Si Si4 0.130806 0.070904 0.694383
Si Si5 0.404125 0.435815 0.993370
O O1 0.771351 0.250000 0.637781
O O2 0.675239 0.526996 0.526271
O O3 0.922130 0.468494 0.737529
O O4 0.859391 0.465514 0.896389
O O5 0.500000 0.500000 0.500000
O O6 0.512454 0.750000 0.375230
O O7 0.445065 0.492586 0.182778
O O8 0.921743 0.750000 0.031109
O O9 0.865348 0.557829 0.146072
O O10 0.125769 0.250000 0.653995
O O11 0.262614 0.007172 0.796448
O O12 0.000000 0.000000 0.500000
O O13 0.404856 0.250000 0.993189
O O14 0.500000 0.500000 0.000000
#
# Coordination Sequence:
#
# PCOD9162769 Si02
#       5
#     4   4   4   4   4
#     4  10  20  35  60  93 125 162 205 259 322 387
#     4  12  25  42  66  95 129 171 218 272 331 395
#     4   9  19  37  59  88 125 163 207 263 319 377
#     4  10  23  41  63  90 122 164 213 264 317 376
#     4  11  25  45  67  97 136 177 222 274 329 394
#
# _framework density 20.966287999999999
#
# number of rings (size 3 to 8) (size 9 to 14) (size 15 to 20)
#    0.000    1.600    0.000    4.200    2.800    4.800 
#    0.000    0.000    0.000    0.000    0.000    0.000 
#    0.000    0.000    0.000    0.000    0.000    0.000 
#
# Total GULP energy -111803.304154 kJ/mol
# GULP energy per Si atom -5590.165208 kJ/mol
# Density = 2.091857 g / cm^3
# Si number density = 20.966288 Si / 1000 Ang^3
#
#
#
# Elastic Constant Matrix: (Units=GPa)
#
#
# Indices 1 2 3 4 5 6 
#
# 1 82.2685 38.2363 52.4985 0.0000 26.0676 0.0000
# 2 38.2363 72.7911 31.8017 0.0000 9.0710 0.0000
# 3 52.4985 31.8017 117.9154 0.0000 30.4392 0.0000
# 4 0.0000 0.0000 0.0000 38.8822 0.0000 1.5918
# 5 26.0676 9.0710 30.4392 0.0000 37.1294 0.0000
# 6 0.0000 0.0000 0.0000 1.5918 0.0000 31.2461
#
#
#
# Elastic Compliance Matrix: (Units=1/GPa)
#
#
# Indices 1 2 3 4 5 6 
#
# 1 0.022328 -0.008247 -0.005315 0.000000 -0.009304 0.000000
# 2 -0.008247 0.018625 -0.002120 0.000000 0.002978 0.000000
# 3 -0.005315 -0.002120 0.013093 0.000000 -0.006484 0.000000
# 4 0.000000 0.000000 0.000000 0.025772 0.000000 -0.001313
# 5 -0.009304 0.002978 -0.006484 0.000000 0.038053 0.000000
# 6 0.000000 0.000000 0.000000 -0.001313 0.000000 0.032071
#
#
# Mechanical properties :
#
#
# Convention : Reuss Voigt Hill
#
# Bulk Modulus (GPa) = 44.08902 57.56087 50.82494
# Shear Modulus (GPa) = 26.47359 31.48076 28.97717
#
# Velocity S-wave (km/s) = 3.55727 3.87912 3.72167
# Velocity P-wave (km/s) = 6.16006 6.89761 6.53924
#
# Compressibility (1/GPa) = 0.02268139
#
# Stress axis : x y z
#
# Youngs Moduli (GPa) = 44.78662 53.69045 76.37892
#
# Poissons Ratio (x) = 0.44280 0.40595
# Poissons Ratio (y) = 0.36937 0.16193
# Poissons Ratio (z) = 0.23804 0.11383
#
# Static dielectric constant tensor:
#      x y z
#    x 1.761750 0.000000 0.017340 
#    y 0.000000 1.722850 0.000000 
#    z 0.017340 0.000000 1.850470 
# 
# From -- ./inp_files/41012.got.cif
#   From: 2010.05.17/outbox.cif.g08.bks.cpg/sg11_21_cif.got.tgz:41012.got - 2010.06.03 12:22:45.
