data_PCOD9162504
_publ_section_title
;
Structure prediction by ZEFSAII (Michael W. Deem and Ramdas Pophale) SiO2 
 PCOD9162504
Probable space group: P 21/M
;
_chemical_formula_sum "Si O2"
_cell_formula_units_Z 28
_cell_length_a 21.269308
_cell_length_b 8.920960
_cell_length_c 16.025657
_cell_angle_alpha 90.000000
_cell_angle_beta 28.514291
_cell_angle_gamma 90.000000
_cell_volume 1451.587252
_symmetry_space_group_name_H-M "P 21/M"
_symmetry_group_IT_number 11
_symmetry_cell_setting 'monoclinic'
loop_
_space_group_symop_operation_xyz
x,y,z
-x,1/2+y,-z
-x,-y,-z
x,1/2-y,z
loop_
_atom_site_type_symbol
_atom_site_label
_atom_site_fract_x
_atom_site_fract_y
_atom_site_fract_z
Si Si1 0.923771 0.429014 0.666161
Si Si2 0.807066 0.071994 0.391894
Si Si3 0.655326 0.427566 0.897587
Si Si4 0.660952 0.070548 0.237000
Si Si5 0.632942 0.571404 0.450893
Si Si6 0.648687 0.572381 0.727402
Si Si7 0.941618 0.069528 0.832357
O O1 0.943091 0.250000 0.640939
O O2 0.768805 0.458212 0.831901
O O3 0.966132 0.481272 0.708383
O O4 0.000000 0.500000 0.500000
O O5 0.811222 0.250000 0.383957
O O6 0.727354 0.008147 0.406364
O O7 0.731105 0.015542 0.563007
O O8 0.953622 0.005571 0.228852
O O9 0.660521 0.250000 0.870690
O O10 0.681256 0.520122 0.783177
O O11 0.507576 0.458147 0.100741
O O12 0.660216 0.250000 0.254380
O O13 0.522230 0.036083 0.353799
O O14 0.662497 0.984396 0.322910
O O15 0.791636 0.035792 0.032695
O O16 0.649507 0.750000 0.437966
O O17 0.671978 0.750000 0.691133
O O18 0.957779 0.250000 0.816393
#
# Coordination Sequence:
#
# PCOD9162504 Si02
#       7
#     4   4   4   4   4   4   4
#     4  10  21  36  56  81 113 154 196 240 290 346
#     4  12  25  39  57  85 121 158 199 247 295 347
#     4   9  19  35  56  81 112 150 194 244 298 353
#     4   9  20  40  66  93 121 151 193 244 295 356
#     4  10  21  39  66  93 121 155 192 238 299 359
#     4  10  20  35  57  82 114 151 196 246 298 354
#     4  10  22  40  62  87 117 157 202 244 296 355
#
# _framework density 19.28923
#
# number of rings (size 3 to 8) (size 9 to 14) (size 15 to 20)
#    0.000    2.000    0.000    3.000    2.000    5.714 
#    0.000    0.000    0.000    0.000    0.000    0.000 
#    0.000    0.000    0.000    0.000    0.000    0.000 
#
# Total GULP energy -156436.182111 kJ/mol
# GULP energy per Si atom -5587.006504 kJ/mol
# Density = 1.924533 g / cm^3
# Si number density = 19.289230 Si / 1000 Ang^3
#
#
#
# Elastic Constant Matrix: (Units=GPa)
#
#
# Indices 1 2 3 4 5 6 
#
# 1 122.5148 47.6957 42.7309 0.0000 -22.5149 0.0000
# 2 47.6957 53.3755 38.1440 0.0000 -7.9171 0.0000
# 3 42.7309 38.1440 78.9950 0.0000 -7.4449 0.0000
# 4 0.0000 0.0000 0.0000 25.8291 0.0000 4.3453
# 5 -22.5149 -7.9171 -7.4449 0.0000 17.8731 0.0000
# 6 0.0000 0.0000 0.0000 4.3453 0.0000 27.7235
#
#
#
# Elastic Compliance Matrix: (Units=1/GPa)
#
#
# Indices 1 2 3 4 5 6 
#
# 1 0.015463 -0.010231 -0.002098 0.000000 0.014073 0.000000
# 2 -0.010231 0.036295 -0.012168 0.000000 -0.001880 0.000000
# 3 -0.002098 -0.012168 0.019685 0.000000 0.000167 0.000000
# 4 0.000000 0.000000 0.000000 0.039765 0.000000 -0.006233
# 5 0.014073 -0.001880 0.000167 0.000000 0.072915 0.000000
# 6 0.000000 0.000000 0.000000 -0.006233 0.000000 0.037047
#
#
# Mechanical properties :
#
#
# Convention : Reuss Voigt Hill
#
# Bulk Modulus (GPa) = 44.54637 56.89183 50.71910
# Shear Modulus (GPa) = 18.00840 22.70612 20.35726
#
# Velocity S-wave (km/s) = 3.05880 3.43467 3.25217
# Velocity P-wave (km/s) = 5.96817 6.72959 6.36028
#
# Compressibility (1/GPa) = 0.02244852
#
# Stress axis : x y z
#
# Youngs Moduli (GPa) = 64.66902 27.55225 50.79930
#
# Poissons Ratio (x) = 0.28189 0.10658
# Poissons Ratio (y) = 0.66163 0.61814
# Poissons Ratio (z) = 0.13568 0.33526
#
# Static dielectric constant tensor:
#      x y z
#    x 1.660590 0.000000 -0.025640 
#    y 0.000000 1.644900 0.000000 
#    z -0.025640 0.000000 1.673690 
# 
# From -- ./inp_files/54498.got.cif
#   From: 2010.05.17/outbox.cif.g08.bks.cpg/sg11_28_cif.got.tgz:54498.got - 2010.06.03 12:22:45.
