data_PCOD9162640
_publ_section_title
;
Structure prediction by ZEFSAII (Michael W. Deem and Ramdas Pophale) SiO2 
 PCOD9162640
Probable space group: P 21/M
;
_chemical_formula_sum "Si O2"
_cell_formula_units_Z 28
_cell_length_a 9.761248
_cell_length_b 8.744969
_cell_length_c 27.522593
_cell_angle_alpha 90.000000
_cell_angle_beta 139.242759
_cell_angle_gamma 90.000000
_cell_volume 1533.804572
_symmetry_space_group_name_H-M "P 21/M"
_symmetry_group_IT_number 11
_symmetry_cell_setting 'monoclinic'
loop_
_space_group_symop_operation_xyz
x,y,z
-x,1/2+y,-z
-x,-y,-z
x,1/2-y,z
loop_
_atom_site_type_symbol
_atom_site_label
_atom_site_fract_x
_atom_site_fract_y
_atom_site_fract_z
Si Si1 0.354391 0.066381 0.918932
Si Si2 0.613047 0.573026 0.180959
Si Si3 0.941431 0.568075 0.431539
Si Si4 0.281662 0.076634 0.453824
Si Si5 0.033425 0.419044 0.287605
Si Si6 0.463268 0.566040 0.734859
Si Si7 0.888568 0.570686 0.797604
O O1 0.355507 0.250000 0.919872
O O2 0.440434 0.018796 0.888297
O O3 0.114831 0.009708 0.862556
O O4 0.500000 0.000000 0.000000
O O5 0.553293 0.750000 0.170156
O O6 0.545648 0.483055 0.211010
O O7 0.864088 0.551402 0.246962
O O8 0.918699 0.750000 0.428835
O O9 0.731804 0.501118 0.348801
O O10 0.000000 0.500000 0.500000
O O11 0.137335 0.521779 0.450410
O O12 0.305531 0.250000 0.479448
O O13 0.164227 0.085564 0.371041
O O14 0.500000 0.000000 0.500000
O O15 0.926805 0.250000 0.253825
O O16 0.165188 0.439666 0.274154
O O17 0.449316 0.750000 0.727707
O O18 0.688482 0.514576 0.773901
O O19 0.918887 0.750000 0.817845
#
# Coordination Sequence:
#
# PCOD9162640 Si02
#       7
#     4   4   4   4   4   4   4
#     4  10  21  38  62  91 121 153 192 238 288 347
#     4  10  20  35  58  86 115 151 193 236 284 344
#     4  12  26  43  61  84 118 159 204 255 308 360
#     4  11  23  38  58  85 115 152 198 247 302 356
#     4   9  18  35  57  79 108 148 191 237 289 347
#     4  11  22  38  61  88 120 157 198 243 297 357
#     4   9  20  37  59  87 117 152 193 238 288 344
#
# _framework density 18.255258999999999
#
# number of rings (size 3 to 8) (size 9 to 14) (size 15 to 20)
#    0.000    1.714    1.429    3.000    2.000    3.429 
#    0.000    0.714    0.000    0.000    0.000    0.000 
#    0.000    0.000    0.000    0.000    0.000    0.000 
#
# Total GULP energy -156102.030172 kJ/mol
# GULP energy per Si atom -5575.072506 kJ/mol
# Density = 1.821371 g / cm^3
# Si number density = 18.255259 Si / 1000 Ang^3
#
#
#
# Elastic Constant Matrix: (Units=GPa)
#
#
# Indices 1 2 3 4 5 6 
#
# 1 157.8922 43.1316 71.4499 0.0000 -9.4774 0.0000
# 2 43.1316 80.1876 40.1395 0.0000 -8.6550 0.0000
# 3 71.4499 40.1395 95.5026 0.0000 -21.7032 0.0000
# 4 0.0000 0.0000 0.0000 26.6390 0.0000 0.1579
# 5 -9.4774 -8.6550 -21.7032 0.0000 26.9209 0.0000
# 6 0.0000 0.0000 0.0000 0.1579 0.0000 28.0605
#
#
#
# Elastic Compliance Matrix: (Units=1/GPa)
#
#
# Indices 1 2 3 4 5 6 
#
# 1 0.010029 -0.002053 -0.007331 0.000000 -0.003040 0.000000
# 2 -0.002053 0.016216 -0.005215 0.000000 0.000287 0.000000
# 3 -0.007331 -0.005215 0.021034 0.000000 0.012699 0.000000
# 4 0.000000 0.000000 0.000000 0.037540 0.000000 -0.000211
# 5 -0.003040 0.000287 0.012699 0.000000 0.046406 0.000000
# 6 0.000000 0.000000 0.000000 -0.000211 0.000000 0.035639
#
#
# Mechanical properties :
#
#
# Convention : Reuss Voigt Hill
#
# Bulk Modulus (GPa) = 55.30549 71.44714 63.37632
# Shear Modulus (GPa) = 24.74162 28.24818 26.49490
#
# Velocity S-wave (km/s) = 3.68545 3.93797 3.81380
# Velocity P-wave (km/s) = 6.96215 7.73948 7.36108
#
# Compressibility (1/GPa) = 0.01808139
#
# Stress axis : x y z
#
# Youngs Moduli (GPa) = 99.70705 61.66683 47.54317
#
# Poissons Ratio (x) = 0.12659 0.34856
# Poissons Ratio (y) = 0.20468 0.24792
# Poissons Ratio (z) = 0.73099 0.32157
#
# Static dielectric constant tensor:
#      x y z
#    x 1.635370 0.000000 -0.026620 
#    y 0.000000 1.687530 0.000000 
#    z -0.026620 0.000000 1.614450 
# 
# From -- ./inp_files/28324.got.cif
#   From: 2010.05.17/outbox.cif.g08.bks.cpg/sg11_15_cif.got.tgz:28324.got - 2010.06.03 12:22:45.
