data_PCOD9162263
_publ_section_title
;
Structure prediction by ZEFSAII (Michael W. Deem and Ramdas Pophale) SiO2 
 PCOD9162263
Probable space group: P 21/M
;
_chemical_formula_sum "Si O2"
_cell_formula_units_Z 32
_cell_length_a 27.261836
_cell_length_b 8.382847
_cell_length_c 28.201109
_cell_angle_alpha 90.000000
_cell_angle_beta 164.502691
_cell_angle_gamma 90.000000
_cell_volume 1722.019616
_symmetry_space_group_name_H-M "P 21/M"
_symmetry_group_IT_number 11
_symmetry_cell_setting 'monoclinic'
loop_
_space_group_symop_operation_xyz
x,y,z
-x,1/2+y,-z
-x,-y,-z
x,1/2-y,z
loop_
_atom_site_type_symbol
_atom_site_label
_atom_site_fract_x
_atom_site_fract_y
_atom_site_fract_z
Si Si1 0.795052 0.441047 0.796736
Si Si2 0.469064 0.055889 0.205975
Si Si3 0.937450 0.557204 0.200425
Si Si4 0.936367 0.440382 0.491694
Si Si5 0.569413 0.443143 0.494034
Si Si6 0.306721 0.554869 0.494445
Si Si7 0.437588 0.556838 0.810439
Si Si8 0.841563 0.060771 0.212011
O O1 0.800209 0.250000 0.801629
O O2 0.713429 0.493792 0.669300
O O3 0.634831 0.497975 0.683263
O O4 0.000000 0.500000 0.000000
O O5 0.471027 0.250000 0.208871
O O6 0.557451 0.001181 0.337159
O O7 0.576146 0.008589 0.257798
O O8 0.259090 0.004988 0.003057
O O9 0.938028 0.750000 0.202661
O O10 0.948665 0.498908 0.264924
O O11 0.104558 0.505573 0.323075
O O12 0.928919 0.250000 0.483350
O O13 0.734421 0.499740 0.319175
O O14 0.000000 0.500000 0.500000
O O15 0.072809 0.491389 0.660561
O O16 0.565202 0.250000 0.490511
O O17 0.634276 0.498027 0.502712
O O18 0.308806 0.750000 0.495615
O O19 0.557653 0.250000 0.184152
O O20 0.632010 0.495741 0.010280
O O21 0.848291 0.250000 0.219895
#
# Coordination Sequence:
#
# PCOD9162263 Si02
#       8
#     4   4   4   4   4   4   4   4
#     4  10  20  35  55  76 102 140 182 224 270 319
#     4   8  14  26  48  76 100 126 166 211 253 299
#     4   9  17  31  51  75 103 136 174 211 252 308
#     4  11  23  39  59  82 108 138 177 224 272 321
#     4   9  19  34  53  80 108 135 176 225 270 318
#     4   9  16  28  50  78 105 133 169 218 266 308
#     4   9  19  37  59  79 102 138 179 216 256 309
#     4  11  22  36  56  81 110 143 177 216 263 315
#
# _framework density 18.582830999999999
#
# number of rings (size 3 to 8) (size 9 to 14) (size 15 to 20)
#    0.000    2.500    0.000    3.375    0.000    5.000 
#    0.000    4.375    0.000    6.000    0.000    0.000 
#    0.000    0.000    0.000    0.000    0.000    0.000 
#
# Total GULP energy -178525.689813 kJ/mol
# GULP energy per Si atom -5578.927807 kJ/mol
# Density = 1.854054 g / cm^3
# Si number density = 18.582831 Si / 1000 Ang^3
#
#
#
# Elastic Constant Matrix: (Units=GPa)
#
#
# Indices 1 2 3 4 5 6 
#
# 1 191.2668 30.3016 83.9079 0.0000 55.0621 0.0000
# 2 30.3016 21.9764 23.0386 0.0000 -2.7734 0.0000
# 3 83.9079 23.0386 98.4047 0.0000 69.8537 0.0000
# 4 0.0000 0.0000 0.0000 -7.3099 0.0000 9.2154
# 5 55.0621 -2.7734 69.8537 0.0000 -87.3781 0.0000
# 6 0.0000 0.0000 0.0000 9.2154 0.0000 21.5414
#
#
#
# Elastic Compliance Matrix: (Units=1/GPa)
#
#
# Indices 1 2 3 4 5 6 
#
# 1 0.008830 -0.005176 -0.006624 0.000000 0.000433 0.000000
# 2 -0.005176 0.054971 -0.003128 0.000000 -0.007507 0.000000
# 3 -0.006624 -0.003128 0.012399 0.000000 0.005837 0.000000
# 4 0.000000 0.000000 0.000000 -0.088871 0.000000 0.038019
# 5 0.000433 -0.007507 0.005837 0.000000 -0.006267 0.000000
# 6 0.000000 0.000000 0.000000 0.038019 0.000000 0.030158
#
#
# Mechanical properties :
#
#
# Convention : Reuss Voigt Hill
#
# Bulk Modulus (GPa) = 21.57754 65.12712 43.35233
# Shear Modulus (GPa) = 88.45821 -3.00265 42.72778
#
# Velocity S-wave (km/s) = 6.90691 -1.27253 4.80032
# Velocity P-wave (km/s) = 8.67433 5.74142 7.35554
#
# Compressibility (1/GPa) = 0.04634449
#
# Stress axis : x y z
#
# Youngs Moduli (GPa) = 113.25304 18.19128 80.64995
#
# Poissons Ratio (x) = 0.09415 0.53426
# Poissons Ratio (y) = 0.58614 0.25228
# Poissons Ratio (z) = 0.75023 0.05690
#
# Static dielectric constant tensor:
#      x y z
#    x 1.643780 0.000000 0.003040 
#    y 0.000000 1.649020 0.000000 
#    z 0.003040 0.000000 1.634010 
# 
# From -- ./inp_files/70042.got.cif
#   From: 2010.05.17/outbox.cif.g08.bks.cpg/sg11_36_cif.got.tgz:70042.got - 2010.06.03 12:22:45.
