data_PCOD9162102
_publ_section_title
;
Structure prediction by ZEFSAII (Michael W. Deem and Ramdas Pophale) SiO2 
 PCOD9162102
Probable space group: P 21/M
;
_chemical_formula_sum "Si O2"
_cell_formula_units_Z 28
_cell_length_a 17.609819
_cell_length_b 8.776924
_cell_length_c 15.678812
_cell_angle_alpha 90.000000
_cell_angle_beta 35.578571
_cell_angle_gamma 90.000000
_cell_volume 1409.931947
_symmetry_space_group_name_H-M "P 21/M"
_symmetry_group_IT_number 11
_symmetry_cell_setting 'monoclinic'
loop_
_space_group_symop_operation_xyz
x,y,z
-x,1/2+y,-z
-x,-y,-z
x,1/2-y,z
loop_
_atom_site_type_symbol
_atom_site_label
_atom_site_fract_x
_atom_site_fract_y
_atom_site_fract_z
Si Si1 0.863605 0.430473 0.155367
Si Si2 0.449103 0.068395 0.311362
Si Si3 0.406415 0.432279 0.659046
Si Si4 0.553594 0.427361 0.864636
Si Si5 0.967065 0.422943 0.668406
Si Si6 0.806932 0.579372 0.680125
Si Si7 0.833284 0.069583 0.386352
O O1 0.859573 0.250000 0.140864
O O2 0.538490 0.506351 0.302054
O O3 0.740087 0.511319 0.224564
O O4 0.000000 0.500000 0.000000
O O5 0.452367 0.250000 0.314651
O O6 0.491161 0.013811 0.179272
O O7 0.300680 0.011156 0.462617
O O8 0.500000 0.500000 0.500000
O O9 0.413301 0.250000 0.650208
O O10 0.150841 0.549796 0.729482
O O11 0.524026 0.250000 0.885273
O O12 0.708038 0.457428 0.732292
O O13 0.500000 0.500000 0.000000
O O14 0.924087 0.250000 0.726902
O O15 0.072918 0.413161 0.495104
O O16 0.043992 0.497862 0.676265
O O17 0.854335 0.525712 0.729752
O O18 0.748899 0.750000 0.735863
O O19 0.824012 0.250000 0.413531
#
# Coordination Sequence:
#
# PCOD9162102 Si02
#       7
#     4   4   4   4   4   4   4
#     4  11  25  45  68  97 135 176 220 271 336 402
#     4  12  24  41  67  98 130 169 221 273 328 393
#     4  12  24  42  70 103 137 176 225 279 335 399
#     4  12  25  43  65  90 127 169 215 269 329 390
#     4  10  20  34  58  89 121 157 203 254 309 368
#     4  10  20  36  58  86 121 158 203 253 309 370
#     4  11  22  38  64  94 127 166 213 266 325 390
#
# _framework density 19.859113000000001
#
# number of rings (size 3 to 8) (size 9 to 14) (size 15 to 20)
#    0.000    0.857    2.857    5.571    0.000    2.857 
#    2.571    0.000    0.000    0.000    0.000    0.000 
#    0.000    0.000    0.000    0.000    0.000    0.000 
#
# Total GULP energy -156589.160147 kJ/mol
# GULP energy per Si atom -5592.470005 kJ/mol
# Density = 1.981391 g / cm^3
# Si number density = 19.859113 Si / 1000 Ang^3
#
#
#
# Elastic Constant Matrix: (Units=GPa)
#
#
# Indices 1 2 3 4 5 6 
#
# 1 160.6860 68.4629 31.1235 0.0000 0.1538 0.0000
# 2 68.4629 165.4996 38.6746 0.0000 14.0405 0.0000
# 3 31.1235 38.6746 68.1073 0.0000 8.1668 0.0000
# 4 0.0000 0.0000 0.0000 29.5511 0.0000 -2.6795
# 5 0.1538 14.0405 8.1668 0.0000 26.1439 0.0000
# 6 0.0000 0.0000 0.0000 -2.6795 0.0000 36.3807
#
#
#
# Elastic Compliance Matrix: (Units=1/GPa)
#
#
# Indices 1 2 3 4 5 6 
#
# 1 0.007902 -0.002942 -0.002207 0.000000 0.002223 0.000000
# 2 -0.002942 0.008237 -0.002914 0.000000 -0.003496 0.000000
# 3 -0.002207 -0.002914 0.017824 0.000000 -0.003990 0.000000
# 4 0.000000 0.000000 0.000000 0.034067 0.000000 0.002509
# 5 0.002223 -0.003496 -0.003990 0.000000 0.041361 0.000000
# 6 0.000000 0.000000 0.000000 0.002509 0.000000 0.027672
#
#
# Mechanical properties :
#
#
# Convention : Reuss Voigt Hill
#
# Bulk Modulus (GPa) = 56.06012 74.53498 65.29755
# Shear Modulus (GPa) = 31.42007 35.48393 33.45200
#
# Velocity S-wave (km/s) = 3.98194 4.23162 4.10868
# Velocity P-wave (km/s) = 7.03074 7.84148 7.44715
#
# Compressibility (1/GPa) = 0.01783799
#
# Stress axis : x y z
#
# Youngs Moduli (GPa) = 126.54958 121.40821 56.10303
#
# Poissons Ratio (x) = 0.35714 0.12383
# Poissons Ratio (y) = 0.37227 0.16347
# Poissons Ratio (z) = 0.27932 0.35375
#
# Static dielectric constant tensor:
#      x y z
#    x 1.683320 0.000000 -0.002180 
#    y 0.000000 1.683370 0.000000 
#    z -0.002180 0.000000 1.724660 
# 
# From -- ./inp_files/60086.got.cif
#   From: 2010.05.17/outbox.cif.g08.bks.cpg/sg11_31_cif.got.tgz:60086.got - 2010.06.03 12:22:45.
