data_PCOD9162217
_publ_section_title
;
Structure prediction by ZEFSAII (Michael W. Deem and Ramdas Pophale) SiO2 
 PCOD9162217
Probable space group: P 21/M
;
_chemical_formula_sum "Si O2"
_cell_formula_units_Z 28
_cell_length_a 30.123974
_cell_length_b 8.636587
_cell_length_c 9.487156
_cell_angle_alpha 90.000000
_cell_angle_beta 38.062116
_cell_angle_gamma 90.000000
_cell_volume 1521.718780
_symmetry_space_group_name_H-M "P 21/M"
_symmetry_group_IT_number 11
_symmetry_cell_setting 'monoclinic'
loop_
_space_group_symop_operation_xyz
x,y,z
-x,1/2+y,-z
-x,-y,-z
x,1/2-y,z
loop_
_atom_site_type_symbol
_atom_site_label
_atom_site_fract_x
_atom_site_fract_y
_atom_site_fract_z
Si Si1 0.361636 0.437223 0.503765
Si Si2 0.935666 0.435425 0.253790
Si Si3 0.064334 0.435425 0.432119
Si Si4 0.361636 0.937223 0.188054
Si Si5 0.226139 0.436816 0.026842
Si Si6 0.773861 0.436816 0.657539
Si Si7 0.500000 0.063057 0.341613
O O1 0.361703 0.250000 0.497553
O O2 0.367230 0.500000 0.331924
O O3 0.429322 0.485460 0.430867
O O4 0.288264 0.488273 0.764892
O O5 0.938911 0.250000 0.247221
O O6 0.943691 0.500000 0.390772
O O7 0.854746 0.481701 0.408668
O O8 0.000000 0.500000 0.000000
O O9 0.061090 0.250000 0.441772
O O10 0.145254 0.481702 0.182400
O O11 0.000000 0.500000 0.500000
O O12 0.361703 0.750000 0.193932
O O13 0.288264 0.988273 0.293789
O O14 0.429322 0.985460 0.922525
O O15 0.228556 0.250000 0.028433
O O16 0.238256 0.500000 0.154359
O O17 0.771444 0.250000 0.671213
O O18 0.500000 0.250000 0.348809
O O19 0.500000 0.000000 0.500000
#
# Coordination Sequence:
#
# PCOD9162217 Si02
#       7
#     4   4   4   4   4   4   4
#     4  10  21  36  53  78 108 137 171 212 255 303
#     4  10  20  35  54  77 105 138 175 218 264 313
#     4  10  20  35  54  77 105 138 175 218 264 313
#     4  10  21  36  53  78 108 137 171 212 255 303
#     4   9  19  35  54  76 103 135 174 214 256 308
#     4   9  19  35  54  76 103 135 174 214 256 308
#     4  10  21  36  56  80 106 136 173 212 252 302
#
# _framework density 18.400245999999999
#
# number of rings (size 3 to 8) (size 9 to 14) (size 15 to 20)
#    0.000    2.286    0.000    2.143    0.000    4.571 
#    0.000    2.857    0.000    0.000    0.000    0.000 
#    0.000    0.000    0.000    0.000    0.000    0.000 
#
# Total GULP energy -156288.363237 kJ/mol
# GULP energy per Si atom -5581.727258 kJ/mol
# Density = 1.835837 g / cm^3
# Si number density = 18.400246 Si / 1000 Ang^3
#
#
#
# Elastic Constant Matrix: (Units=GPa)
#
#
# Indices 1 2 3 4 5 6 
#
# 1 188.7578 34.3317 119.8489 0.0000 -18.5160 0.0000
# 2 34.3317 18.6734 38.1161 0.0000 -6.6220 0.0000
# 3 119.8489 38.1161 205.2337 0.0000 -10.3142 0.0000
# 4 0.0000 0.0000 0.0000 25.8748 0.0000 9.4730
# 5 -18.5160 -6.6220 -10.3142 0.0000 25.3943 0.0000
# 6 0.0000 0.0000 0.0000 9.4730 0.0000 31.2887
#
#
#
# Elastic Compliance Matrix: (Units=1/GPa)
#
#
# Indices 1 2 3 4 5 6 
#
# 1 0.009644 -0.008748 -0.003847 0.000000 0.003188 0.000000
# 2 -0.008748 0.101358 -0.012973 0.000000 0.014783 0.000000
# 3 -0.003847 -0.012973 0.009409 0.000000 -0.002366 0.000000
# 4 0.000000 0.000000 0.000000 0.043466 0.000000 -0.013160
# 5 0.003188 0.014783 -0.002366 0.000000 0.044598 0.000000
# 6 0.000000 0.000000 0.000000 -0.013160 0.000000 0.035945
#
#
# Mechanical properties :
#
#
# Convention : Reuss Voigt Hill
#
# Bulk Modulus (GPa) = 14.43501 88.58427 51.50964
# Shear Modulus (GPa) = 15.69132 31.20277 23.44705
#
# Velocity S-wave (km/s) = 2.92340 4.12245 3.57358
# Velocity P-wave (km/s) = 4.38829 8.42063 6.71432
#
# Compressibility (1/GPa) = 0.06927600
#
# Stress axis : x y z
#
# Youngs Moduli (GPa) = 103.68873 9.86600 106.27763
#
# Poissons Ratio (x) = 0.08631 0.40884
# Poissons Ratio (y) = 0.90711 1.37870
# Poissons Ratio (z) = 0.39888 0.12799
#
# Static dielectric constant tensor:
#      x y z
#    x 1.605100 0.000000 -0.037660 
#    y 0.000000 1.635420 0.000000 
#    z -0.037660 0.000000 1.626620 
# 
# From -- ./inp_files/28456.got.cif
#   From: 2010.05.17/outbox.cif.g08.bks.cpg/sg11_15_cif.got.tgz:28456.got - 2010.06.03 12:22:45.
