data_PCOD9162567
_publ_section_title
;
Structure prediction by ZEFSAII (Michael W. Deem and Ramdas Pophale) SiO2 
 PCOD9162567
Probable space group: P 21/M
;
_chemical_formula_sum "Si O2"
_cell_formula_units_Z 28
_cell_length_a 13.987246
_cell_length_b 12.343032
_cell_length_c 8.926135
_cell_angle_alpha 90.000000
_cell_angle_beta 116.741478
_cell_angle_gamma 90.000000
_cell_volume 1376.230854
_symmetry_space_group_name_H-M "P 21/M"
_symmetry_group_IT_number 11
_symmetry_cell_setting 'monoclinic'
loop_
_space_group_symop_operation_xyz
x,y,z
-x,1/2+y,-z
-x,-y,-z
x,1/2-y,z
loop_
_atom_site_type_symbol
_atom_site_label
_atom_site_fract_x
_atom_site_fract_y
_atom_site_fract_z
Si Si1 0.755084 0.478867 0.832760
Si Si2 0.361923 0.630302 0.990689
Si Si3 0.562650 0.576076 0.321298
Si Si4 0.454132 0.127719 0.351780
Si Si5 0.145626 0.877089 0.389746
Si Si6 0.239508 0.032850 0.696234
Si Si7 0.103600 0.126128 0.867898
O O1 0.713499 0.387211 0.917219
O O2 0.657645 0.564801 0.752733
O O3 0.784788 0.426942 0.696135
O O4 0.853373 0.542455 0.978087
O O5 0.348791 0.750000 0.917826
O O6 0.481709 0.614030 0.135952
O O7 0.323665 0.537129 0.852867
O O8 0.529750 0.626629 0.457548
O O9 0.542790 0.447756 0.336691
O O10 0.684316 0.599048 0.362590
O O11 0.452618 0.250000 0.294413
O O12 0.170142 0.750000 0.430332
O O13 0.168568 0.949045 0.551820
O O14 0.021612 0.886091 0.254589
O O15 0.169425 0.101140 0.762302
O O16 0.123803 0.250000 0.929696
#
# Coordination Sequence:
#
# PCOD9162567 Si02
#       7
#     4   4   4   4   4   4   4
#     4  10  20  39  60  86 118 148 195 245 289 349
#     4  10  21  36  57  84 115 154 191 236 291 348
#     4  10  21  37  54  85 117 149 195 236 286 345
#     4  10  20  35  57  85 117 149 187 238 291 346
#     4  11  22  39  62  88 116 155 201 248 298 347
#     4  11  22  40  58  85 121 154 195 242 290 353
#     4  10  23  40  61  86 118 157 197 245 300 350
#
# _framework density 20.345423
#
# number of rings (size 3 to 8) (size 9 to 14) (size 15 to 20)
#    0.000    1.714    1.429    3.000    0.000    2.286 
#    0.000    0.000    0.000    6.000    0.000    0.000 
#    0.000    0.000    0.000    0.000    0.000    0.000 
#
# Total GULP energy -156484.956954 kJ/mol
# GULP energy per Si atom -5588.748463 kJ/mol
# Density = 2.029912 g / cm^3
# Si number density = 20.345423 Si / 1000 Ang^3
#
#
#
# Elastic Constant Matrix: (Units=GPa)
#
#
# Indices 1 2 3 4 5 6 
#
# 1 51.6327 5.4391 -10.7211 0.0000 -2.6729 0.0000
# 2 5.4391 68.1955 -10.7855 0.0000 8.9789 0.0000
# 3 -10.7211 -10.7855 46.7976 0.0000 11.6660 0.0000
# 4 0.0000 0.0000 0.0000 9.9012 0.0000 6.1697
# 5 -2.6729 8.9789 11.6660 0.0000 27.8576 0.0000
# 6 0.0000 0.0000 0.0000 6.1697 0.0000 8.9979
#
#
#
# Elastic Compliance Matrix: (Units=1/GPa)
#
#
# Indices 1 2 3 4 5 6 
#
# 1 0.020396 -0.001005 0.004324 0.000000 0.000470 0.000000
# 2 -0.001005 0.016646 0.005547 0.000000 -0.007785 0.000000
# 3 0.004324 0.005547 0.026775 0.000000 -0.012586 0.000000
# 4 0.000000 0.000000 0.000000 0.176345 0.000000 -0.120917
# 5 0.000470 -0.007785 -0.012586 0.000000 0.043722 0.000000
# 6 0.000000 0.000000 0.000000 -0.120917 0.000000 0.194049
#
#
# Mechanical properties :
#
#
# Convention : Reuss Voigt Hill
#
# Bulk Modulus (GPa) = 12.26267 14.94342 13.60305
# Shear Modulus (GPa) = 10.25887 21.53087 15.89487
#
# Velocity S-wave (km/s) = 2.24795 3.25663 2.79812
# Velocity P-wave (km/s) = 3.57464 4.63699 4.14003
#
# Compressibility (1/GPa) = 0.08154831
#
# Stress axis : x y z
#
# Youngs Moduli (GPa) = 49.03033 60.07422 37.34824
#
# Poissons Ratio (x) = 0.06036 -0.16149
# Poissons Ratio (y) = 0.04926 -0.20716
# Poissons Ratio (z) = -0.21200 -0.33322
#
# Static dielectric constant tensor:
#      x y z
#    x 1.711230 0.000000 -0.003390 
#    y 0.000000 1.710500 0.000000 
#    z -0.003390 0.000000 1.726840 
# 
# From -- ./inp_files/21280.got.cif
#   From: 2010.05.17/outbox.cif.g08.bks.cpg/sg11_11_cif.got.tgz:21280.got - 2010.06.03 12:22:45.
