data_PCOD9162114
_publ_section_title
;
Structure prediction by ZEFSAII (Michael W. Deem and Ramdas Pophale) SiO2 
 PCOD9162114
Probable space group: P 21/M
;
_chemical_formula_sum "Si O2"
_cell_formula_units_Z 32
_cell_length_a 9.046604
_cell_length_b 14.736743
_cell_length_c 24.023122
_cell_angle_alpha 90.000000
_cell_angle_beta 146.844797
_cell_angle_gamma 90.000000
_cell_volume 1751.586020
_symmetry_space_group_name_H-M "P 21/M"
_symmetry_group_IT_number 11
_symmetry_cell_setting 'monoclinic'
loop_
_space_group_symop_operation_xyz
x,y,z
-x,1/2+y,-z
-x,-y,-z
x,1/2-y,z
loop_
_atom_site_type_symbol
_atom_site_label
_atom_site_fract_x
_atom_site_fract_y
_atom_site_fract_z
Si Si1 0.867339 0.142103 0.942863
Si Si2 0.579373 0.855556 0.294410
Si Si3 0.908273 0.031403 0.530994
Si Si4 0.883574 0.017386 0.164718
Si Si5 0.718176 0.990359 0.984568
Si Si6 0.646242 0.646904 0.645500
Si Si7 0.749466 0.353184 0.698655
Si Si8 0.370784 0.094048 0.481067
O O1 0.907382 0.250000 0.966930
O O2 0.637449 0.134367 0.822840
O O3 0.770951 0.081319 0.964836
O O4 0.128313 0.091515 0.998763
O O5 0.648325 0.750000 0.322006
O O6 0.441486 0.882718 0.309752
O O7 0.852086 0.908853 0.368440
O O8 0.632233 0.089468 0.437492
O O9 0.867684 0.942407 0.555642
O O10 0.000000 0.000000 0.500000
O O11 0.596831 0.032045 0.104474
O O12 0.107862 0.093698 0.248085
O O13 0.007491 0.923365 0.226436
O O14 0.837410 0.006028 0.084083
O O15 0.614640 0.750000 0.655578
O O16 0.704727 0.647509 0.597633
O O17 0.835960 0.250000 0.736712
O O18 0.582102 0.358642 0.588815
O O19 0.500000 0.000000 0.500000
#
# Coordination Sequence:
#
# PCOD9162114 Si02
#       8
#     4   4   4   4   4   4   4   4
#     4  10  22  42  64  90 118 151 195 250 305 354
#     4  10  20  34  59  90 118 150 196 245 298 350
#     4  11  20  36  61  87 120 157 197 242 290 352
#     4  11  22  42  61  89 116 160 203 243 300 346
#     4  10  24  40  65  88 119 152 200 256 296 350
#     4  11  24  40  58  86 127 164 196 237 293 360
#     4  11  20  36  61  88 120 155 197 247 297 348
#     4  10  20  36  57  85 120 157 192 241 289 351
#
# _framework density 18.269157
#
# number of rings (size 3 to 8) (size 9 to 14) (size 15 to 20)
#    0.000    1.500    5.000    0.750    1.750    1.500 
#    0.000    5.000    0.000    0.000    0.000    0.000 
#    0.000    0.000    0.000    0.000    0.000    0.000 
#
# Total GULP energy -178516.867378 kJ/mol
# GULP energy per Si atom -5578.652106 kJ/mol
# Density = 1.822758 g / cm^3
# Si number density = 18.269157 Si / 1000 Ang^3
#
#
#
# Elastic Constant Matrix: (Units=GPa)
#
#
# Indices 1 2 3 4 5 6 
#
# 1 77.7234 27.7665 20.7464 0.0000 7.0836 0.0000
# 2 27.7665 107.0660 40.7398 0.0000 13.8106 0.0000
# 3 20.7464 40.7398 84.0993 0.0000 13.3160 0.0000
# 4 0.0000 0.0000 0.0000 13.9897 0.0000 -6.3444
# 5 7.0836 13.8106 13.3160 0.0000 29.0214 0.0000
# 6 0.0000 0.0000 0.0000 -6.3444 0.0000 21.2762
#
#
#
# Elastic Compliance Matrix: (Units=1/GPa)
#
#
# Indices 1 2 3 4 5 6 
#
# 1 0.014533 -0.002841 -0.002007 0.000000 -0.001274 0.000000
# 2 -0.002841 0.012276 -0.004778 0.000000 -0.002956 0.000000
# 3 -0.002007 -0.004778 0.015380 0.000000 -0.004293 0.000000
# 4 0.000000 0.000000 0.000000 0.082659 0.000000 0.024648
# 5 -0.001274 -0.002956 -0.004293 0.000000 0.038145 0.000000
# 6 0.000000 0.000000 0.000000 0.024648 0.000000 0.054351
#
#
# Mechanical properties :
#
#
# Convention : Reuss Voigt Hill
#
# Bulk Modulus (GPa) = 43.59706 49.71045 46.65376
# Shear Modulus (GPa) = 20.47147 24.83319 22.65233
#
# Velocity S-wave (km/s) = 3.35109 3.69086 3.52507
# Velocity P-wave (km/s) = 6.23608 6.74036 6.49311
#
# Compressibility (1/GPa) = 0.02293733
#
# Stress axis : x y z
#
# Youngs Moduli (GPa) = 68.80929 81.45857 65.01851
#
# Poissons Ratio (x) = 0.23141 0.13050
# Poissons Ratio (y) = 0.19548 0.31066
# Poissons Ratio (z) = 0.13811 0.38921
#
# Static dielectric constant tensor:
#      x y z
#    x 1.650700 0.000000 0.003030 
#    y 0.000000 1.578680 0.000000 
#    z 0.003030 0.000000 1.616520 
# 
# From -- ./inp_files/68145.got.cif
#   From: 2010.05.17/outbox.cif.g08.bks.cpg/sg11_35_cif.got.tgz:68145.got - 2010.06.03 12:22:45.
