data_PCOD9162214
_publ_section_title
;
Structure prediction by ZEFSAII (Michael W. Deem and Ramdas Pophale) SiO2 
 PCOD9162214
Probable space group: P 21/M
;
_chemical_formula_sum "Si O2"
_cell_formula_units_Z 28
_cell_length_a 15.212583
_cell_length_b 7.753225
_cell_length_c 12.190940
_cell_angle_alpha 90.000000
_cell_angle_beta 69.287131
_cell_angle_gamma 90.000000
_cell_volume 1344.941759
_symmetry_space_group_name_H-M "P 21/M"
_symmetry_group_IT_number 11
_symmetry_cell_setting 'monoclinic'
loop_
_space_group_symop_operation_xyz
x,y,z
-x,1/2+y,-z
-x,-y,-z
x,1/2-y,z
loop_
_atom_site_type_symbol
_atom_site_label
_atom_site_fract_x
_atom_site_fract_y
_atom_site_fract_z
Si Si1 0.976980 0.448461 0.204293
Si Si2 0.365618 0.545695 0.644370
Si Si3 0.191915 0.537262 0.864300
Si Si4 0.812060 0.050120 0.889498
Si Si5 0.568580 0.040902 0.622284
Si Si6 0.735410 0.458446 0.695589
Si Si7 0.089588 0.047493 0.535171
O O1 0.000280 0.250000 0.169948
O O2 0.908565 0.517140 0.139981
O O3 0.920214 0.455821 0.343624
O O4 0.075467 0.543174 0.175601
O O5 0.350762 0.750000 0.638508
O O6 0.274870 0.477686 0.747368
O O7 0.386619 0.477407 0.512960
O O8 0.461020 0.517502 0.670635
O O9 0.190715 0.750000 0.864812
O O10 0.207613 0.476683 0.981426
O O11 0.782853 0.250000 0.907022
O O12 0.763519 0.972945 0.803097
O O13 0.568077 0.250000 0.620251
O O14 0.635823 0.983517 0.690882
O O15 0.733683 0.250000 0.702172
O O16 0.817086 0.503337 0.573232
O O17 0.087084 0.250000 0.558009
O O18 0.000000 0.000000 0.500000
#
# Coordination Sequence:
#
# PCOD9162214 Si02
#       7
#     4   4   4   4   4   4   4
#     4  11  21  35  55  78 108 143 180 224 271 316
#     4   9  17  33  55  76 101 134 176 223 268 320
#     4   9  19  35  55  78 105 142 183 223 270 318
#     4  10  20  35  54  76 106 144 185 221 261 321
#     4   9  18  33  54  79 105 135 170 217 277 326
#     4  10  20  35  55  78 109 144 176 216 269 322
#     4  12  23  35  53  78 109 140 176 219 264 315
#
# _framework density 20.818743999999999
#
# number of rings (size 3 to 8) (size 9 to 14) (size 15 to 20)
#    0.000    2.000    1.429    3.000    0.000    2.857 
#    0.000    6.429    0.000    0.000    0.000    0.000 
#    0.000    0.000    0.000    0.000    0.000    0.000 
#
# Total GULP energy -156407.807018 kJ/mol
# GULP energy per Si atom -5585.993108 kJ/mol
# Density = 2.077136 g / cm^3
# Si number density = 20.818744 Si / 1000 Ang^3
#
#
#
# Elastic Constant Matrix: (Units=GPa)
#
#
# Indices 1 2 3 4 5 6 
#
# 1 104.1945 -4.3724 24.8688 0.0000 16.3152 0.0000
# 2 -4.3724 39.7588 -4.1586 0.0000 1.1341 0.0000
# 3 24.8688 -4.1586 61.2343 0.0000 8.3267 0.0000
# 4 0.0000 0.0000 0.0000 6.3299 0.0000 -6.1993
# 5 16.3152 1.1341 8.3267 0.0000 12.2033 0.0000
# 6 0.0000 0.0000 0.0000 -6.1993 0.0000 17.2990
#
#
#
# Elastic Compliance Matrix: (Units=1/GPa)
#
#
# Indices 1 2 3 4 5 6 
#
# 1 0.012750 0.001518 -0.003018 0.000000 -0.015128 0.000000
# 2 0.001518 0.025681 0.001905 0.000000 -0.005716 0.000000
# 3 -0.003018 0.001905 0.018916 0.000000 -0.009049 0.000000
# 4 0.000000 0.000000 0.000000 0.243412 0.000000 0.087230
# 5 -0.015128 -0.005716 -0.009049 0.000000 0.108877 0.000000
# 6 0.000000 0.000000 0.000000 0.087230 0.000000 0.089067
#
#
# Mechanical properties :
#
#
# Convention : Reuss Voigt Hill
#
# Bulk Modulus (GPa) = 17.19473 26.42926 21.81199
# Shear Modulus (GPa) = 9.66596 19.75641 14.71118
#
# Velocity S-wave (km/s) = 2.15708 3.08388 2.66114
# Velocity P-wave (km/s) = 3.80541 5.04013 4.46565
#
# Compressibility (1/GPa) = 0.05815737
#
# Stress axis : x y z
#
# Youngs Moduli (GPa) = 78.42942 38.93941 52.86449
#
# Poissons Ratio (x) = -0.05911 0.15954
# Poissons Ratio (y) = -0.11906 -0.10070
# Poissons Ratio (z) = 0.23670 -0.07417
#
# Static dielectric constant tensor:
#      x y z
#    x 1.727030 0.000000 0.024750 
#    y 0.000000 1.774550 0.000000 
#    z 0.024750 0.000000 1.739590 
# 
# From -- ./inp_files/37479.got.cif
#   From: 2010.05.17/outbox.cif.g08.bks.cpg/sg11_19_cif.got.tgz:37479.got - 2010.06.03 12:22:45.
