data_PCOD9162841
_publ_section_title
;
Structure prediction by ZEFSAII (Michael W. Deem and Ramdas Pophale) SiO2 
 PCOD9162841
Probable space group: P 21/M
;
_chemical_formula_sum "Si O2"
_cell_formula_units_Z 20
_cell_length_a 5.233087
_cell_length_b 13.882869
_cell_length_c 14.739244
_cell_angle_alpha 90.000000
_cell_angle_beta 111.729459
_cell_angle_gamma 90.000000
_cell_volume 994.720681
_symmetry_space_group_name_H-M "P 21/M"
_symmetry_group_IT_number 11
_symmetry_cell_setting 'monoclinic'
loop_
_space_group_symop_operation_xyz
x,y,z
-x,1/2+y,-z
-x,-y,-z
x,1/2-y,z
loop_
_atom_site_type_symbol
_atom_site_label
_atom_site_fract_x
_atom_site_fract_y
_atom_site_fract_z
Si Si1 0.648713 0.867185 0.041660
Si Si2 0.304635 0.463679 0.274337
Si Si3 0.030966 0.866340 0.929069
Si Si4 0.086916 0.503038 0.615181
Si Si5 0.417116 0.362680 0.760059
O O1 0.653405 0.750000 0.042718
O O2 0.348447 0.897566 0.965706
O O3 0.888325 0.897144 0.004846
O O4 0.660446 0.895283 0.148482
O O5 0.627236 0.439087 0.330788
O O6 0.327217 0.573786 0.240689
O O7 0.148854 0.403520 0.177936
O O8 0.146917 0.459556 0.348429
O O9 0.030817 0.750000 0.928068
O O10 0.173835 0.396352 0.661463
O O11 0.000000 0.500000 0.500000
O O12 0.473213 0.250000 0.766573
#
# Coordination Sequence:
#
# PCOD9162841 Si02
#       5
#     4   4   4   4   4
#     4   9  19  33  54  82 120 155 187 226 274 335
#     4  10  22  37  61  85 111 150 189 239 276 345
#     4  10  20  36  55  83 122 156 186 228 277 335
#     4  10  22  41  60  80 114 145 188 249 292 327
#     4   9  22  38  59  87 115 150 189 233 283 338
#
# _framework density 20.106145999999999
#
# number of rings (size 3 to 8) (size 9 to 14) (size 15 to 20)
#    1.200    1.200    0.000    1.800    2.800    2.400 
#    0.000    2.000    0.000    0.000    0.000    0.000 
#    0.000    0.000    0.000    0.000    0.000    0.000 
#
# Total GULP energy -111615.599963 kJ/mol
# GULP energy per Si atom -5580.779998 kJ/mol
# Density = 2.006038 g / cm^3
# Si number density = 20.106146 Si / 1000 Ang^3
#
#
#
# Elastic Constant Matrix: (Units=GPa)
#
#
# Indices 1 2 3 4 5 6 
#
# 1 112.1661 16.4833 35.9075 0.0000 -20.7949 0.0000
# 2 16.4833 53.4351 22.1404 0.0000 0.2869 0.0000
# 3 35.9075 22.1404 147.6053 0.0000 -10.5620 0.0000
# 4 0.0000 0.0000 0.0000 22.9850 0.0000 6.8957
# 5 -20.7949 0.2869 -10.5620 0.0000 36.8613 0.0000
# 6 0.0000 0.0000 0.0000 6.8957 0.0000 23.6860
#
#
#
# Elastic Compliance Matrix: (Units=1/GPa)
#
#
# Indices 1 2 3 4 5 6 
#
# 1 0.010949 -0.002636 -0.001863 0.000000 0.005664 0.000000
# 2 -0.002636 0.020628 -0.002625 0.000000 -0.002400 0.000000
# 3 -0.001863 -0.002625 0.007706 0.000000 0.001177 0.000000
# 4 0.000000 0.000000 0.000000 0.047670 0.000000 -0.013878
# 5 0.005664 -0.002400 0.001177 0.000000 0.030680 0.000000
# 6 0.000000 0.000000 0.000000 -0.013878 0.000000 0.046259
#
#
# Mechanical properties :
#
#
# Convention : Reuss Voigt Hill
#
# Bulk Modulus (GPa) = 39.94275 51.36321 45.65298
# Shear Modulus (GPa) = 26.81188 32.61814 29.71501
#
# Velocity S-wave (km/s) = 3.65570 4.03214 3.84853
# Velocity P-wave (km/s) = 6.14230 6.87598 6.51947
#
# Compressibility (1/GPa) = 0.02503583
#
# Stress axis : x y z
#
# Youngs Moduli (GPa) = 91.33192 48.47831 129.76999
#
# Poissons Ratio (x) = 0.12779 0.24175
# Poissons Ratio (y) = 0.24075 0.34059
# Poissons Ratio (z) = 0.17014 0.12723
#
# Static dielectric constant tensor:
#      x y z
#    x 1.739610 0.000000 0.011200 
#    y 0.000000 1.748690 0.000000 
#    z 0.011200 0.000000 1.664160 
# 
# From -- ./inp_files/4349.got.cif
#   From: 2010.05.17/outbox.cif.g08.bks.cpg/sg11_3_cif.got.tgz:4349.got - 2010.06.03 12:22:45.
