data_PCOD9162286
_publ_section_title
;
Structure prediction by ZEFSAII (Michael W. Deem and Ramdas Pophale) SiO2 
 PCOD9162286
Probable space group: P 21/M
;
_chemical_formula_sum "Si O2"
_cell_formula_units_Z 28
_cell_length_a 17.958097
_cell_length_b 13.596759
_cell_length_c 6.551208
_cell_angle_alpha 90.000000
_cell_angle_beta 113.019216
_cell_angle_gamma 90.000000
_cell_volume 1472.249205
_symmetry_space_group_name_H-M "P 21/M"
_symmetry_group_IT_number 11
_symmetry_cell_setting 'monoclinic'
loop_
_space_group_symop_operation_xyz
x,y,z
-x,1/2+y,-z
-x,-y,-z
x,1/2-y,z
loop_
_atom_site_type_symbol
_atom_site_label
_atom_site_fract_x
_atom_site_fract_y
_atom_site_fract_z
Si Si1 0.382298 0.964052 0.809812
Si Si2 0.527628 0.935977 0.723647
Si Si3 0.913670 0.500994 0.099327
Si Si4 0.822817 0.637583 0.681310
Si Si5 0.055067 0.865322 0.236572
Si Si6 0.636805 0.854712 0.519007
Si Si7 0.193831 0.959502 0.634292
O O1 0.380387 0.059858 0.660954
O O2 0.448937 0.897841 0.762605
O O3 0.289064 0.932756 0.735500
O O4 0.421435 0.997000 0.065018
O O5 0.587422 0.861931 0.675377
O O6 0.500000 0.000000 0.500000
O O7 0.847811 0.465772 0.190445
O O8 0.989582 0.561576 0.271553
O O9 0.876126 0.580271 0.902244
O O10 0.940437 0.408468 0.989077
O O11 0.848873 0.750000 0.670737
O O12 0.731611 0.639994 0.668560
O O13 0.817434 0.568192 0.477082
O O14 0.035077 0.750000 0.223282
O O15 0.140868 0.886754 0.436817
O O16 0.619274 0.750000 0.399521
#
# Coordination Sequence:
#
# PCOD9162286 Si02
#       7
#     4   4   4   4   4   4   4
#     4   9  18  32  51  74 102 133 171 214 260 310
#     4   9  17  31  51  72  96 134 172 207 253 305
#     4  10  20  36  57  80 106 140 179 222 271 319
#     4   9  18  31  50  81 114 139 171 217 266 317
#     4  10  22  38  55  78 107 140 181 224 267 321
#     4   9  17  29  47  74 105 134 165 205 257 312
#     4  10  20  35  55  79 107 140 178 219 265 322
#
# _framework density 19.018519000000001
#
# number of rings (size 3 to 8) (size 9 to 14) (size 15 to 20)
#    0.000    2.571    0.000    1.714    0.000    3.429 
#    0.000    3.571    0.000    3.429    0.000    0.000 
#    0.000    0.000    0.000    0.000    0.000    0.000 
#
# Total GULP energy -155912.327397 kJ/mol
# GULP energy per Si atom -5568.297407 kJ/mol
# Density = 1.897523 g / cm^3
# Si number density = 19.018519 Si / 1000 Ang^3
#
#
#
# Elastic Constant Matrix: (Units=GPa)
#
#
# Indices 1 2 3 4 5 6 
#
# 1 119.4904 7.4393 39.1664 0.0000 -9.0922 0.0000
# 2 7.4393 49.7330 6.0925 0.0000 -7.5651 0.0000
# 3 39.1664 6.0925 68.6363 0.0000 6.7222 0.0000
# 4 0.0000 0.0000 0.0000 6.8998 0.0000 1.2208
# 5 -9.0922 -7.5651 6.7222 0.0000 32.0488 0.0000
# 6 0.0000 0.0000 0.0000 1.2208 0.0000 14.6239
#
#
#
# Elastic Compliance Matrix: (Units=1/GPa)
#
#
# Indices 1 2 3 4 5 6 
#
# 1 0.010892 -0.000139 -0.006639 0.000000 0.004450 0.000000
# 2 -0.000139 0.021247 -0.002342 0.000000 0.005467 0.000000
# 3 -0.006639 -0.002342 0.019199 0.000000 -0.006463 0.000000
# 4 0.000000 0.000000 0.000000 0.147104 0.000000 -0.012280
# 5 0.004450 0.005467 -0.006463 0.000000 0.035111 0.000000
# 6 0.000000 0.000000 0.000000 -0.012280 0.000000 0.069406
#
#
# Mechanical properties :
#
#
# Convention : Reuss Voigt Hill
#
# Bulk Modulus (GPa) = 30.21365 38.13954 34.17659
# Shear Modulus (GPa) = 15.04973 23.05860 19.05417
#
# Velocity S-wave (km/s) = 2.81609 3.48577 3.16867
# Velocity P-wave (km/s) = 5.14731 6.02480 5.60326
#
# Compressibility (1/GPa) = 0.03309763
#
# Stress axis : x y z
#
# Youngs Moduli (GPa) = 91.80849 47.06613 52.08632
#
# Poissons Ratio (x) = 0.00655 0.34580
# Poissons Ratio (y) = 0.01277 0.12199
# Poissons Ratio (z) = 0.60951 0.11023
#
# Static dielectric constant tensor:
#      x y z
#    x 1.723710 0.000000 0.025530 
#    y 0.000000 1.659560 0.000000 
#    z 0.025530 0.000000 1.662280 
# 
# From -- ./inp_files/7935.got.cif
#   From: 2010.05.17/outbox.cif.g08.bks.cpg/sg11_4_cif.got.tgz:7935.got - 2010.06.03 12:22:45.
