data_PCOD9162272
_publ_section_title
;
Structure prediction by ZEFSAII (Michael W. Deem and Ramdas Pophale) SiO2 
 PCOD9162272
Probable space group: P 21/M
;
_chemical_formula_sum "Si O2"
_cell_formula_units_Z 32
_cell_length_a 23.280154
_cell_length_b 8.403682
_cell_length_c 29.176081
_cell_angle_alpha 90.000000
_cell_angle_beta 161.706109
_cell_angle_gamma 90.000000
_cell_volume 1791.684717
_symmetry_space_group_name_H-M "P 21/M"
_symmetry_group_IT_number 11
_symmetry_cell_setting 'monoclinic'
loop_
_space_group_symop_operation_xyz
x,y,z
-x,1/2+y,-z
-x,-y,-z
x,1/2-y,z
loop_
_atom_site_type_symbol
_atom_site_label
_atom_site_fract_x
_atom_site_fract_y
_atom_site_fract_z
Si Si1 0.792677 0.557831 0.971066
Si Si2 0.791035 0.942254 0.218942
Si Si3 0.519031 0.057634 0.087250
Si Si4 0.207823 0.557529 0.525838
Si Si5 0.500464 0.443984 0.177691
Si Si6 0.512865 0.940501 0.583407
Si Si7 0.501268 0.438693 0.677987
Si Si8 0.210105 0.557433 0.280677
O O1 0.795522 0.750000 0.973922
O O2 0.001485 0.501743 0.127324
O O3 0.679621 0.505353 0.930468
O O4 0.672883 0.506238 0.836751
O O5 0.792395 0.750000 0.220311
O O6 0.998817 0.997712 0.370034
O O7 0.696451 0.000104 0.193973
O O8 0.656951 0.994028 0.076036
O O9 0.520152 0.250000 0.088488
O O10 0.509751 0.000664 0.132501
O O11 0.207900 0.750000 0.524844
O O12 0.325961 0.507986 0.659841
O O13 0.319908 0.499659 0.566667
O O14 0.499000 0.250000 0.175579
O O15 0.511859 0.750000 0.584749
O O16 0.338090 0.992459 0.420336
O O17 0.506487 0.007015 0.629558
O O18 0.690291 0.996451 0.689522
O O19 0.506472 0.250000 0.684445
O O20 0.210293 0.750000 0.279660
#
# Coordination Sequence:
#
# PCOD9162272 Si02
#       8
#     4   4   4   4   4   4   4   4
#     4   9  18  35  56  76 101 132 169 212 256 302
#     4   9  18  31  48  70  96 127 162 200 243 294
#     4   9  17  30  48  70  97 127 160 199 243 293
#     4   9  18  34  52  69  94 128 166 206 249 297
#     4   8  15  29  49  70  92 123 160 198 241 290
#     4  10  20  35  55  78 106 138 169 206 254 304
#     4  11  22  35  52  76 105 135 170 210 253 303
#     4   9  19  35  56  80 103 132 172 214 253 297
#
# _framework density 17.860285999999999
#
# number of rings (size 3 to 8) (size 9 to 14) (size 15 to 20)
#    0.000    2.750    0.000    2.250    0.000    3.500 
#    0.000    6.250    0.000    0.000    0.000    0.000 
#    0.000    0.000    0.000    0.000    0.000    0.000 
#
# Total GULP energy -178453.012124 kJ/mol
# GULP energy per Si atom -5576.656629 kJ/mol
# Density = 1.781964 g / cm^3
# Si number density = 17.860286 Si / 1000 Ang^3
#
#
#
# Elastic Constant Matrix: (Units=GPa)
#
#
# Indices 1 2 3 4 5 6 
#
# 1 326.1663 50.7422 238.4512 0.0000 12.7736 0.0000
# 2 50.7422 18.6172 51.4330 0.0000 6.7657 0.0000
# 3 238.4512 51.4330 279.1550 0.0000 46.6034 0.0000
# 4 0.0000 0.0000 0.0000 15.8408 0.0000 6.4624
# 5 12.7736 6.7657 46.6034 0.0000 22.7081 0.0000
# 6 0.0000 0.0000 0.0000 6.4624 0.0000 23.1174
#
#
#
# Elastic Compliance Matrix: (Units=1/GPa)
#
#
# Indices 1 2 3 4 5 6 
#
# 1 0.013862 -0.005457 -0.014915 0.000000 0.024438 0.000000
# 2 -0.005457 0.114271 -0.017069 0.000000 0.004055 0.000000
# 3 -0.014915 -0.017069 0.026191 0.000000 -0.040276 0.000000
# 4 0.000000 0.000000 0.000000 0.071254 0.000000 -0.019919
# 5 0.024438 0.004055 -0.040276 0.000000 0.111740 0.000000
# 6 0.000000 0.000000 0.000000 -0.019919 0.000000 0.048826
#
#
# Mechanical properties :
#
#
# Convention : Reuss Voigt Hill
#
# Bulk Modulus (GPa) = 12.58797 145.02125 78.80461
# Shear Modulus (GPa) = 10.25630 31.22073 20.73851
#
# Velocity S-wave (km/s) = 2.39895 4.18551 3.41127
# Velocity P-wave (km/s) = 3.83883 10.23386 7.72879
#
# Compressibility (1/GPa) = 0.07944094
#
# Stress axis : x y z
#
# Youngs Moduli (GPa) = 72.14213 8.75115 38.18126
#
# Poissons Ratio (x) = 0.04776 0.56946
# Poissons Ratio (y) = 0.39370 0.65172
# Poissons Ratio (z) = 1.07597 0.14937
#
# Static dielectric constant tensor:
#      x y z
#    x 1.583500 0.000000 -0.001450 
#    y 0.000000 1.616310 0.000000 
#    z -0.001450 0.000000 1.608890 
# 
# From -- ./inp_files/72210.got.cif
#   From: 2010.05.17/outbox.cif.g08.bks.cpg/sg11_37_cif.got.tgz:72210.got - 2010.06.03 12:22:45.
