data_PCOD9162183
_publ_section_title
;
Structure prediction by ZEFSAII (Michael W. Deem and Ramdas Pophale) SiO2 
 PCOD9162183
Probable space group: P 21/M
;
_chemical_formula_sum "Si O2"
_cell_formula_units_Z 32
_cell_length_a 12.693228
_cell_length_b 9.804751
_cell_length_c 12.598360
_cell_angle_alpha 90.000000
_cell_angle_beta 94.090038
_cell_angle_gamma 90.000000
_cell_volume 1563.922370
_symmetry_space_group_name_H-M "P 21/M"
_symmetry_group_IT_number 11
_symmetry_cell_setting 'monoclinic'
loop_
_space_group_symop_operation_xyz
x,y,z
-x,1/2+y,-z
-x,-y,-z
x,1/2-y,z
loop_
_atom_site_type_symbol
_atom_site_label
_atom_site_fract_x
_atom_site_fract_y
_atom_site_fract_z
Si Si1 0.663010 0.904040 0.851625
Si Si2 0.008871 0.091160 0.657875
Si Si3 0.170704 0.599325 0.203813
Si Si4 0.909376 0.097265 0.036184
Si Si5 0.835764 0.091145 0.456022
Si Si6 0.257507 0.093048 0.898236
Si Si7 0.406259 0.907341 0.540539
Si Si8 0.577563 0.093918 0.204460
O O1 0.673608 0.750000 0.812567
O O2 0.540229 0.938471 0.842521
O O3 0.730976 0.000043 0.780191
O O4 0.703968 0.905365 0.975941
O O5 0.039458 0.250000 0.673014
O O6 0.939103 0.047093 0.754411
O O7 0.919580 0.084412 0.558533
O O8 0.108841 0.001601 0.629880
O O9 0.189496 0.750000 0.251882
O O10 0.157424 0.614860 0.076842
O O11 0.940812 0.250000 0.073753
O O12 0.842009 0.008016 0.112443
O O13 0.000000 0.000000 0.000000
O O14 0.827673 0.250000 0.420965
O O15 0.717252 0.048949 0.482830
O O16 0.234960 0.250000 0.867553
O O17 0.345563 0.020103 0.835033
O O18 0.415976 0.750000 0.502917
O O19 0.420595 0.906764 0.668629
O O20 0.500000 0.000000 0.500000
O O21 0.605262 0.250000 0.171155
#
# Coordination Sequence:
#
# PCOD9162183 Si02
#       8
#     4   4   4   4   4   4   4   4
#     4   9  19  34  53  79 111 143 180 225 269 323
#     4   9  18  34  56  80 104 135 176 226 273 316
#     4   9  19  33  52  79 107 137 177 223 269 319
#     4  10  20  35  53  76 108 143 176 218 272 325
#     4   9  19  36  55  77 106 138 176 222 271 324
#     4  10  20  35  55  80 107 140 184 226 268 325
#     4  10  23  40  57  81 113 147 184 226 276 333
#     4  10  21  37  55  79 110 145 181 223 276 325
#
# _framework density 20.461375
#
# number of rings (size 3 to 8) (size 9 to 14) (size 15 to 20)
#    0.000    2.500    0.000    1.125    1.750    4.000 
#    0.000    2.500    0.000    0.000    0.000    0.000 
#    0.000    0.000    0.000    0.000    0.000    0.000 
#
# Total GULP energy -178445.073373 kJ/mol
# GULP energy per Si atom -5576.408543 kJ/mol
# Density = 2.041480 g / cm^3
# Si number density = 20.461375 Si / 1000 Ang^3
#
#
#
# Elastic Constant Matrix: (Units=GPa)
#
#
# Indices 1 2 3 4 5 6 
#
# 1 123.5924 102.1572 23.4709 0.0000 -25.6433 0.0000
# 2 102.1572 147.5839 26.5425 0.0000 -37.8299 0.0000
# 3 23.4709 26.5425 36.2218 0.0000 -16.7669 0.0000
# 4 0.0000 0.0000 0.0000 17.5713 0.0000 -15.8690
# 5 -25.6433 -37.8299 -16.7669 0.0000 29.2646 0.0000
# 6 0.0000 0.0000 0.0000 -15.8690 0.0000 34.2558
#
#
#
# Elastic Compliance Matrix: (Units=1/GPa)
#
#
# Indices 1 2 3 4 5 6 
#
# 1 0.019316 -0.013314 -0.003936 0.000000 -0.002540 0.000000
# 2 -0.013314 0.019402 0.000843 0.000000 0.013898 0.000000
# 3 -0.003936 0.000843 0.038716 0.000000 0.019822 0.000000
# 4 0.000000 0.000000 0.000000 0.097847 0.000000 0.045328
# 5 -0.002540 0.013898 0.019822 0.000000 0.061268 0.000000
# 6 0.000000 0.000000 0.000000 0.045328 0.000000 0.050190
#
#
# Mechanical properties :
#
#
# Convention : Reuss Voigt Hill
#
# Bulk Modulus (GPa) = 22.41123 67.97104 45.19113
# Shear Modulus (GPa) = 14.95085 26.56684 20.75884
#
# Velocity S-wave (km/s) = 2.70605 3.60723 3.18864
# Velocity P-wave (km/s) = 4.55416 7.11623 5.97416
#
# Compressibility (1/GPa) = 0.04462049
#
# Stress axis : x y z
#
# Youngs Moduli (GPa) = 51.76926 51.53975 25.82885
#
# Poissons Ratio (x) = 0.68620 0.10166
# Poissons Ratio (y) = 0.68925 -0.02176
# Poissons Ratio (z) = 0.20377 -0.04342
#
# Static dielectric constant tensor:
#      x y z
#    x 1.825310 0.000000 0.012130 
#    y 0.000000 1.750030 0.000000 
#    z 0.012130 0.000000 1.766760 
# 
# From -- ./inp_files/38275.got.cif
#   From: 2010.05.17/outbox.cif.g08.bks.cpg/sg11_20_cif.got.tgz:38275.got - 2010.06.03 12:22:45.
