data_PCOD9162041
_publ_section_title
;
Structure prediction by ZEFSAII (Michael W. Deem and Ramdas Pophale) SiO2 
 PCOD9162041
Probable space group: P 21/M
;
_chemical_formula_sum "Si O2"
_cell_formula_units_Z 28
_cell_length_a 18.280267
_cell_length_b 7.645031
_cell_length_c 14.571979
_cell_angle_alpha 90.000000
_cell_angle_beta 34.306675
_cell_angle_gamma 90.000000
_cell_volume 1147.805970
_symmetry_space_group_name_H-M "P 21/M"
_symmetry_group_IT_number 11
_symmetry_cell_setting 'monoclinic'
loop_
_space_group_symop_operation_xyz
x,y,z
-x,1/2+y,-z
-x,-y,-z
x,1/2-y,z
loop_
_atom_site_type_symbol
_atom_site_label
_atom_site_fract_x
_atom_site_fract_y
_atom_site_fract_z
Si Si1 0.532754 0.458247 0.570741
Si Si2 0.262838 0.454195 0.390675
Si Si3 0.237064 0.963464 0.205976
Si Si4 0.811616 0.454095 0.259072
Si Si5 0.021547 0.541481 0.297812
Si Si6 0.539931 0.456842 0.163435
Si Si7 0.907472 0.540595 0.971129
O O1 0.500000 0.500000 0.500000
O O2 0.536436 0.250000 0.573753
O O3 0.678893 0.531501 0.434756
O O4 0.440700 0.519986 0.747955
O O5 0.262253 0.250000 0.418480
O O6 0.261821 0.467731 0.281590
O O7 0.397529 0.532908 0.287152
O O8 0.123600 0.532238 0.564864
O O9 0.236690 0.750000 0.210143
O O10 0.100152 0.022958 0.304582
O O11 0.348954 0.023333 0.019389
O O12 0.814224 0.250000 0.280670
O O13 0.948173 0.529619 0.151437
O O14 0.812870 0.469191 0.147200
O O15 0.008460 0.750000 0.321741
O O16 0.107739 0.507885 0.118514
O O17 0.534786 0.250000 0.150484
O O18 0.904232 0.750000 0.983157
#
# Coordination Sequence:
#
# PCOD9162041 Si02
#       7
#     4   4   4   4   4   4   4
#     4  11  24  40  60  85 116 154 194 238 288 343
#     4  10  21  38  61  86 114 150 196 242 284 340
#     4  10  22  38  58  84 117 153 189 234 295 349
#     4   9  20  38  56  78 113 151 187 233 291 342
#     4  10  21  36  55  82 117 153 186 231 293 344
#     4  10  22  40  60  85 116 153 193 237 290 347
#     4  10  20  34  57  86 111 145 193 238 280 340
#
# _framework density 24.394366999999999
#
# number of rings (size 3 to 8) (size 9 to 14) (size 15 to 20)
#    0.000    2.000    0.000    2.571    2.000    4.000 
#    0.000    0.000    0.000    0.000    0.000    0.000 
#    0.000    0.000    0.000    0.000    0.000    0.000 
#
# Total GULP energy -156572.325264 kJ/mol
# GULP energy per Si atom -5591.868759 kJ/mol
# Density = 2.433884 g / cm^3
# Si number density = 24.394367 Si / 1000 Ang^3
#
#
#
# Elastic Constant Matrix: (Units=GPa)
#
#
# Indices 1 2 3 4 5 6 
#
# 1 72.1377 -4.5225 7.1366 0.0000 13.8025 0.0000
# 2 -4.5225 54.3770 -4.0728 0.0000 -16.9430 0.0000
# 3 7.1366 -4.0728 115.4098 0.0000 14.3077 0.0000
# 4 0.0000 0.0000 0.0000 12.2063 0.0000 13.5198
# 5 13.8025 -16.9430 14.3077 0.0000 39.5637 0.0000
# 6 0.0000 0.0000 0.0000 13.5198 0.0000 19.1430
#
#
#
# Elastic Compliance Matrix: (Units=1/GPa)
#
#
# Indices 1 2 3 4 5 6 
#
# 1 0.014872 -0.000426 -0.000281 0.000000 -0.005269 0.000000
# 2 -0.000426 0.021251 -0.000388 0.000000 0.009390 0.000000
# 3 -0.000281 -0.000388 0.009084 0.000000 -0.003353 0.000000
# 4 0.000000 0.000000 0.000000 0.376247 0.000000 -0.265727
# 5 -0.005269 0.009390 -0.003353 0.000000 0.032347 0.000000
# 6 0.000000 0.000000 0.000000 -0.265727 0.000000 0.239910
#
#
# Mechanical properties :
#
#
# Convention : Reuss Voigt Hill
#
# Bulk Modulus (GPa) = 23.24667 26.55634 24.90151
# Shear Modulus (GPa) = 7.03987 30.40814 18.72400
#
# Velocity S-wave (km/s) = 1.70062 3.53444 2.77348
# Velocity P-wave (km/s) = 3.66147 5.25036 4.52618
#
# Compressibility (1/GPa) = 0.04301691
#
# Stress axis : x y z
#
# Youngs Moduli (GPa) = 67.24213 47.05591 110.08148
#
# Poissons Ratio (x) = 0.02004 0.03098
# Poissons Ratio (y) = 0.02864 0.04268
# Poissons Ratio (z) = 0.01893 0.01825
#
# Static dielectric constant tensor:
#      x y z
#    x 1.962250 0.000000 -0.037970 
#    y 0.000000 1.883290 0.000000 
#    z -0.037970 0.000000 1.978790 
# 
# From -- ./inp_files/54483.got.cif
#   From: 2010.05.17/outbox.cif.g08.bks.cpg/sg11_28_cif.got.tgz:54483.got - 2010.06.03 12:22:45.
