data_PCOD9162309
_publ_section_title
;
Structure prediction by ZEFSAII (Michael W. Deem and Ramdas Pophale) SiO2 
 PCOD9162309
Probable space group: P 21/M
;
_chemical_formula_sum "Si O2"
_cell_formula_units_Z 24
_cell_length_a 16.034412
_cell_length_b 8.303807
_cell_length_c 17.086044
_cell_angle_alpha 90.000000
_cell_angle_beta 144.918024
_cell_angle_gamma 90.000000
_cell_volume 1307.522473
_symmetry_space_group_name_H-M "P 21/M"
_symmetry_group_IT_number 11
_symmetry_cell_setting 'monoclinic'
loop_
_space_group_symop_operation_xyz
x,y,z
-x,1/2+y,-z
-x,-y,-z
x,1/2-y,z
loop_
_atom_site_type_symbol
_atom_site_label
_atom_site_fract_x
_atom_site_fract_y
_atom_site_fract_z
Si Si1 0.341936 0.944064 0.617462
Si Si2 0.658901 0.555614 0.900692
Si Si3 0.798016 0.945671 0.165262
Si Si4 0.833478 0.943839 0.366134
Si Si5 0.954682 0.440690 0.050418
Si Si6 0.099465 0.555375 0.315240
O O1 0.346752 0.750000 0.615508
O O2 0.506580 0.004675 0.750010
O O3 0.244685 0.002004 0.469926
O O4 0.257848 0.987749 0.632253
O O5 0.653275 0.750000 0.898552
O O6 0.689437 0.499515 0.013462
O O7 0.798843 0.508990 0.957654
O O8 0.794784 0.750000 0.163497
O O9 0.774026 0.999073 0.235568
O O10 0.959681 0.992277 0.260499
O O11 0.829974 0.750000 0.366236
O O12 0.000000 0.000000 0.500000
O O13 0.945496 0.250000 0.043241
O O14 0.068575 0.494135 0.204657
O O15 0.000000 0.500000 0.000000
O O16 0.100230 0.750000 0.313395
#
# Coordination Sequence:
#
# PCOD9162309 Si02
#       6
#     4   4   4   4   4   4
#     4  10  20  35  55  80 111 147 181 222 277 322
#     4   9  19  37  58  79 109 145 179 220 275 327
#     4   8  15  30  50  72 104 144 183 223 266 309
#     4  11  20  31  49  75 109 148 193 235 268 311
#     4  11  22  38  61  86 108 135 176 218 265 324
#     4   9  17  34  56  78 108 142 179 220 269 321
#
# _framework density 18.355325000000001
#
# number of rings (size 3 to 8) (size 9 to 14) (size 15 to 20)
#    0.000    2.333    1.667    3.000    0.000    2.000 
#    0.000    1.667    0.000    0.000    0.000    0.000 
#    0.000    0.000    0.000    0.000    0.000    0.000 
#
# Total GULP energy -133883.872980 kJ/mol
# GULP energy per Si atom -5578.494708 kJ/mol
# Density = 1.831355 g / cm^3
# Si number density = 18.355325 Si / 1000 Ang^3
#
#
#
# Elastic Constant Matrix: (Units=GPa)
#
#
# Indices 1 2 3 4 5 6 
#
# 1 88.9593 -4.8471 82.8758 0.0000 -17.6193 0.0000
# 2 -4.8471 5.0412 19.0997 0.0000 2.5043 0.0000
# 3 82.8758 19.0997 192.2147 0.0000 -2.6337 0.0000
# 4 0.0000 0.0000 0.0000 17.1846 0.0000 -4.9556
# 5 -17.6193 2.5043 -2.6337 0.0000 29.8755 0.0000
# 6 0.0000 0.0000 0.0000 -4.9556 0.0000 26.1096
#
#
#
# Elastic Compliance Matrix: (Units=1/GPa)
#
#
# Indices 1 2 3 4 5 6 
#
# 1 -0.471103 -1.885480 0.389304 0.000000 -0.085469 0.000000
# 2 -1.885480 -7.199801 1.523240 0.000000 -0.374179 0.000000
# 3 0.389304 1.523240 -0.312992 0.000000 0.074319 0.000000
# 4 0.000000 0.000000 0.000000 0.061561 0.000000 0.011684
# 5 -0.085469 -0.374179 0.074319 0.000000 0.020983 0.000000
# 6 0.000000 0.000000 0.000000 0.011684 0.000000 0.040518
#
#
# Mechanical properties :
#
#
# Convention : Reuss Voigt Hill
#
# Bulk Modulus (GPa) = -0.12611 53.38577 26.62983
# Shear Modulus (GPa) = -0.47356 27.23975 13.38309
#
# Velocity S-wave (km/s) = -0.50849 3.85648 2.70314
# Velocity P-wave (km/s) = 0.64312 6.99841 4.92768
#
# Compressibility (1/GPa) = -7.92976792
#
# Stress axis : x y z
#
# Youngs Moduli (GPa) = -2.12268 -0.13889 -3.19497
#
# Poissons Ratio (x) = -0.26188 1.24382
# Poissons Ratio (y) = -4.00226 4.86671
# Poissons Ratio (z) = 0.82637 0.21157
#
# Static dielectric constant tensor:
#      x y z
#    x 1.496730 0.000000 -0.040490 
#    y 0.000000 1.627150 0.000000 
#    z -0.040490 0.000000 1.652530 
# 
# From -- ./inp_files/23810.got.cif
#   From: 2010.05.17/outbox.cif.g08.bks.cpg/sg11_12_cif.got.tgz:23810.got - 2010.06.03 12:22:45.
