data_PCOD9162534
_publ_section_title
;
Structure prediction by ZEFSAII (Michael W. Deem and Ramdas Pophale) SiO2 
 PCOD9162534
Probable space group: P 21/M
;
_chemical_formula_sum "Si O2"
_cell_formula_units_Z 20
_cell_length_a 16.678695
_cell_length_b 7.533682
_cell_length_c 6.735108
_cell_angle_alpha 90.000000
_cell_angle_beta 116.951305
_cell_angle_gamma 90.000000
_cell_volume 754.366977
_symmetry_space_group_name_H-M "P 21/M"
_symmetry_group_IT_number 11
_symmetry_cell_setting 'monoclinic'
loop_
_space_group_symop_operation_xyz
x,y,z
-x,1/2+y,-z
-x,-y,-z
x,1/2-y,z
loop_
_atom_site_type_symbol
_atom_site_label
_atom_site_fract_x
_atom_site_fract_y
_atom_site_fract_z
Si Si1 0.881891 0.541316 0.560141
Si Si2 0.264809 0.958430 0.172334
Si Si3 0.566310 0.941873 0.401086
Si Si4 0.928054 0.034694 0.151246
Si Si5 0.690981 0.967593 0.233370
O O1 0.877707 0.750000 0.598935
O O2 0.906089 0.521724 0.352965
O O3 0.780950 0.467566 0.450337
O O4 0.970271 0.465711 0.770286
O O5 0.269213 0.750000 0.224869
O O6 0.161037 0.022307 0.068208
O O7 0.295848 0.977449 0.978069
O O8 0.337477 0.062728 0.379774
O O9 0.531955 0.750000 0.303231
O O10 0.599704 0.034039 0.236168
O O11 0.500000 0.000000 0.500000
O O12 0.929248 0.250000 0.148841
O O13 0.690527 0.750000 0.235956
#
# Coordination Sequence:
#
# PCOD9162534 Si02
#       5
#     4   4   4   4   4
#     4   8  13  25  47  74 105 139 174 211 251 301
#     4  10  20  35  57  84 113 144 177 216 265 320
#     4  11  24  41  59  79 105 138 180 229 277 324
#     4   8  14  25  45  75 108 140 172 207 251 305
#     4   9  19  36  58  82 108 142 182 222 265 314
#
# _framework density 26.512293
#
# number of rings (size 3 to 8) (size 9 to 14) (size 15 to 20)
#    0.000    2.800    0.000    1.200    0.000    3.200 
#    0.000    1.000    0.000    0.000    0.000    0.000 
#    0.000    0.000    0.000    0.000    0.000    0.000 
#
# Total GULP energy -111718.662771 kJ/mol
# GULP energy per Si atom -5585.933139 kJ/mol
# Density = 2.645195 g / cm^3
# Si number density = 26.512293 Si / 1000 Ang^3
#
#
#
# Elastic Constant Matrix: (Units=GPa)
#
#
# Indices 1 2 3 4 5 6 
#
# 1 208.7114 13.1905 -10.4051 0.0000 -7.8217 0.0000
# 2 13.1905 111.9443 3.9386 0.0000 -3.7996 0.0000
# 3 -10.4051 3.9386 74.4864 0.0000 4.7140 0.0000
# 4 0.0000 0.0000 0.0000 25.2360 0.0000 -9.3489
# 5 -7.8217 -3.7996 4.7140 0.0000 30.7181 0.0000
# 6 0.0000 0.0000 0.0000 -9.3489 0.0000 22.6672
#
#
#
# Elastic Compliance Matrix: (Units=1/GPa)
#
#
# Indices 1 2 3 4 5 6 
#
# 1 0.004900 -0.000563 0.000646 0.000000 0.001079 0.000000
# 2 -0.000563 0.009058 -0.000626 0.000000 0.001073 0.000000
# 3 0.000646 -0.000626 0.013676 0.000000 -0.002012 0.000000
# 4 0.000000 0.000000 0.000000 0.046773 0.000000 0.019291
# 5 0.001079 0.001073 -0.002012 0.000000 0.033270 0.000000
# 6 0.000000 0.000000 0.000000 0.019291 0.000000 0.052073
#
#
# Mechanical properties :
#
#
# Convention : Reuss Voigt Hill
#
# Bulk Modulus (GPa) = 37.66879 45.39891 41.53385
# Shear Modulus (GPa) = 29.46649 41.61879 35.54264
#
# Velocity S-wave (km/s) = 3.33742 3.96636 3.66541
# Velocity P-wave (km/s) = 5.39352 6.17551 5.79771
#
# Compressibility (1/GPa) = 0.02654717
#
# Stress axis : x y z
#
# Youngs Moduli (GPa) = 204.10066 110.40175 73.12136
#
# Poissons Ratio (x) = 0.06220 -0.04723
# Poissons Ratio (y) = 0.11500 0.04574
# Poissons Ratio (z) = -0.13184 0.06906
#
# Static dielectric constant tensor:
#      x y z
#    x 2.173970 0.000000 -0.060890 
#    y 0.000000 2.013470 0.000000 
#    z -0.060890 0.000000 2.147550 
# 
# From -- ./inp_files/20230.got.cif
#   From: 2010.05.17/outbox.cif.g08.bks.cpg/sg11_11_cif.got.tgz:20230.got - 2010.06.03 12:22:45.
