data_PCOD9162552
_publ_section_title
;
Structure prediction by ZEFSAII (Michael W. Deem and Ramdas Pophale) SiO2 
 PCOD9162552
Probable space group: P 21/M
;
_chemical_formula_sum "Si O2"
_cell_formula_units_Z 28
_cell_length_a 9.689197
_cell_length_b 13.706825
_cell_length_c 16.091593
_cell_angle_alpha 90.000000
_cell_angle_beta 47.656319
_cell_angle_gamma 90.000000
_cell_volume 1579.564445
_symmetry_space_group_name_H-M "P 21/M"
_symmetry_group_IT_number 11
_symmetry_cell_setting 'monoclinic'
loop_
_space_group_symop_operation_xyz
x,y,z
-x,1/2+y,-z
-x,-y,-z
x,1/2-y,z
loop_
_atom_site_type_symbol
_atom_site_label
_atom_site_fract_x
_atom_site_fract_y
_atom_site_fract_z
Si Si1 0.812942 0.471515 0.625410
Si Si2 0.485702 0.867813 0.369002
Si Si3 0.992969 0.866302 0.304306
Si Si4 0.887193 0.138991 0.083632
Si Si5 0.558990 0.866804 0.520473
Si Si6 0.904957 0.937951 0.161223
Si Si7 0.532755 0.636536 0.719644
O O1 0.680201 0.405031 0.621552
O O2 0.871009 0.416693 0.685518
O O3 0.691967 0.568306 0.691350
O O4 0.000000 0.500000 0.500000
O O5 0.493791 0.750000 0.364697
O O6 0.461037 0.901827 0.475392
O O7 0.687899 0.906573 0.257205
O O8 0.020460 0.750000 0.291593
O O9 0.001751 0.907846 0.207856
O O10 0.779840 0.884506 0.421008
O O11 0.917287 0.250000 0.101364
O O12 0.665945 0.129036 0.155044
O O13 0.005141 0.118077 0.953302
O O14 0.928318 0.052654 0.131955
O O15 0.531468 0.750000 0.530931
O O16 0.500525 0.896783 0.636497
O O17 0.590213 0.750000 0.694721
#
# Coordination Sequence:
#
# PCOD9162552 Si02
#       7
#     4   4   4   4   4   4   4
#     4  12  23  34  52  84 116 153 190 231 285 343
#     4  10  20  35  57  85 112 142 193 245 281 326
#     4  10  20  36  57  83 116 151 189 235 286 337
#     4  10  20  36  62  89 115 146 186 239 290 338
#     4   8  16  32  55  79 107 145 184 229 281 335
#     4  10  20  38  64  89 109 146 195 237 285 338
#     4  10  20  36  54  78 115 154 187 226 288 348
#
# _framework density 17.726406000000001
#
# number of rings (size 3 to 8) (size 9 to 14) (size 15 to 20)
#    0.000    2.000    2.857    2.571    0.000    2.286 
#    0.000    1.429    0.000    0.000    0.000    0.000 
#    0.000    0.000    0.000    0.000    0.000    0.000 
#
# Total GULP energy -156257.869054 kJ/mol
# GULP energy per Si atom -5580.638181 kJ/mol
# Density = 1.768606 g / cm^3
# Si number density = 17.726406 Si / 1000 Ang^3
#
#
#
# Elastic Constant Matrix: (Units=GPa)
#
#
# Indices 1 2 3 4 5 6 
#
# 1 140.9965 65.0981 45.0528 0.0000 16.5126 0.0000
# 2 65.0981 134.0206 38.6310 0.0000 3.0083 0.0000
# 3 45.0528 38.6310 82.0462 0.0000 0.6848 0.0000
# 4 0.0000 0.0000 0.0000 20.5140 0.0000 -1.9578
# 5 16.5126 3.0083 0.6848 0.0000 15.8778 0.0000
# 6 0.0000 0.0000 0.0000 -1.9578 0.0000 34.8237
#
#
#
# Elastic Compliance Matrix: (Units=1/GPa)
#
#
# Indices 1 2 3 4 5 6 
#
# 1 0.011741 -0.004188 -0.004382 0.000000 -0.011228 0.000000
# 2 -0.004188 0.010161 -0.002506 0.000000 0.002538 0.000000
# 3 -0.004382 -0.002506 0.015738 0.000000 0.004353 0.000000
# 4 0.000000 0.000000 0.000000 0.049010 0.000000 0.002755
# 5 -0.011228 0.002538 0.004353 0.000000 0.073989 0.000000
# 6 0.000000 0.000000 0.000000 0.002755 0.000000 0.028871
#
#
# Mechanical properties :
#
#
# Convention : Reuss Voigt Hill
#
# Bulk Modulus (GPa) = 64.56130 72.73637 68.64883
# Shear Modulus (GPa) = 23.06025 28.12855 25.59440
#
# Velocity S-wave (km/s) = 3.61071 3.98781 3.80393
# Velocity P-wave (km/s) = 7.34050 7.89464 7.62261
#
# Compressibility (1/GPa) = 0.01548916
#
# Stress axis : x y z
#
# Youngs Moduli (GPa) = 85.17215 98.41477 63.54162
#
# Poissons Ratio (x) = 0.41216 0.27841
# Poissons Ratio (y) = 0.35670 0.15922
# Poissons Ratio (z) = 0.37318 0.24661
#
# Static dielectric constant tensor:
#      x y z
#    x 1.573640 0.000000 0.008370 
#    y 0.000000 1.658920 0.000000 
#    z 0.008370 0.000000 1.598710 
# 
# From -- ./inp_files/21811.got.cif
#   From: 2010.05.17/outbox.cif.g08.bks.cpg/sg11_11_cif.got.tgz:21811.got - 2010.06.03 12:22:45.
