data_PCOD9162302
_publ_section_title
;
Structure prediction by ZEFSAII (Michael W. Deem and Ramdas Pophale) SiO2 
 PCOD9162302
Probable space group: P 21/M
;
_chemical_formula_sum "Si O2"
_cell_formula_units_Z 28
_cell_length_a 9.683171
_cell_length_b 8.312414
_cell_length_c 30.286975
_cell_angle_alpha 90.000000
_cell_angle_beta 142.856320
_cell_angle_gamma 90.000000
_cell_volume 1471.991088
_symmetry_space_group_name_H-M "P 21/M"
_symmetry_group_IT_number 11
_symmetry_cell_setting 'monoclinic'
loop_
_space_group_symop_operation_xyz
x,y,z
-x,1/2+y,-z
-x,-y,-z
x,1/2-y,z
loop_
_atom_site_type_symbol
_atom_site_label
_atom_site_fract_x
_atom_site_fract_y
_atom_site_fract_z
Si Si1 0.399411 0.944478 0.798882
Si Si2 0.760921 0.442001 0.067430
Si Si3 0.092871 0.442698 0.800081
Si Si4 0.678561 0.444248 0.633447
Si Si5 0.920829 0.555225 0.931680
Si Si6 0.157704 0.444530 0.500463
Si Si7 0.015315 0.444184 0.367434
O O1 0.397765 0.750000 0.798971
O O2 0.658787 0.998516 0.857642
O O3 0.221496 0.998975 0.715700
O O4 0.296016 0.002584 0.819085
O O5 0.758579 0.250000 0.064386
O O6 0.872100 0.492536 0.142082
O O7 0.908858 0.502783 0.063428
O O8 0.500000 0.500000 0.000000
O O9 0.092973 0.250000 0.801566
O O10 0.857049 0.498373 0.716670
O O11 0.678933 0.250000 0.633792
O O12 0.419379 0.500379 0.573066
O O13 0.783295 0.500792 0.613781
O O14 0.922174 0.750000 0.931242
O O15 0.000000 0.500000 0.000000
O O16 0.160806 0.250000 0.500420
O O17 0.000000 0.500000 0.500000
O O18 0.059758 0.500929 0.428325
O O19 0.012494 0.250000 0.367162
#
# Coordination Sequence:
#
# PCOD9162302 Si02
#       7
#     4   4   4   4   4   4   4
#     4   9  18  35  56  78 104 134 170 218 267 311
#     4  11  23  38  56  80 108 140 177 217 260 310
#     4  10  20  35  55  80 108 139 174 214 260 314
#     4   9  19  35  54  77 107 139 174 216 263 314
#     4  10  22  37  54  76 103 134 170 211 257 307
#     4  10  21  35  51  76 108 141 177 220 266 315
#     4   9  18  33  55  79 102 133 176 218 260 313
#
# _framework density 19.021853
#
# number of rings (size 3 to 8) (size 9 to 14) (size 15 to 20)
#    0.000    2.286    0.000    2.143    0.000    6.857 
#    0.000    1.429    0.000    0.000    0.000    0.000 
#    0.000    0.000    0.000    0.000    0.000    0.000 
#
# Total GULP energy -156329.040681 kJ/mol
# GULP energy per Si atom -5583.180024 kJ/mol
# Density = 1.897856 g / cm^3
# Si number density = 19.021853 Si / 1000 Ang^3
#
#
#
# Elastic Constant Matrix: (Units=GPa)
#
#
# Indices 1 2 3 4 5 6 
#
# 1 199.5975 18.8433 137.7135 0.0000 2.5621 0.0000
# 2 18.8433 9.8584 18.2345 0.0000 1.6663 0.0000
# 3 137.7135 18.2345 143.0756 0.0000 -2.2634 0.0000
# 4 0.0000 0.0000 0.0000 20.6634 0.0000 -2.1982
# 5 2.5621 1.6663 -2.2634 0.0000 39.2151 0.0000
# 6 0.0000 0.0000 0.0000 -2.1982 0.0000 29.5120
#
#
#
# Elastic Compliance Matrix: (Units=1/GPa)
#
#
# Indices 1 2 3 4 5 6 
#
# 1 0.015078 -0.002140 -0.014267 0.000000 -0.001718 0.000000
# 2 -0.002140 0.134769 -0.015218 0.000000 -0.006465 0.000000
# 3 -0.014267 -0.015218 0.022707 0.000000 0.002889 0.000000
# 4 0.000000 0.000000 0.000000 0.048781 0.000000 0.003633
# 5 -0.001718 -0.006465 0.002889 0.000000 0.026054 0.000000
# 6 0.000000 0.000000 0.000000 0.003633 0.000000 0.034155
#
#
# Mechanical properties :
#
#
# Convention : Reuss Voigt Hill
#
# Bulk Modulus (GPa) = 9.14893 78.01267 43.58080
# Shear Modulus (GPa) = 13.11546 29.72746 21.42146
#
# Velocity S-wave (km/s) = 2.62867 3.95752 3.35946
# Velocity P-wave (km/s) = 3.74611 7.87298 6.16511
#
# Compressibility (1/GPa) = 0.10930245
#
# Stress axis : x y z
#
# Youngs Moduli (GPa) = 66.32175 7.42013 44.03902
#
# Poissons Ratio (x) = 0.01588 0.62832
# Poissons Ratio (y) = 0.14194 0.67019
# Poissons Ratio (z) = 0.94623 0.11292
#
# Static dielectric constant tensor:
#      x y z
#    x 1.626800 0.000000 0.016940 
#    y 0.000000 1.666710 0.000000 
#    z 0.016940 0.000000 1.676080 
# 
# From -- ./inp_files/23969.got.cif
#   From: 2010.05.17/outbox.cif.g08.bks.cpg/sg11_12_cif.got.tgz:23969.got - 2010.06.03 12:22:45.
