data_PCOD9162966
_publ_section_title
;
Structure prediction by ZEFSAII (Michael W. Deem and Ramdas Pophale) SiO2 
 PCOD9162966
Probable space group: P 21/M
;
_chemical_formula_sum "Si O2"
_cell_formula_units_Z 32
_cell_length_a 12.675733
_cell_length_b 8.764862
_cell_length_c 15.000839
_cell_angle_alpha 90.000000
_cell_angle_beta 91.467161
_cell_angle_gamma 90.000000
_cell_volume 1666.062597
_symmetry_space_group_name_H-M "P 21/M"
_symmetry_group_IT_number 11
_symmetry_cell_setting 'monoclinic'
loop_
_space_group_symop_operation_xyz
x,y,z
-x,1/2+y,-z
-x,-y,-z
x,1/2-y,z
loop_
_atom_site_type_symbol
_atom_site_label
_atom_site_fract_x
_atom_site_fract_y
_atom_site_fract_z
Si Si1 0.499662 0.433235 0.865593
Si Si2 0.753525 0.566200 0.425404
Si Si3 0.029463 0.931755 0.597040
Si Si4 0.688392 0.932852 0.619263
Si Si5 0.675362 0.568065 0.992278
Si Si6 0.102378 0.567881 0.051514
Si Si7 0.868236 0.565124 0.751247
Si Si8 0.529697 0.566820 0.340394
O O1 0.515417 0.250000 0.871742
O O2 0.601880 0.514690 0.908606
O O3 0.479813 0.475884 0.763430
O O4 0.397203 0.470160 0.923560
O O5 0.763911 0.750000 0.417520
O O6 0.852000 0.486402 0.381832
O O7 0.750627 0.527732 0.530369
O O8 0.641421 0.518496 0.382689
O O9 0.022810 0.750000 0.589369
O O10 0.952800 0.976670 0.676492
O O11 0.000000 0.000000 0.500000
O O12 0.681034 0.750000 0.621293
O O13 0.755159 0.981867 0.707028
O O14 0.572015 0.999764 0.613531
O O15 0.690318 0.750000 0.989168
O O16 0.788604 0.488590 0.991365
O O17 0.097386 0.750000 0.049464
O O18 0.107901 0.509245 0.153664
O O19 0.000000 0.500000 0.000000
O O20 0.868638 0.750000 0.761025
O O21 0.525619 0.750000 0.346904
#
# Coordination Sequence:
#
# PCOD9162966 Si02
#       8
#     4   4   4   4   4   4   4   4
#     4   9  19  36  58  87 117 151 196 244 296 355
#     4  10  21  38  56  81 118 158 196 244 300 348
#     4  11  22  39  63  89 119 154 199 249 297 353
#     4  10  20  36  57  81 117 156 194 241 294 350
#     4  10  20  37  61  86 117 155 196 244 299 356
#     4  12  26  43  63  89 121 157 199 249 304 365
#     4  10  22  41  63  89 120 156 197 248 302 355
#     4  10  21  35  54  82 117 151 193 244 292 349
#
# _framework density 19.206962000000001
#
# number of rings (size 3 to 8) (size 9 to 14) (size 15 to 20)
#    0.000    1.750    1.250    3.000    0.000    6.500 
#    0.000    1.250    0.000    0.000    0.000    0.000 
#    0.000    0.000    0.000    0.000    0.000    0.000 
#
# Total GULP energy -178799.023712 kJ/mol
# GULP energy per Si atom -5587.469491 kJ/mol
# Density = 1.916325 g / cm^3
# Si number density = 19.206962 Si / 1000 Ang^3
#
#
#
# Elastic Constant Matrix: (Units=GPa)
#
#
# Indices 1 2 3 4 5 6 
#
# 1 135.8231 32.0993 12.6307 0.0000 3.5813 0.0000
# 2 32.0993 38.4195 11.2444 0.0000 0.8149 0.0000
# 3 12.6307 11.2444 21.6765 0.0000 4.0511 0.0000
# 4 0.0000 0.0000 0.0000 25.8499 0.0000 0.9222
# 5 3.5813 0.8149 4.0511 0.0000 27.5704 0.0000
# 6 0.0000 0.0000 0.0000 0.9222 0.0000 35.8487
#
#
#
# Elastic Compliance Matrix: (Units=1/GPa)
#
#
# Indices 1 2 3 4 5 6 
#
# 1 0.009238 -0.007273 -0.001466 0.000000 -0.000770 0.000000
# 2 -0.007273 0.036471 -0.015070 0.000000 0.002081 0.000000
# 3 -0.001466 -0.015070 0.056230 0.000000 -0.007626 0.000000
# 4 0.000000 0.000000 0.000000 0.038720 0.000000 -0.000996
# 5 -0.000770 0.002081 -0.007626 0.000000 0.037430 0.000000
# 6 0.000000 0.000000 0.000000 -0.000996 0.000000 0.027921
#
#
# Mechanical properties :
#
#
# Convention : Reuss Voigt Hill
#
# Bulk Modulus (GPa) = 18.40918 34.20755 26.30837
# Shear Modulus (GPa) = 18.40016 27.18342 22.79179
#
# Velocity S-wave (km/s) = 3.09851 3.76611 3.44850
# Velocity P-wave (km/s) = 4.73354 6.06301 5.43905
#
# Compressibility (1/GPa) = 0.05432071
#
# Stress axis : x y z
#
# Youngs Moduli (GPa) = 108.24887 27.41869 17.78400
#
# Poissons Ratio (x) = 0.19941 0.02608
# Poissons Ratio (y) = 0.78727 0.26801
# Poissons Ratio (z) = 0.15873 0.41321
#
# Static dielectric constant tensor:
#      x y z
#    x 1.661210 0.000000 -0.003060 
#    y 0.000000 1.642380 0.000000 
#    z -0.003060 0.000000 1.663040 
# 
# From -- ./inp_files/49306.got.cif
#   From: 2010.05.17/outbox.cif.g08.bks.cpg/sg11_25_cif.got.tgz:49306.got - 2010.06.03 12:22:45.
