data_PCOD9162619
_publ_section_title
;
Structure prediction by ZEFSAII (Michael W. Deem and Ramdas Pophale) SiO2 
 PCOD9162619
Probable space group: P 21/M
;
_chemical_formula_sum "Si O2"
_cell_formula_units_Z 28
_cell_length_a 27.454299
_cell_length_b 8.793588
_cell_length_c 12.538146
_cell_angle_alpha 90.000000
_cell_angle_beta 149.796790
_cell_angle_gamma 90.000000
_cell_volume 1522.778742
_symmetry_space_group_name_H-M "P 21/M"
_symmetry_group_IT_number 11
_symmetry_cell_setting 'monoclinic'
loop_
_space_group_symop_operation_xyz
x,y,z
-x,1/2+y,-z
-x,-y,-z
x,1/2-y,z
loop_
_atom_site_type_symbol
_atom_site_label
_atom_site_fract_x
_atom_site_fract_y
_atom_site_fract_z
Si Si1 0.053167 0.431515 0.927438
Si Si2 0.363899 0.569020 0.470835
Si Si3 0.777176 0.431963 0.607287
Si Si4 0.538311 0.430865 0.683834
Si Si5 0.159468 0.067718 0.484089
Si Si6 0.750071 0.566983 0.119501
Si Si7 0.804734 0.568479 0.990750
O O1 0.047256 0.250000 0.930917
O O2 0.948268 0.504467 0.737390
O O3 0.128541 0.500027 0.154928
O O4 0.101023 0.463720 0.902097
O O5 0.378227 0.750000 0.491721
O O6 0.314158 0.531176 0.489858
O O7 0.462834 0.484625 0.631043
O O8 0.284779 0.518349 0.232974
O O9 0.786347 0.250000 0.619811
O O10 0.774186 0.501599 0.484411
O O11 0.500000 0.500000 0.500000
O O12 0.538963 0.250000 0.676505
O O13 0.644989 0.492696 0.909340
O O14 0.158092 0.250000 0.475601
O O15 0.197546 0.020722 0.672596
O O16 0.738239 0.750000 0.099759
O O17 0.809424 0.529808 0.124122
O O18 0.785686 0.750000 0.945325
#
# Coordination Sequence:
#
# PCOD9162619 Si02
#       7
#     4   4   4   4   4   4   4
#     4  10  20  35  58  85 112 146 191 236 282 335
#     4  10  20  35  58  87 113 142 184 235 284 327
#     4  10  21  38  60  84 112 146 191 239 279 329
#     4  12  23  36  59  88 116 147 184 226 276 335
#     4  11  23  38  56  80 114 154 191 232 283 334
#     4  10  22  39  57  81 115 151 189 232 280 334
#     4   9  18  34  56  82 112 147 185 230 282 333
#
# _framework density 18.387439000000001
#
# number of rings (size 3 to 8) (size 9 to 14) (size 15 to 20)
#    0.000    1.714    1.429    3.429    0.000    4.000 
#    0.000    0.714    0.000    0.000    0.000    0.000 
#    0.000    0.000    0.000    0.000    0.000    0.000 
#
# Total GULP energy -156428.945675 kJ/mol
# GULP energy per Si atom -5586.748060 kJ/mol
# Density = 1.834559 g / cm^3
# Si number density = 18.387439 Si / 1000 Ang^3
#
#
#
# Elastic Constant Matrix: (Units=GPa)
#
#
# Indices 1 2 3 4 5 6 
#
# 1 119.3677 35.8418 21.7211 0.0000 -17.5409 0.0000
# 2 35.8418 42.0294 8.6390 0.0000 -5.2016 0.0000
# 3 21.7211 8.6390 15.9108 0.0000 -4.5393 0.0000
# 4 0.0000 0.0000 0.0000 26.5095 0.0000 2.3236
# 5 -17.5409 -5.2016 -4.5393 0.0000 27.6503 0.0000
# 6 0.0000 0.0000 0.0000 2.3236 0.0000 28.9613
#
#
#
# Elastic Compliance Matrix: (Units=1/GPa)
#
#
# Indices 1 2 3 4 5 6 
#
# 1 0.014141 -0.008728 -0.013088 0.000000 0.005180 0.000000
# 2 -0.008728 0.032374 -0.005776 0.000000 -0.000395 0.000000
# 3 -0.013088 -0.005776 0.085164 0.000000 0.004592 0.000000
# 4 0.000000 0.000000 0.000000 0.037989 0.000000 -0.003048
# 5 0.005180 -0.000395 0.004592 0.000000 0.040132 0.000000
# 6 0.000000 0.000000 0.000000 -0.003048 0.000000 0.034773
#
#
# Mechanical properties :
#
#
# Convention : Reuss Voigt Hill
#
# Bulk Modulus (GPa) = 13.07260 34.41243 23.74251
# Shear Modulus (GPa) = 15.37256 24.03130 19.70193
#
# Velocity S-wave (km/s) = 2.89457 3.61909 3.27691
# Velocity P-wave (km/s) = 4.27742 6.01827 5.22091
#
# Compressibility (1/GPa) = 0.07649588
#
# Stress axis : x y z
#
# Youngs Moduli (GPa) = 70.71655 30.88896 11.74208
#
# Poissons Ratio (x) = 0.26959 0.15368
# Poissons Ratio (y) = 0.61720 0.06782
# Poissons Ratio (z) = 0.92555 0.17840
#
# Static dielectric constant tensor:
#      x y z
#    x 1.665710 0.000000 -0.008380 
#    y 0.000000 1.612480 0.000000 
#    z -0.008380 0.000000 1.586070 
# 
# From -- ./inp_files/44662.got.cif
#   From: 2010.05.17/outbox.cif.g08.bks.cpg/sg11_23_cif.got.tgz:44662.got - 2010.06.03 12:22:45.
