data_PCOD9162868
_publ_section_title
;
Structure prediction by ZEFSAII (Michael W. Deem and Ramdas Pophale) SiO2 
 PCOD9162868
Probable space group: P 21/M
;
_chemical_formula_sum "Si O2"
_cell_formula_units_Z 32
_cell_length_a 15.671141
_cell_length_b 11.502071
_cell_length_c 19.042979
_cell_angle_alpha 90.000000
_cell_angle_beta 150.008323
_cell_angle_gamma 90.000000
_cell_volume 1715.822136
_symmetry_space_group_name_H-M "P 21/M"
_symmetry_group_IT_number 11
_symmetry_cell_setting 'monoclinic'
loop_
_space_group_symop_operation_xyz
x,y,z
-x,1/2+y,-z
-x,-y,-z
x,1/2-y,z
loop_
_atom_site_type_symbol
_atom_site_label
_atom_site_fract_x
_atom_site_fract_y
_atom_site_fract_z
Si Si1 0.957405 0.616923 0.798119
Si Si2 0.209129 0.120503 0.829792
Si Si3 0.440688 0.380636 0.872500
Si Si4 0.534311 0.114699 0.328411
Si Si5 0.702254 0.973194 0.966361
Si Si6 0.592997 0.887488 0.602874
Si Si7 0.084793 0.376818 0.537186
Si Si8 0.123468 0.036750 0.414586
O O1 0.014206 0.750000 0.845303
O O2 0.794200 0.597677 0.731374
O O3 0.886544 0.596029 0.668624
O O4 0.119675 0.534644 0.926870
O O5 0.176150 0.250000 0.780519
O O6 0.360561 0.073363 0.888485
O O7 0.040307 0.046702 0.700222
O O8 0.254091 0.122246 0.943742
O O9 0.501945 0.250000 0.931142
O O10 0.273337 0.378906 0.704088
O O11 0.586386 0.442245 0.931805
O O12 0.576968 0.250000 0.345422
O O13 0.450451 0.107006 0.345790
O O14 0.704367 0.036831 0.452190
O O15 0.405459 0.070518 0.176417
O O16 0.550721 0.750000 0.550434
O O17 0.500000 0.000000 0.500000
O O18 0.004814 0.250000 0.500107
O O19 0.101408 0.380666 0.465243
O O20 0.000000 0.500000 0.500000
#
# Coordination Sequence:
#
# PCOD9162868 Si02
#       8
#     4   4   4   4   4   4   4   4
#     4  10  22  40  63  88 118 155 201 254 308 369
#     4  10  21  36  56  81 117 163 206 253 302 351
#     4  10  20  36  56  79 115 158 207 255 298 349
#     4  11  23  38  61  92 126 161 201 254 312 374
#     4  11  22  38  57  85 123 159 205 244 306 364
#     4  10  21  42  67  95 125 156 198 253 312 375
#     4  11  22  37  58  89 123 160 206 261 311 359
#     4  11  20  37  61  87 119 155 207 256 307 363
#
# _framework density 18.649951999999999
#
# number of rings (size 3 to 8) (size 9 to 14) (size 15 to 20)
#    0.000    1.500    3.750    1.875    0.000    1.000 
#    0.000    1.875    0.000    0.000    0.000    0.000 
#    0.000    0.000    0.000    0.000    0.000    0.000 
#
# Total GULP energy -178314.220671 kJ/mol
# GULP energy per Si atom -5572.319396 kJ/mol
# Density = 1.860750 g / cm^3
# Si number density = 18.649952 Si / 1000 Ang^3
#
#
#
# Elastic Constant Matrix: (Units=GPa)
#
#
# Indices 1 2 3 4 5 6 
#
# 1 89.5796 47.5549 31.0725 0.0000 5.3628 0.0000
# 2 47.5549 93.2022 48.0201 0.0000 12.4234 0.0000
# 3 31.0725 48.0201 73.7333 0.0000 -0.2874 0.0000
# 4 0.0000 0.0000 0.0000 -55.0754 0.0000 -11.4780
# 5 5.3628 12.4234 -0.2874 0.0000 30.2210 0.0000
# 6 0.0000 0.0000 0.0000 -11.4780 0.0000 25.3048
#
#
#
# Elastic Compliance Matrix: (Units=1/GPa)
#
#
# Indices 1 2 3 4 5 6 
#
# 1 0.015520 -0.006855 -0.002076 0.000000 0.000044 0.000000
# 2 -0.006855 0.020675 -0.010605 0.000000 -0.007384 0.000000
# 3 -0.002076 -0.010605 0.021363 0.000000 0.004931 0.000000
# 4 0.000000 0.000000 0.000000 -0.016589 0.000000 -0.007524
# 5 0.000044 -0.007384 0.004931 0.000000 0.036164 0.000000
# 6 0.000000 0.000000 0.000000 -0.007524 0.000000 0.036105
#
#
# Mechanical properties :
#
#
# Convention : Reuss Voigt Hill
#
# Bulk Modulus (GPa) = 54.09358 56.64555 55.36956
# Shear Modulus (GPa) = 31.55130 8.74792 20.14961
#
# Velocity S-wave (km/s) = 4.11757 2.16813 3.29053
# Velocity P-wave (km/s) = 7.18843 6.05860 6.64756
#
# Compressibility (1/GPa) = 0.01848648
#
# Stress axis : x y z
#
# Youngs Moduli (GPa) = 64.43394 48.36687 46.80991
#
# Poissons Ratio (x) = 0.33157 0.09716
# Poissons Ratio (y) = 0.44171 0.49642
# Poissons Ratio (z) = 0.13373 0.51293
#
# Static dielectric constant tensor:
#      x y z
#    x 1.650690 0.000000 -0.009740 
#    y 0.000000 1.713680 0.000000 
#    z -0.009740 0.000000 1.623810 
# 
# From -- ./inp_files/53630.got.cif
#   From: 2010.05.17/outbox.cif.g08.bks.cpg/sg11_27_cif.got.tgz:53630.got - 2010.06.03 12:22:45.
