data_PCOD9162608
_publ_section_title
;
Structure prediction by ZEFSAII (Michael W. Deem and Ramdas Pophale) SiO2 
 PCOD9162608
Probable space group: P 21/M
;
_chemical_formula_sum "Si O2"
_cell_formula_units_Z 24
_cell_length_a 11.677716
_cell_length_b 22.330866
_cell_length_c 10.062076
_cell_angle_alpha 90.000000
_cell_angle_beta 26.223509
_cell_angle_gamma 90.000000
_cell_volume 1159.443222
_symmetry_space_group_name_H-M "P 21/M"
_symmetry_group_IT_number 11
_symmetry_cell_setting 'monoclinic'
loop_
_space_group_symop_operation_xyz
x,y,z
-x,1/2+y,-z
-x,-y,-z
x,1/2-y,z
loop_
_atom_site_type_symbol
_atom_site_label
_atom_site_fract_x
_atom_site_fract_y
_atom_site_fract_z
Si Si1 0.483164 0.439595 0.103311
Si Si2 0.998305 0.590903 0.552580
Si Si3 0.448287 0.319018 0.595441
Si Si4 0.103629 0.500799 0.674681
Si Si5 0.924778 0.317813 0.293093
Si Si6 0.313194 0.942375 0.707787
O O1 0.354491 0.461744 0.373415
O O2 0.268117 0.401721 0.248146
O O3 0.500000 0.500000 0.000000
O O4 0.765247 0.411687 0.797663
O O5 0.999329 0.531514 0.647599
O O6 0.050354 0.641580 0.605059
O O7 0.464499 0.250000 0.523351
O O8 0.550303 0.378331 0.412829
O O9 0.643131 0.319465 0.518526
O O10 0.154171 0.330574 0.947801
O O11 0.175718 0.552934 0.704785
O O12 0.897874 0.459092 0.962273
O O13 0.975686 0.250000 0.282078
O O14 0.500000 0.000000 0.500000
#
# Coordination Sequence:
#
# PCOD9162608 Si02
#       6
#     4   4   4   4   4   4
#     4  10  22  34  55  79 110 151 177 225 279 346
#     4  11  20  36  58  79 116 146 182 231 284 340
#     4  10  21  38  57  82 115 153 190 233 291 347
#     4  10  22  35  50  87 113 146 188 226 296 333
#     4  10  20  35  58  84 112 144 190 242 285 339
#     4  11  23  34  59  83 120 152 186 253 284 341
#
# _framework density 20.699591000000002
#
# number of rings (size 3 to 8) (size 9 to 14) (size 15 to 20)
#    0.000    1.667    1.667    4.000   11.667    0.000 
#    0.000    0.000    0.000    2.000    0.000    0.000 
#    0.000    0.000    0.000    0.000    0.000    0.000 
#
# Total GULP energy -133955.729126 kJ/mol
# GULP energy per Si atom -5581.488714 kJ/mol
# Density = 2.065248 g / cm^3
# Si number density = 20.699591 Si / 1000 Ang^3
#
#
#
# Elastic Constant Matrix: (Units=GPa)
#
#
# Indices 1 2 3 4 5 6 
#
# 1 57.2513 2.7298 16.7320 0.0000 -1.1155 0.0000
# 2 2.7298 103.3083 24.9097 0.0000 13.6787 0.0000
# 3 16.7320 24.9097 99.6002 0.0000 18.3588 0.0000
# 4 0.0000 0.0000 0.0000 30.7706 0.0000 1.6889
# 5 -1.1155 13.6787 18.3588 0.0000 35.1327 0.0000
# 6 0.0000 0.0000 0.0000 1.6889 0.0000 30.7399
#
#
#
# Elastic Compliance Matrix: (Units=1/GPa)
#
#
# Indices 1 2 3 4 5 6 
#
# 1 0.018558 0.000050 -0.003580 0.000000 0.002441 0.000000
# 2 0.000050 0.010585 -0.002098 0.000000 -0.003023 0.000000
# 3 -0.003580 -0.002098 0.012213 0.000000 -0.005679 0.000000
# 4 0.000000 0.000000 0.000000 0.032597 0.000000 -0.001791
# 5 0.002441 -0.003023 -0.005679 0.000000 0.032685 0.000000
# 6 0.000000 0.000000 0.000000 -0.001791 0.000000 0.032629
#
#
# Mechanical properties :
#
#
# Convention : Reuss Voigt Hill
#
# Bulk Modulus (GPa) = 33.22386 38.76695 35.99541
# Shear Modulus (GPa) = 31.14144 33.71453 32.42798
#
# Velocity S-wave (km/s) = 3.88293 4.04016 3.96232
# Velocity P-wave (km/s) = 6.01566 6.36654 6.19359
#
# Compressibility (1/GPa) = 0.03009885
#
# Stress axis : x y z
#
# Youngs Moduli (GPa) = 53.88426 94.47626 81.87961
#
# Poissons Ratio (x) = -0.00469 0.29312
# Poissons Ratio (y) = -0.00268 0.17181
# Poissons Ratio (z) = 0.19290 0.19824
#
# Static dielectric constant tensor:
#      x y z
#    x 1.813170 0.000000 -0.024590 
#    y 0.000000 1.791940 0.000000 
#    z -0.024590 0.000000 1.765920 
# 
# From -- ./inp_files/40179.got.cif
#   From: 2010.05.17/outbox.cif.g08.bks.cpg/sg11_21_cif.got.tgz:40179.got - 2010.06.03 12:22:45.
