data_PCOD9162098
_publ_section_title
;
Structure prediction by ZEFSAII (Michael W. Deem and Ramdas Pophale) SiO2 
 PCOD9162098
Probable space group: P 21/M
;
_chemical_formula_sum "Si O2"
_cell_formula_units_Z 32
_cell_length_a 12.541718
_cell_length_b 8.859463
_cell_length_c 29.926931
_cell_angle_alpha 90.000000
_cell_angle_beta 148.906735
_cell_angle_gamma 90.000000
_cell_volume 1717.276881
_symmetry_space_group_name_H-M "P 21/M"
_symmetry_group_IT_number 11
_symmetry_cell_setting 'monoclinic'
loop_
_space_group_symop_operation_xyz
x,y,z
-x,1/2+y,-z
-x,-y,-z
x,1/2-y,z
loop_
_atom_site_type_symbol
_atom_site_label
_atom_site_fract_x
_atom_site_fract_y
_atom_site_fract_z
Si Si1 0.459280 0.569348 0.631362
Si Si2 0.297933 0.930085 0.132954
Si Si3 0.281995 0.567537 0.936548
Si Si4 0.670819 0.068980 0.316004
Si Si5 0.116693 0.069412 0.262707
Si Si6 0.124590 0.069945 0.445846
Si Si7 0.100317 0.931820 0.967391
Si Si8 0.726748 0.070349 0.589344
O O1 0.425002 0.750000 0.614948
O O2 0.397700 0.522103 0.658991
O O3 0.697999 0.540826 0.705787
O O4 0.314794 0.486683 0.543914
O O5 0.294164 0.750000 0.134882
O O6 0.518891 0.992973 0.226204
O O7 0.234659 0.971712 0.059496
O O8 0.123904 0.998070 0.103446
O O9 0.296326 0.750000 0.941843
O O10 0.207125 0.520985 0.959431
O O11 0.100671 0.524645 0.836847
O O12 0.500000 0.500000 0.000000
O O13 0.646506 0.250000 0.304235
O O14 0.909192 0.033206 0.392632
O O15 0.112989 0.250000 0.269706
O O16 0.177770 0.986691 0.330060
O O17 0.138018 0.250000 0.444484
O O18 0.136791 0.988117 0.402784
O O19 0.077111 0.750000 0.957700
O O20 0.709500 0.250000 0.582845
O O21 0.500000 0.000000 0.500000
#
# Coordination Sequence:
#
# PCOD9162098 Si02
#       8
#     4   4   4   4   4   4   4   4
#     4  10  20  37  61  84 113 154 196 239 291 348
#     4  10  20  34  58  89 115 147 194 242 286 345
#     4  10  22  40  61  86 120 158 196 244 298 356
#     4  10  22  38  56  83 121 159 191 232 293 354
#     4  10  21  38  62  89 116 153 199 245 300 355
#     4  11  23  38  58  86 119 154 195 241 291 347
#     4   9  19  38  60  82 114 153 191 237 296 351
#     4  12  24  40  62  86 116 153 198 248 297 351
#
# _framework density 18.634153000000001
#
# number of rings (size 3 to 8) (size 9 to 14) (size 15 to 20)
#    0.000    1.750    1.250    3.000    0.000    6.000 
#    0.000    3.750    0.000    0.000    0.000    0.000 
#    0.000    0.000    0.000    0.000    0.000    0.000 
#
# Total GULP energy -178799.934747 kJ/mol
# GULP energy per Si atom -5587.497961 kJ/mol
# Density = 1.859174 g / cm^3
# Si number density = 18.634153 Si / 1000 Ang^3
#
#
#
# Elastic Constant Matrix: (Units=GPa)
#
#
# Indices 1 2 3 4 5 6 
#
# 1 101.0693 43.8872 73.0272 0.0000 -5.3650 0.0000
# 2 43.8872 38.7970 47.5974 0.0000 3.7954 0.0000
# 3 73.0272 47.5974 127.8553 0.0000 11.7145 0.0000
# 4 0.0000 0.0000 0.0000 30.1564 0.0000 -2.7641
# 5 -5.3650 3.7954 11.7145 0.0000 23.9346 0.0000
# 6 0.0000 0.0000 0.0000 -2.7641 0.0000 25.1937
#
#
#
# Elastic Compliance Matrix: (Units=1/GPa)
#
#
# Indices 1 2 3 4 5 6 
#
# 1 0.024859 -0.019358 -0.008149 0.000000 0.012630 0.000000
# 2 -0.019358 0.062550 -0.011435 0.000000 -0.008661 0.000000
# 3 -0.008149 -0.011435 0.017520 0.000000 -0.008588 0.000000
# 4 0.000000 0.000000 0.000000 0.033497 0.000000 0.003675
# 5 0.012630 -0.008661 -0.008588 0.000000 0.050189 0.000000
# 6 0.000000 0.000000 0.000000 0.003675 0.000000 0.040096
#
#
# Mechanical properties :
#
#
# Convention : Reuss Voigt Hill
#
# Bulk Modulus (GPa) = 36.97824 66.30503 51.64164
# Shear Modulus (GPa) = 15.84233 22.73758 19.28996
#
# Velocity S-wave (km/s) = 2.91894 3.49694 3.22093
# Velocity P-wave (km/s) = 5.58997 7.20865 6.45028
#
# Compressibility (1/GPa) = 0.02704293
#
# Stress axis : x y z
#
# Youngs Moduli (GPa) = 40.22733 15.98724 57.07760
#
# Poissons Ratio (x) = 0.30948 0.46514
# Poissons Ratio (y) = 0.77872 0.65271
# Poissons Ratio (z) = 0.32782 0.18282
#
# Static dielectric constant tensor:
#      x y z
#    x 1.639100 0.000000 -0.004170 
#    y 0.000000 1.626760 0.000000 
#    z -0.004170 0.000000 1.618980 
# 
# From -- ./inp_files/38058.got.cif
#   From: 2010.05.17/outbox.cif.g08.bks.cpg/sg11_20_cif.got.tgz:38058.got - 2010.06.03 12:22:45.
