data_PCOD9162270
_publ_section_title
;
Structure prediction by ZEFSAII (Michael W. Deem and Ramdas Pophale) SiO2 
 PCOD9162270
Probable space group: P 21/M
;
_chemical_formula_sum "Si O2"
_cell_formula_units_Z 32
_cell_length_a 12.639108
_cell_length_b 8.509763
_cell_length_c 33.723450
_cell_angle_alpha 90.000000
_cell_angle_beta 29.934081
_cell_angle_gamma 90.000000
_cell_volume 1809.961382
_symmetry_space_group_name_H-M "P 21/M"
_symmetry_group_IT_number 11
_symmetry_cell_setting 'monoclinic'
loop_
_space_group_symop_operation_xyz
x,y,z
-x,1/2+y,-z
-x,-y,-z
x,1/2-y,z
loop_
_atom_site_type_symbol
_atom_site_label
_atom_site_fract_x
_atom_site_fract_y
_atom_site_fract_z
Si Si1 0.956664 0.936612 0.681641
Si Si2 0.305341 0.437041 0.509454
Si Si3 0.350268 0.938331 0.711899
Si Si4 0.772825 0.440901 0.335773
Si Si5 0.204761 0.562982 0.455959
Si Si6 0.498183 0.063240 0.815837
Si Si7 0.821252 0.940147 0.150813
Si Si8 0.163673 0.562296 0.979814
O O1 0.924483 0.750000 0.693245
O O2 0.030469 0.993200 0.701366
O O3 0.741302 0.012582 0.735932
O O4 0.153619 0.976253 0.589280
O O5 0.297691 0.250000 0.519010
O O6 0.551260 0.489676 0.428550
O O7 0.223668 0.475957 0.491905
O O8 0.378728 0.750000 0.701362
O O9 0.239812 0.987745 0.706180
O O10 0.580835 0.019078 0.637133
O O11 0.224556 0.986655 0.791824
O O12 0.772721 0.250000 0.336335
O O13 0.192871 0.750000 0.465580
O O14 0.000000 0.500000 0.500000
O O15 0.482617 0.250000 0.821160
O O16 0.358983 0.009326 0.822881
O O17 0.387812 0.000751 0.891922
O O18 0.811700 0.750000 0.156781
O O19 0.050301 0.983705 0.057755
O O20 0.168775 0.750000 0.976853
O O21 0.000000 0.500000 0.000000
#
# Coordination Sequence:
#
# PCOD9162270 Si02
#       8
#     4   4   4   4   4   4   4   4
#     4  11  21  34  54  78 105 138 178 219 265 315
#     4  10  20  36  54  75 103 135 176 221 265 311
#     4  10  20  35  55  78 103 135 177 217 258 310
#     4   8  18  36  54  74 102 137 177 223 265 305
#     4  11  22  36  52  72 103 140 175 214 263 311
#     4  10  21  35  51  77 111 140 172 214 265 312
#     4   9  19  34  53  78 108 138 169 209 258 314
#     4   9  17  32  53  77 107 139 171 208 258 314
#
# _framework density 17.679936000000001
#
# number of rings (size 3 to 8) (size 9 to 14) (size 15 to 20)
#    0.000    2.250    0.000    4.875    1.750    3.000 
#    0.000    6.875    0.000    0.750    0.000    0.000 
#    0.000    0.000    0.000    0.000    0.000    0.000 
#
# Total GULP energy -178465.727891 kJ/mol
# GULP energy per Si atom -5577.053997 kJ/mol
# Density = 1.763970 g / cm^3
# Si number density = 17.679936 Si / 1000 Ang^3
#
#
#
# Elastic Constant Matrix: (Units=GPa)
#
#
# Indices 1 2 3 4 5 6 
#
# 1 39.3910 -1.5358 30.6804 0.0000 1.4026 0.0000
# 2 -1.5358 30.3778 7.2454 0.0000 -0.5325 0.0000
# 3 30.6804 7.2454 79.9418 0.0000 22.9050 0.0000
# 4 0.0000 0.0000 0.0000 33.4310 0.0000 3.5704
# 5 1.4026 -0.5325 22.9050 0.0000 19.3740 0.0000
# 6 0.0000 0.0000 0.0000 3.5704 0.0000 15.7563
#
#
#
# Elastic Compliance Matrix: (Units=1/GPa)
#
#
# Indices 1 2 3 4 5 6 
#
# 1 0.045055 0.008984 -0.026074 0.000000 0.027811 0.000000
# 2 0.008984 0.036050 -0.010303 0.000000 0.012521 0.000000
# 3 -0.026074 -0.010303 0.034767 0.000000 -0.039499 0.000000
# 4 0.000000 0.000000 0.000000 0.030654 0.000000 -0.006946
# 5 0.027811 0.012521 -0.039499 0.000000 0.096643 0.000000
# 6 0.000000 0.000000 0.000000 -0.006946 0.000000 0.065041
#
#
# Mechanical properties :
#
#
# Convention : Reuss Voigt Hill
#
# Bulk Modulus (GPa) = 16.37031 24.72118 20.54575
# Shear Modulus (GPa) = 13.04266 21.26696 17.15481
#
# Velocity S-wave (km/s) = 2.71903 3.47203 3.11834
# Velocity P-wave (km/s) = 4.37457 5.48510 4.96100
#
# Compressibility (1/GPa) = 0.06108620
#
# Stress axis : x y z
#
# Youngs Moduli (GPa) = 22.19517 27.73937 28.76301
#
# Poissons Ratio (x) = -0.24922 0.74997
# Poissons Ratio (y) = -0.19941 0.29634
# Poissons Ratio (z) = 0.57872 0.28580
#
# Static dielectric constant tensor:
#      x y z
#    x 1.616100 0.000000 0.010220 
#    y 0.000000 1.604840 0.000000 
#    z 0.010220 0.000000 1.609320 
# 
# From -- ./inp_files/54281.got.cif
#   From: 2010.05.17/outbox.cif.g08.bks.cpg/sg11_28_cif.got.tgz:54281.got - 2010.06.03 12:22:45.
