data_PCOD9162082
_publ_section_title
;
Structure prediction by ZEFSAII (Michael W. Deem and Ramdas Pophale) SiO2 
 PCOD9162082
Probable space group: P 21/M
;
_chemical_formula_sum "Si O2"
_cell_formula_units_Z 24
_cell_length_a 13.928272
_cell_length_b 14.345417
_cell_length_c 9.630492
_cell_angle_alpha 90.000000
_cell_angle_beta 152.716423
_cell_angle_gamma 90.000000
_cell_volume 882.060956
_symmetry_space_group_name_H-M "P 21/M"
_symmetry_group_IT_number 11
_symmetry_cell_setting 'monoclinic'
loop_
_space_group_symop_operation_xyz
x,y,z
-x,1/2+y,-z
-x,-y,-z
x,1/2-y,z
loop_
_atom_site_type_symbol
_atom_site_label
_atom_site_fract_x
_atom_site_fract_y
_atom_site_fract_z
Si Si1 0.504893 0.943431 0.707594
Si Si2 0.499958 0.149246 0.702876
Si Si3 0.004893 0.443431 0.707595
Si Si4 0.905940 0.145871 0.863507
Si Si5 0.594060 0.145871 0.136493
Si Si6 0.999958 0.850754 0.702876
O O1 0.340589 0.873368 0.426701
O O2 0.471840 0.926485 0.830124
O O3 0.438352 0.046982 0.572366
O O4 0.750000 0.928425 1.000000
O O5 0.415938 0.250000 0.545331
O O6 0.476304 0.143080 0.839581
O O7 0.750000 0.152673 1.000000
O O8 0.938352 0.546982 0.572367
O O9 0.971840 0.426485 0.830124
O O10 0.840590 0.373368 0.426702
O O11 0.930932 0.250000 0.838428
O O12 0.023696 0.143080 0.160420
O O13 0.569069 0.250000 0.161573
O O14 0.915938 0.750000 0.545332
#
# Coordination Sequence:
#
# PCOD9162082 Si02
#       6
#     4   4   4   4   4   4
#     4  10  20  34  58  82 105 139 180 219 263 315
#     4   9  19  36  56  78 108 143 176 217 267 314
#     4  10  20  34  58  82 105 139 180 219 263 315
#     4  10  21  37  55  79 111 140 174 222 266 310
#     4  10  21  37  55  79 111 140 174 222 266 310
#     4   9  19  36  56  78 108 143 176 217 267 314
#
# _framework density 27.209005000000001
#
# number of rings (size 3 to 8) (size 9 to 14) (size 15 to 20)
#    0.000    2.333    0.000    3.000    0.000    8.000 
#    0.000    3.333    0.000   28.000    0.000    0.000 
#    0.000    0.000    0.000    0.000    0.000    0.000 
#
# Total GULP energy -134417.558979 kJ/mol
# GULP energy per Si atom -5600.731624 kJ/mol
# Density = 2.714708 g / cm^3
# Si number density = 27.209005 Si / 1000 Ang^3
#
#
#
# Elastic Constant Matrix: (Units=GPa)
#
#
# Indices 1 2 3 4 5 6 
#
# 1 89.9501 16.7616 26.8494 0.0000 10.0248 0.0000
# 2 16.7616 177.3692 23.1598 0.0000 19.3240 0.0000
# 3 26.8494 23.1598 148.0786 0.0000 16.9267 0.0000
# 4 0.0000 0.0000 0.0000 23.3368 0.0000 9.8321
# 5 10.0248 19.3240 16.9267 0.0000 45.6787 0.0000
# 6 0.0000 0.0000 0.0000 9.8321 0.0000 28.7599
#
#
#
# Elastic Compliance Matrix: (Units=1/GPa)
#
#
# Indices 1 2 3 4 5 6 
#
# 1 0.011992 -0.000710 -0.001876 0.000000 -0.001636 0.000000
# 2 -0.000710 0.006016 -0.000563 0.000000 -0.002181 0.000000
# 3 -0.001876 -0.000563 0.007421 0.000000 -0.002100 0.000000
# 4 0.000000 0.000000 0.000000 0.050061 0.000000 -0.017114
# 5 -0.001636 -0.002181 -0.002100 0.000000 0.023952 0.000000
# 6 0.000000 0.000000 0.000000 -0.017114 0.000000 0.040621
#
#
# Mechanical properties :
#
#
# Convention : Reuss Voigt Hill
#
# Bulk Modulus (GPa) = 52.27075 60.99328 56.63202
# Shear Modulus (GPa) = 32.73544 42.79688 37.76616
#
# Velocity S-wave (km/s) = 3.47235 3.97028 3.72963
# Velocity P-wave (km/s) = 5.94381 6.59414 6.27740
#
# Compressibility (1/GPa) = 0.01913116
#
# Stress axis : x y z
#
# Youngs Moduli (GPa) = 83.38899 166.21958 134.74384
#
# Poissons Ratio (x) = 0.11802 0.25282
# Poissons Ratio (y) = 0.05921 0.07585
# Poissons Ratio (z) = 0.15646 0.09357
#
# Static dielectric constant tensor:
#      x y z
#    x 2.159570 0.000000 0.033060 
#    y 0.000000 2.052420 0.000000 
#    z 0.033060 0.000000 2.124080 
# 
# From -- ./inp_files/39731.got.cif
#   From: 2010.05.17/outbox.cif.g08.bks.cpg/sg11_20_cif.got.tgz:39731.got - 2010.06.03 12:22:45.
