data_PCOD9162755
_publ_section_title
;
Structure prediction by ZEFSAII (Michael W. Deem and Ramdas Pophale) SiO2 
 PCOD9162755
Probable space group: P 21/M
;
_chemical_formula_sum "Si O2"
_cell_formula_units_Z 28
_cell_length_a 12.110374
_cell_length_b 8.117248
_cell_length_c 15.799295
_cell_angle_alpha 90.000000
_cell_angle_beta 63.539339
_cell_angle_gamma 90.000000
_cell_volume 1390.412948
_symmetry_space_group_name_H-M "P 21/M"
_symmetry_group_IT_number 11
_symmetry_cell_setting 'monoclinic'
loop_
_space_group_symop_operation_xyz
x,y,z
-x,1/2+y,-z
-x,-y,-z
x,1/2-y,z
loop_
_atom_site_type_symbol
_atom_site_label
_atom_site_fract_x
_atom_site_fract_y
_atom_site_fract_z
Si Si1 0.195166 0.556890 0.186675
Si Si2 0.507092 0.055465 0.636672
Si Si3 0.121946 0.948297 0.906996
Si Si4 0.080191 0.943597 0.728712
Si Si5 0.561522 0.452161 0.805569
Si Si6 0.315615 0.055820 0.563621
Si Si7 0.316324 0.444614 0.973863
O O1 0.176306 0.750000 0.208951
O O2 0.303574 0.493989 0.210926
O O3 0.063543 0.471632 0.239628
O O4 0.248345 0.533728 0.073891
O O5 0.484902 0.250000 0.654353
O O6 0.525161 0.987913 0.724500
O O7 0.394504 0.990122 0.617609
O O8 0.628547 0.028406 0.538373
O O9 0.131281 0.750000 0.905328
O O10 0.108446 0.004300 0.814603
O O11 0.238040 0.025027 0.915448
O O12 0.000000 0.000000 0.000000
O O13 0.106265 0.750000 0.717820
O O14 0.173202 0.027578 0.631832
O O15 0.562092 0.250000 0.805160
O O16 0.455242 0.501872 0.907837
O O17 0.340843 0.250000 0.546853
O O18 0.316329 0.250000 0.992585
#
# Coordination Sequence:
#
# PCOD9162755 Si02
#       7
#     4   4   4   4   4   4   4
#     4  11  22  37  56  79 111 150 194 234 274 330
#     4   9  18  37  61  85 114 144 179 228 281 331
#     4  11  22  35  54  80 112 146 184 229 277 327
#     4  11  23  38  56  81 113 150 187 228 281 333
#     4   9  20  37  58  82 109 148 191 233 279 329
#     4  10  20  35  60  90 115 143 178 224 281 340
#     4  11  21  36  57  82 114 149 188 231 282 336
#
# _framework density 20.137903999999999
#
# number of rings (size 3 to 8) (size 9 to 14) (size 15 to 20)
#    0.000    1.714    1.429    3.429    0.000    3.429 
#    0.000    5.714    0.000    0.000    0.000    0.000 
#    0.000    0.000    0.000    0.000    0.000    0.000 
#
# Total GULP energy -156460.682274 kJ/mol
# GULP energy per Si atom -5587.881510 kJ/mol
# Density = 2.009207 g / cm^3
# Si number density = 20.137904 Si / 1000 Ang^3
#
#
#
# Elastic Constant Matrix: (Units=GPa)
#
#
# Indices 1 2 3 4 5 6 
#
# 1 66.3840 -15.4159 29.4776 0.0000 -4.8168 0.0000
# 2 -15.4159 16.2096 -11.4083 0.0000 6.7198 0.0000
# 3 29.4776 -11.4083 62.9530 0.0000 -18.3751 0.0000
# 4 0.0000 0.0000 0.0000 17.3150 0.0000 1.7000
# 5 -4.8168 6.7198 -18.3751 0.0000 22.2183 0.0000
# 6 0.0000 0.0000 0.0000 1.7000 0.0000 14.5272
#
#
#
# Elastic Compliance Matrix: (Units=1/GPa)
#
#
# Indices 1 2 3 4 5 6 
#
# 1 0.023252 0.018718 -0.010119 0.000000 -0.008989 0.000000
# 2 0.018718 0.089359 0.000956 0.000000 -0.022178 0.000000
# 3 -0.010119 0.000956 0.026459 0.000000 0.019399 0.000000
# 4 0.000000 0.000000 0.000000 0.058425 0.000000 -0.006837
# 5 -0.008989 -0.022178 0.019399 0.000000 0.065810 0.000000
# 6 0.000000 0.000000 0.000000 -0.006837 0.000000 0.069637
#
#
# Mechanical properties :
#
#
# Convention : Reuss Voigt Hill
#
# Bulk Modulus (GPa) = 6.32198 16.76149 11.54173
# Shear Modulus (GPa) = 13.64036 20.33832 16.98934
#
# Velocity S-wave (km/s) = 2.60541 3.18142 2.90772
# Velocity P-wave (km/s) = 3.49243 4.67297 4.12515
#
# Compressibility (1/GPa) = 0.15817822
#
# Stress axis : x y z
#
# Youngs Moduli (GPa) = 43.00749 11.19077 37.79452
#
# Poissons Ratio (x) = -0.20946 0.38246
# Poissons Ratio (y) = -0.80500 -0.03613
# Poissons Ratio (z) = 0.43521 -0.01070
#
# Static dielectric constant tensor:
#      x y z
#    x 1.721430 0.000000 0.009070 
#    y 0.000000 1.721620 0.000000 
#    z 0.009070 0.000000 1.691980 
# 
# From -- ./inp_files/49037.got.cif
#   From: 2010.05.17/outbox.cif.g08.bks.cpg/sg11_25_cif.got.tgz:49037.got - 2010.06.03 12:22:45.
