data_PCOD9162070
_publ_section_title
;
Structure prediction by ZEFSAII (Michael W. Deem and Ramdas Pophale) SiO2 
 PCOD9162070
Probable space group: P 21/M
;
_chemical_formula_sum "Si O2"
_cell_formula_units_Z 28
_cell_length_a 11.960134
_cell_length_b 8.806224
_cell_length_c 15.740713
_cell_angle_alpha 90.000000
_cell_angle_beta 123.851220
_cell_angle_gamma 90.000000
_cell_volume 1376.838258
_symmetry_space_group_name_H-M "P 21/M"
_symmetry_group_IT_number 11
_symmetry_cell_setting 'monoclinic'
loop_
_space_group_symop_operation_xyz
x,y,z
-x,1/2+y,-z
-x,-y,-z
x,1/2-y,z
loop_
_atom_site_type_symbol
_atom_site_label
_atom_site_fract_x
_atom_site_fract_y
_atom_site_fract_z
Si Si1 0.852049 0.929657 0.170918
Si Si2 0.860308 0.569649 0.972544
Si Si3 0.854228 0.432384 0.458033
Si Si4 0.584217 0.930420 0.613259
Si Si5 0.585228 0.069693 0.793184
Si Si6 0.656705 0.068852 0.221712
Si Si7 0.843131 0.432715 0.647430
O O1 0.833854 0.750000 0.180566
O O2 0.001821 0.970742 0.267072
O O3 0.738148 0.020067 0.172967
O O4 0.848014 0.953130 0.068579
O O5 0.856981 0.750000 0.954135
O O6 0.734764 0.489284 0.875049
O O7 0.000000 0.500000 0.000000
O O8 0.864296 0.250000 0.459753
O O9 0.750113 0.479217 0.341316
O O10 0.813446 0.472793 0.536758
O O11 0.000000 0.500000 0.500000
O O12 0.569870 0.750000 0.607784
O O13 0.500000 0.000000 0.500000
O O14 0.539399 0.996974 0.684543
O O15 0.738250 0.980986 0.662282
O O16 0.582604 0.250000 0.786093
O O17 0.485627 0.011279 0.824462
O O18 0.638857 0.250000 0.216507
O O19 0.826770 0.250000 0.651661
#
# Coordination Sequence:
#
# PCOD9162070 Si02
#       7
#     4   4   4   4   4   4   4
#     4  10  22  40  64  93 126 167 211 260 318 381
#     4  11  24  44  70  99 129 165 215 270 324 385
#     4  10  20  34  57  88 126 167 207 254 308 370
#     4  12  25  42  65  94 128 167 213 263 318 384
#     4  12  26  45  68  93 127 172 215 265 327 384
#     4  11  23  39  62  95 131 169 214 265 320 385
#     4  10  20  37  61  91 128 168 212 264 318 377
#
# _framework density 20.336449999999999
#
# number of rings (size 3 to 8) (size 9 to 14) (size 15 to 20)
#    0.000    1.143    1.429    5.143    0.000    5.714 
#    0.000    0.000    0.000    0.000    0.000    0.000 
#    0.000    0.000    0.000    0.000    0.000    0.000 
#
# Total GULP energy -156714.603384 kJ/mol
# GULP energy per Si atom -5596.950121 kJ/mol
# Density = 2.029016 g / cm^3
# Si number density = 20.336450 Si / 1000 Ang^3
#
#
#
# Elastic Constant Matrix: (Units=GPa)
#
#
# Indices 1 2 3 4 5 6 
#
# 1 131.0750 66.9241 26.4149 0.0000 4.9800 0.0000
# 2 66.9241 114.0884 46.7022 0.0000 -4.2792 0.0000
# 3 26.4149 46.7022 59.2386 0.0000 6.2069 0.0000
# 4 0.0000 0.0000 0.0000 28.6440 0.0000 0.8846
# 5 4.9800 -4.2792 6.2069 0.0000 30.4185 0.0000
# 6 0.0000 0.0000 0.0000 0.8846 0.0000 41.0539
#
#
#
# Elastic Compliance Matrix: (Units=1/GPa)
#
#
# Indices 1 2 3 4 5 6 
#
# 1 0.011144 -0.007003 0.000865 0.000000 -0.002986 0.000000
# 2 -0.007003 0.017834 -0.011567 0.000000 0.006016 0.000000
# 3 0.000865 -0.011567 0.026364 0.000000 -0.007148 0.000000
# 4 0.000000 0.000000 0.000000 0.034935 0.000000 -0.000753
# 5 -0.002986 0.006016 -0.007148 0.000000 0.035668 0.000000
# 6 0.000000 0.000000 0.000000 -0.000753 0.000000 0.024374
#
#
# Mechanical properties :
#
#
# Convention : Reuss Voigt Hill
#
# Bulk Modulus (GPa) = 50.17521 64.94273 57.55897
# Shear Modulus (GPa) = 25.99108 30.98065 28.48586
#
# Velocity S-wave (km/s) = 3.57887 3.90732 3.74669
# Velocity P-wave (km/s) = 6.46559 7.23600 6.86161
#
# Compressibility (1/GPa) = 0.01993016
#
# Stress axis : x y z
#
# Youngs Moduli (GPa) = 89.73427 56.07328 37.93103
#
# Poissons Ratio (x) = 0.39268 -0.03280
# Poissons Ratio (y) = 0.62841 0.43876
# Poissons Ratio (z) = -0.07759 0.64862
#
# Static dielectric constant tensor:
#      x y z
#    x 1.709360 0.000000 0.004530 
#    y 0.000000 1.675150 0.000000 
#    z 0.004530 0.000000 1.734050 
# 
# From -- ./inp_files/49506.got.cif
#   From: 2010.05.17/outbox.cif.g08.bks.cpg/sg11_25_cif.got.tgz:49506.got - 2010.06.03 12:22:45.
