data_PCOD9162020
_publ_section_title
;
Structure prediction by ZEFSAII (Michael W. Deem and Ramdas Pophale) SiO2 
 PCOD9162020
Probable space group: P 21/M
;
_chemical_formula_sum "Si O2"
_cell_formula_units_Z 30
_cell_length_a 8.074279
_cell_length_b 7.500255
_cell_length_c 19.794942
_cell_angle_alpha 90.000000
_cell_angle_beta 76.777052
_cell_angle_gamma 90.000000
_cell_volume 1166.982476
_symmetry_space_group_name_H-M "P 21/M"
_symmetry_group_IT_number 11
_symmetry_cell_setting 'monoclinic'
loop_
_space_group_symop_operation_xyz
x,y,z
-x,1/2+y,-z
-x,-y,-z
x,1/2-y,z
loop_
_atom_site_type_symbol
_atom_site_label
_atom_site_fract_x
_atom_site_fract_y
_atom_site_fract_z
Si Si1 0.400539 0.553495 0.732383
Si Si2 0.762873 0.957601 0.020132
Si Si3 0.755253 0.967521 0.635421
Si Si4 0.294272 0.035946 0.512585
Si Si5 0.855535 0.959784 0.764134
Si Si6 0.616899 0.967304 0.897575
Si Si7 0.881855 0.953001 0.145476
Si Si8 0.220311 0.750000 0.629646
O O1 0.447809 0.750000 0.756373
O O2 0.568819 0.480544 0.681397
O O3 0.302274 0.458410 0.801163
O O4 0.272806 0.598517 0.682653
O O5 0.806278 0.750000 0.010469
O O6 0.872100 0.037560 0.071647
O O7 0.569413 0.969089 0.066095
O O8 0.743300 0.029688 0.946239
O O9 0.759879 0.750000 0.630377
O O10 0.766635 0.021226 0.556877
O O11 0.875655 0.029472 0.686012
O O12 0.269888 0.250000 0.523474
O O13 0.500000 0.000000 0.500000
O O14 0.204210 0.907604 0.574106
O O15 0.838001 0.750000 0.754359
O O16 0.689135 0.027913 0.819031
O O17 0.997539 0.971826 0.808126
O O18 0.616107 0.750000 0.898974
O O19 0.930792 0.750000 0.131960
#
# Coordination Sequence:
#
# PCOD9162020 Si02
#       8
#     4   4   4   4   4   4   4   2
#     4   9  18  36  56  81 109 138 184 237 278 341
#     4   9  19  35  56  83 117 147 180 233 287 334
#     4   9  17  33  55  85 109 140 180 238 291 338
#     4  11  17  31  54  87 121 147 184 242 300 352
#     4  10  21  36  56  78 110 150 193 235 276 334
#     4   9  18  35  59  86 110 143 188 233 282 337
#     4  11  23  37  52  77 114 155 190 230 282 341
#     4  10  20  34  56  90 116 148 188 244 296 358
#
# _framework density 25.707329000000001
#
# number of rings (size 3 to 8) (size 9 to 14) (size 15 to 20)
#    0.400    1.867    2.000    1.200    0.000    3.733 
#    2.400    0.000    0.000    0.800    0.000    0.000 
#    0.000    0.000    0.000    0.000    0.000    0.000 
#
# Total GULP energy -167019.857361 kJ/mol
# GULP energy per Si atom -5567.328579 kJ/mol
# Density = 2.564882 g / cm^3
# Si number density = 25.707329 Si / 1000 Ang^3
#
#
#
# Elastic Constant Matrix: (Units=GPa)
#
#
# Indices 1 2 3 4 5 6 
#
# 1 63.6657 9.7347 36.0468 0.0000 13.5121 0.0000
# 2 9.7347 103.2911 33.5770 0.0000 -3.3823 0.0000
# 3 36.0468 33.5770 235.9972 0.0000 41.8376 0.0000
# 4 0.0000 0.0000 0.0000 24.2989 0.0000 -0.6295
# 5 13.5121 -3.3823 41.8376 0.0000 40.6180 0.0000
# 6 0.0000 0.0000 0.0000 -0.6295 0.0000 15.3758
#
#
#
# Elastic Compliance Matrix: (Units=1/GPa)
#
#
# Indices 1 2 3 4 5 6 
#
# 1 0.017801 -0.001227 -0.001806 0.000000 -0.004163 0.000000
# 2 -0.001227 0.010513 -0.001879 0.000000 0.003219 0.000000
# 3 -0.001806 -0.001879 0.005752 0.000000 -0.005480 0.000000
# 4 0.000000 0.000000 0.000000 0.041198 0.000000 0.001687
# 5 -0.004163 0.003219 -0.005480 0.000000 0.031918 0.000000
# 6 0.000000 0.000000 0.000000 0.001687 0.000000 0.065106
#
#
# Mechanical properties :
#
#
# Convention : Reuss Voigt Hill
#
# Bulk Modulus (GPa) = 41.25086 62.40789 51.82937
# Shear Modulus (GPa) = 26.28906 37.63159 31.96033
#
# Velocity S-wave (km/s) = 3.20133 3.83018 3.52978
# Velocity P-wave (km/s) = 5.45397 6.62490 6.06775
#
# Compressibility (1/GPa) = 0.02424192
#
# Stress axis : x y z
#
# Youngs Moduli (GPa) = 56.17671 95.11808 173.84750
#
# Poissons Ratio (x) = 0.11669 0.31403
# Poissons Ratio (y) = 0.06892 0.32667
# Poissons Ratio (z) = 0.10147 0.17874
#
# Static dielectric constant tensor:
#      x y z
#    x 2.172110 0.000000 0.046400 
#    y 0.000000 1.907780 0.000000 
#    z 0.046400 0.000000 2.040070 
# 
# From -- ./inp_files/63243.got.cif
#   From: 2010.05.17/outbox.cif.g08.bks.cpg/sg11_32_cif.got.tgz:63243.got - 2010.06.03 12:22:45.
