data_PCOD9162960
_publ_section_title
;
Structure prediction by ZEFSAII (Michael W. Deem and Ramdas Pophale) SiO2 
 PCOD9162960
Probable space group: P 21/M
;
_chemical_formula_sum "Si O2"
_cell_formula_units_Z 32
_cell_length_a 19.024782
_cell_length_b 11.658181
_cell_length_c 26.205786
_cell_angle_alpha 90.000000
_cell_angle_beta 162.898525
_cell_angle_gamma 90.000000
_cell_volume 1709.192222
_symmetry_space_group_name_H-M "P 21/M"
_symmetry_group_IT_number 11
_symmetry_cell_setting 'monoclinic'
loop_
_space_group_symop_operation_xyz
x,y,z
-x,1/2+y,-z
-x,-y,-z
x,1/2-y,z
loop_
_atom_site_type_symbol
_atom_site_label
_atom_site_fract_x
_atom_site_fract_y
_atom_site_fract_z
Si Si1 0.654797 0.483192 0.723389
Si Si2 0.103563 0.384730 0.543784
Si Si3 0.324007 0.884214 0.053491
Si Si4 0.117594 0.885775 0.017582
Si Si5 0.269037 0.015710 0.910901
Si Si6 0.625835 0.122933 0.599279
Si Si7 0.196235 0.874243 0.384659
Si Si8 0.758225 0.117815 0.212500
O O1 0.693898 0.389662 0.705659
O O2 0.385522 0.529980 0.533208
O O3 0.844048 0.581683 0.839391
O O4 0.725158 0.439355 0.827889
O O5 0.047889 0.250000 0.523464
O O6 0.389457 0.393741 0.741869
O O7 0.000000 0.500000 0.500000
O O8 0.990529 0.390872 0.409037
O O9 0.263605 0.750000 0.006593
O O10 0.196627 0.928411 0.016459
O O11 0.252443 0.945946 0.951828
O O12 0.151054 0.750000 0.041506
O O13 0.062378 0.109358 0.771159
O O14 0.216737 0.941558 0.824483
O O15 0.535496 0.063108 0.088288
O O16 0.502306 0.250000 0.508161
O O17 0.818303 0.123908 0.687230
O O18 0.500000 0.000000 0.500000
O O19 0.295864 0.750000 0.468359
O O20 0.701170 0.250000 0.164287
#
# Coordination Sequence:
#
# PCOD9162960 Si02
#       8
#     4   4   4   4   4   4   4   4
#     4  10  20  36  57  81 114 151 196 243 288 353
#     4  10  20  39  63  88 120 154 195 240 295 353
#     4  10  21  37  59  85 117 152 192 241 291 349
#     4  10  21  36  57  82 113 154 194 241 295 349
#     4  11  21  37  59  83 118 147 196 236 291 356
#     4   9  18  34  55  81 112 148 191 236 287 343
#     4  10  21  36  56  82 114 153 192 245 299 345
#     4  10  22  38  59  85 115 153 192 243 295 346
#
# _framework density 18.722294000000002
#
# number of rings (size 3 to 8) (size 9 to 14) (size 15 to 20)
#    0.000    2.000    1.250    2.250    1.750    0.500 
#    0.000    8.750    0.000    3.000    0.000    0.000 
#    0.000    0.000    0.000    0.000    0.000    0.000 
#
# Total GULP energy -178210.739476 kJ/mol
# GULP energy per Si atom -5569.085609 kJ/mol
# Density = 1.867968 g / cm^3
# Si number density = 18.722294 Si / 1000 Ang^3
#
#
#
# Elastic Constant Matrix: (Units=GPa)
#
#
# Indices 1 2 3 4 5 6 
#
# 1 426.2014 122.7169 118.1805 0.0000 -356.7943 0.0000
# 2 122.7169 110.1770 36.8030 0.0000 -97.6670 0.0000
# 3 118.1805 36.8030 83.1375 0.0000 -118.5108 0.0000
# 4 0.0000 0.0000 0.0000 19.7422 0.0000 2.2010
# 5 -356.7943 -97.6670 -118.5108 0.0000 400.7679 0.0000
# 6 0.0000 0.0000 0.0000 2.2010 0.0000 23.1036
#
#
#
# Elastic Compliance Matrix: (Units=1/GPa)
#
#
# Indices 1 2 3 4 5 6 
#
# 1 0.010883 -0.004309 -0.002158 0.000000 0.008001 0.000000
# 2 -0.004309 0.013461 -0.001082 0.000000 -0.000875 0.000000
# 3 -0.002158 -0.001082 0.021540 0.000000 0.004185 0.000000
# 4 0.000000 0.000000 0.000000 0.051197 0.000000 -0.004877
# 5 0.008001 -0.000875 0.004185 0.000000 0.010642 0.000000
# 6 0.000000 0.000000 0.000000 -0.004877 0.000000 0.043748
#
#
# Mechanical properties :
#
#
# Convention : Reuss Voigt Hill
#
# Bulk Modulus (GPa) = 32.48156 130.54632 81.51394
# Shear Modulus (GPa) = 28.27560 111.51042 69.89301
#
# Velocity S-wave (km/s) = 3.89043 7.72590 6.11657
# Velocity P-wave (km/s) = 6.12922 12.22559 9.67038
#
# Compressibility (1/GPa) = 0.03078670
#
# Stress axis : x y z
#
# Youngs Moduli (GPa) = 91.88307 74.29042 46.42507
#
# Poissons Ratio (x) = 0.32009 0.10019
# Poissons Ratio (y) = 0.39589 0.05023
# Poissons Ratio (z) = 0.19830 0.08037
#
# Static dielectric constant tensor:
#      x y z
#    x 1.650360 0.000000 -0.012220 
#    y 0.000000 1.678580 0.000000 
#    z -0.012220 0.000000 1.631300 
# 
# From -- ./inp_files/69644.got.cif
#   From: 2010.05.17/outbox.cif.g08.bks.cpg/sg11_35_cif.got.tgz:69644.got - 2010.06.03 12:22:45.
