data_PCOD9162298
_publ_section_title
;
Structure prediction by ZEFSAII (Michael W. Deem and Ramdas Pophale) SiO2 
 PCOD9162298
Probable space group: P 21/M
;
_chemical_formula_sum "Si O2"
_cell_formula_units_Z 32
_cell_length_a 15.967714
_cell_length_b 8.690522
_cell_length_c 24.013596
_cell_angle_alpha 90.000000
_cell_angle_beta 32.257770
_cell_angle_gamma 90.000000
_cell_volume 1778.552844
_symmetry_space_group_name_H-M "P 21/M"
_symmetry_group_IT_number 11
_symmetry_cell_setting 'monoclinic'
loop_
_space_group_symop_operation_xyz
x,y,z
-x,1/2+y,-z
-x,-y,-z
x,1/2-y,z
loop_
_atom_site_type_symbol
_atom_site_label
_atom_site_fract_x
_atom_site_fract_y
_atom_site_fract_z
Si Si1 0.824464 0.566511 0.100442
Si Si2 0.327841 0.433145 0.601338
Si Si3 0.851942 0.434731 0.906450
Si Si4 0.033481 0.067884 0.692140
Si Si5 0.752127 0.064195 0.648376
Si Si6 0.143958 0.570178 0.805148
Si Si7 0.397748 0.436353 0.876631
Si Si8 0.977282 0.434070 0.424915
O O1 0.832380 0.750000 0.094505
O O2 0.771640 0.508470 0.190261
O O3 0.711169 0.516069 0.114486
O O4 0.000000 0.500000 0.000000
O O5 0.500000 0.500000 0.500000
O O6 0.327331 0.250000 0.615016
O O7 0.248666 0.533670 0.693545
O O8 0.211381 0.451898 0.614415
O O9 0.853984 0.250000 0.906313
O O10 0.917769 0.483319 0.808239
O O11 0.977482 0.496281 0.881270
O O12 0.684491 0.496686 0.021702
O O13 0.005350 0.250000 0.700832
O O14 0.017485 0.988481 0.641664
O O15 0.752838 0.250000 0.649701
O O16 0.575737 0.014651 0.763077
O O17 0.822452 0.018789 0.548115
O O18 0.875534 0.001766 0.623957
O O19 0.120932 0.750000 0.828548
O O20 0.394283 0.250000 0.882289
O O21 0.984876 0.250000 0.422015
#
# Coordination Sequence:
#
# PCOD9162298 Si02
#       8
#     4   4   4   4   4   4   4   4
#     4  11  21  33  51  78 110 146 186 229 276 328
#     4  10  21  37  55  79 111 147 187 232 280 329
#     4  10  20  35  55  79 110 146 185 229 277 329
#     4   9  20  37  57  81 110 147 183 224 278 332
#     4   9  20  39  59  82 113 145 176 225 285 335
#     4  11  21  34  52  75 106 148 191 229 274 328
#     4  10  21  36  56  81 111 147 187 230 282 340
#     4  10  20  36  61  88 110 140 184 228 276 336
#
# _framework density 17.992156000000001
#
# number of rings (size 3 to 8) (size 9 to 14) (size 15 to 20)
#    0.000    2.000    1.250    3.375    0.000    5.500 
#    0.000    1.875    0.000    0.000    0.000    0.000 
#    0.000    0.000    0.000    0.000    0.000    0.000 
#
# Total GULP energy -178402.183807 kJ/mol
# GULP energy per Si atom -5575.068244 kJ/mol
# Density = 1.795120 g / cm^3
# Si number density = 17.992156 Si / 1000 Ang^3
#
#
#
# Elastic Constant Matrix: (Units=GPa)
#
#
# Indices 1 2 3 4 5 6 
#
# 1 90.8044 28.2964 65.8741 0.0000 17.1969 0.0000
# 2 28.2964 38.8547 32.8433 0.0000 1.3233 0.0000
# 3 65.8741 32.8433 151.6769 0.0000 -4.8465 0.0000
# 4 0.0000 0.0000 0.0000 29.8385 0.0000 2.7898
# 5 17.1969 1.3233 -4.8465 0.0000 22.8144 0.0000
# 6 0.0000 0.0000 0.0000 2.7898 0.0000 27.3244
#
#
#
# Elastic Compliance Matrix: (Units=1/GPa)
#
#
# Indices 1 2 3 4 5 6 
#
# 1 0.024288 -0.009263 -0.009173 0.000000 -0.019719 0.000000
# 2 -0.009263 0.035284 -0.003483 0.000000 0.004196 0.000000
# 3 -0.009173 -0.003483 0.011637 0.000000 0.009588 0.000000
# 4 0.000000 0.000000 0.000000 0.033837 0.000000 -0.003455
# 5 -0.019719 0.004196 0.009588 0.000000 0.060489 0.000000
# 6 0.000000 0.000000 0.000000 -0.003455 0.000000 0.036950
#
#
# Mechanical properties :
#
#
# Convention : Reuss Voigt Hill
#
# Bulk Modulus (GPa) = 36.53398 59.48486 48.00942
# Shear Modulus (GPa) = 19.57352 26.28360 22.92856
#
# Velocity S-wave (km/s) = 3.30190 3.82624 3.57370
# Velocity P-wave (km/s) = 5.90646 7.25627 6.61588
#
# Compressibility (1/GPa) = 0.02737178
#
# Stress axis : x y z
#
# Youngs Moduli (GPa) = 41.17257 28.34126 85.93002
#
# Poissons Ratio (x) = 0.26252 0.78822
# Poissons Ratio (y) = 0.38138 0.29932
# Poissons Ratio (z) = 0.37767 0.09872
#
# Static dielectric constant tensor:
#      x y z
#    x 1.610040 0.000000 0.015380 
#    y 0.000000 1.610220 0.000000 
#    z 0.015380 0.000000 1.652150 
# 
# From -- ./inp_files/69015.got.cif
#   From: 2010.05.17/outbox.cif.g08.bks.cpg/sg11_35_cif.got.tgz:69015.got - 2010.06.03 12:22:45.
