data_PCOD9162798
_publ_section_title
;
Structure prediction by ZEFSAII (Michael W. Deem and Ramdas Pophale) SiO2 
 PCOD9162798
Probable space group: P 21/M
;
_chemical_formula_sum "Si O2"
_cell_formula_units_Z 32
_cell_length_a 8.319649
_cell_length_b 13.985272
_cell_length_c 13.582957
_cell_angle_alpha 90.000000
_cell_angle_beta 118.394905
_cell_angle_gamma 90.000000
_cell_volume 1390.273770
_symmetry_space_group_name_H-M "P 21/M"
_symmetry_group_IT_number 11
_symmetry_cell_setting 'monoclinic'
loop_
_space_group_symop_operation_xyz
x,y,z
-x,1/2+y,-z
-x,-y,-z
x,1/2-y,z
loop_
_atom_site_type_symbol
_atom_site_label
_atom_site_fract_x
_atom_site_fract_y
_atom_site_fract_z
Si Si1 0.619820 0.065742 0.939221
Si Si2 0.218765 0.141233 0.233330
Si Si3 0.252071 0.357308 0.010231
Si Si4 0.181475 0.861897 0.811417
Si Si5 0.567500 0.031772 0.413380
Si Si6 0.275113 0.452271 0.723862
Si Si7 0.125194 0.636247 0.388343
Si Si8 0.845316 0.361680 0.823425
O O1 0.419047 0.093929 0.842088
O O2 0.749687 0.079547 0.881448
O O3 0.628476 0.952538 0.967688
O O4 0.710088 0.123633 0.054484
O O5 0.245836 0.250000 0.274633
O O6 0.196874 0.142592 0.109361
O O7 0.399702 0.085230 0.313560
O O8 0.028707 0.109133 0.226561
O O9 0.327884 0.250000 0.012242
O O10 0.064314 0.370440 0.896345
O O11 0.190512 0.750000 0.785505
O O12 0.255809 0.937021 0.753488
O O13 0.742925 0.097168 0.488993
O O14 0.500000 0.000000 0.500000
O O15 0.635978 0.951263 0.358056
O O16 0.077125 0.406372 0.664008
O O17 0.113924 0.750000 0.389316
O O18 0.203222 0.611591 0.302126
O O19 0.800217 0.250000 0.826667
#
# Coordination Sequence:
#
# PCOD9162798 Si02
#       8
#     4   4   4   4   4   4   4   4
#     4  12  22  39  66 101 137 184 223 277 335 413
#     4  10  21  41  68 100 130 170 225 285 341 399
#     4  10  20  35  63  99 132 172 224 283 338 397
#     4  11  25  43  67 103 145 180 221 279 353 420
#     4  12  25  47  73  98 129 175 239 295 341 401
#     4  12  27  44  66  98 137 186 228 279 346 412
#     4  11  26  46  68  99 139 185 230 282 344 408
#     4  10  21  39  67  98 132 174 223 278 339 403
#
# _framework density 23.017047999999999
#
# number of rings (size 3 to 8) (size 9 to 14) (size 15 to 20)
#    0.000    1.000    2.500    4.125    1.750    2.500 
#    0.000    3.750    0.000    0.000    0.000    0.000 
#    0.000    0.000    0.000    0.000    0.000    0.000 
#
# Total GULP energy -179219.560694 kJ/mol
# GULP energy per Si atom -5600.611272 kJ/mol
# Density = 2.296466 g / cm^3
# Si number density = 23.017048 Si / 1000 Ang^3
#
#
#
# Elastic Constant Matrix: (Units=GPa)
#
#
# Indices 1 2 3 4 5 6 
#
# 1 91.5851 5.3908 25.0690 0.0000 11.3397 0.0000
# 2 5.3908 62.3548 6.4883 0.0000 19.0856 0.0000
# 3 25.0690 6.4883 107.4931 0.0000 12.2847 0.0000
# 4 0.0000 0.0000 0.0000 27.2149 0.0000 -4.6336
# 5 11.3397 19.0856 12.2847 0.0000 46.2127 0.0000
# 6 0.0000 0.0000 0.0000 -4.6336 0.0000 18.9680
#
#
#
# Elastic Compliance Matrix: (Units=1/GPa)
#
#
# Indices 1 2 3 4 5 6 
#
# 1 0.011886 -0.000089 -0.002514 0.000000 -0.002212 0.000000
# 2 -0.000089 0.018365 -0.000230 0.000000 -0.007502 0.000000
# 3 -0.002514 -0.000230 0.010129 0.000000 -0.001981 0.000000
# 4 0.000000 0.000000 0.000000 0.038339 0.000000 0.009366
# 5 -0.002212 -0.007502 -0.001981 0.000000 0.025806 0.000000
# 6 0.000000 0.000000 0.000000 0.009366 0.000000 0.055008
#
#
# Mechanical properties :
#
#
# Convention : Reuss Voigt Hill
#
# Bulk Modulus (GPa) = 28.80709 37.25878 33.03293
# Shear Modulus (GPa) = 28.28497 33.44478 30.86487
#
# Velocity S-wave (km/s) = 3.50933 3.81602 3.66588
# Velocity P-wave (km/s) = 5.38175 5.96981 5.68339
#
# Compressibility (1/GPa) = 0.03471368
#
# Stress axis : x y z
#
# Youngs Moduli (GPa) = 84.13275 54.45134 98.72194
#
# Poissons Ratio (x) = 0.00485 0.24817
# Poissons Ratio (y) = 0.00750 0.02275
# Poissons Ratio (z) = 0.21150 0.01255
#
# Static dielectric constant tensor:
#      x y z
#    x 1.878190 0.000000 -0.014730 
#    y 0.000000 1.869920 0.000000 
#    z -0.014730 0.000000 1.830120 
# 
# From -- ./inp_files/47655.got.cif
#   From: 2010.05.17/outbox.cif.g08.bks.cpg/sg11_24_cif.got.tgz:47655.got - 2010.06.03 12:22:45.
