data_PCOD9162937
_publ_section_title
;
Structure prediction by ZEFSAII (Michael W. Deem and Ramdas Pophale) SiO2 
 PCOD9162937
Probable space group: P 21/M
;
_chemical_formula_sum "Si O2"
_cell_formula_units_Z 28
_cell_length_a 29.872704
_cell_length_b 8.422429
_cell_length_c 9.278856
_cell_angle_alpha 90.000000
_cell_angle_beta 140.873912
_cell_angle_gamma 90.000000
_cell_volume 1473.179651
_symmetry_space_group_name_H-M "P 21/M"
_symmetry_group_IT_number 11
_symmetry_cell_setting 'monoclinic'
loop_
_space_group_symop_operation_xyz
x,y,z
-x,1/2+y,-z
-x,-y,-z
x,1/2-y,z
loop_
_atom_site_type_symbol
_atom_site_label
_atom_site_fract_x
_atom_site_fract_y
_atom_site_fract_z
Si Si1 0.069057 0.559710 0.588422
Si Si2 0.502103 0.440034 0.340084
Si Si3 0.652157 0.558746 0.712999
Si Si4 0.069127 0.940377 0.256524
Si Si5 0.347161 0.443455 0.950293
Si Si6 0.207275 0.442378 0.433689
Si Si7 0.792888 0.942302 0.898761
O O1 0.068387 0.750000 0.586909
O O2 0.067824 0.504348 0.419323
O O3 0.000000 0.500000 0.500000
O O4 0.139765 0.500920 0.843867
O O5 0.500000 0.500000 0.500000
O O6 0.504779 0.250000 0.345933
O O7 0.575844 0.504416 0.462897
O O8 0.425185 0.490745 0.087480
O O9 0.651976 0.750000 0.713920
O O10 0.719540 0.504403 0.789621
O O11 0.659371 0.506016 0.898383
O O12 0.068690 0.750000 0.254997
O O13 0.139750 0.999838 0.354145
O O14 0.000000 0.000000 0.000000
O O15 0.346022 0.250000 0.947922
O O16 0.280347 0.497409 0.690641
O O17 0.207206 0.250000 0.435151
O O18 0.202918 0.494088 0.256787
O O19 0.793388 0.750000 0.901956
#
# Coordination Sequence:
#
# PCOD9162937 Si02
#       7
#     4   4   4   4   4   4   4
#     4  11  24  40  59  83 111 141 177 218 264 317
#     4   9  16  28  48  74 102 135 176 221 267 317
#     4   9  17  31  50  74 104 139 177 219 266 316
#     4  11  24  40  58  83 110 139 175 216 262 314
#     4   8  15  29  50  73 100 136 175 214 262 313
#     4  10  20  36  57  80 107 142 181 221 264 315
#     4  10  21  36  56  81 109 142 181 221 266 318
#
# _framework density 19.006505000000001
#
# number of rings (size 3 to 8) (size 9 to 14) (size 15 to 20)
#    0.000    2.286    0.000    3.857    0.000    8.000 
#    0.000    5.714    0.000    0.000    0.000    0.000 
#    0.000    0.000    0.000    0.000    0.000    0.000 
#
# Total GULP energy -156256.859624 kJ/mol
# GULP energy per Si atom -5580.602129 kJ/mol
# Density = 1.896325 g / cm^3
# Si number density = 19.006505 Si / 1000 Ang^3
#
#
#
# Elastic Constant Matrix: (Units=GPa)
#
#
# Indices 1 2 3 4 5 6 
#
# 1 175.8996 25.7259 119.0880 0.0000 19.8726 0.0000
# 2 25.7259 14.6363 23.7653 0.0000 1.0664 0.0000
# 3 119.0880 23.7653 198.6541 0.0000 22.0881 0.0000
# 4 0.0000 0.0000 0.0000 27.9842 0.0000 7.5239
# 5 19.8726 1.0664 22.0881 0.0000 38.8833 0.0000
# 6 0.0000 0.0000 0.0000 7.5239 0.0000 26.5240
#
#
#
# Elastic Compliance Matrix: (Units=1/GPa)
#
#
# Indices 1 2 3 4 5 6 
#
# 1 0.010930 -0.010968 -0.004966 0.000000 -0.002464 0.000000
# 2 -0.010968 0.096294 -0.005630 0.000000 0.006163 0.000000
# 3 -0.004966 -0.005630 0.008950 0.000000 -0.002392 0.000000
# 4 0.000000 0.000000 0.000000 0.038685 0.000000 -0.010974
# 5 -0.002464 0.006163 -0.002392 0.000000 0.028167 0.000000
# 6 0.000000 0.000000 0.000000 -0.010974 0.000000 0.040814
#
#
# Mechanical properties :
#
#
# Convention : Reuss Voigt Hill
#
# Bulk Modulus (GPa) = 13.68996 80.70536 47.19766
# Shear Modulus (GPa) = 17.16344 33.38568 25.27456
#
# Velocity S-wave (km/s) = 3.00831 4.19566 3.65058
# Velocity P-wave (km/s) = 4.39146 8.12561 6.53110
#
# Compressibility (1/GPa) = 0.07304623
#
# Stress axis : x y z
#
# Youngs Moduli (GPa) = 91.49492 10.38485 111.72811
#
# Poissons Ratio (x) = 0.11390 0.55483
# Poissons Ratio (y) = 1.00350 0.62904
# Poissons Ratio (z) = 0.45435 0.05847
#
# Static dielectric constant tensor:
#      x y z
#    x 1.647550 0.000000 0.005770 
#    y 0.000000 1.660290 0.000000 
#    z 0.005770 0.000000 1.651960 
# 
# From -- ./inp_files/28557.got.cif
#   From: 2010.05.17/outbox.cif.g08.bks.cpg/sg11_15_cif.got.tgz:28557.got - 2010.06.03 12:22:45.
