data_PCOD9162321
_publ_section_title
;
Structure prediction by ZEFSAII (Michael W. Deem and Ramdas Pophale) SiO2 
 PCOD9162321
Probable space group: P 21/M
;
_chemical_formula_sum "Si O2"
_cell_formula_units_Z 28
_cell_length_a 29.967588
_cell_length_b 8.836340
_cell_length_c 9.450782
_cell_angle_alpha 90.000000
_cell_angle_beta 37.923091
_cell_angle_gamma 90.000000
_cell_volume 1538.107689
_symmetry_space_group_name_H-M "P 21/M"
_symmetry_group_IT_number 11
_symmetry_cell_setting 'monoclinic'
loop_
_space_group_symop_operation_xyz
x,y,z
-x,1/2+y,-z
-x,-y,-z
x,1/2-y,z
loop_
_atom_site_type_symbol
_atom_site_label
_atom_site_fract_x
_atom_site_fract_y
_atom_site_fract_z
Si Si1 0.499257 0.431809 0.344612
Si Si2 0.062962 0.068762 0.747620
Si Si3 0.366546 0.932949 0.499090
Si Si4 0.641847 0.067690 0.807833
Si Si5 0.227911 0.069377 0.341743
Si Si6 0.227153 0.931786 0.031099
Si Si7 0.063477 0.931140 0.434795
O O1 0.500000 0.500000 0.500000
O O2 0.496205 0.250000 0.361240
O O3 0.431043 0.493237 0.427041
O O4 0.572248 0.474633 0.076666
O O5 0.056424 0.250000 0.757244
O O6 0.144962 0.032034 0.592792
O O7 0.056338 0.997978 0.609138
O O8 0.000000 0.000000 0.000000
O O9 0.374030 0.750000 0.486336
O O10 0.367923 0.979094 0.331117
O O11 0.290240 0.973552 0.764137
O O12 0.647614 0.250000 0.795280
O O13 0.713379 0.999667 0.699861
O O14 0.235062 0.250000 0.320026
O O15 0.238961 0.006126 0.155093
O O16 0.229614 0.750000 0.044416
O O17 0.145937 0.970493 0.181653
O O18 0.057372 0.750000 0.452393
O O19 0.000000 0.000000 0.500000
#
# Coordination Sequence:
#
# PCOD9162321 Si02
#       7
#     4   4   4   4   4   4   4
#     4  11  23  38  57  82 110 144 183 222 267 321
#     4  10  21  37  56  81 111 145 185 230 278 329
#     4  10  21  38  58  81 108 140 180 225 270 320
#     4  10  22  38  56  80 112 146 179 219 272 327
#     4  10  21  36  56  82 110 141 182 226 268 318
#     4   9  19  36  57  79 106 142 182 221 270 329
#     4  10  20  35  55  81 112 146 184 229 278 332
#
# _framework density 18.204187000000001
#
# number of rings (size 3 to 8) (size 9 to 14) (size 15 to 20)
#    0.000    2.000    0.000    3.000    0.000    9.143 
#    0.000    1.429    0.000    0.000    0.000    0.000 
#    0.000    0.000    0.000    0.000    0.000    0.000 
#
# Total GULP energy -156375.069583 kJ/mol
# GULP energy per Si atom -5584.823914 kJ/mol
# Density = 1.816275 g / cm^3
# Si number density = 18.204187 Si / 1000 Ang^3
#
#
#
# Elastic Constant Matrix: (Units=GPa)
#
#
# Indices 1 2 3 4 5 6 
#
# 1 190.7072 57.6725 113.9198 0.0000 -17.6313 0.0000
# 2 57.6725 42.3576 62.1353 0.0000 -8.1536 0.0000
# 3 113.9198 62.1353 188.6884 0.0000 -7.9563 0.0000
# 4 0.0000 0.0000 0.0000 26.5645 0.0000 -3.1679
# 5 -17.6313 -8.1536 -7.9563 0.0000 25.0928 0.0000
# 6 0.0000 0.0000 0.0000 -3.1679 0.0000 38.7131
#
#
#
# Elastic Compliance Matrix: (Units=1/GPa)
#
#
# Indices 1 2 3 4 5 6 
#
# 1 0.009920 -0.008302 -0.003116 0.000000 0.003284 0.000000
# 2 -0.008302 0.055353 -0.012875 0.000000 0.008070 0.000000
# 3 -0.003116 -0.012875 0.011303 0.000000 -0.002789 0.000000
# 4 0.000000 0.000000 0.000000 0.038015 0.000000 0.003111
# 5 0.003284 0.008070 -0.002789 0.000000 0.043897 0.000000
# 6 0.000000 0.000000 0.000000 0.003111 0.000000 0.026086
#
#
# Mechanical properties :
#
#
# Convention : Reuss Voigt Hill
#
# Bulk Modulus (GPa) = 35.72931 98.80094 67.26512
# Shear Modulus (GPa) = 20.61931 30.60913 25.61422
#
# Velocity S-wave (km/s) = 3.36917 4.10498 3.75514
# Velocity P-wave (km/s) = 5.89954 8.76695 7.47208
#
# Compressibility (1/GPa) = 0.02798822
#
# Stress axis : x y z
#
# Youngs Moduli (GPa) = 100.80964 18.06594 88.46895
#
# Poissons Ratio (x) = 0.14999 0.27571
# Poissons Ratio (y) = 0.83697 1.13903
# Poissons Ratio (z) = 0.31417 0.23260
#
# Static dielectric constant tensor:
#      x y z
#    x 1.585720 0.000000 -0.015830 
#    y 0.000000 1.416610 0.000000 
#    z -0.015830 0.000000 1.621700 
# 
# From -- ./inp_files/26075.got.cif
#   From: 2010.05.17/outbox.cif.g08.bks.cpg/sg11_14_cif.got.tgz:26075.got - 2010.06.03 12:22:45.
