data_PCOD9162733
_publ_section_title
;
Structure prediction by ZEFSAII (Michael W. Deem and Ramdas Pophale) SiO2 
 PCOD9162733
Probable space group: P 21/M
;
_chemical_formula_sum "Si O2"
_cell_formula_units_Z 32
_cell_length_a 14.107350
_cell_length_b 7.909708
_cell_length_c 23.749677
_cell_angle_alpha 90.000000
_cell_angle_beta 150.453451
_cell_angle_gamma 90.000000
_cell_volume 1306.849173
_symmetry_space_group_name_H-M "P 21/M"
_symmetry_group_IT_number 11
_symmetry_cell_setting 'monoclinic'
loop_
_space_group_symop_operation_xyz
x,y,z
-x,1/2+y,-z
-x,-y,-z
x,1/2-y,z
loop_
_atom_site_type_symbol
_atom_site_label
_atom_site_fract_x
_atom_site_fract_y
_atom_site_fract_z
Si Si1 0.262783 0.441501 0.819885
Si Si2 0.645385 0.555097 0.011818
Si Si3 0.691245 0.950091 0.564636
Si Si4 0.069738 0.048693 0.974528
Si Si5 0.895061 0.543781 0.371012
Si Si6 0.500016 0.045475 0.773111
Si Si7 0.688423 0.951509 0.433901
Si Si8 0.917604 0.438799 0.788996
O O1 0.200157 0.250000 0.799456
O O2 0.302769 0.521558 0.900196
O O3 0.122526 0.519400 0.702980
O O4 0.472921 0.444371 0.899547
O O5 0.575351 0.750000 0.979113
O O6 0.850780 0.565917 0.090673
O O7 0.698127 0.750000 0.562489
O O8 0.690145 0.020883 0.499504
O O9 0.500000 0.000000 0.500000
O O10 0.854461 0.996339 0.695128
O O11 0.051738 0.250000 0.959357
O O12 0.299465 0.007342 0.094805
O O13 0.912627 0.973940 0.847642
O O14 0.000000 0.000000 0.000000
O O15 0.894449 0.750000 0.371252
O O16 0.698989 0.486279 0.299570
O O17 0.109167 0.483875 0.494666
O O18 0.497223 0.250000 0.772458
O O19 0.473849 0.989109 0.694179
O O20 0.666633 0.750000 0.427496
O O21 0.831150 0.250000 0.746849
#
# Coordination Sequence:
#
# PCOD9162733 Si02
#       8
#     4   4   4   4   4   4   4   4
#     4   9  17  28  46  76 114 150 192 241 289 346
#     4   9  17  30  49  75 108 150 192 237 295 355
#     4  11  25  43  65  93 124 164 214 267 324 383
#     4  11  25  43  66  95 126 165 212 265 325 388
#     4  10  20  35  59  90 124 167 213 258 311 378
#     4  10  22  41  64  93 132 172 213 264 321 380
#     4  10  23  41  62  91 130 171 212 265 323 377
#     4  10  22  41  63  87 119 154 197 255 315 374
#
# _framework density 24.486374999999999
#
# number of rings (size 3 to 8) (size 9 to 14) (size 15 to 20)
#    0.000    2.000    0.000    2.625    1.750    5.000 
#    0.000    2.500    0.000    0.000    0.000    0.000 
#    0.000    0.000    0.000    0.000    0.000    0.000 
#
# Total GULP energy -178215.224152 kJ/mol
# GULP energy per Si atom -5569.225755 kJ/mol
# Density = 2.443064 g / cm^3
# Si number density = 24.486375 Si / 1000 Ang^3
#
#
#
# Elastic Constant Matrix: (Units=GPa)
#
#
# Indices 1 2 3 4 5 6 
#
# 1 85.1557 1.9088 29.5839 0.0000 -20.1763 0.0000
# 2 1.9088 38.3217 5.5180 0.0000 -13.7154 0.0000
# 3 29.5839 5.5180 145.4267 0.0000 -36.5876 0.0000
# 4 0.0000 0.0000 0.0000 24.3820 0.0000 6.1845
# 5 -20.1763 -13.7154 -36.5876 0.0000 48.7013 0.0000
# 6 0.0000 0.0000 0.0000 6.1845 0.0000 24.1211
#
#
#
# Elastic Compliance Matrix: (Units=1/GPa)
#
#
# Indices 1 2 3 4 5 6 
#
# 1 0.013380 0.001245 -0.001586 0.000000 0.004702 0.000000
# 2 0.001245 0.029300 0.001037 0.000000 0.009546 0.000000
# 3 -0.001586 0.001037 0.008715 0.000000 0.006182 0.000000
# 4 0.000000 0.000000 0.000000 0.043867 0.000000 -0.011247
# 5 0.004702 0.009546 0.006182 0.000000 0.029814 0.000000
# 6 0.000000 0.000000 0.000000 -0.011247 0.000000 0.044341
#
#
# Mechanical properties :
#
#
# Convention : Reuss Voigt Hill
#
# Bulk Modulus (GPa) = 18.94423 38.10284 28.52354
# Shear Modulus (GPa) = 26.93640 34.90044 30.91842
#
# Velocity S-wave (km/s) = 3.32031 3.77941 3.55727
# Velocity P-wave (km/s) = 4.73843 5.88557 5.34287
#
# Compressibility (1/GPa) = 0.05278652
#
# Stress axis : x y z
#
# Youngs Moduli (GPa) = 74.73573 34.12948 114.74479
#
# Poissons Ratio (x) = -0.04249 0.18200
# Poissons Ratio (y) = -0.09304 -0.11896
# Poissons Ratio (z) = 0.11854 -0.03538
#
# Static dielectric constant tensor:
#      x y z
#    x 2.192500 0.000000 -0.047240 
#    y 0.000000 1.938910 0.000000 
#    z -0.047240 0.000000 2.029380 
# 
# From -- ./inp_files/69127.got.cif
#   From: 2010.05.17/outbox.cif.g08.bks.cpg/sg11_35_cif.got.tgz:69127.got - 2010.06.03 12:22:45.
