data_PCOD9162169
_publ_section_title
;
Structure prediction by ZEFSAII (Michael W. Deem and Ramdas Pophale) SiO2 
 PCOD9162169
Probable space group: P 21/M
;
_chemical_formula_sum "Si O2"
_cell_formula_units_Z 32
_cell_length_a 11.627407
_cell_length_b 8.745132
_cell_length_c 24.149850
_cell_angle_alpha 90.000000
_cell_angle_beta 125.589818
_cell_angle_gamma 90.000000
_cell_volume 1996.932075
_symmetry_space_group_name_H-M "P 21/M"
_symmetry_group_IT_number 11
_symmetry_cell_setting 'monoclinic'
loop_
_space_group_symop_operation_xyz
x,y,z
-x,1/2+y,-z
-x,-y,-z
x,1/2-y,z
loop_
_atom_site_type_symbol
_atom_site_label
_atom_site_fract_x
_atom_site_fract_y
_atom_site_fract_z
Si Si1 0.527857 0.567846 0.774930
Si Si2 0.923743 0.571716 0.346429
Si Si3 0.302706 0.435921 0.798417
Si Si4 0.672635 0.928124 0.368375
Si Si5 0.820633 0.067076 0.895003
Si Si6 0.125291 0.567015 0.961916
Si Si7 0.119902 0.565081 0.492382
Si Si8 0.650293 0.566459 0.060647
O O1 0.525530 0.750000 0.776329
O O2 0.429503 0.501730 0.796790
O O3 0.457421 0.510419 0.697998
O O4 0.684860 0.505139 0.827980
O O5 0.952312 0.750000 0.343089
O O6 0.845524 0.508178 0.270350
O O7 0.799767 0.563877 0.358333
O O8 0.064672 0.511809 0.416314
O O9 0.307564 0.250000 0.794733
O O10 0.319592 0.476024 0.867104
O O11 0.642384 0.750000 0.368930
O O12 0.734290 0.004051 0.441244
O O13 0.818051 0.250000 0.888509
O O14 0.819046 0.030595 0.960409
O O15 0.968176 0.001496 0.913859
O O16 0.120041 0.750000 0.955410
O O17 0.229427 0.497595 0.945898
O O18 0.117513 0.750000 0.493460
O O19 0.000000 0.500000 0.500000
O O20 0.646594 0.750000 0.056177
O O21 0.500000 0.500000 0.000000
#
# Coordination Sequence:
#
# PCOD9162169 Si02
#       8
#     4   4   4   4   4   4   4   4
#     4  11  20  29  45  69  94 121 155 193 232 274
#     4   7  12  23  38  54  77 111 149 186 222 262
#     4   9  18  32  46  63  90 125 160 191 228 275
#     4   9  16  26  38  55  84 119 151 185 224 270
#     4  10  20  35  53  70  91 120 152 188 233 281
#     4  10  21  36  53  72  93 118 152 193 233 275
#     4   9  14  21  35  55  79 111 149 187 227 270
#     4  11  22  34  50  70  95 126 158 192 230 274
#
# _framework density 16.02458
#
# number of rings (size 3 to 8) (size 9 to 14) (size 15 to 20)
#    0.000    2.500    0.000    5.250    0.000    5.500 
#    0.000    0.625    0.000    0.000    0.000    0.000 
#    0.000    1.000    0.000    2.750    0.000    5.750 
#
# Total GULP energy -178262.930498 kJ/mol
# GULP energy per Si atom -5570.716578 kJ/mol
# Density = 1.598811 g / cm^3
# Si number density = 16.024580 Si / 1000 Ang^3
#
#
#
# Elastic Constant Matrix: (Units=GPa)
#
#
# Indices 1 2 3 4 5 6 
#
# 1 61.2953 27.3675 65.2253 0.0000 9.3223 0.0000
# 2 27.3675 59.8506 57.7499 0.0000 7.8186 0.0000
# 3 65.2253 57.7499 185.1729 0.0000 19.6327 0.0000
# 4 0.0000 0.0000 0.0000 27.5293 0.0000 4.7388
# 5 9.3223 7.8186 19.6327 0.0000 18.3521 0.0000
# 6 0.0000 0.0000 0.0000 4.7388 0.0000 21.0634
#
#
#
# Elastic Compliance Matrix: (Units=1/GPa)
#
#
# Indices 1 2 3 4 5 6 
#
# 1 0.027128 -0.004411 -0.007803 0.000000 -0.003553 0.000000
# 2 -0.004411 0.024719 -0.005951 0.000000 -0.001924 0.000000
# 3 -0.007803 -0.005951 0.010508 0.000000 -0.004742 0.000000
# 4 0.000000 0.000000 0.000000 0.037788 0.000000 -0.008502
# 5 -0.003553 -0.001924 -0.004742 0.000000 0.062187 0.000000
# 6 0.000000 0.000000 0.000000 -0.008502 0.000000 0.049388
#
#
# Mechanical properties :
#
#
# Convention : Reuss Voigt Hill
#
# Bulk Modulus (GPa) = 38.42708 67.44492 52.93600
# Shear Modulus (GPa) = 19.47618 23.78737 21.63177
#
# Velocity S-wave (km/s) = 3.49003 3.85701 3.67810
# Velocity P-wave (km/s) = 6.34607 7.87497 7.15149
#
# Compressibility (1/GPa) = 0.02602332
#
# Stress axis : x y z
#
# Youngs Moduli (GPa) = 36.86267 40.45438 95.16840
#
# Poissons Ratio (x) = 0.17845 0.74260
# Poissons Ratio (y) = 0.16261 0.56639
# Poissons Ratio (z) = 0.28764 0.24076
#
# Static dielectric constant tensor:
#      x y z
#    x 1.498900 0.000000 0.006180 
#    y 0.000000 1.540370 0.000000 
#    z 0.006180 0.000000 1.587230 
# 
# From -- ./inp_files/68332.got.cif
#   From: 2010.05.17/outbox.cif.g08.bks.cpg/sg11_35_cif.got.tgz:68332.got - 2010.06.03 12:22:45.
