data_PCOD9162373
_publ_section_title
;
Structure prediction by ZEFSAII (Michael W. Deem and Ramdas Pophale) SiO2 
 PCOD9162373
Probable space group: P 21/M
;
_chemical_formula_sum "Si O2"
_cell_formula_units_Z 24
_cell_length_a 16.292147
_cell_length_b 8.823073
_cell_length_c 16.326992
_cell_angle_alpha 90.000000
_cell_angle_beta 143.891050
_cell_angle_gamma 90.000000
_cell_volume 1383.112295
_symmetry_space_group_name_H-M "P 21/M"
_symmetry_group_IT_number 11
_symmetry_cell_setting 'monoclinic'
loop_
_space_group_symop_operation_xyz
x,y,z
-x,1/2+y,-z
-x,-y,-z
x,1/2-y,z
loop_
_atom_site_type_symbol
_atom_site_label
_atom_site_fract_x
_atom_site_fract_y
_atom_site_fract_z
Si Si1 0.893847 0.431875 0.803930
Si Si2 0.204538 0.069184 0.108502
Si Si3 0.563470 0.568525 0.132784
Si Si4 0.868446 0.932160 0.440501
Si Si5 0.526341 0.432042 0.760074
Si Si6 0.766365 0.067932 0.525359
O O1 0.880176 0.250000 0.803665
O O2 0.813061 0.513346 0.812421
O O3 0.834714 0.472011 0.667436
O O4 0.057428 0.469103 0.946153
O O5 0.222419 0.250000 0.120676
O O6 0.333779 0.990269 0.168877
O O7 0.557343 0.750000 0.121902
O O8 0.724851 0.526431 0.277937
O O9 0.483096 0.524111 0.151397
O O10 0.500000 0.500000 0.000000
O O11 0.876771 0.750000 0.450851
O O12 0.851425 0.997931 0.518064
O O13 0.000000 0.000000 0.500000
O O14 0.516713 0.250000 0.747420
O O15 0.389920 0.503593 0.607995
O O16 0.763983 0.250000 0.515937
#
# Coordination Sequence:
#
# PCOD9162373 Si02
#       6
#     4   4   4   4   4   4
#     4   9  20  37  55  78 108 138 173 219 265 312
#     4  10  20  35  56  80 105 138 177 216 262 313
#     4   9  20  36  54  77 105 137 174 216 260 308
#     4  10  21  37  55  79 109 140 176 217 261 311
#     4  10  21  37  54  77 109 141 175 216 261 311
#     4  10  20  36  57  80 106 138 176 218 264 311
#
# _framework density 17.352170000000001
#
# number of rings (size 3 to 8) (size 9 to 14) (size 15 to 20)
#    0.000    2.333    0.000    3.000    0.000    8.000 
#    0.000    5.000    0.000    0.000    0.000    0.000 
#    0.000    0.000    0.000    0.000    0.000    0.000 
#
# Total GULP energy -133956.002209 kJ/mol
# GULP energy per Si atom -5581.500092 kJ/mol
# Density = 1.731268 g / cm^3
# Si number density = 17.352170 Si / 1000 Ang^3
#
#
#
# Elastic Constant Matrix: (Units=GPa)
#
#
# Indices 1 2 3 4 5 6 
#
# 1 176.4765 68.6912 115.6478 0.0000 8.5113 0.0000
# 2 68.6912 59.6741 60.4250 0.0000 -3.5098 0.0000
# 3 115.6478 60.4250 140.6542 0.0000 -27.2680 0.0000
# 4 0.0000 0.0000 0.0000 28.1851 0.0000 -1.5588
# 5 8.5113 -3.5098 -27.2680 0.0000 27.7754 0.0000
# 6 0.0000 0.0000 0.0000 -1.5588 0.0000 36.9945
#
#
#
# Elastic Compliance Matrix: (Units=1/GPa)
#
#
# Indices 1 2 3 4 5 6 
#
# 1 0.027097 -0.006813 -0.026096 0.000000 -0.034784 0.000000
# 2 -0.006813 0.034263 -0.009724 0.000000 -0.003129 0.000000
# 3 -0.026096 -0.009724 0.042061 0.000000 0.048061 0.000000
# 4 0.000000 0.000000 0.000000 0.035563 0.000000 0.001498
# 5 -0.034784 -0.003129 0.048061 0.000000 0.093449 0.000000
# 6 0.000000 0.000000 0.000000 0.001498 0.000000 0.027094
#
#
# Mechanical properties :
#
#
# Convention : Reuss Voigt Hill
#
# Bulk Modulus (GPa) = 55.08361 96.25920 75.67140
# Shear Modulus (GPa) = 14.25132 27.39370 20.82251
#
# Velocity S-wave (km/s) = 2.86894 3.97758 3.46785
# Velocity P-wave (km/s) = 6.54124 8.75724 7.72907
#
# Compressibility (1/GPa) = 0.01815422
#
# Stress axis : x y z
#
# Youngs Moduli (GPa) = 36.90428 29.18633 23.77500
#
# Poissons Ratio (x) = 0.19885 0.62044
# Poissons Ratio (y) = 0.25143 0.23119
# Poissons Ratio (z) = 0.96306 0.28381
#
# Static dielectric constant tensor:
#      x y z
#    x 1.560270 0.000000 -0.000580 
#    y 0.000000 1.581010 0.000000 
#    z -0.000580 0.000000 1.572400 
# 
# From -- ./inp_files/25720.got.cif
#   From: 2010.05.17/outbox.cif.g08.bks.cpg/sg11_13_cif.got.tgz:25720.got - 2010.06.03 12:22:45.
