data_PCOD9162238
_publ_section_title
;
Structure prediction by ZEFSAII (Michael W. Deem and Ramdas Pophale) SiO2 
 PCOD9162238
Probable space group: P 21/M
;
_chemical_formula_sum "Si O2"
_cell_formula_units_Z 28
_cell_length_a 9.205958
_cell_length_b 7.667245
_cell_length_c 29.752511
_cell_angle_alpha 90.000000
_cell_angle_beta 141.257986
_cell_angle_gamma 90.000000
_cell_volume 1314.249315
_symmetry_space_group_name_H-M "P 21/M"
_symmetry_group_IT_number 11
_symmetry_cell_setting 'monoclinic'
loop_
_space_group_symop_operation_xyz
x,y,z
-x,1/2+y,-z
-x,-y,-z
x,1/2-y,z
loop_
_atom_site_type_symbol
_atom_site_label
_atom_site_fract_x
_atom_site_fract_y
_atom_site_fract_z
Si Si1 0.901528 0.540494 0.427165
Si Si2 0.932215 0.454717 0.708736
Si Si3 0.624105 0.035910 0.717142
Si Si4 0.188449 0.539242 0.140806
Si Si5 0.664958 0.959736 0.997890
Si Si6 0.541451 0.043298 0.145990
Si Si7 0.231713 0.539862 0.427101
O O1 0.893765 0.750000 0.421540
O O2 0.638405 0.478703 0.356259
O O3 0.000000 0.500000 0.500000
O O4 0.072093 0.473567 0.429320
O O5 0.872494 0.250000 0.692898
O O6 0.206859 0.469603 0.781426
O O7 0.794174 0.525317 0.718470
O O8 0.852141 0.528874 0.641509
O O9 0.626334 0.250000 0.718324
O O10 0.712823 0.978663 0.787407
O O11 0.180957 0.750000 0.140674
O O12 0.358413 0.490377 0.141334
O O13 0.926611 0.475286 0.069108
O O14 0.680030 0.750000 0.997764
O O15 0.556514 0.026149 0.925043
O O16 0.500000 0.000000 0.000000
O O17 0.572372 0.250000 0.148831
O O18 0.500000 0.500000 0.500000
O O19 0.205953 0.750000 0.420392
#
# Coordination Sequence:
#
# PCOD9162238 Si02
#       7
#     4   4   4   4   4   4   4
#     4  10  20  35  54  79 108 139 177 223 270 320
#     4  10  20  37  60  82 106 145 188 225 271 331
#     4   9  18  34  58  82 103 133 182 230 264 312
#     4  10  20  37  59  81 107 145 187 224 267 328
#     4  10  22  38  58  84 113 145 184 228 277 330
#     4  11  23  37  54  83 117 145 178 227 278 324
#     4  10  21  36  57  83 111 144 185 229 275 327
#
# _framework density 21.304939000000001
#
# number of rings (size 3 to 8) (size 9 to 14) (size 15 to 20)
#    0.000    2.000    0.000    3.429    0.000    7.429 
#    0.000    3.571    0.000    0.000    0.000    0.000 
#    0.000    0.000    0.000    0.000    0.000    0.000 
#
# Total GULP energy -156526.342341 kJ/mol
# GULP energy per Si atom -5590.226512 kJ/mol
# Density = 2.125645 g / cm^3
# Si number density = 21.304939 Si / 1000 Ang^3
#
#
#
# Elastic Constant Matrix: (Units=GPa)
#
#
# Indices 1 2 3 4 5 6 
#
# 1 214.1205 -13.7612 116.5742 0.0000 -13.2328 0.0000
# 2 -13.7612 33.6098 -10.7795 0.0000 -6.9909 0.0000
# 3 116.5742 -10.7795 214.2244 0.0000 -16.4706 0.0000
# 4 0.0000 0.0000 0.0000 18.0434 0.0000 1.0217
# 5 -13.2328 -6.9909 -16.4706 0.0000 46.2213 0.0000
# 6 0.0000 0.0000 0.0000 1.0217 0.0000 22.4132
#
#
#
# Elastic Compliance Matrix: (Units=1/GPa)
#
#
# Indices 1 2 3 4 5 6 
#
# 1 0.006760 0.001842 -0.003512 0.000000 0.000962 0.000000
# 2 0.001842 0.032040 0.001052 0.000000 0.005748 0.000000
# 3 -0.003512 0.001052 0.006752 0.000000 0.001560 0.000000
# 4 0.000000 0.000000 0.000000 0.055565 0.000000 -0.002533
# 5 0.000962 0.005748 0.001560 0.000000 0.023336 0.000000
# 6 0.000000 0.000000 0.000000 -0.002533 0.000000 0.044732
#
#
# Mechanical properties :
#
#
# Convention : Reuss Voigt Hill
#
# Bulk Modulus (GPa) = 22.56531 71.78019 47.17275
# Shear Modulus (GPa) = 26.99870 41.99700 34.49785
#
# Velocity S-wave (km/s) = 3.56371 4.44467 4.02835
# Velocity P-wave (km/s) = 5.24861 7.75275 6.62016
#
# Compressibility (1/GPa) = 0.04431581
#
# Stress axis : x y z
#
# Youngs Moduli (GPa) = 147.92556 31.21067 148.10505
#
# Poissons Ratio (x) = -0.05748 0.52014
# Poissons Ratio (y) = -0.27243 -0.15580
# Poissons Ratio (z) = 0.51951 -0.03283
#
# Static dielectric constant tensor:
#      x y z
#    x 1.724530 0.000000 -0.014390 
#    y 0.000000 1.813470 0.000000 
#    z -0.014390 0.000000 1.733640 
# 
# From -- ./inp_files/28597.got.cif
#   From: 2010.05.17/outbox.cif.g08.bks.cpg/sg11_15_cif.got.tgz:28597.got - 2010.06.03 12:22:45.
