data_PCOD9162402
_publ_section_title
;
Structure prediction by ZEFSAII (Michael W. Deem and Ramdas Pophale) SiO2 
 PCOD9162402
Probable space group: P 21/M
;
_chemical_formula_sum "Si O2"
_cell_formula_units_Z 32
_cell_length_a 9.198136
_cell_length_b 12.664834
_cell_length_c 19.634567
_cell_angle_alpha 90.000000
_cell_angle_beta 132.519043
_cell_angle_gamma 90.000000
_cell_volume 1685.851165
_symmetry_space_group_name_H-M "P 21/M"
_symmetry_group_IT_number 11
_symmetry_cell_setting 'monoclinic'
loop_
_space_group_symop_operation_xyz
x,y,z
-x,1/2+y,-z
-x,-y,-z
x,1/2-y,z
loop_
_atom_site_type_symbol
_atom_site_label
_atom_site_fract_x
_atom_site_fract_y
_atom_site_fract_z
Si Si1 0.884774 0.372759 0.039701
Si Si2 0.888450 0.932740 0.629076
Si Si3 0.842169 0.868469 0.325372
Si Si4 0.209681 0.452169 0.546116
Si Si5 0.453025 0.375111 0.375827
Si Si6 0.778215 0.366463 0.161581
Si Si7 0.511777 0.528217 0.141478
Si Si8 0.677385 0.872339 0.820091
O O1 0.870716 0.250000 0.015754
O O2 0.876333 0.377507 0.119033
O O3 0.103715 0.408690 0.089510
O O4 0.696509 0.429973 0.949531
O O5 0.828091 0.888577 0.535759
O O6 0.694747 0.924096 0.614842
O O7 0.060243 0.876803 0.727214
O O8 0.988532 0.046908 0.642877
O O9 0.921448 0.750000 0.349523
O O10 0.746964 0.890418 0.370160
O O11 0.664470 0.884281 0.215603
O O12 0.361147 0.546625 0.575633
O O13 0.000000 0.500000 0.500000
O O14 0.497240 0.250000 0.404725
O O15 0.346776 0.376070 0.268686
O O16 0.687174 0.250000 0.136405
O O17 0.619521 0.457893 0.119328
O O18 0.478788 0.447350 0.193521
O O19 0.650578 0.750000 0.831875
#
# Coordination Sequence:
#
# PCOD9162402 Si02
#       8
#     4   4   4   4   4   4   4   4
#     4  10  20  35  56  81 112 150 193 234 287 347
#     4  10  21  38  63  86 117 151 196 239 295 344
#     4  10  22  39  57  81 120 159 197 235 282 349
#     4  10  22  40  58  89 117 151 191 237 287 354
#     4  11  21  39  64  89 118 151 190 245 298 342
#     4  10  20  35  56  86 115 144 193 248 289 338
#     4  11  20  35  56  83 115 156 191 235 292 338
#     4  10  20  35  58  86 115 149 190 241 293 340
#
# _framework density 18.981508999999999
#
# number of rings (size 3 to 8) (size 9 to 14) (size 15 to 20)
#    0.000    1.750    2.500    2.250    0.000    3.000 
#    0.000    2.500    0.000    0.750    0.000    0.000 
#    0.000    0.000    0.000    0.000    0.000    0.000 
#
# Total GULP energy -178322.527158 kJ/mol
# GULP energy per Si atom -5572.578974 kJ/mol
# Density = 1.893831 g / cm^3
# Si number density = 18.981509 Si / 1000 Ang^3
#
#
#
# Elastic Constant Matrix: (Units=GPa)
#
#
# Indices 1 2 3 4 5 6 
#
# 1 84.6466 26.2124 3.1136 0.0000 6.3420 0.0000
# 2 26.2124 72.4421 17.8374 0.0000 -0.7249 0.0000
# 3 3.1136 17.8374 63.3337 0.0000 2.3564 0.0000
# 4 0.0000 0.0000 0.0000 -30.3294 0.0000 6.6695
# 5 6.3420 -0.7249 2.3564 0.0000 28.2490 0.0000
# 6 0.0000 0.0000 0.0000 6.6695 0.0000 19.4165
#
#
#
# Elastic Compliance Matrix: (Units=1/GPa)
#
#
# Indices 1 2 3 4 5 6 
#
# 1 0.013633 -0.005190 0.000913 0.000000 -0.003270 0.000000
# 2 -0.005190 0.016824 -0.004557 0.000000 0.001977 0.000000
# 3 0.000913 -0.004557 0.017093 0.000000 -0.001748 0.000000
# 4 0.000000 0.000000 0.000000 -0.030656 0.000000 0.010530
# 5 -0.003270 0.001977 -0.001748 0.000000 0.036330 0.000000
# 6 0.000000 0.000000 0.000000 0.010530 0.000000 0.047886
#
#
# Mechanical properties :
#
#
# Convention : Reuss Voigt Hill
#
# Bulk Modulus (GPa) = 33.46520 34.97211 34.21865
# Shear Modulus (GPa) = 38.83869 15.01782 26.92825
#
# Velocity S-wave (km/s) = 4.52833 2.81585 3.77059
# Velocity P-wave (km/s) = 6.70893 5.38853 6.08465
#
# Compressibility (1/GPa) = 0.02988178
#
# Stress axis : x y z
#
# Youngs Moduli (GPa) = 73.35398 59.43888 58.50386
#
# Poissons Ratio (x) = 0.30851 -0.05343
# Poissons Ratio (y) = 0.38074 0.26659
# Poissons Ratio (z) = -0.06699 0.27085
#
# Static dielectric constant tensor:
#      x y z
#    x 1.648920 0.000000 -0.013280 
#    y 0.000000 1.661680 0.000000 
#    z -0.013280 0.000000 1.681920 
# 
# From -- ./inp_files/26596.got.cif
#   From: 2010.05.17/outbox.cif.g08.bks.cpg/sg11_14_cif.got.tgz:26596.got - 2010.06.03 12:22:45.
