data_PCOD9162064
_publ_section_title
;
Structure prediction by ZEFSAII (Michael W. Deem and Ramdas Pophale) SiO2 
 PCOD9162064
Probable space group: P 21/M
;
_chemical_formula_sum "Si O2"
_cell_formula_units_Z 28
_cell_length_a 10.483496
_cell_length_b 8.797524
_cell_length_c 30.837381
_cell_angle_alpha 90.000000
_cell_angle_beta 33.389511
_cell_angle_gamma 90.000000
_cell_volume 1565.184756
_symmetry_space_group_name_H-M "P 21/M"
_symmetry_group_IT_number 11
_symmetry_cell_setting 'monoclinic'
loop_
_space_group_symop_operation_xyz
x,y,z
-x,1/2+y,-z
-x,-y,-z
x,1/2-y,z
loop_
_atom_site_type_symbol
_atom_site_label
_atom_site_fract_x
_atom_site_fract_y
_atom_site_fract_z
Si Si1 0.608791 0.432755 0.750755
Si Si2 0.637225 0.430958 0.584489
Si Si3 0.156611 0.569268 0.734944
Si Si4 0.642102 0.932349 0.000185
Si Si5 0.130170 0.067528 0.839103
Si Si6 0.303653 0.932772 0.174871
Si Si7 0.107196 0.431088 0.404997
O O1 0.632761 0.250000 0.740376
O O2 0.360172 0.473621 0.800681
O O3 0.627450 0.474256 0.795821
O O4 0.805376 0.510672 0.665877
O O5 0.601682 0.250000 0.596540
O O6 0.394758 0.512969 0.645678
O O7 0.739618 0.487397 0.601462
O O8 0.839472 0.464587 0.492392
O O9 0.154794 0.750000 0.739210
O O10 0.148587 0.496961 0.785277
O O11 0.932788 0.511816 0.772705
O O12 0.652388 0.750000 0.993009
O O13 0.502835 0.970453 0.083495
O O14 0.898724 0.000507 0.926021
O O15 0.500000 0.000000 0.000000
O O16 0.113475 0.250000 0.841666
O O17 0.270302 0.750000 0.182557
O O18 0.140246 0.250000 0.399509
#
# Coordination Sequence:
#
# PCOD9162064 Si02
#       7
#     4   4   4   4   4   4   4
#     4  10  22  40  61  85 118 160 197 234 294 355
#     4  10  20  35  57  86 119 154 193 240 292 343
#     4  12  23  36  59  90 117 151 199 244 289 345
#     4  11  22  37  60  87 117 152 197 246 292 343
#     4  11  22  37  60  87 118 154 193 241 292 349
#     4  10  23  42  61  83 117 159 197 239 294 353
#     4  10  20  34  57  88 119 152 193 242 290 341
#
# _framework density 17.889263
#
# number of rings (size 3 to 8) (size 9 to 14) (size 15 to 20)
#    0.000    1.429    2.857    3.000    0.000    4.000 
#    0.000    0.714    0.000    0.000    0.000    0.000 
#    0.000    0.000    0.000    0.000    0.000    0.000 
#
# Total GULP energy -156475.007082 kJ/mol
# GULP energy per Si atom -5588.393110 kJ/mol
# Density = 1.784855 g / cm^3
# Si number density = 17.889263 Si / 1000 Ang^3
#
#
#
# Elastic Constant Matrix: (Units=GPa)
#
#
# Indices 1 2 3 4 5 6 
#
# 1 124.2673 49.4389 76.1344 0.0000 5.2596 0.0000
# 2 49.4389 57.1768 58.7063 0.0000 -0.5322 0.0000
# 3 76.1344 58.7063 154.7794 0.0000 1.2471 0.0000
# 4 0.0000 0.0000 0.0000 35.9891 0.0000 -2.5537
# 5 5.2596 -0.5322 1.2471 0.0000 31.1406 0.0000
# 6 0.0000 0.0000 0.0000 -2.5537 0.0000 13.1815
#
#
#
# Elastic Compliance Matrix: (Units=1/GPa)
#
#
# Indices 1 2 3 4 5 6 
#
# 1 0.013546 -0.008044 -0.003594 0.000000 -0.002281 0.000000
# 2 -0.008044 0.033449 -0.008748 0.000000 0.002281 0.000000
# 3 -0.003594 -0.008748 0.011547 0.000000 -0.000005 0.000000
# 4 0.000000 0.000000 0.000000 0.028173 0.000000 0.005458
# 5 -0.002281 0.002281 -0.000005 0.000000 0.032537 0.000000
# 6 0.000000 0.000000 0.000000 0.005458 0.000000 0.076922
#
#
# Mechanical properties :
#
#
# Convention : Reuss Voigt Hill
#
# Bulk Modulus (GPa) = 56.27757 78.30918 67.29338
# Shear Modulus (GPa) = 20.58733 26.19182 23.38957
#
# Velocity S-wave (km/s) = 3.39605 3.83052 3.61981
# Velocity P-wave (km/s) = 6.84870 7.96450 7.42758
#
# Compressibility (1/GPa) = 0.01776907
#
# Stress axis : x y z
#
# Youngs Moduli (GPa) = 73.82447 29.89658 86.60522
#
# Poissons Ratio (x) = 0.24049 0.31122
# Poissons Ratio (y) = 0.59385 0.75765
# Poissons Ratio (z) = 0.26529 0.26155
#
# Static dielectric constant tensor:
#      x y z
#    x 1.578430 0.000000 0.000100 
#    y 0.000000 1.598280 0.000000 
#    z 0.000100 0.000000 1.612390 
# 
# From -- ./inp_files/72711.got.cif
#   From: 2010.05.17/outbox.cif.g08.bks.cpg/sg11_37_cif.got.tgz:72711.got - 2010.06.03 12:22:45.
