data_PCOD9162296
_publ_section_title
;
Structure prediction by ZEFSAII (Michael W. Deem and Ramdas Pophale) SiO2 
 PCOD9162296
Probable space group: P 21/M
;
_chemical_formula_sum "Si O2"
_cell_formula_units_Z 32
_cell_length_a 16.132353
_cell_length_b 9.016342
_cell_length_c 23.873581
_cell_angle_alpha 90.000000
_cell_angle_beta 148.240451
_cell_angle_gamma 90.000000
_cell_volume 1827.784285
_symmetry_space_group_name_H-M "P 21/M"
_symmetry_group_IT_number 11
_symmetry_cell_setting 'monoclinic'
loop_
_space_group_symop_operation_xyz
x,y,z
-x,1/2+y,-z
-x,-y,-z
x,1/2-y,z
loop_
_atom_site_type_symbol
_atom_site_label
_atom_site_fract_x
_atom_site_fract_y
_atom_site_fract_z
Si Si1 0.248150 0.427496 0.648289
Si Si2 0.340900 0.583263 0.421745
Si Si3 0.148830 0.581425 0.196646
Si Si4 0.034900 0.569255 0.309421
Si Si5 0.588398 0.570795 0.859554
Si Si6 0.003159 0.072407 0.412515
Si Si7 0.172058 0.074037 0.102810
Si Si8 0.151206 0.069763 0.908202
O O1 0.249359 0.250000 0.656577
O O2 0.422314 0.492960 0.754439
O O3 0.163832 0.458398 0.539940
O O4 0.136238 0.502817 0.630348
O O5 0.500000 0.500000 0.500000
O O6 0.378934 0.750000 0.462246
O O7 0.249531 0.589740 0.310501
O O8 0.209675 0.521953 0.389056
O O9 0.128039 0.750000 0.163195
O O10 0.228911 0.482250 0.195857
O O11 0.980097 0.523118 0.121471
O O12 0.033473 0.750000 0.311173
O O13 0.910301 0.524950 0.188695
O O14 0.002417 0.499674 0.350852
O O15 0.567946 0.750000 0.848169
O O16 0.707686 0.533166 0.877320
O O17 0.679394 0.527449 0.969472
O O18 0.984848 0.250000 0.398395
O O19 0.155621 0.250000 0.092312
O O20 0.000000 0.000000 0.000000
O O21 0.145261 0.250000 0.905038
#
# Coordination Sequence:
#
# PCOD9162296 Si02
#       8
#     4   4   4   4   4   4   4   4
#     4  10  22  39  59  83 109 139 174 220 273 326
#     4   9  19  33  51  74 106 145 181 223 269 313
#     4   9  17  33  51  69 100 142 183 221 266 313
#     4   9  18  34  58  81 103 141 185 221 264 321
#     4  10  20  35  55  79 110 145 181 223 271 322
#     4  10  21  39  61  83 109 138 174 221 275 327
#     4  11  21  32  50  76 106 143 182 222 264 314
#     4   8  15  32  54  75 104 142 179 216 263 314
#
# _framework density 17.507536000000002
#
# number of rings (size 3 to 8) (size 9 to 14) (size 15 to 20)
#    0.000    2.500    1.250    2.625    0.000    4.500 
#    0.000    8.125    0.000    0.000    0.000    0.000 
#    0.000    0.000    0.000    0.000    0.000    0.000 
#
# Total GULP energy -178284.385906 kJ/mol
# GULP energy per Si atom -5571.387060 kJ/mol
# Density = 1.746769 g / cm^3
# Si number density = 17.507536 Si / 1000 Ang^3
#
#
#
# Elastic Constant Matrix: (Units=GPa)
#
#
# Indices 1 2 3 4 5 6 
#
# 1 117.7738 42.7796 69.4386 0.0000 -14.4535 0.0000
# 2 42.7796 40.4810 46.3719 0.0000 2.5046 0.0000
# 3 69.4386 46.3719 123.8978 0.0000 9.3161 0.0000
# 4 0.0000 0.0000 0.0000 29.4818 0.0000 0.5631
# 5 -14.4535 2.5046 9.3161 0.0000 23.4405 0.0000
# 6 0.0000 0.0000 0.0000 0.5631 0.0000 31.4000
#
#
#
# Elastic Compliance Matrix: (Units=1/GPa)
#
#
# Indices 1 2 3 4 5 6 
#
# 1 0.019675 -0.013587 -0.007177 0.000000 0.016436 0.000000
# 2 -0.013587 0.052706 -0.011399 0.000000 -0.009479 0.000000
# 3 -0.007177 -0.011399 0.017113 0.000000 -0.010009 0.000000
# 4 0.000000 0.000000 0.000000 0.033931 0.000000 -0.000608
# 5 0.016436 -0.009479 -0.010009 0.000000 0.057786 0.000000
# 6 0.000000 0.000000 0.000000 -0.000608 0.000000 0.031858
#
#
# Mechanical properties :
#
#
# Convention : Reuss Voigt Hill
#
# Bulk Modulus (GPa) = 39.73523 66.59252 53.16387
# Shear Modulus (GPa) = 17.49573 25.10196 21.29884
#
# Velocity S-wave (km/s) = 3.16464 3.79064 3.49170
# Velocity P-wave (km/s) = 6.00821 7.56820 6.83287
#
# Compressibility (1/GPa) = 0.02516659
#
# Stress axis : x y z
#
# Youngs Moduli (GPa) = 50.82588 18.97331 58.43666
#
# Poissons Ratio (x) = 0.25780 0.41942
# Poissons Ratio (y) = 0.69059 0.66610
# Poissons Ratio (z) = 0.36479 0.21627
#
# Static dielectric constant tensor:
#      x y z
#    x 1.588070 0.000000 -0.022900 
#    y 0.000000 1.609930 0.000000 
#    z -0.022900 0.000000 1.636890 
# 
# From -- ./inp_files/69134.got.cif
#   From: 2010.05.17/outbox.cif.g08.bks.cpg/sg11_35_cif.got.tgz:69134.got - 2010.06.03 12:22:45.
