data_PCOD9162652
_publ_section_title
;
Structure prediction by ZEFSAII (Michael W. Deem and Ramdas Pophale) SiO2 
 PCOD9162652
Probable space group: P 21/M
;
_chemical_formula_sum "Si O2"
_cell_formula_units_Z 32
_cell_length_a 30.572340
_cell_length_b 8.264039
_cell_length_c 12.758198
_cell_angle_alpha 90.000000
_cell_angle_beta 151.428926
_cell_angle_gamma 90.000000
_cell_volume 1541.572779
_symmetry_space_group_name_H-M "P 21/M"
_symmetry_group_IT_number 11
_symmetry_cell_setting 'monoclinic'
loop_
_space_group_symop_operation_xyz
x,y,z
-x,1/2+y,-z
-x,-y,-z
x,1/2-y,z
loop_
_atom_site_type_symbol
_atom_site_label
_atom_site_fract_x
_atom_site_fract_y
_atom_site_fract_z
Si Si1 0.872501 0.553175 0.980320
Si Si2 0.604144 0.057917 0.222267
Si Si3 0.897012 0.555067 0.796571
Si Si4 0.039771 0.945834 0.472380
Si Si5 0.248606 0.558510 0.881958
Si Si6 0.265507 0.442506 0.687683
Si Si7 0.327424 0.053551 0.407001
Si Si8 0.409600 0.441170 0.368305
O O1 0.875768 0.750000 0.987405
O O2 0.865329 0.499807 0.844788
O O3 0.778157 0.506452 0.838072
O O4 0.965959 0.496375 0.230785
O O5 0.609129 0.250000 0.220330
O O6 0.659634 0.978098 0.243527
O O7 0.644780 0.008715 0.420512
O O8 0.500000 0.000000 0.000000
O O9 0.892844 0.750000 0.787008
O O10 0.829968 0.497357 0.564123
O O11 0.000000 0.500000 0.000000
O O12 0.041425 0.750000 0.471835
O O13 0.143903 0.002496 0.674164
O O14 0.000000 0.000000 0.500000
O O15 0.248681 0.750000 0.901635
O O16 0.280591 0.525268 0.830624
O O17 0.319896 0.479642 0.111420
O O18 0.260665 0.250000 0.694787
O O19 0.330656 0.250000 0.417857
O O20 0.392115 0.994095 0.449189
O O21 0.500000 0.500000 0.500000
O O22 0.418381 0.250000 0.396661
#
# Coordination Sequence:
#
# PCOD9162652 Si02
#       8
#     4   4   4   4   4   4   4   4
#     4   9  17  35  60  85 117 159 202 248 306 365
#     4  12  26  43  67  96 129 167 211 265 325 388
#     4  10  20  35  58  86 122 163 205 254 307 369
#     4  10  21  37  61  90 125 168 213 262 314 375
#     4  11  24  42  64  94 134 173 216 267 321 384
#     4  11  23  42  66  93 129 171 216 265 319 381
#     4  10  21  42  68  93 125 165 213 263 318 379
#     4  11  25  44  69  95 126 167 214 268 325 384
#
# _framework density 20.758022
#
# number of rings (size 3 to 8) (size 9 to 14) (size 15 to 20)
#    0.000    1.500    1.250    3.750    1.750    5.000 
#    0.000    1.250    0.000    0.000    0.000    0.000 
#    0.000    0.000    0.000    0.000    0.000    0.000 
#
# Total GULP energy -178870.010209 kJ/mol
# GULP energy per Si atom -5589.687819 kJ/mol
# Density = 2.071078 g / cm^3
# Si number density = 20.758022 Si / 1000 Ang^3
#
#
#
# Elastic Constant Matrix: (Units=GPa)
#
#
# Indices 1 2 3 4 5 6 
#
# 1 114.5663 -6.8789 20.9026 0.0000 7.8375 0.0000
# 2 -6.8789 15.9429 -7.5997 0.0000 5.1016 0.0000
# 3 20.9026 -7.5997 79.8283 0.0000 13.7925 0.0000
# 4 0.0000 0.0000 0.0000 29.7817 0.0000 0.2085
# 5 7.8375 5.1016 13.7925 0.0000 38.7737 0.0000
# 6 0.0000 0.0000 0.0000 0.2085 0.0000 30.8691
#
#
#
# Elastic Compliance Matrix: (Units=1/GPa)
#
#
# Indices 1 2 3 4 5 6 
#
# 1 0.009403 0.003760 -0.001801 0.000000 -0.001755 0.000000
# 2 0.003760 0.072482 0.008199 0.000000 -0.013213 0.000000
# 3 -0.001801 0.008199 0.014813 0.000000 -0.005984 0.000000
# 4 0.000000 0.000000 0.000000 0.033579 0.000000 -0.000227
# 5 -0.001755 -0.013213 -0.005984 0.000000 0.030012 0.000000
# 6 0.000000 0.000000 0.000000 -0.000227 0.000000 0.032396
#
#
# Mechanical properties :
#
#
# Convention : Reuss Voigt Hill
#
# Bulk Modulus (GPa) = 8.54600 24.79842 16.67221
# Shear Modulus (GPa) = 23.65461 33.47912 28.56687
#
# Velocity S-wave (km/s) = 3.37937 4.02036 3.71372
# Velocity P-wave (km/s) = 4.39918 5.78994 5.14180
#
# Compressibility (1/GPa) = 0.11701377
#
# Stress axis : x y z
#
# Youngs Moduli (GPa) = 106.34942 13.79647 67.50894
#
# Poissons Ratio (x) = -0.05188 0.12158
# Poissons Ratio (y) = -0.39988 -0.55348
# Poissons Ratio (z) = 0.19153 -0.11311
#
# Static dielectric constant tensor:
#      x y z
#    x 1.764330 0.000000 -0.007700 
#    y 0.000000 1.717190 0.000000 
#    z -0.007700 0.000000 1.744710 
# 
# From -- ./inp_files/45246.got.cif
#   From: 2010.05.17/outbox.cif.g08.bks.cpg/sg11_23_cif.got.tgz:45246.got - 2010.06.03 12:22:45.
