data_PCOD9162831
_publ_section_title
;
Structure prediction by ZEFSAII (Michael W. Deem and Ramdas Pophale) SiO2 
 PCOD9162831
Probable space group: P 21/M
;
_chemical_formula_sum "Si O2"
_cell_formula_units_Z 24
_cell_length_a 11.966856
_cell_length_b 7.550984
_cell_length_c 22.441929
_cell_angle_alpha 90.000000
_cell_angle_beta 148.384693
_cell_angle_gamma 90.000000
_cell_volume 1063.045723
_symmetry_space_group_name_H-M "P 21/M"
_symmetry_group_IT_number 11
_symmetry_cell_setting 'monoclinic'
loop_
_space_group_symop_operation_xyz
x,y,z
-x,1/2+y,-z
-x,-y,-z
x,1/2-y,z
loop_
_atom_site_type_symbol
_atom_site_label
_atom_site_fract_x
_atom_site_fract_y
_atom_site_fract_z
Si Si1 0.248898 0.460595 0.882559
Si Si2 0.950624 0.046036 0.332951
Si Si3 0.452487 0.539902 0.781782
Si Si4 0.872297 0.966310 0.040594
Si Si5 0.575414 0.962937 0.467529
Si Si6 0.340376 0.536586 0.244458
O O1 0.219506 0.250000 0.863858
O O2 0.145450 0.543756 0.777260
O O3 0.147280 0.517271 0.898987
O O4 0.500000 0.500000 0.000000
O O5 0.978759 0.250000 0.365087
O O6 0.767772 0.965586 0.292143
O O7 0.186566 0.966774 0.437105
O O8 0.448054 0.750000 0.792739
O O9 0.492824 0.514740 0.730525
O O10 0.663516 0.468912 0.911047
O O11 0.868728 0.750000 0.036705
O O12 0.101492 0.026877 0.120814
O O13 0.582608 0.750000 0.466243
O O14 0.415545 0.025872 0.343470
O O15 0.500000 0.000000 0.500000
O O16 0.331657 0.750000 0.241746
#
# Coordination Sequence:
#
# PCOD9162831 Si02
#       6
#     4   4   4   4   4   4
#     4  11  20  34  57  85 115 148 185 230 282 335
#     4  10  21  38  57  81 115 151 187 231 283 336
#     4  10  20  36  55  78 111 150 187 229 281 333
#     4   9  18  34  55  78 112 149 181 225 280 332
#     4  10  22  40  61  83 112 147 186 235 284 335
#     4  10  21  37  56  81 110 145 189 232 276 330
#
# _framework density 22.576640000000001
#
# number of rings (size 3 to 8) (size 9 to 14) (size 15 to 20)
#    0.000    2.000    1.667    2.000    0.000    4.000 
#    0.000    1.667    0.000    0.000    0.000    0.000 
#    0.000    0.000    0.000    0.000    0.000    0.000 
#
# Total GULP energy -134132.714074 kJ/mol
# GULP energy per Si atom -5588.863086 kJ/mol
# Density = 2.252525 g / cm^3
# Si number density = 22.576640 Si / 1000 Ang^3
#
#
#
# Elastic Constant Matrix: (Units=GPa)
#
#
# Indices 1 2 3 4 5 6 
#
# 1 146.9776 -1.0318 53.0929 0.0000 14.1065 0.0000
# 2 -1.0318 57.1817 5.1867 0.0000 6.5704 0.0000
# 3 53.0929 5.1867 113.0814 0.0000 27.4539 0.0000
# 4 0.0000 0.0000 0.0000 4.5632 0.0000 -9.3995
# 5 14.1065 6.5704 27.4539 0.0000 35.0533 0.0000
# 6 0.0000 0.0000 0.0000 -9.3995 0.0000 16.5137
#
#
#
# Elastic Compliance Matrix: (Units=1/GPa)
#
#
# Indices 1 2 3 4 5 6 
#
# 1 0.008213 0.000542 -0.003771 0.000000 -0.000453 0.000000
# 2 0.000542 0.017909 -0.000257 0.000000 -0.003374 0.000000
# 3 -0.003771 -0.000257 0.012651 0.000000 -0.008343 0.000000
# 4 0.000000 0.000000 0.000000 -1.270748 0.000000 -0.723300
# 5 -0.000453 -0.003374 -0.008343 0.000000 0.035877 0.000000
# 6 0.000000 0.000000 0.000000 -0.723300 0.000000 -0.351142
#
#
# Mechanical properties :
#
#
# Convention : Reuss Voigt Hill
#
# Bulk Modulus (GPa) = 31.44472 47.97070 39.70771
# Shear Modulus (GPa) = -3.26868 28.55888 12.64510
#
# Velocity S-wave (km/s) = -1.20456 3.56051 2.36920
# Velocity P-wave (km/s) = 3.46751 6.18037 5.01102
#
# Compressibility (1/GPa) = 0.03180184
#
# Stress axis : x y z
#
# Youngs Moduli (GPa) = 121.75373 55.83820 79.04570
#
# Poissons Ratio (x) = -0.03028 0.29808
# Poissons Ratio (y) = -0.06603 0.02031
# Poissons Ratio (z) = 0.45914 0.01435
#
# Static dielectric constant tensor:
#      x y z
#    x 1.807820 0.000000 0.020100 
#    y 0.000000 1.861040 0.000000 
#    z 0.020100 0.000000 1.761410 
# 
# From -- ./inp_files/33922.got.cif
#   From: 2010.05.17/outbox.cif.g08.bks.cpg/sg11_17_cif.got.tgz:33922.got - 2010.06.03 12:22:45.
