data_PCOD9162480
_publ_section_title
;
Structure prediction by ZEFSAII (Michael W. Deem and Ramdas Pophale) SiO2 
 PCOD9162480
Probable space group: P 21/M
;
_chemical_formula_sum "Si O2"
_cell_formula_units_Z 18
_cell_length_a 20.738654
_cell_length_b 7.669722
_cell_length_c 14.046551
_cell_angle_alpha 90.000000
_cell_angle_beta 20.948909
_cell_angle_gamma 90.000000
_cell_volume 798.819852
_symmetry_space_group_name_H-M "P 21/M"
_symmetry_group_IT_number 11
_symmetry_cell_setting 'monoclinic'
loop_
_space_group_symop_operation_xyz
x,y,z
-x,1/2+y,-z
-x,-y,-z
x,1/2-y,z
loop_
_atom_site_type_symbol
_atom_site_label
_atom_site_fract_x
_atom_site_fract_y
_atom_site_fract_z
Si Si1 0.238488 0.552479 0.189366
Si Si2 0.960489 0.750000 0.195373
Si Si3 0.429392 0.250000 0.207845
Si Si4 0.227083 0.449776 0.798795
Si Si5 0.619707 0.037843 0.207131
Si Si6 0.858021 0.750000 0.547457
O O1 0.163711 0.750000 0.291552
O O2 0.131894 0.421901 0.402942
O O3 0.440292 0.587258 0.952759
O O4 0.273378 0.487638 0.034766
O O5 0.744682 0.750000 0.483186
O O6 0.981536 0.750000 0.283100
O O7 0.061187 0.580608 0.018057
O O8 0.340681 0.250000 0.226959
O O9 0.181839 0.250000 0.838718
O O10 0.293292 0.461142 0.817821
O O11 0.407916 0.510062 0.494595
O O12 0.619280 0.250000 0.213476
#
# Coordination Sequence:
#
# PCOD9162480 Si02
#       6
#     4   2   2   4   4   2
#     4   9  19  35  58  82 102 135 185 230 253 310
#     4  10  22  36  50  80 116 140 176 216 264 326
#     4   8  20  37  55  77 108 142 176 225 263 306
#     4  10  20  35  57  81 107 146 172 216 271 323
#     4   9  18  35  61  81 105 133 187 224 261 310
#     4  10  20  35  57  79 102 146 184 213 269 314
#
# _framework density 22.533241
#
# number of rings (size 3 to 8) (size 9 to 14) (size 15 to 20)
#    1.333    1.333    1.111    0.667    3.111    0.889 
#    2.000    2.222    0.000    0.000    0.000    0.000 
#    0.000    0.000    0.000    0.000    0.000    0.000 
#
# Total GULP energy -100521.366289 kJ/mol
# GULP energy per Si atom -5584.520349 kJ/mol
# Density = 2.248195 g / cm^3
# Si number density = 22.533241 Si / 1000 Ang^3
#
#
#
# Elastic Constant Matrix: (Units=GPa)
#
#
# Indices 1 2 3 4 5 6 
#
# 1 61.0226 21.3086 38.0797 0.0000 19.4566 0.0000
# 2 21.3086 99.6236 56.8853 0.0000 0.7682 0.0000
# 3 38.0797 56.8853 118.5966 0.0000 -12.4629 0.0000
# 4 0.0000 0.0000 0.0000 38.0510 0.0000 -4.9936
# 5 19.4566 0.7682 -12.4629 0.0000 45.7531 0.0000
# 6 0.0000 0.0000 0.0000 -4.9936 0.0000 30.9083
#
#
#
# Elastic Compliance Matrix: (Units=1/GPa)
#
#
# Indices 1 2 3 4 5 6 
#
# 1 0.027465 0.000199 -0.010441 0.000000 -0.014527 0.000000
# 2 0.000199 0.014024 -0.007025 0.000000 -0.002234 0.000000
# 3 -0.010441 -0.007025 0.016094 0.000000 0.008942 0.000000
# 4 0.000000 0.000000 0.000000 0.026850 0.000000 0.004338
# 5 -0.014527 -0.002234 0.008942 0.000000 0.030507 0.000000
# 6 0.000000 0.000000 0.000000 0.004338 0.000000 0.033055
#
#
# Mechanical properties :
#
#
# Convention : Reuss Voigt Hill
#
# Bulk Modulus (GPa) = 43.38628 56.86557 50.12593
# Shear Modulus (GPa) = 26.28670 33.80711 30.04691
#
# Velocity S-wave (km/s) = 3.41922 3.87760 3.65560
# Velocity P-wave (km/s) = 5.90629 6.73341 6.33337
#
# Compressibility (1/GPa) = 0.02304876
#
# Stress axis : x y z
#
# Youngs Moduli (GPa) = 36.41022 71.30703 62.13635
#
# Poissons Ratio (x) = -0.01420 0.64874
# Poissons Ratio (y) = -0.00725 0.43653
# Poissons Ratio (z) = 0.38015 0.50095
#
# Static dielectric constant tensor:
#      x y z
#    x 1.882460 0.000000 -0.031300 
#    y 0.000000 1.788660 0.000000 
#    z -0.031300 0.000000 1.824660 
# 
# From -- ./inp_files/40865.got.cif
#   From: 2010.05.17/outbox.cif.g08.bks.cpg/sg11_21_cif.got.tgz:40865.got - 2010.06.03 12:22:45.
