data_PCOD9162068
_publ_section_title
;
Structure prediction by ZEFSAII (Michael W. Deem and Ramdas Pophale) SiO2 
 PCOD9162068
Probable space group: P 21/M
;
_chemical_formula_sum "Si O2"
_cell_formula_units_Z 26
_cell_length_a 12.421221
_cell_length_b 8.300071
_cell_length_c 17.132389
_cell_angle_alpha 90.000000
_cell_angle_beta 37.993228
_cell_angle_gamma 90.000000
_cell_volume 1087.277230
_symmetry_space_group_name_H-M "P 21/M"
_symmetry_group_IT_number 11
_symmetry_cell_setting 'monoclinic'
loop_
_space_group_symop_operation_xyz
x,y,z
-x,1/2+y,-z
-x,-y,-z
x,1/2-y,z
loop_
_atom_site_type_symbol
_atom_site_label
_atom_site_fract_x
_atom_site_fract_y
_atom_site_fract_z
Si Si1 0.371417 0.437027 0.139164
Si Si2 0.481348 0.062495 0.790321
Si Si3 0.085245 0.441868 0.032226
Si Si4 0.555797 0.941356 0.582611
Si Si5 0.001351 0.073466 0.385110
Si Si6 0.895869 0.750000 0.518887
Si Si7 0.216125 0.440507 0.688464
O O1 0.411401 0.250000 0.133892
O O2 0.409814 0.542399 0.193501
O O3 0.167449 0.444826 0.232788
O O4 0.500000 0.500000 0.000000
O O5 0.473519 0.250000 0.772974
O O6 0.565905 0.971478 0.669017
O O7 0.285658 0.999452 0.919249
O O8 0.092227 0.250000 0.026948
O O9 0.960972 0.490900 0.174526
O O10 0.000000 0.500000 0.000000
O O11 0.541595 0.750000 0.578426
O O12 0.707267 0.003995 0.437774
O O13 0.374180 0.020448 0.658094
O O14 0.908808 0.250000 0.423919
O O15 0.096579 0.115826 0.413575
O O16 0.917221 0.897518 0.442797
O O17 0.194518 0.250000 0.695435
#
# Coordination Sequence:
#
# PCOD9162068 Si02
#       7
#     4   4   4   4   4   2   4
#     4  11  24  41  64  89 119 159 206 258 310 369
#     4  11  24  40  61  88 121 160 212 256 307 373
#     4  11  22  36  59  89 123 164 207 252 304 367
#     4  10  20  35  58  87 118 158 200 250 305 365
#     4   8  16  31  56  86 113 143 191 238 298 364
#     4   8  14  30  58  86 112 140 176 238 296 356
#     4  10  20  34  57  88 123 158 201 247 303 365
#
# _framework density 23.912946999999999
#
# number of rings (size 3 to 8) (size 9 to 14) (size 15 to 20)
#    0.462    1.538    1.538    2.308    2.154    3.692 
#    0.000    0.000    6.769    0.000    0.000    0.000 
#    0.000    0.000    0.000    0.000    0.000    0.000 
#
# Total GULP energy -144769.894029 kJ/mol
# GULP energy per Si atom -5568.072847 kJ/mol
# Density = 2.385852 g / cm^3
# Si number density = 23.912947 Si / 1000 Ang^3
#
#
#
# Elastic Constant Matrix: (Units=GPa)
#
#
# Indices 1 2 3 4 5 6 
#
# 1 56.6410 13.9218 30.9221 0.0000 3.5164 0.0000
# 2 13.9218 107.5838 49.9433 0.0000 -21.7107 0.0000
# 3 30.9221 49.9433 168.4079 0.0000 -19.3836 0.0000
# 4 0.0000 0.0000 0.0000 42.8252 0.0000 8.1859
# 5 3.5164 -21.7107 -19.3836 0.0000 38.7605 0.0000
# 6 0.0000 0.0000 0.0000 8.1859 0.0000 11.3818
#
#
#
# Elastic Compliance Matrix: (Units=1/GPa)
#
#
# Indices 1 2 3 4 5 6 
#
# 1 0.020460 -0.001870 -0.003752 0.000000 -0.004780 0.000000
# 2 -0.001870 0.011826 -0.002527 0.000000 0.005530 0.000000
# 3 -0.003752 -0.002527 0.007696 0.000000 0.002773 0.000000
# 4 0.000000 0.000000 0.000000 0.027073 0.000000 -0.019471
# 5 -0.004780 0.005530 0.002773 0.000000 0.030717 0.000000
# 6 0.000000 0.000000 0.000000 -0.019471 0.000000 0.101863
#
#
# Mechanical properties :
#
#
# Convention : Reuss Voigt Hill
#
# Bulk Modulus (GPa) = 42.22600 58.02299 50.12450
# Shear Modulus (GPa) = 22.33845 34.44986 28.39416
#
# Velocity S-wave (km/s) = 3.05971 3.79969 3.44960
# Velocity P-wave (km/s) = 5.49354 6.60054 6.07232
#
# Compressibility (1/GPa) = 0.02368209
#
# Stress axis : x y z
#
# Youngs Moduli (GPa) = 48.87581 84.55714 129.94370
#
# Poissons Ratio (x) = 0.15815 0.48758
# Poissons Ratio (y) = 0.09142 0.32841
# Poissons Ratio (z) = 0.18340 0.21370
#
# Static dielectric constant tensor:
#      x y z
#    x 1.084370 0.000000 0.029640 
#    y 0.000000 1.846820 0.000000 
#    z 0.029640 0.000000 1.944110 
# 
# From -- ./inp_files/51897.got.cif
#   From: 2010.05.17/outbox.cif.g08.bks.cpg/sg11_26_cif.got.tgz:51897.got - 2010.06.03 12:22:45.
