data_PCOD9162891
_publ_section_title
;
Structure prediction by ZEFSAII (Michael W. Deem and Ramdas Pophale) SiO2 
 PCOD9162891
Probable space group: P 21/M
;
_chemical_formula_sum "Si O2"
_cell_formula_units_Z 32
_cell_length_a 20.777907
_cell_length_b 8.561800
_cell_length_c 26.725889
_cell_angle_alpha 90.000000
_cell_angle_beta 158.804505
_cell_angle_gamma 90.000000
_cell_volume 1718.972465
_symmetry_space_group_name_H-M "P 21/M"
_symmetry_group_IT_number 11
_symmetry_cell_setting 'monoclinic'
loop_
_space_group_symop_operation_xyz
x,y,z
-x,1/2+y,-z
-x,-y,-z
x,1/2-y,z
loop_
_atom_site_type_symbol
_atom_site_label
_atom_site_fract_x
_atom_site_fract_y
_atom_site_fract_z
Si Si1 0.281385 0.438545 0.698961
Si Si2 0.107121 0.939055 0.391632
Si Si3 0.016785 0.437119 0.218314
Si Si4 0.185408 0.062305 0.156248
Si Si5 0.302119 0.935824 0.348143
Si Si6 0.483245 0.061686 0.291747
Si Si7 0.021939 0.438659 0.594861
Si Si8 0.367153 0.561351 0.099575
O O1 0.279427 0.250000 0.696604
O O2 0.197463 0.488232 0.691291
O O3 0.478665 0.490995 0.827191
O O4 0.145401 0.498509 0.558074
O O5 0.101573 0.750000 0.383545
O O6 0.313912 0.985166 0.549558
O O7 0.998877 0.987110 0.362834
O O8 0.033933 0.012629 0.288112
O O9 0.026669 0.250000 0.221475
O O10 0.176151 0.510254 0.301960
O O11 0.828150 0.490661 0.058705
O O12 0.179783 0.250000 0.153580
O O13 0.346775 0.013925 0.236447
O O14 0.222863 0.000045 0.238792
O O15 0.000000 0.000000 0.000000
O O16 0.308026 0.750000 0.350538
O O17 0.500000 0.000000 0.500000
O O18 0.480815 0.250000 0.287113
O O19 0.419056 0.996338 0.192202
O O20 0.013405 0.250000 0.587703
O O21 0.366834 0.750000 0.099874
#
# Coordination Sequence:
#
# PCOD9162891 Si02
#       8
#     4   4   4   4   4   4   4   4
#     4   9  17  31  53  82 113 147 185 231 284 335
#     4  10  20  36  56  82 112 146 189 238 285 336
#     4  11  24  40  58  82 115 154 192 233 283 344
#     4  11  23  39  59  86 118 153 192 241 293 347
#     4  12  25  43  65  88 114 150 194 242 294 353
#     4  10  21  36  57  82 109 141 184 232 280 335
#     4   9  17  31  54  82 112 145 186 234 283 334
#     4  10  21  36  55  82 116 151 188 232 283 337
#
# _framework density 18.615770999999999
#
# number of rings (size 3 to 8) (size 9 to 14) (size 15 to 20)
#    0.000    1.750    1.250    3.375    0.000    6.000 
#    0.000    0.625    0.000    0.000    0.000    0.000 
#    0.000    0.000    0.000    0.000    0.000    0.000 
#
# Total GULP energy -178760.575017 kJ/mol
# GULP energy per Si atom -5586.267969 kJ/mol
# Density = 1.857340 g / cm^3
# Si number density = 18.615771 Si / 1000 Ang^3
#
#
#
# Elastic Constant Matrix: (Units=GPa)
#
#
# Indices 1 2 3 4 5 6 
#
# 1 109.0247 19.1206 7.5346 0.0000 -0.0291 0.0000
# 2 19.1206 31.7716 8.6216 0.0000 -1.1402 0.0000
# 3 7.5346 8.6216 38.5441 0.0000 -13.6987 0.0000
# 4 0.0000 0.0000 0.0000 24.6894 0.0000 -7.2836
# 5 -0.0291 -1.1402 -13.6987 0.0000 32.1583 0.0000
# 6 0.0000 0.0000 0.0000 -7.2836 0.0000 29.0320
#
#
#
# Elastic Compliance Matrix: (Units=1/GPa)
#
#
# Indices 1 2 3 4 5 6 
#
# 1 0.010280 -0.005968 -0.000879 0.000000 -0.000577 0.000000
# 2 -0.005968 0.037127 -0.007862 0.000000 -0.002038 0.000000
# 3 -0.000879 -0.007862 0.032731 0.000000 0.013663 0.000000
# 4 0.000000 0.000000 0.000000 0.043741 0.000000 0.010974
# 5 -0.000577 -0.002038 0.013663 0.000000 0.036843 0.000000
# 6 0.000000 0.000000 0.000000 0.010974 0.000000 0.037198
#
#
# Mechanical properties :
#
#
# Convention : Reuss Voigt Hill
#
# Bulk Modulus (GPa) = 19.71735 27.76602 23.74168
# Shear Modulus (GPa) = 20.47123 26.78016 23.62569
#
# Velocity S-wave (km/s) = 3.31973 3.79697 3.56634
# Velocity P-wave (km/s) = 5.03079 5.84554 5.45340
#
# Compressibility (1/GPa) = 0.05071676
#
# Stress axis : x y z
#
# Youngs Moduli (GPa) = 97.28002 26.93461 30.55238
#
# Poissons Ratio (x) = 0.16076 0.02687
# Poissons Ratio (y) = 0.58061 0.24021
# Poissons Ratio (z) = 0.08556 0.21177
#
# Static dielectric constant tensor:
#      x y z
#    x 1.640970 0.000000 0.032380 
#    y 0.000000 1.631920 0.000000 
#    z 0.032380 0.000000 1.627910 
# 
# From -- ./inp_files/72201.got.cif
#   From: 2010.05.17/outbox.cif.g08.bks.cpg/sg11_37_cif.got.tgz:72201.got - 2010.06.03 12:22:45.
