data_PCOD9162418
_publ_section_title
;
Structure prediction by ZEFSAII (Michael W. Deem and Ramdas Pophale) SiO2 
 PCOD9162418
Probable space group: P 21/M
;
_chemical_formula_sum "Si O2"
_cell_formula_units_Z 32
_cell_length_a 22.642258
_cell_length_b 7.794473
_cell_length_c 15.187057
_cell_angle_alpha 90.000000
_cell_angle_beta 147.252497
_cell_angle_gamma 90.000000
_cell_volume 1449.864643
_symmetry_space_group_name_H-M "P 21/M"
_symmetry_group_IT_number 11
_symmetry_cell_setting 'monoclinic'
loop_
_space_group_symop_operation_xyz
x,y,z
-x,1/2+y,-z
-x,-y,-z
x,1/2-y,z
loop_
_atom_site_type_symbol
_atom_site_label
_atom_site_fract_x
_atom_site_fract_y
_atom_site_fract_z
Si Si1 0.519418 0.039647 0.743385
Si Si2 0.295811 0.450714 0.378824
Si Si3 0.237023 0.957216 0.973832
Si Si4 0.899666 0.448055 0.744474
Si Si5 0.127222 0.955032 0.654971
Si Si6 0.801095 0.951882 0.448741
Si Si7 0.556070 0.955968 0.161854
Si Si8 0.138678 0.043969 0.034742
O O1 0.517876 0.250000 0.740189
O O2 0.412072 0.977958 0.556460
O O3 0.637615 0.984452 0.857446
O O4 0.505999 0.985564 0.828490
O O5 0.316065 0.250000 0.386902
O O6 0.203611 0.463620 0.339087
O O7 0.236280 0.525175 0.218217
O O8 0.237415 0.750000 0.971161
O O9 0.188379 0.018186 0.819575
O O10 0.164661 0.009231 0.966016
O O11 0.895632 0.250000 0.766897
O O12 0.883764 0.459184 0.619297
O O13 0.019516 0.522455 0.914149
O O14 0.139426 0.750000 0.667528
O O15 0.174063 0.025132 0.622482
O O16 0.000000 0.000000 0.500000
O O17 0.805595 0.750000 0.474897
O O18 0.680052 0.020314 0.316825
O O19 0.561444 0.750000 0.173530
O O20 0.500000 0.000000 0.000000
O O21 0.133824 0.250000 0.040524
#
# Coordination Sequence:
#
# PCOD9162418 Si02
#       8
#     4   4   4   4   4   4   4   4
#     4   9  18  37  60  82 113 152 191 235 288 345
#     4  10  20  39  63  85 115 154 193 240 298 357
#     4  10  22  39  60  84 115 155 197 240 290 348
#     4  11  22  37  58  88 122 152 192 247 297 350
#     4  11  23  39  59  85 118 157 199 247 295 347
#     4  11  22  37  59  86 115 155 196 234 292 354
#     4  10  20  35  56  82 112 149 190 234 286 346
#     4  10  23  39  58  85 117 154 194 242 299 349
#
# _framework density 22.071024999999999
#
# number of rings (size 3 to 8) (size 9 to 14) (size 15 to 20)
#    0.000    1.750    1.250    3.000    0.000    7.000 
#    0.000    1.250    0.000    0.000    0.000    0.000 
#    0.000    0.000    0.000    0.000    0.000    0.000 
#
# Total GULP energy -178849.386192 kJ/mol
# GULP energy per Si atom -5589.043319 kJ/mol
# Density = 2.202079 g / cm^3
# Si number density = 22.071025 Si / 1000 Ang^3
#
#
#
# Elastic Constant Matrix: (Units=GPa)
#
#
# Indices 1 2 3 4 5 6 
#
# 1 63.7193 -11.5555 5.0476 0.0000 7.1895 0.0000
# 2 -11.5555 33.1411 -1.0602 0.0000 2.6070 0.0000
# 3 5.0476 -1.0602 105.4495 0.0000 10.6300 0.0000
# 4 0.0000 0.0000 0.0000 11.6243 0.0000 -4.5916
# 5 7.1895 2.6070 10.6300 0.0000 43.1687 0.0000
# 6 0.0000 0.0000 0.0000 -4.5916 0.0000 17.2010
#
#
#
# Elastic Compliance Matrix: (Units=1/GPa)
#
#
# Indices 1 2 3 4 5 6 
#
# 1 0.017213 0.006234 -0.000445 0.000000 -0.003134 0.000000
# 2 0.006234 0.032602 0.000341 0.000000 -0.003091 0.000000
# 3 -0.000445 0.000341 0.009744 0.000000 -0.002346 0.000000
# 4 0.000000 0.000000 0.000000 0.096167 0.000000 0.025671
# 5 -0.003134 -0.003091 -0.002346 0.000000 0.024451 0.000000
# 6 0.000000 0.000000 0.000000 0.025671 0.000000 0.064989
#
#
# Mechanical properties :
#
#
# Convention : Reuss Voigt Hill
#
# Bulk Modulus (GPa) = 13.92393 20.79707 17.36050
# Shear Modulus (GPa) = 19.46689 28.39066 23.92878
#
# Velocity S-wave (km/s) = 2.97309 3.59044 3.29625
# Velocity P-wave (km/s) = 4.25536 5.16058 4.72967
#
# Compressibility (1/GPa) = 0.07181880
#
# Stress axis : x y z
#
# Youngs Moduli (GPa) = 58.09489 30.67316 102.62262
#
# Poissons Ratio (x) = -0.19122 0.04571
# Poissons Ratio (y) = -0.36217 -0.03499
# Poissons Ratio (z) = 0.02587 -0.01046
#
# Static dielectric constant tensor:
#      x y z
#    x 1.778580 0.000000 0.000370 
#    y 0.000000 1.826600 0.000000 
#    z 0.000370 0.000000 1.834690 
# 
# From -- ./inp_files/55707.got.cif
#   From: 2010.05.17/outbox.cif.g08.bks.cpg/sg11_28_cif.got.tgz:55707.got - 2010.06.03 12:22:45.
