data_PCOD9162247
_publ_section_title
;
Structure prediction by ZEFSAII (Michael W. Deem and Ramdas Pophale) SiO2 
 PCOD9162247
Probable space group: P 21/M
;
_chemical_formula_sum "Si O2"
_cell_formula_units_Z 28
_cell_length_a 9.884053
_cell_length_b 14.071387
_cell_length_c 11.864623
_cell_angle_alpha 90.000000
_cell_angle_beta 123.722783
_cell_angle_gamma 90.000000
_cell_volume 1372.492794
_symmetry_space_group_name_H-M "P 21/M"
_symmetry_group_IT_number 11
_symmetry_cell_setting 'monoclinic'
loop_
_space_group_symop_operation_xyz
x,y,z
-x,1/2+y,-z
-x,-y,-z
x,1/2-y,z
loop_
_atom_site_type_symbol
_atom_site_label
_atom_site_fract_x
_atom_site_fract_y
_atom_site_fract_z
Si Si1 0.046434 0.003252 0.218293
Si Si2 0.171751 0.485671 0.517320
Si Si3 0.564470 0.137409 0.433905
Si Si4 0.685368 0.361112 0.736292
Si Si5 0.772665 0.639997 0.831750
Si Si6 0.762504 0.860401 0.092523
Si Si7 0.419379 0.137782 0.774976
O O1 0.125254 0.044540 0.368876
O O2 0.156214 0.919188 0.218771
O O3 0.883062 0.947778 0.173780
O O4 0.067204 0.083836 0.133687
O O5 0.287076 0.578353 0.551816
O O6 0.278038 0.413342 0.639532
O O7 0.000000 0.500000 0.500000
O O8 0.582281 0.250000 0.416994
O O9 0.572367 0.126728 0.572923
O O10 0.389473 0.104578 0.307492
O O11 0.725048 0.250000 0.764819
O O12 0.590518 0.394927 0.802991
O O13 0.794269 0.750000 0.812575
O O14 0.735820 0.633780 0.947057
O O15 0.821883 0.750000 0.142327
O O16 0.610934 0.873827 0.106394
O O17 0.410991 0.250000 0.746136
#
# Coordination Sequence:
#
# PCOD9162247 Si02
#       7
#     4   4   4   4   4   4   4
#     4  11  20  35  58  82 111 143 179 230 279 325
#     4  11  21  34  54  83 114 139 178 225 279 333
#     4   9  19  36  57  81 109 144 184 225 272 324
#     4   9  18  33  57  85 107 134 179 225 271 324
#     4  10  21  37  57  79 106 147 191 226 266 326
#     4  10  21  37  57  78 109 148 186 225 274 328
#     4  10  20  35  54  80 111 143 179 224 275 327
#
# _framework density 20.400836000000002
#
# number of rings (size 3 to 8) (size 9 to 14) (size 15 to 20)
#    0.000    2.000    1.429    2.571    0.000    5.143 
#    0.000    2.857    0.000    0.000    0.000    0.000 
#    0.000    0.000    0.000    0.000    0.000    0.000 
#
# Total GULP energy -156232.815025 kJ/mol
# GULP energy per Si atom -5579.743394 kJ/mol
# Density = 2.035440 g / cm^3
# Si number density = 20.400836 Si / 1000 Ang^3
#
#
#
# Elastic Constant Matrix: (Units=GPa)
#
#
# Indices 1 2 3 4 5 6 
#
# 1 108.7234 14.2045 -6.2641 0.0000 -30.1706 0.0000
# 2 14.2045 47.5198 6.1606 0.0000 -15.6903 0.0000
# 3 -6.2641 6.1606 19.2926 0.0000 -15.7543 0.0000
# 4 0.0000 0.0000 0.0000 18.4479 0.0000 -4.5715
# 5 -30.1706 -15.6903 -15.7543 0.0000 26.5276 0.0000
# 6 0.0000 0.0000 0.0000 -4.5715 0.0000 29.8400
#
#
#
# Elastic Compliance Matrix: (Units=1/GPa)
#
#
# Indices 1 2 3 4 5 6 
#
# 1 0.082545 0.025106 0.208865 0.000000 0.232771 0.000000
# 2 0.025106 0.034492 0.072060 0.000000 0.091749 0.000000
# 3 0.208865 0.072060 0.631845 0.000000 0.655410 0.000000
# 4 0.000000 0.000000 0.000000 0.056346 0.000000 0.008632
# 5 0.232771 0.091749 0.655410 0.000000 0.745937 0.000000
# 6 0.000000 0.000000 0.000000 0.008632 0.000000 0.034834
#
#
# Mechanical properties :
#
#
# Convention : Reuss Voigt Hill
#
# Bulk Modulus (GPa) = 0.73478 22.63752 11.68615
# Shear Modulus (GPa) = 3.50242 25.72542 14.61392
#
# Velocity S-wave (km/s) = 1.31169 3.55491 2.67935
# Velocity P-wave (km/s) = 1.62941 5.28869 3.91314
#
# Compressibility (1/GPa) = 1.36094264
#
# Stress axis : x y z
#
# Youngs Moduli (GPa) = 12.11459 28.99261 1.58267
#
# Poissons Ratio (x) = -0.72788 -0.33056
# Poissons Ratio (y) = -0.30415 -0.11405
# Poissons Ratio (z) = -2.53031 -2.08920
#
# Static dielectric constant tensor:
#      x y z
#    x 1.711560 0.000000 -0.003440 
#    y 0.000000 1.754370 0.000000 
#    z -0.003440 0.000000 1.746120 
# 
# From -- ./inp_files/17693.got.cif
#   From: 2010.05.17/outbox.cif.g08.bks.cpg/sg11_9_cif.got.tgz:17693.got - 2010.06.03 12:22:45.
