data_PCOD9162079
_publ_section_title
;
Structure prediction by ZEFSAII (Michael W. Deem and Ramdas Pophale) SiO2 
 PCOD9162079
Probable space group: P 21/M
;
_chemical_formula_sum "Si O2"
_cell_formula_units_Z 26
_cell_length_a 16.129113
_cell_length_b 7.294396
_cell_length_c 13.318939
_cell_angle_alpha 90.000000
_cell_angle_beta 36.860694
_cell_angle_gamma 90.000000
_cell_volume 939.999601
_symmetry_space_group_name_H-M "P 21/M"
_symmetry_group_IT_number 11
_symmetry_cell_setting 'monoclinic'
loop_
_space_group_symop_operation_xyz
x,y,z
-x,1/2+y,-z
-x,-y,-z
x,1/2-y,z
loop_
_atom_site_type_symbol
_atom_site_label
_atom_site_fract_x
_atom_site_fract_y
_atom_site_fract_z
Si Si1 0.971007 0.530957 0.169419
Si Si2 0.394205 0.750000 0.553380
Si Si3 0.021962 0.028113 0.617027
Si Si4 0.454411 0.026829 0.312921
Si Si5 0.237205 0.041654 0.802944
Si Si6 0.295568 0.470576 0.260497
Si Si7 0.283353 0.540486 0.055381
O O1 0.975405 0.750000 0.155326
O O2 0.918813 0.485797 0.329642
O O3 0.865495 0.467926 0.186657
O O4 0.126639 0.463571 0.000050
O O5 0.406101 0.589238 0.454248
O O6 0.362608 0.593030 0.671693
O O7 0.017065 0.250000 0.612551
O O8 0.866319 0.955889 0.777495
O O9 0.135368 0.963528 0.428343
O O10 0.441629 0.250000 0.337853
O O11 0.371323 0.981695 0.290370
O O12 0.610944 0.970418 0.129658
O O13 0.284041 0.250000 0.741584
O O14 0.296944 0.250000 0.253032
O O15 0.351803 0.541202 0.099971
O O16 0.256695 0.750000 0.050398
#
# Coordination Sequence:
#
# PCOD9162079 Si02
#       7
#     4   2   4   4   4   4   4
#     4   9  17  34  56  85 125 160 191 237 306 354
#     4  12  22  36  62  86 114 154 198 244 302 344
#     4   9  18  34  58  86 118 159 194 241 294 354
#     4  10  23  39  59  88 117 158 202 248 288 349
#     4  10  20  34  57  91 125 151 190 249 298 357
#     4  10  20  36  58  85 120 154 196 248 295 341
#     4  10  21  37  57  84 118 159 200 241 293 350
#
# _framework density 27.659586000000001
#
# number of rings (size 3 to 8) (size 9 to 14) (size 15 to 20)
#    0.000    2.154    0.769    2.308    3.231    2.462 
#    0.000    0.769    0.000    0.923    0.000    0.000 
#    0.000    0.000    0.000    0.000    0.000    0.000 
#
# Total GULP energy -145159.076229 kJ/mol
# GULP energy per Si atom -5583.041393 kJ/mol
# Density = 2.759663 g / cm^3
# Si number density = 27.659586 Si / 1000 Ang^3
#
#
#
# Elastic Constant Matrix: (Units=GPa)
#
#
# Indices 1 2 3 4 5 6 
#
# 1 72.9837 2.3427 11.9579 0.0000 -2.1512 0.0000
# 2 2.3427 158.4033 26.7346 0.0000 1.1600 0.0000
# 3 11.9579 26.7346 173.7306 0.0000 22.1564 0.0000
# 4 0.0000 0.0000 0.0000 18.9181 0.0000 19.2256
# 5 -2.1512 1.1600 22.1564 0.0000 52.9249 0.0000
# 6 0.0000 0.0000 0.0000 19.2256 0.0000 6.5529
#
#
#
# Elastic Compliance Matrix: (Units=1/GPa)
#
#
# Indices 1 2 3 4 5 6 
#
# 1 0.013910 -0.000030 -0.001083 0.000000 0.001019 0.000000
# 2 -0.000030 0.006486 -0.001033 0.000000 0.000289 0.000000
# 3 -0.001083 -0.001033 0.006330 0.000000 -0.002671 0.000000
# 4 0.000000 0.000000 0.000000 -0.026675 0.000000 0.078262
# 5 0.001019 0.000289 -0.002671 0.000000 0.020048 0.000000
# 6 0.000000 0.000000 0.000000 0.078262 0.000000 -0.077010
#
#
# Mechanical properties :
#
#
# Convention : Reuss Voigt Hill
#
# Bulk Modulus (GPa) = 44.57529 54.13200 49.35365
# Shear Modulus (GPa) = -110.76375 39.95133 -35.40621
#
# Velocity S-wave (km/s) = -6.33500 3.80464 -3.58169
# Velocity P-wave (km/s) = 6.11220 6.23808 0.88166
#
# Compressibility (1/GPa) = 0.02243395
#
# Stress axis : x y z
#
# Youngs Moduli (GPa) = 71.89015 154.18665 157.97302
#
# Poissons Ratio (x) = 0.00469 0.17105
# Poissons Ratio (y) = 0.00219 0.16316
# Poissons Ratio (z) = 0.07784 0.15925
#
# Static dielectric constant tensor:
#      x y z
#    x 2.310000 0.000000 -0.134050 
#    y 0.000000 2.045240 0.000000 
#    z -0.134050 0.000000 2.134920 
# 
# From -- ./inp_files/26154.got.cif
#   From: 2010.05.17/outbox.cif.g08.bks.cpg/sg11_14_cif.got.tgz:26154.got - 2010.06.03 12:22:45.
