data_PCOD9162153
_publ_section_title
;
Structure prediction by ZEFSAII (Michael W. Deem and Ramdas Pophale) SiO2 
 PCOD9162153
Probable space group: P 21/M
;
_chemical_formula_sum "Si O2"
_cell_formula_units_Z 28
_cell_length_a 31.014280
_cell_length_b 8.506252
_cell_length_c 9.871454
_cell_angle_alpha 90.000000
_cell_angle_beta 37.277163
_cell_angle_gamma 90.000000
_cell_volume 1577.313655
_symmetry_space_group_name_H-M "P 21/M"
_symmetry_group_IT_number 11
_symmetry_cell_setting 'monoclinic'
loop_
_space_group_symop_operation_xyz
x,y,z
-x,1/2+y,-z
-x,-y,-z
x,1/2-y,z
loop_
_atom_site_type_symbol
_atom_site_label
_atom_site_fract_x
_atom_site_fract_y
_atom_site_fract_z
Si Si1 0.783451 0.939195 0.639025
Si Si2 0.500001 0.560460 0.154225
Si Si3 0.938537 0.937604 0.556247
Si Si4 0.061429 0.562397 0.748942
Si Si5 0.216583 0.560805 0.056268
Si Si6 0.655515 0.559818 0.765109
Si Si7 0.344486 0.940183 0.542675
O O1 0.785724 0.750000 0.635514
O O2 0.720277 0.992106 0.697831
O O3 0.860639 0.002010 0.401743
O O4 0.771103 0.999893 0.822234
O O5 0.500003 0.750000 0.155032
O O6 0.422774 0.509693 0.402329
O O7 0.500000 0.500000 0.000000
O O8 0.577228 0.509683 0.016194
O O9 0.938449 0.750000 0.554731
O O10 0.949809 0.999892 0.375484
O O11 0.860630 0.998205 0.795089
O O12 0.000000 0.000000 0.500000
O O13 0.061437 0.750000 0.747003
O O14 0.000000 0.500000 0.000000
O O15 0.214386 0.750000 0.064102
O O16 0.279732 0.507898 0.799207
O O17 0.656541 0.750000 0.758861
O O18 0.663066 0.500012 0.592334
O O19 0.343457 0.750000 0.541539
#
# Coordination Sequence:
#
# PCOD9162153 Si02
#       7
#     4   4   4   4   4   4   4
#     4  10  20  35  52  74 103 137 171 208 253 304
#     4   8  14  28  47  70  98 130 164 206 253 296
#     4  11  22  38  58  80 105 136 171 212 257 307
#     4  11  22  38  58  80 105 136 171 212 257 307
#     4  10  20  35  52  74 103 137 171 208 253 304
#     4   9  18  31  51  75 101 131 169 211 253 299
#     4   9  18  31  51  75 101 131 169 211 253 299
#
# _framework density 17.7517
#
# number of rings (size 3 to 8) (size 9 to 14) (size 15 to 20)
#    0.000    2.286    0.000    5.143    0.000    3.429 
#    0.000    3.571    0.000    0.000    0.000    0.000 
#    0.000    0.000    0.000    0.000    0.000    0.000 
#
# Total GULP energy -156123.919520 kJ/mol
# GULP energy per Si atom -5575.854269 kJ/mol
# Density = 1.771130 g / cm^3
# Si number density = 17.751700 Si / 1000 Ang^3
#
#
#
# Elastic Constant Matrix: (Units=GPa)
#
#
# Indices 1 2 3 4 5 6 
#
# 1 148.6196 33.9347 89.5318 0.0000 -42.5740 0.0000
# 2 33.9347 73.1662 37.8303 0.0000 -12.3950 0.0000
# 3 89.5318 37.8303 173.0966 0.0000 -38.3156 0.0000
# 4 0.0000 0.0000 0.0000 25.1178 0.0000 2.1278
# 5 -42.5740 -12.3950 -38.3156 0.0000 21.5038 0.0000
# 6 0.0000 0.0000 0.0000 2.1278 0.0000 25.7517
#
#
#
# Elastic Compliance Matrix: (Units=1/GPa)
#
#
# Indices 1 2 3 4 5 6 
#
# 1 0.016207 -0.001869 -0.001833 0.000000 0.027744 0.000000
# 2 -0.001869 0.015925 -0.002148 0.000000 0.001651 0.000000
# 3 -0.001833 -0.002148 0.010101 0.000000 0.013131 0.000000
# 4 0.000000 0.000000 0.000000 0.040093 0.000000 -0.003313
# 5 0.027744 0.001651 0.013131 0.000000 0.125780 0.000000
# 6 0.000000 0.000000 0.000000 -0.003313 0.000000 0.039106
#
#
# Mechanical properties :
#
#
# Convention : Reuss Voigt Hill
#
# Bulk Modulus (GPa) = 32.75181 79.71956 56.23569
# Shear Modulus (GPa) = 18.58102 30.04706 24.31404
#
# Velocity S-wave (km/s) = 3.23881 4.11862 3.70493
# Velocity P-wave (km/s) = 5.69882 8.22332 7.07459
#
# Compressibility (1/GPa) = 0.03053266
#
# Stress axis : x y z
#
# Youngs Moduli (GPa) = 61.70003 62.79517 98.99589
#
# Poissons Ratio (x) = 0.11737 0.18149
# Poissons Ratio (y) = 0.11532 0.21265
# Poissons Ratio (z) = 0.11312 0.13489
#
# Static dielectric constant tensor:
#      x y z
#    x 1.594870 0.000000 -0.040500 
#    y 0.000000 1.604650 0.000000 
#    z -0.040500 0.000000 1.606910 
# 
# From -- ./inp_files/29015.got.cif
#   From: 2010.05.17/outbox.cif.g08.bks.cpg/sg11_15_cif.got.tgz:29015.got - 2010.06.03 12:22:45.
