data_PCOD9162591
_publ_section_title
;
Structure prediction by ZEFSAII (Michael W. Deem and Ramdas Pophale) SiO2 
 PCOD9162591
Probable space group: P 21/M
;
_chemical_formula_sum "Si O2"
_cell_formula_units_Z 28
_cell_length_a 15.459527
_cell_length_b 8.684433
_cell_length_c 21.468526
_cell_angle_alpha 90.000000
_cell_angle_beta 27.372541
_cell_angle_gamma 90.000000
_cell_volume 1325.209498
_symmetry_space_group_name_H-M "P 21/M"
_symmetry_group_IT_number 11
_symmetry_cell_setting 'monoclinic'
loop_
_space_group_symop_operation_xyz
x,y,z
-x,1/2+y,-z
-x,-y,-z
x,1/2-y,z
loop_
_atom_site_type_symbol
_atom_site_label
_atom_site_fract_x
_atom_site_fract_y
_atom_site_fract_z
Si Si1 0.174822 0.070141 0.346494
Si Si2 0.011907 0.563649 0.189348
Si Si3 0.144677 0.921815 0.232289
Si Si4 0.889948 0.935879 0.009459
Si Si5 0.381232 0.929921 0.521084
Si Si6 0.531698 0.075547 0.757173
Si Si7 0.295717 0.418906 0.456846
O O1 0.144204 0.250000 0.369414
O O2 0.375598 0.026135 0.248691
O O3 0.000000 0.000000 0.500000
O O4 0.190887 0.018650 0.264065
O O5 0.977441 0.750000 0.213951
O O6 0.165611 0.530063 0.146112
O O7 0.833183 0.461855 0.322972
O O8 0.050013 0.514934 0.094073
O O9 0.226059 0.750000 0.187258
O O10 0.918095 0.909490 0.384385
O O11 0.916662 0.750000 0.990231
O O12 0.664681 0.966747 0.150382
O O13 0.000000 0.000000 0.000000
O O14 0.416691 0.750000 0.487665
O O15 0.500000 0.000000 0.500000
O O16 0.419660 0.032145 0.435890
O O17 0.516213 0.250000 0.789083
O O18 0.684052 0.053594 0.605360
O O19 0.347479 0.250000 0.398334
#
# Coordination Sequence:
#
# PCOD9162591 Si02
#       7
#     4   4   4   4   4   4   4
#     4  12  23  36  61  95 132 169 207 256 316 382
#     4  10  22  42  65  89 122 161 209 261 315 378
#     4   9  19  37  61  91 126 162 200 249 309 373
#     4  11  26  46  68  92 123 167 217 267 319 376
#     4  11  22  36  57  85 120 158 203 257 316 378
#     4  11  24  41  62  90 126 166 213 262 312 377
#     4  10  20  35  57  87 123 161 201 251 311 372
#
# _framework density 21.128736
#
# number of rings (size 3 to 8) (size 9 to 14) (size 15 to 20)
#    0.000    1.429    1.429    5.143    2.000    5.143 
#    0.000    0.714    0.000    0.000    0.000    0.000 
#    0.000    0.000    0.000    0.000    0.000    0.000 
#
# Total GULP energy -155981.715849 kJ/mol
# GULP energy per Si atom -5570.775566 kJ/mol
# Density = 2.108065 g / cm^3
# Si number density = 21.128736 Si / 1000 Ang^3
#
#
#
# Elastic Constant Matrix: (Units=GPa)
#
#
# Indices 1 2 3 4 5 6 
#
# 1 186.1362 62.5784 21.1704 0.0000 11.5891 0.0000
# 2 62.5784 103.1989 14.0166 0.0000 -3.1235 0.0000
# 3 21.1704 14.0166 22.5157 0.0000 5.4570 0.0000
# 4 0.0000 0.0000 0.0000 21.5934 0.0000 4.0981
# 5 11.5891 -3.1235 5.4570 0.0000 26.2342 0.0000
# 6 0.0000 0.0000 0.0000 4.0981 0.0000 37.9983
#
#
#
# Elastic Compliance Matrix: (Units=1/GPa)
#
#
# Indices 1 2 3 4 5 6 
#
# 1 0.007330 -0.004037 -0.003662 0.000000 -0.002957 0.000000
# 2 -0.004037 0.013003 -0.005377 0.000000 0.004450 0.000000
# 3 -0.003662 -0.005377 0.053674 0.000000 -0.010187 0.000000
# 4 0.000000 0.000000 0.000000 0.047278 0.000000 -0.005099
# 5 -0.002957 0.004450 -0.010187 0.000000 0.042073 0.000000
# 6 0.000000 0.000000 0.000000 -0.005099 0.000000 0.026867
#
#
# Mechanical properties :
#
#
# Convention : Reuss Voigt Hill
#
# Bulk Modulus (GPa) = 20.89732 56.37573 38.63652
# Shear Modulus (GPa) = 21.52107 31.43754 26.47930
#
# Velocity S-wave (km/s) = 3.19496 3.86152 3.54395
# Velocity P-wave (km/s) = 4.84998 6.82801 5.92216
#
# Compressibility (1/GPa) = 0.04785304
#
# Stress axis : x y z
#
# Youngs Moduli (GPa) = 136.41959 76.90464 18.63112
#
# Poissons Ratio (x) = 0.31047 0.06824
# Poissons Ratio (y) = 0.55074 0.10019
# Poissons Ratio (z) = 0.49963 0.41355
#
# Static dielectric constant tensor:
#      x y z
#    x 1.775330 0.000000 0.054540 
#    y 0.000000 1.755080 0.000000 
#    z 0.054540 0.000000 1.774000 
# 
# From -- ./inp_files/65384.got.cif
#   From: 2010.05.17/outbox.cif.g08.bks.cpg/sg11_33_cif.got.tgz:65384.got - 2010.06.03 12:22:45.
