data_PCOD9162428
_publ_section_title
;
Structure prediction by ZEFSAII (Michael W. Deem and Ramdas Pophale) SiO2 
 PCOD9162428
Probable space group: P 21/M
;
_chemical_formula_sum "Si O2"
_cell_formula_units_Z 32
_cell_length_a 12.607745
_cell_length_b 14.588974
_cell_length_c 19.330841
_cell_angle_alpha 90.000000
_cell_angle_beta 26.852784
_cell_angle_gamma 90.000000
_cell_volume 1606.063334
_symmetry_space_group_name_H-M "P 21/M"
_symmetry_group_IT_number 11
_symmetry_cell_setting 'monoclinic'
loop_
_space_group_symop_operation_xyz
x,y,z
-x,1/2+y,-z
-x,-y,-z
x,1/2-y,z
loop_
_atom_site_type_symbol
_atom_site_label
_atom_site_fract_x
_atom_site_fract_y
_atom_site_fract_z
Si Si1 0.193031 0.144013 0.611997
Si Si2 0.969995 0.030293 0.861011
Si Si3 0.578765 0.529425 0.171885
Si Si4 0.250638 0.855505 0.521243
Si Si5 0.745104 0.145928 0.321187
Si Si6 0.218780 0.140992 0.828630
Si Si7 0.684525 0.851221 0.617128
Si Si8 0.913297 0.096169 0.523785
O O1 0.120427 0.250000 0.666483
O O2 0.040533 0.074872 0.746732
O O3 0.464337 0.136276 0.478603
O O4 0.204639 0.128182 0.522897
O O5 0.027716 0.105905 0.885801
O O6 0.132132 0.941832 0.782752
O O7 0.703845 0.998052 0.027984
O O8 0.768189 0.580576 0.109960
O O9 0.481534 0.435981 0.264336
O O10 0.359373 0.599898 0.294688
O O11 0.235575 0.750000 0.507846
O O12 0.184112 0.861388 0.639346
O O13 0.525131 0.879767 0.354621
O O14 0.096520 0.904657 0.553428
O O15 0.803700 0.250000 0.262848
O O16 0.200747 0.250000 0.851190
O O17 0.567800 0.750000 0.679307
O O18 0.893490 0.842914 0.551526
O O19 0.000000 0.000000 0.500000
#
# Coordination Sequence:
#
# PCOD9162428 Si02
#       8
#     4   4   4   4   4   4   4   4
#     4  10  21  36  58  87 116 152 195 237 289 348
#     4  12  22  34  57  86 122 157 185 235 300 355
#     4  10  23  38  55  89 117 154 193 244 301 346
#     4   9  17  32  55  82 105 141 195 243 281 326
#     4  10  21  35  55  84 117 154 196 239 286 351
#     4  10  20  35  56  82 117 157 197 233 282 349
#     4  10  21  39  63  86 113 154 202 250 292 345
#     4   9  19  35  59  80 108 144 199 246 285 338
#
# _framework density 19.924495
#
# number of rings (size 3 to 8) (size 9 to 14) (size 15 to 20)
#    0.000    2.000    1.250    2.250    5.250    2.000 
#    0.000    1.875    0.000    0.000    0.000    0.000 
#    0.000    0.000    0.000    0.000    0.000    0.000 
#
# Total GULP energy -178344.804622 kJ/mol
# GULP energy per Si atom -5573.275144 kJ/mol
# Density = 1.987915 g / cm^3
# Si number density = 19.924495 Si / 1000 Ang^3
#
#
#
# Elastic Constant Matrix: (Units=GPa)
#
#
# Indices 1 2 3 4 5 6 
#
# 1 62.4667 2.5928 -9.6283 0.0000 -6.8498 0.0000
# 2 2.5928 103.8359 24.0287 0.0000 11.5290 0.0000
# 3 -9.6283 24.0287 44.0675 0.0000 12.8173 0.0000
# 4 0.0000 0.0000 0.0000 -120.6702 0.0000 -51.9142
# 5 -6.8498 11.5290 12.8173 0.0000 9.2240 0.0000
# 6 0.0000 0.0000 0.0000 -51.9142 0.0000 6.6706
#
#
#
# Elastic Compliance Matrix: (Units=1/GPa)
#
#
# Indices 1 2 3 4 5 6 
#
# 1 0.017876 -0.002299 0.000776 0.000000 0.015070 0.000000
# 2 -0.002299 0.011792 -0.003606 0.000000 -0.011435 0.000000
# 3 0.000776 -0.003606 0.039188 0.000000 -0.049370 0.000000
# 4 0.000000 0.000000 0.000000 -0.001906 0.000000 -0.014833
# 5 0.015070 -0.011435 -0.049370 0.000000 0.202499 0.000000
# 6 0.000000 0.000000 0.000000 -0.014833 0.000000 0.034477
#
#
# Mechanical properties :
#
#
# Convention : Reuss Voigt Hill
#
# Bulk Modulus (GPa) = 17.06544 27.15072 22.10808
# Shear Modulus (GPa) = 14.98272 -8.06332 3.45970
#
# Velocity S-wave (km/s) = 2.74519 -2.01388 1.31916
# Velocity P-wave (km/s) = 4.31645 2.87206 3.66609
#
# Compressibility (1/GPa) = 0.05859796
#
# Stress axis : x y z
#
# Youngs Moduli (GPa) = 55.94057 84.80194 25.51790
#
# Poissons Ratio (x) = 0.19498 -0.01981
# Poissons Ratio (y) = 0.12862 0.09202
# Poissons Ratio (z) = -0.04342 0.30582
#
# Static dielectric constant tensor:
#      x y z
#    x 1.727490 0.000000 -0.005990 
#    y 0.000000 1.753460 0.000000 
#    z -0.005990 0.000000 1.722050 
# 
# From -- ./inp_files/59436.got.cif
#   From: 2010.05.17/outbox.cif.g08.bks.cpg/sg11_30_cif.got.tgz:59436.got - 2010.06.03 12:22:45.
