data_PCOD9162301
_publ_section_title
;
Structure prediction by ZEFSAII (Michael W. Deem and Ramdas Pophale) SiO2 
 PCOD9162301
Probable space group: P 21/M
;
_chemical_formula_sum "Si O2"
_cell_formula_units_Z 32
_cell_length_a 14.448890
_cell_length_b 8.880472
_cell_length_c 31.624712
_cell_angle_alpha 90.000000
_cell_angle_beta 152.819831
_cell_angle_gamma 90.000000
_cell_volume 1853.590336
_symmetry_space_group_name_H-M "P 21/M"
_symmetry_group_IT_number 11
_symmetry_cell_setting 'monoclinic'
loop_
_space_group_symop_operation_xyz
x,y,z
-x,1/2+y,-z
-x,-y,-z
x,1/2-y,z
loop_
_atom_site_type_symbol
_atom_site_label
_atom_site_fract_x
_atom_site_fract_y
_atom_site_fract_z
Si Si1 0.218273 0.571919 0.599146
Si Si2 0.068937 0.429465 0.310077
Si Si3 0.229356 0.927702 0.458041
Si Si4 0.227227 0.425949 0.691249
Si Si5 0.360865 0.430443 0.837612
Si Si6 0.511280 0.928843 0.363137
Si Si7 0.908942 0.070751 0.770796
Si Si8 0.365356 0.069386 0.982930
O O1 0.203093 0.750000 0.588187
O O2 0.269805 0.526155 0.668000
O O3 0.380722 0.507829 0.632241
O O4 0.000000 0.500000 0.500000
O O5 0.065314 0.250000 0.312175
O O6 0.843895 0.496231 0.226860
O O7 0.209556 0.499537 0.403788
O O8 0.129512 0.481475 0.288040
O O9 0.272854 0.750000 0.472483
O O10 0.006901 0.943928 0.389283
O O11 0.385407 0.009622 0.552120
O O12 0.255021 0.250000 0.691455
O O13 0.356930 0.460463 0.785846
O O14 0.348761 0.250000 0.838702
O O15 0.548241 0.499025 0.938946
O O16 0.544562 0.750000 0.373782
O O17 0.272258 0.958432 0.270252
O O18 0.907270 0.250000 0.760289
O O19 0.130717 0.033626 0.878770
O O20 0.389104 0.250000 0.992928
O O21 0.500000 0.000000 0.000000
#
# Coordination Sequence:
#
# PCOD9162301 Si02
#       8
#     4   4   4   4   4   4   4   4
#     4  12  23  36  58  85 114 146 184 233 279 331
#     4  11  21  33  54  81 111 150 192 230 273 333
#     4  10  20  35  55  79 113 150 186 231 277 327
#     4   9  19  35  56  82 112 145 181 227 281 330
#     4  10  20  35  56  83 116 146 182 233 283 330
#     4  11  23  39  58  80 110 150 192 233 280 336
#     4  10  23  40  56  78 113 152 189 233 283 332
#     4  11  21  35  58  85 113 147 188 233 282 334
#
# _framework density 17.263794000000001
#
# number of rings (size 3 to 8) (size 9 to 14) (size 15 to 20)
#    0.000    1.500    2.500    4.500    0.000    4.500 
#    0.000    0.000    0.000    0.750    0.000    0.000 
#    0.000    0.000    0.000    0.000    0.000    0.000 
#
# Total GULP energy -178809.111574 kJ/mol
# GULP energy per Si atom -5587.784737 kJ/mol
# Density = 1.722450 g / cm^3
# Si number density = 17.263794 Si / 1000 Ang^3
#
#
#
# Elastic Constant Matrix: (Units=GPa)
#
#
# Indices 1 2 3 4 5 6 
#
# 1 102.0382 73.4452 58.8314 0.0000 -0.0396 0.0000
# 2 73.4452 111.5415 59.3604 0.0000 1.6651 0.0000
# 3 58.8314 59.3604 94.9778 0.0000 -3.5573 0.0000
# 4 0.0000 0.0000 0.0000 25.0006 0.0000 -7.1458
# 5 -0.0396 1.6651 -3.5573 0.0000 20.6171 0.0000
# 6 0.0000 0.0000 0.0000 -7.1458 0.0000 29.6509
#
#
#
# Elastic Compliance Matrix: (Units=1/GPa)
#
#
# Indices 1 2 3 4 5 6 
#
# 1 0.021042 -0.010354 -0.006573 0.000000 -0.000257 0.000000
# 2 -0.010354 0.018662 -0.005342 0.000000 -0.002449 0.000000
# 3 -0.006573 -0.005342 0.018071 0.000000 0.003537 0.000000
# 4 0.000000 0.000000 0.000000 0.042958 0.000000 0.010353
# 5 -0.000257 -0.002449 0.003537 0.000000 0.049311 0.000000
# 6 0.000000 0.000000 0.000000 0.010353 0.000000 0.036221
#
#
# Mechanical properties :
#
#
# Convention : Reuss Voigt Hill
#
# Bulk Modulus (GPa) = 75.53608 76.87015 76.20312
# Shear Modulus (GPa) = 21.25714 22.84843 22.05279
#
# Velocity S-wave (km/s) = 3.51281 3.64193 3.57795
# Velocity P-wave (km/s) = 7.76545 7.89356 7.82977
#
# Compressibility (1/GPa) = 0.01323871
#
# Stress axis : x y z
#
# Youngs Moduli (GPa) = 47.52408 53.58412 55.33621
#
# Poissons Ratio (x) = 0.55479 0.36370
# Poissons Ratio (y) = 0.49204 0.29562
# Poissons Ratio (z) = 0.31236 0.28626
#
# Static dielectric constant tensor:
#      x y z
#    x 1.576890 0.000000 -0.003580 
#    y 0.000000 1.563310 0.000000 
#    z -0.003580 0.000000 1.584620 
# 
# From -- ./inp_files/73146.got.cif
#   From: 2010.05.17/outbox.cif.g08.bks.cpg/sg11_37_cif.got.tgz:73146.got - 2010.06.03 12:22:45.
