data_PCOD9162914
_publ_section_title
;
Structure prediction by ZEFSAII (Michael W. Deem and Ramdas Pophale) SiO2 
 PCOD9162914
Probable space group: P 21/M
;
_chemical_formula_sum "Si O2"
_cell_formula_units_Z 24
_cell_length_a 11.861426
_cell_length_b 13.296941
_cell_length_c 13.650862
_cell_angle_alpha 90.000000
_cell_angle_beta 147.104485
_cell_angle_gamma 90.000000
_cell_volume 1169.325717
_symmetry_space_group_name_H-M "P 21/M"
_symmetry_group_IT_number 11
_symmetry_cell_setting 'monoclinic'
loop_
_space_group_symop_operation_xyz
x,y,z
-x,1/2+y,-z
-x,-y,-z
x,1/2-y,z
loop_
_atom_site_type_symbol
_atom_site_label
_atom_site_fract_x
_atom_site_fract_y
_atom_site_fract_z
Si Si1 0.788954 0.865406 0.315311
Si Si2 0.348234 0.429170 0.450655
Si Si3 0.287973 0.920030 0.151415
Si Si4 0.949811 0.999265 0.606147
Si Si5 0.317294 0.865290 0.945368
Si Si6 0.836292 0.861045 0.880705
O O1 0.801781 0.750000 0.358075
O O2 0.819354 0.942900 0.426760
O O3 0.972643 0.893083 0.374082
O O4 0.561114 0.879618 0.102959
O O5 0.500000 0.500000 0.500000
O O6 0.504835 0.381265 0.643557
O O7 0.235207 0.364472 0.285557
O O8 0.179286 0.491846 0.388533
O O9 0.270147 0.042517 0.145054
O O10 0.288175 0.885665 0.039869
O O11 0.083228 0.880706 0.057689
O O12 0.161001 0.936282 0.774172
O O13 0.262179 0.750000 0.884243
O O14 0.789666 0.750000 0.886907
#
# Coordination Sequence:
#
# PCOD9162914 Si02
#       6
#     4   4   4   4   4   4
#     4  10  23  40  61  87 116 154 196 239 290 346
#     4  10  21  37  59  84 115 154 192 240 290 340
#     4  10  20  36  56  84 120 147 192 245 288 332
#     4  11  21  39  63  85 118 152 192 244 290 341
#     4  11  21  36  62  89 112 148 197 242 289 344
#     4  10  21  36  56  82 116 159 197 234 287 346
#
# _framework density 20.524647999999999
#
# number of rings (size 3 to 8) (size 9 to 14) (size 15 to 20)
#    0.000    1.667    3.333    1.500    0.000    2.000 
#    0.000    4.167    0.000    0.000    0.000    0.000 
#    0.000    0.000    0.000    0.000    0.000    0.000 
#
# Total GULP energy -133954.458858 kJ/mol
# GULP energy per Si atom -5581.435786 kJ/mol
# Density = 2.047793 g / cm^3
# Si number density = 20.524648 Si / 1000 Ang^3
#
#
#
# Elastic Constant Matrix: (Units=GPa)
#
#
# Indices 1 2 3 4 5 6 
#
# 1 51.1316 15.5661 -10.2793 0.0000 19.7553 0.0000
# 2 15.5661 70.2404 -2.7976 0.0000 14.5113 0.0000
# 3 -10.2793 -2.7976 72.6657 0.0000 6.0740 0.0000
# 4 0.0000 0.0000 0.0000 10.1344 0.0000 -1.1166
# 5 19.7553 14.5113 6.0740 0.0000 27.4393 0.0000
# 6 0.0000 0.0000 0.0000 -1.1166 0.0000 16.8987
#
#
#
# Elastic Compliance Matrix: (Units=1/GPa)
#
#
# Indices 1 2 3 4 5 6 
#
# 1 0.029713 -0.001860 0.005948 0.000000 -0.021726 0.000000
# 2 -0.001860 0.016230 0.000986 0.000000 -0.007463 0.000000
# 3 0.005948 0.000986 0.015326 0.000000 -0.008196 0.000000
# 4 0.000000 0.000000 0.000000 0.099397 0.000000 0.006568
# 5 -0.021726 -0.007463 -0.008196 0.000000 0.057847 0.000000
# 6 0.000000 0.000000 0.000000 0.006568 0.000000 0.059610
#
#
# Mechanical properties :
#
#
# Convention : Reuss Voigt Hill
#
# Bulk Modulus (GPa) = 14.00237 22.11289 18.05763
# Shear Modulus (GPa) = 17.13613 23.66437 20.40025
#
# Velocity S-wave (km/s) = 2.89261 3.39923 3.15610
# Velocity P-wave (km/s) = 4.24185 5.11894 4.70089
#
# Compressibility (1/GPa) = 0.07141647
#
# Stress axis : x y z
#
# Youngs Moduli (GPa) = 33.65521 61.61467 65.24841
#
# Poissons Ratio (x) = 0.11457 -0.38807
# Poissons Ratio (y) = 0.06258 -0.06431
# Poissons Ratio (z) = -0.20017 -0.06073
#
# Static dielectric constant tensor:
#      x y z
#    x 1.725590 0.000000 -0.009970 
#    y 0.000000 1.745160 0.000000 
#    z -0.009970 0.000000 1.771230 
# 
# From -- ./inp_files/39518.got.cif
#   From: 2010.05.17/outbox.cif.g08.bks.cpg/sg11_20_cif.got.tgz:39518.got - 2010.06.03 12:22:45.
