data_PCOD9162993
_publ_section_title
;
Structure prediction by ZEFSAII (Michael W. Deem and Ramdas Pophale) SiO2 
 PCOD9162993
Probable space group: P 21/M
;
_chemical_formula_sum "Si O2"
_cell_formula_units_Z 24
_cell_length_a 9.205724
_cell_length_b 8.714567
_cell_length_c 20.811371
_cell_angle_alpha 90.000000
_cell_angle_beta 130.088251
_cell_angle_gamma 90.000000
_cell_volume 1277.309796
_symmetry_space_group_name_H-M "P 21/M"
_symmetry_group_IT_number 11
_symmetry_cell_setting 'monoclinic'
loop_
_space_group_symop_operation_xyz
x,y,z
-x,1/2+y,-z
-x,-y,-z
x,1/2-y,z
loop_
_atom_site_type_symbol
_atom_site_label
_atom_site_fract_x
_atom_site_fract_y
_atom_site_fract_z
Si Si1 0.968979 0.434051 0.919969
Si Si2 0.700202 0.426516 0.422933
Si Si3 0.972363 0.575465 0.594305
Si Si4 0.752803 0.931671 0.232006
Si Si5 0.704326 0.433575 0.077656
Si Si6 0.565737 0.564238 0.763020
O O1 0.964568 0.250000 0.920517
O O2 0.772166 0.499199 0.836016
O O3 0.139584 0.493323 0.924442
O O4 0.000000 0.500000 0.000000
O O5 0.674339 0.250000 0.435323
O O6 0.779697 0.522014 0.505111
O O7 0.516506 0.479580 0.330774
O O8 0.866854 0.428305 0.416104
O O9 0.958975 0.750000 0.613505
O O10 0.055468 0.469527 0.673903
O O11 0.730845 0.750000 0.217345
O O12 0.749085 0.015924 0.163004
O O13 0.580053 0.997071 0.225922
O O14 0.704607 0.250000 0.071970
O O15 0.500000 0.500000 0.000000
O O16 0.562717 0.750000 0.765975
#
# Coordination Sequence:
#
# PCOD9162993 Si02
#       6
#     4   4   4   4   4   4
#     4  12  25  42  62  86 114 147 186 228 278 334
#     4   8  15  27  46  74 109 146 185 229 275 324
#     4   9  16  27  46  75 110 147 187 231 277 325
#     4  11  21  35  56  84 116 151 190 233 281 332
#     4  12  25  43  63  85 113 146 185 230 280 334
#     4  10  20  36  57  84 116 151 190 233 281 331
#
# _framework density 18.789490000000001
#
# number of rings (size 3 to 8) (size 9 to 14) (size 15 to 20)
#    0.000    1.667    0.000    7.500    0.000    4.667 
#    0.000    0.000    0.000    1.000    0.000    0.000 
#    0.000    0.000    0.000    0.000    0.000    0.000 
#
# Total GULP energy -134059.906844 kJ/mol
# GULP energy per Si atom -5585.829452 kJ/mol
# Density = 1.874672 g / cm^3
# Si number density = 18.789490 Si / 1000 Ang^3
#
#
#
# Elastic Constant Matrix: (Units=GPa)
#
#
# Indices 1 2 3 4 5 6 
#
# 1 69.7205 24.3462 54.6693 0.0000 11.1081 0.0000
# 2 24.3462 118.1967 47.9696 0.0000 12.7287 0.0000
# 3 54.6693 47.9696 152.9221 0.0000 23.9876 0.0000
# 4 0.0000 0.0000 0.0000 37.9329 0.0000 0.3657
# 5 11.1081 12.7287 23.9876 0.0000 23.3527 0.0000
# 6 0.0000 0.0000 0.0000 0.3657 0.0000 26.0468
#
#
#
# Elastic Compliance Matrix: (Units=1/GPa)
#
#
# Indices 1 2 3 4 5 6 
#
# 1 0.020230 -0.001297 -0.006469 0.000000 -0.002271 0.000000
# 2 -0.001297 0.009910 -0.002258 0.000000 -0.002465 0.000000
# 3 -0.006469 -0.002258 0.010591 0.000000 -0.006571 0.000000
# 4 0.000000 0.000000 0.000000 0.026366 0.000000 -0.000370
# 5 -0.002271 -0.002465 -0.006571 0.000000 0.051995 0.000000
# 6 0.000000 0.000000 0.000000 -0.000370 0.000000 0.038398
#
#
# Mechanical properties :
#
#
# Convention : Reuss Voigt Hill
#
# Bulk Modulus (GPa) = 48.35088 66.08997 57.22043
# Shear Modulus (GPa) = 27.11023 31.72343 29.41683
#
# Velocity S-wave (km/s) = 3.80259 4.11342 3.96106
# Velocity P-wave (km/s) = 6.71330 7.60333 7.17213
#
# Compressibility (1/GPa) = 0.02068215
#
# Stress axis : x y z
#
# Youngs Moduli (GPa) = 49.43069 100.91284 94.41880
#
# Poissons Ratio (x) = 0.13088 0.61082
# Poissons Ratio (y) = 0.06411 0.21321
# Poissons Ratio (z) = 0.31978 0.22788
#
# Static dielectric constant tensor:
#      x y z
#    x 1.638120 0.000000 0.009900 
#    y 0.000000 1.647270 0.000000 
#    z 0.009900 0.000000 1.658940 
# 
# From -- ./inp_files/63294.got.cif
#   From: 2010.05.17/outbox.cif.g08.bks.cpg/sg11_32_cif.got.tgz:63294.got - 2010.06.03 12:22:45.
