data_PCOD9162103
_publ_section_title
;
Structure prediction by ZEFSAII (Michael W. Deem and Ramdas Pophale) SiO2 
 PCOD9162103
Probable space group: P 21/M
;
_chemical_formula_sum "Si O2"
_cell_formula_units_Z 32
_cell_length_a 20.590926
_cell_length_b 8.753846
_cell_length_c 26.585234
_cell_angle_alpha 90.000000
_cell_angle_beta 21.257282
_cell_angle_gamma 90.000000
_cell_volume 1737.364525
_symmetry_space_group_name_H-M "P 21/M"
_symmetry_group_IT_number 11
_symmetry_cell_setting 'monoclinic'
loop_
_space_group_symop_operation_xyz
x,y,z
-x,1/2+y,-z
-x,-y,-z
x,1/2-y,z
loop_
_atom_site_type_symbol
_atom_site_label
_atom_site_fract_x
_atom_site_fract_y
_atom_site_fract_z
Si Si1 0.010538 0.566610 0.286285
Si Si2 0.634400 0.068536 0.593276
Si Si3 0.992128 0.068257 0.083908
Si Si4 0.708962 0.068393 0.204713
Si Si5 0.515593 0.934295 0.786014
Si Si6 0.302937 0.066263 0.150669
Si Si7 0.187735 0.433940 0.346009
Si Si8 0.897557 0.066349 0.894077
O O1 0.018606 0.750000 0.284090
O O2 0.820940 0.507632 0.443210
O O3 0.167779 0.496084 0.206423
O O4 0.038938 0.523934 0.207438
O O5 0.653002 0.250000 0.580257
O O6 0.476775 0.017036 0.669403
O O7 0.574502 0.010506 0.691514
O O8 0.023032 0.250000 0.058887
O O9 0.812310 0.034713 0.182115
O O10 0.992720 0.012279 0.140488
O O11 0.153921 0.984230 0.937981
O O12 0.680671 0.250000 0.221066
O O13 0.523180 0.750000 0.774570
O O14 0.652761 0.978476 0.731197
O O15 0.311827 0.974439 0.947248
O O16 0.308913 0.250000 0.144608
O O17 0.232784 0.019329 0.256592
O O18 0.500000 0.000000 0.000000
O O19 0.176915 0.250000 0.354614
O O20 0.000000 0.500000 0.500000
O O21 0.911993 0.250000 0.888772
#
# Coordination Sequence:
#
# PCOD9162103 Si02
#       8
#     4   4   4   4   4   4   4   4
#     4  11  24  42  62  86 119 161 200 242 298 359
#     4  12  24  38  58  89 121 156 200 247 294 349
#     4  10  20  34  58  91 121 150 193 245 292 342
#     4  10  20  36  58  86 121 159 194 235 291 352
#     4  10  20  37  60  84 112 150 191 241 295 353
#     4  11  23  41  63  89 118 154 199 247 295 356
#     4  10  22  38  57  83 115 149 192 239 292 350
#     4  10  21  38  61  86 115 154 198 241 294 352
#
# _framework density 18.418703000000001
#
# number of rings (size 3 to 8) (size 9 to 14) (size 15 to 20)
#    0.000    1.500    1.250    4.125    0.000    8.000 
#    0.000    1.875    0.000    0.000    0.000    0.000 
#    0.000    0.000    0.000    0.000    0.000    0.000 
#
# Total GULP energy -178888.204746 kJ/mol
# GULP energy per Si atom -5590.256398 kJ/mol
# Density = 1.837678 g / cm^3
# Si number density = 18.418703 Si / 1000 Ang^3
#
#
#
# Elastic Constant Matrix: (Units=GPa)
#
#
# Indices 1 2 3 4 5 6 
#
# 1 133.1633 43.7302 43.1295 0.0000 3.9117 0.0000
# 2 43.7302 48.8207 30.1975 0.0000 5.0791 0.0000
# 3 43.1295 30.1975 81.5341 0.0000 13.2760 0.0000
# 4 0.0000 0.0000 0.0000 21.6387 0.0000 -8.9164
# 5 3.9117 5.0791 13.2760 0.0000 29.3328 0.0000
# 6 0.0000 0.0000 0.0000 -8.9164 0.0000 27.1873
#
#
#
# Elastic Compliance Matrix: (Units=1/GPa)
#
#
# Indices 1 2 3 4 5 6 
#
# 1 0.011174 -0.008246 -0.003073 0.000000 0.001329 0.000000
# 2 -0.008246 0.032656 -0.007547 0.000000 -0.001139 0.000000
# 3 -0.003073 -0.007547 0.017711 0.000000 -0.006299 0.000000
# 4 0.000000 0.000000 0.000000 0.053434 0.000000 0.017524
# 5 0.001329 -0.001139 -0.006299 0.000000 0.036963 0.000000
# 6 0.000000 0.000000 0.000000 0.017524 0.000000 0.042529
#
#
# Mechanical properties :
#
#
# Convention : Reuss Voigt Hill
#
# Bulk Modulus (GPa) = 42.00160 55.29251 48.64706
# Shear Modulus (GPa) = 20.82144 25.39582 23.10863
#
# Velocity S-wave (km/s) = 3.36587 3.71726 3.54592
# Velocity P-wave (km/s) = 6.16106 6.96483 6.57524
#
# Compressibility (1/GPa) = 0.02380861
#
# Stress axis : x y z
#
# Youngs Moduli (GPa) = 89.49472 30.62185 56.46123
#
# Poissons Ratio (x) = 0.25252 0.17350
# Poissons Ratio (y) = 0.73800 0.42613
# Poissons Ratio (z) = 0.27500 0.23111
#
# Static dielectric constant tensor:
#      x y z
#    x 1.616460 0.000000 -0.014370 
#    y 0.000000 1.616750 0.000000 
#    z -0.014370 0.000000 1.591140 
# 
# From -- ./inp_files/72088.got.cif
#   From: 2010.05.17/outbox.cif.g08.bks.cpg/sg11_37_cif.got.tgz:72088.got - 2010.06.03 12:22:45.
