data_PCOD9162845
_publ_section_title
;
Structure prediction by ZEFSAII (Michael W. Deem and Ramdas Pophale) SiO2 
 PCOD9162845
Probable space group: P 21/M
;
_chemical_formula_sum "Si O2"
_cell_formula_units_Z 16
_cell_length_a 18.340368
_cell_length_b 10.841284
_cell_length_c 15.324808
_cell_angle_alpha 90.000000
_cell_angle_beta 166.255706
_cell_angle_gamma 90.000000
_cell_volume 723.953088
_symmetry_space_group_name_H-M "P 21/M"
_symmetry_group_IT_number 11
_symmetry_cell_setting 'monoclinic'
loop_
_space_group_symop_operation_xyz
x,y,z
-x,1/2+y,-z
-x,-y,-z
x,1/2-y,z
loop_
_atom_site_type_symbol
_atom_site_label
_atom_site_fract_x
_atom_site_fract_y
_atom_site_fract_z
Si Si1 0.576354 0.250000 0.517499
Si Si2 0.745089 0.007889 0.627161
Si Si3 0.882267 0.393165 0.604351
Si Si4 0.164492 0.105020 0.747951
Si Si5 0.295869 0.250000 0.377830
O O1 0.552896 0.127810 0.431806
O O2 0.357932 0.250000 0.346612
O O3 0.926931 0.250000 0.962407
O O4 0.896008 0.029012 0.708897
O O5 0.577408 0.876791 0.436127
O O6 0.000000 0.000000 0.000000
O O7 0.931028 0.250000 0.685758
O O8 0.086498 0.422741 0.758276
O O9 0.529721 0.403024 0.161872
O O10 0.073741 0.250000 0.625924
O O11 0.000000 0.000000 0.500000
#
# Coordination Sequence:
#
# PCOD9162845 Si02
#       5
#     2   4   4   4   2
#     4  10  20  36  56  74 111 160 197 234 284 336
#     4  10  21  39  58  87 123 161 199 244 288 346
#     4  10  21  39  64  90 118 161 202 236 294 368
#     4  10  22  42  66  91 117 151 197 251 306 359
#     4  10  22  34  52  82 111 154 199 238 284 326
#
# _framework density 22.100881000000001
#
# number of rings (size 3 to 8) (size 9 to 14) (size 15 to 20)
#    0.000    2.000    1.250    1.500    0.000    8.000 
#    4.500    0.000    0.000    0.000    0.000    0.000 
#    0.000    0.000    0.000    0.000    0.000    0.000 
#
# Total GULP energy -89486.188440 kJ/mol
# GULP energy per Si atom -5592.886777 kJ/mol
# Density = 2.205058 g / cm^3
# Si number density = 22.100881 Si / 1000 Ang^3
#
#
#
# Elastic Constant Matrix: (Units=GPa)
#
#
# Indices 1 2 3 4 5 6 
#
# 1 68.8553 31.7837 6.3792 0.0000 -18.9451 0.0000
# 2 31.7837 176.8570 16.8294 0.0000 -24.5026 0.0000
# 3 6.3792 16.8294 65.0441 0.0000 -9.7726 0.0000
# 4 0.0000 0.0000 0.0000 28.0052 0.0000 -11.7843
# 5 -18.9451 -24.5026 -9.7726 0.0000 35.6549 0.0000
# 6 0.0000 0.0000 0.0000 -11.7843 0.0000 39.6950
#
#
#
# Elastic Compliance Matrix: (Units=1/GPa)
#
#
# Indices 1 2 3 4 5 6 
#
# 1 0.017671 -0.002072 0.000000 0.000000 0.007966 0.000000
# 2 -0.002072 0.006557 -0.001024 0.000000 0.003124 0.000000
# 3 0.000000 -0.001024 0.016201 0.000000 0.003737 0.000000
# 4 0.000000 0.000000 0.000000 0.040805 0.000000 0.012114
# 5 0.007966 0.003124 0.003737 0.000000 0.035450 0.000000
# 6 0.000000 0.000000 0.000000 0.012114 0.000000 0.028788
#
#
# Mechanical properties :
#
#
# Convention : Reuss Voigt Hill
#
# Bulk Modulus (GPa) = 29.20866 46.74901 37.97884
# Shear Modulus (GPa) = 30.66027 37.72196 34.19111
#
# Velocity S-wave (km/s) = 3.72867 4.13584 3.93752
# Velocity P-wave (km/s) = 5.63756 6.63365 6.15579
#
# Compressibility (1/GPa) = 0.03423642
#
# Stress axis : x y z
#
# Youngs Moduli (GPa) = 56.58850 152.50911 61.72635
#
# Poissons Ratio (x) = 0.31603 0.00001
# Poissons Ratio (y) = 0.11726 0.06320
# Poissons Ratio (z) = 0.00001 0.15615
#
# Static dielectric constant tensor:
#      x y z
#    x 1.752160 0.000000 0.016120 
#    y 0.000000 1.883420 0.000000 
#    z 0.016120 0.000000 1.896430 
# 
# From -- ./inp_files/3745.got.cif
#   From: 2010.05.17/outbox.cif.g08.bks.cpg/sg11_2_cif.got.tgz:3745.got - 2010.06.03 12:22:45.
