data_PCOD9162198
_publ_section_title
;
Structure prediction by ZEFSAII (Michael W. Deem and Ramdas Pophale) SiO2 
 PCOD9162198
Probable space group: P 21/M
;
_chemical_formula_sum "Si O2"
_cell_formula_units_Z 32
_cell_length_a 9.763509
_cell_length_b 19.563252
_cell_length_c 14.997683
_cell_angle_alpha 90.000000
_cell_angle_beta 39.995444
_cell_angle_gamma 90.000000
_cell_volume 1841.185252
_symmetry_space_group_name_H-M "P 21/M"
_symmetry_group_IT_number 11
_symmetry_cell_setting 'monoclinic'
loop_
_space_group_symop_operation_xyz
x,y,z
-x,1/2+y,-z
-x,-y,-z
x,1/2-y,z
loop_
_atom_site_type_symbol
_atom_site_label
_atom_site_fract_x
_atom_site_fract_y
_atom_site_fract_z
Si Si1 0.362601 0.175000 0.924271
Si Si2 0.548519 0.037001 0.885038
Si Si3 0.996690 0.058108 0.577130
Si Si4 0.904333 0.889214 0.088483
Si Si5 0.769434 0.173092 0.588186
Si Si6 0.688624 0.464673 0.153543
Si Si7 0.438616 0.332305 0.606458
Si Si8 0.442097 0.440166 0.456907
O O1 0.343996 0.250000 0.976093
O O2 0.412108 0.107319 0.955147
O O3 0.161565 0.159278 0.961076
O O4 0.569357 0.176689 0.756215
O O5 0.795165 0.051922 0.743576
O O6 0.478978 0.988968 0.836972
O O7 0.500000 0.000000 0.000000
O O8 0.948288 0.126650 0.543917
O O9 0.207828 0.053496 0.530813
O O10 0.000000 0.000000 0.500000
O O11 0.776016 0.858742 0.236529
O O12 0.803517 0.963416 0.118447
O O13 0.152947 0.907712 0.966301
O O14 0.845855 0.250000 0.533552
O O15 0.646591 0.146111 0.561543
O O16 0.594331 0.441676 0.294961
O O17 0.435588 0.250000 0.605259
O O18 0.453937 0.369589 0.505028
O O19 0.500000 0.500000 0.500000
#
# Coordination Sequence:
#
# PCOD9162198 Si02
#       8
#     4   4   4   4   4   4   4   4
#     4   8  15  31  56  81 105 140 186 233 281 339
#     4  10  21  35  57  83 114 148 196 247 287 341
#     4  11  21  35  57  83 111 151 190 234 290 343
#     4   9  17  32  58  80 110 143 186 236 292 342
#     4   8  16  34  57  79 107 144 187 234 277 330
#     4  10  20  35  53  84 116 148 189 242 299 347
#     4  10  20  36  59  87 115 151 199 242 286 352
#     4  12  23  36  57  86 124 152 190 246 299 354
#
# _framework density 17.380109999999998
#
# number of rings (size 3 to 8) (size 9 to 14) (size 15 to 20)
#    0.000    2.250    2.500    2.625    1.750    1.500 
#    0.000    1.250    0.000    3.000    0.000    0.000 
#    0.000    0.000    0.000    0.000    0.000    0.000 
#
# Total GULP energy -178156.703505 kJ/mol
# GULP energy per Si atom -5567.396985 kJ/mol
# Density = 1.734055 g / cm^3
# Si number density = 17.380110 Si / 1000 Ang^3
#
#
#
# Elastic Constant Matrix: (Units=GPa)
#
#
# Indices 1 2 3 4 5 6 
#
# 1 103.5157 44.1195 31.7816 0.0000 0.2741 0.0000
# 2 44.1195 87.8952 19.5374 0.0000 6.3510 0.0000
# 3 31.7816 19.5374 44.4373 0.0000 7.3116 0.0000
# 4 0.0000 0.0000 0.0000 23.8792 0.0000 3.2884
# 5 0.2741 6.3510 7.3116 0.0000 31.9615 0.0000
# 6 0.0000 0.0000 0.0000 3.2884 0.0000 22.9952
#
#
#
# Elastic Compliance Matrix: (Units=1/GPa)
#
#
# Indices 1 2 3 4 5 6 
#
# 1 0.014686 -0.005699 -0.008483 0.000000 0.002947 0.000000
# 2 -0.005699 0.014872 -0.002062 0.000000 -0.002435 0.000000
# 3 -0.008483 -0.002062 0.030547 0.000000 -0.006506 0.000000
# 4 0.000000 0.000000 0.000000 0.042719 0.000000 -0.006109
# 5 0.002947 -0.002435 -0.006506 0.000000 0.033234 0.000000
# 6 0.000000 0.000000 0.000000 -0.006109 0.000000 0.044361
#
#
# Mechanical properties :
#
#
# Convention : Reuss Voigt Hill
#
# Bulk Modulus (GPa) = 36.20848 47.41391 41.81119
# Shear Modulus (GPa) = 22.51104 25.12784 23.81944
#
# Velocity S-wave (km/s) = 3.60282 3.80647 3.70604
# Velocity P-wave (km/s) = 6.17945 6.83072 6.51323
#
# Compressibility (1/GPa) = 0.02761784
#
# Stress axis : x y z
#
# Youngs Moduli (GPa) = 68.09231 67.23968 32.73592
#
# Poissons Ratio (x) = 0.38321 0.27769
# Poissons Ratio (y) = 0.38807 0.06751
# Poissons Ratio (z) = 0.57760 0.13866
#
# Static dielectric constant tensor:
#      x y z
#    x 1.605400 0.000000 -0.014970 
#    y 0.000000 1.606050 0.000000 
#    z -0.014970 0.000000 1.600620 
# 
# From -- ./inp_files/23124.got.cif
#   From: 2010.05.17/outbox.cif.g08.bks.cpg/sg11_12_cif.got.tgz:23124.got - 2010.06.03 12:22:45.
