data_PCOD9162317
_publ_section_title
;
Structure prediction by ZEFSAII (Michael W. Deem and Ramdas Pophale) SiO2 
 PCOD9162317
Probable space group: P 21/M
;
_chemical_formula_sum "Si O2"
_cell_formula_units_Z 32
_cell_length_a 25.439156
_cell_length_b 8.440595
_cell_length_c 26.548684
_cell_angle_alpha 90.000000
_cell_angle_beta 163.207576
_cell_angle_gamma 90.000000
_cell_volume 1646.926189
_symmetry_space_group_name_H-M "P 21/M"
_symmetry_group_IT_number 11
_symmetry_cell_setting 'monoclinic'
loop_
_space_group_symop_operation_xyz
x,y,z
-x,1/2+y,-z
-x,-y,-z
x,1/2-y,z
loop_
_atom_site_type_symbol
_atom_site_label
_atom_site_fract_x
_atom_site_fract_y
_atom_site_fract_z
Si Si1 0.798338 0.560511 0.799304
Si Si2 0.473310 0.558167 0.201943
Si Si3 0.934031 0.439630 0.208284
Si Si4 0.193805 0.059094 0.693691
Si Si5 0.570684 0.939128 0.492972
Si Si6 0.303782 0.562182 0.499448
Si Si7 0.422399 0.059056 0.807790
Si Si8 0.811028 0.560682 0.195577
O O1 0.810353 0.750000 0.809705
O O2 0.630518 0.509974 0.681521
O O3 0.717024 0.507076 0.670041
O O4 0.000000 0.500000 0.000000
O O5 0.475914 0.750000 0.207253
O O6 0.553606 0.488319 0.326431
O O7 0.605565 0.511489 0.276038
O O8 0.263108 0.511939 0.996415
O O9 0.938771 0.250000 0.211817
O O10 0.949021 0.493009 0.280729
O O11 0.103787 0.507038 0.333551
O O12 0.211408 0.250000 0.711145
O O13 0.317406 0.999057 0.760910
O O14 0.205207 0.002206 0.761728
O O15 0.000000 0.000000 0.500000
O O16 0.554797 0.750000 0.483045
O O17 0.641512 0.984492 0.503127
O O18 0.305749 0.750000 0.495787
O O19 0.411604 0.250000 0.799083
O O20 0.623187 0.998320 0.000846
O O21 0.829344 0.750000 0.213401
#
# Coordination Sequence:
#
# PCOD9162317 Si02
#       8
#     4   4   4   4   4   4   4   4
#     4  10  21  39  66  97 130 168 206 249 297 344
#     4   9  20  39  61  84 112 152 202 247 295 359
#     4  10  22  41  63  84 112 155 202 244 296 363
#     4  10  22  35  50  78 109 138 180 228 283 351
#     4  10  22  41  63  91 127 167 211 249 290 349
#     4  12  25  39  61  91 125 160 198 252 305 348
#     4   9  19  37  57  77 103 142 186 227 284 357
#     4  10  20  35  55  81 109 137 179 236 292 348
#
# _framework density 19.430136000000001
#
# number of rings (size 3 to 8) (size 9 to 14) (size 15 to 20)
#    0.000    2.000    0.000    3.750    1.750    6.500 
#    0.000    1.250    0.000    0.000    0.000    0.000 
#    0.000    0.000    0.000    0.000    0.000    0.000 
#
# Total GULP energy -178283.696550 kJ/mol
# GULP energy per Si atom -5571.365517 kJ/mol
# Density = 1.938591 g / cm^3
# Si number density = 19.430136 Si / 1000 Ang^3
#
#
#
# Elastic Constant Matrix: (Units=GPa)
#
#
# Indices 1 2 3 4 5 6 
#
# 1 158.6572 3.1529 65.1014 0.0000 0.7702 0.0000
# 2 3.1529 23.5322 17.6030 0.0000 0.7979 0.0000
# 3 65.1014 17.6030 122.0537 0.0000 5.2952 0.0000
# 4 0.0000 0.0000 0.0000 29.7785 0.0000 0.8404
# 5 0.7702 0.7979 5.2952 0.0000 26.8640 0.0000
# 6 0.0000 0.0000 0.0000 0.8404 0.0000 19.1219
#
#
#
# Elastic Compliance Matrix: (Units=1/GPa)
#
#
# Indices 1 2 3 4 5 6 
#
# 1 0.008202 0.002435 -0.004753 0.000000 0.000629 0.000000
# 2 0.002435 0.048357 -0.008279 0.000000 0.000126 0.000000
# 3 -0.004753 -0.008279 0.012009 0.000000 -0.001985 0.000000
# 4 0.000000 0.000000 0.000000 0.033623 0.000000 -0.001478
# 5 0.000629 0.000126 -0.001985 0.000000 0.037594 0.000000
# 6 0.000000 0.000000 0.000000 -0.001478 0.000000 0.052361
#
#
# Mechanical properties :
#
#
# Convention : Reuss Voigt Hill
#
# Bulk Modulus (GPa) = 21.10846 52.88419 36.99633
# Shear Modulus (GPa) = 21.82168 29.71194 25.76681
#
# Velocity S-wave (km/s) = 3.35488 3.91470 3.64555
# Velocity P-wave (km/s) = 5.08865 6.90723 6.06647
#
# Compressibility (1/GPa) = 0.04737437
#
# Stress axis : x y z
#
# Youngs Moduli (GPa) = 121.92385 20.67949 83.27429
#
# Poissons Ratio (x) = -0.05036 0.39583
# Poissons Ratio (y) = -0.29693 0.68940
# Poissons Ratio (z) = 0.57954 0.17120
#
# Static dielectric constant tensor:
#      x y z
#    x 1.960900 0.000000 -0.041560 
#    y 0.000000 1.669800 0.000000 
#    z -0.041560 0.000000 1.664380 
# 
# From -- ./inp_files/70040.got.cif
#   From: 2010.05.17/outbox.cif.g08.bks.cpg/sg11_36_cif.got.tgz:70040.got - 2010.06.03 12:22:45.
