data_PCOD9162646
_publ_section_title
;
Structure prediction by ZEFSAII (Michael W. Deem and Ramdas Pophale) SiO2 
 PCOD9162646
Probable space group: P 21/M
;
_chemical_formula_sum "Si O2"
_cell_formula_units_Z 32
_cell_length_a 14.904813
_cell_length_b 8.155260
_cell_length_c 23.857221
_cell_angle_alpha 90.000000
_cell_angle_beta 31.897258
_cell_angle_gamma 90.000000
_cell_volume 1532.304649
_symmetry_space_group_name_H-M "P 21/M"
_symmetry_group_IT_number 11
_symmetry_cell_setting 'monoclinic'
loop_
_space_group_symop_operation_xyz
x,y,z
-x,1/2+y,-z
-x,-y,-z
x,1/2-y,z
loop_
_atom_site_type_symbol
_atom_site_label
_atom_site_fract_x
_atom_site_fract_y
_atom_site_fract_z
Si Si1 0.529488 0.053580 0.819350
Si Si2 0.689164 0.947988 0.414195
Si Si3 0.233471 0.450347 0.501357
Si Si4 0.445455 0.948203 0.741841
Si Si5 0.011748 0.552502 0.173755
Si Si6 0.080607 0.554036 0.898456
Si Si7 0.628269 0.057129 0.980413
Si Si8 0.084167 0.552492 0.397348
O O1 0.528189 0.250000 0.826369
O O2 0.724109 0.993064 0.710582
O O3 0.438956 0.009281 0.809064
O O4 0.448536 0.978169 0.917626
O O5 0.694685 0.750000 0.410813
O O6 0.729199 0.004346 0.455825
O O7 0.835987 0.008156 0.294342
O O8 0.500000 0.000000 0.500000
O O9 0.235914 0.250000 0.499158
O O10 0.381703 0.504704 0.380151
O O11 0.047942 0.503330 0.579735
O O12 0.447521 0.750000 0.742101
O O13 0.278234 0.999992 0.796377
O O14 0.013006 0.750000 0.177552
O O15 0.011746 0.511107 0.107919
O O16 0.178761 0.489015 0.117897
O O17 0.076122 0.750000 0.898153
O O18 0.000000 0.500000 0.000000
O O19 0.644611 0.250000 0.963159
O O20 0.500000 0.000000 0.000000
O O21 0.091301 0.750000 0.392260
O O22 0.000000 0.500000 0.500000
#
# Coordination Sequence:
#
# PCOD9162646 Si02
#       8
#     4   4   4   4   4   4   4   4
#     4  11  23  37  59  90 122 156 199 251 303 357
#     4  10  21  39  63  89 120 159 200 247 298 355
#     4   9  18  34  58  82 111 153 194 233 290 353
#     4  10  20  36  58  85 117 156 197 239 294 361
#     4  10  23  42  64  89 122 162 204 249 302 361
#     4  11  23  38  61  89 118 153 198 247 299 358
#     4  11  25  44  65  89 119 160 207 252 301 359
#     4  10  20  35  58  86 118 156 197 243 295 357
#
# _framework density 20.883576000000001
#
# number of rings (size 3 to 8) (size 9 to 14) (size 15 to 20)
#    0.000    1.750    1.250    2.625    1.750    7.000 
#    0.000    1.250    0.000    0.000    0.000    0.000 
#    0.000    0.000    0.000    0.000    0.000    0.000 
#
# Total GULP energy -178796.707034 kJ/mol
# GULP energy per Si atom -5587.397095 kJ/mol
# Density = 2.083604 g / cm^3
# Si number density = 20.883576 Si / 1000 Ang^3
#
#
#
# Elastic Constant Matrix: (Units=GPa)
#
#
# Indices 1 2 3 4 5 6 
#
# 1 167.0473 12.8589 48.1137 0.0000 -11.0557 0.0000
# 2 12.8589 13.0136 7.2446 0.0000 -8.4007 0.0000
# 3 48.1137 7.2446 103.5827 0.0000 -10.9835 0.0000
# 4 0.0000 0.0000 0.0000 21.0238 0.0000 -1.1877
# 5 -11.0557 -8.4007 -10.9835 0.0000 40.5303 0.0000
# 6 0.0000 0.0000 0.0000 -1.1877 0.0000 27.8444
#
#
#
# Elastic Compliance Matrix: (Units=1/GPa)
#
#
# Indices 1 2 3 4 5 6 
#
# 1 0.007273 -0.005500 -0.002990 0.000000 0.000034 0.000000
# 2 -0.005500 0.094846 -0.002217 0.000000 0.017558 0.000000
# 3 -0.002990 -0.002217 0.011390 0.000000 0.001812 0.000000
# 4 0.000000 0.000000 0.000000 0.047680 0.000000 0.002034
# 5 0.000034 0.017558 0.001812 0.000000 0.028812 0.000000
# 6 0.000000 0.000000 0.000000 0.002034 0.000000 0.036001
#
#
# Mechanical properties :
#
#
# Convention : Reuss Voigt Hill
#
# Bulk Modulus (GPa) = 10.85843 46.67533 28.76688
# Shear Modulus (GPa) = 17.97817 32.24145 25.10981
#
# Velocity S-wave (km/s) = 2.93725 3.93347 3.47128
# Velocity P-wave (km/s) = 4.08828 6.55960 5.46546
#
# Compressibility (1/GPa) = 0.09209433
#
# Stress axis : x y z
#
# Youngs Moduli (GPa) = 137.49137 10.54342 87.79512
#
# Poissons Ratio (x) = 0.05799 0.26252
# Poissons Ratio (y) = 0.75627 0.19463
# Poissons Ratio (z) = 0.41111 0.02337
#
# Static dielectric constant tensor:
#      x y z
#    x 1.752830 0.000000 -0.045340 
#    y 0.000000 1.752760 0.000000 
#    z -0.045340 0.000000 1.767290 
# 
# From -- ./inp_files/68971.got.cif
#   From: 2010.05.17/outbox.cif.g08.bks.cpg/sg11_35_cif.got.tgz:68971.got - 2010.06.03 12:22:45.
