data_PCOD9162195
_publ_section_title
;
Structure prediction by ZEFSAII (Michael W. Deem and Ramdas Pophale) SiO2 
 PCOD9162195
Probable space group: P 21/M
;
_chemical_formula_sum "Si O2"
_cell_formula_units_Z 32
_cell_length_a 9.490095
_cell_length_b 13.347629
_cell_length_c 13.944761
_cell_angle_alpha 90.000000
_cell_angle_beta 114.052943
_cell_angle_gamma 90.000000
_cell_volume 1613.009895
_symmetry_space_group_name_H-M "P 21/M"
_symmetry_group_IT_number 11
_symmetry_cell_setting 'monoclinic'
loop_
_space_group_symop_operation_xyz
x,y,z
-x,1/2+y,-z
-x,-y,-z
x,1/2-y,z
loop_
_atom_site_type_symbol
_atom_site_label
_atom_site_fract_x
_atom_site_fract_y
_atom_site_fract_z
Si Si1 0.470081 0.633459 0.464580
Si Si2 0.069473 0.365689 0.927494
Si Si3 0.029209 0.066532 0.398094
Si Si4 0.863789 0.863069 0.279531
Si Si5 0.232442 0.994698 0.124981
Si Si6 0.547619 0.941354 0.274727
Si Si7 0.243819 0.572972 0.559951
Si Si8 0.263197 0.134760 0.318452
O O1 0.501724 0.750000 0.467696
O O2 0.482946 0.598112 0.359004
O O3 0.314145 0.618720 0.483101
O O4 0.604498 0.592989 0.572568
O O5 0.073952 0.250000 0.961664
O O6 0.122567 0.367561 0.831816
O O7 0.896804 0.410739 0.889894
O O8 0.175894 0.438016 0.020956
O O9 0.104679 0.127404 0.333881
O O10 0.896757 0.121932 0.421383
O O11 0.167006 0.033006 0.506932
O O12 0.962449 0.959465 0.342115
O O13 0.915474 0.750000 0.323131
O O14 0.689215 0.879535 0.269037
O O15 0.245083 0.066887 0.220838
O O16 0.403602 0.949879 0.163879
O O17 0.623211 0.048101 0.326535
O O18 0.298590 0.250000 0.304050
#
# Coordination Sequence:
#
# PCOD9162195 Si02
#       8
#     4   4   4   4   4   4   4   4
#     4  11  22  34  54  87 123 156 200 244 287 346
#     4  10  23  42  64  90 116 149 199 252 306 363
#     4  10  20  36  56  82 119 164 198 238 296 343
#     4  10  22  39  60  87 120 155 199 249 300 351
#     4  11  22  40  66  88 117 155 195 252 305 357
#     4  11  21  37  59  84 120 155 200 241 299 354
#     4  10  20  35  53  79 119 158 200 239 284 350
#     4  11  21  36  58  87 122 160 199 238 293 352
#
# _framework density 19.838688000000001
#
# number of rings (size 3 to 8) (size 9 to 14) (size 15 to 20)
#    0.000    1.500    3.750    1.875    0.000    2.500 
#    0.000    0.000    0.000    0.000    0.000    0.000 
#    0.000    0.000    0.000    0.000    0.000    0.000 
#
# Total GULP energy -178464.806402 kJ/mol
# GULP energy per Si atom -5577.025200 kJ/mol
# Density = 1.979353 g / cm^3
# Si number density = 19.838688 Si / 1000 Ang^3
#
#
#
# Elastic Constant Matrix: (Units=GPa)
#
#
# Indices 1 2 3 4 5 6 
#
# 1 95.3399 13.6145 24.0186 0.0000 2.0733 0.0000
# 2 13.6145 63.0707 19.6601 0.0000 -1.9539 0.0000
# 3 24.0186 19.6601 69.9620 0.0000 12.5368 0.0000
# 4 0.0000 0.0000 0.0000 17.1415 0.0000 5.0252
# 5 2.0733 -1.9539 12.5368 0.0000 32.0490 0.0000
# 6 0.0000 0.0000 0.0000 5.0252 0.0000 15.3214
#
#
#
# Elastic Compliance Matrix: (Units=1/GPa)
#
#
# Indices 1 2 3 4 5 6 
#
# 1 0.011602 -0.001325 -0.003723 0.000000 0.000625 0.000000
# 2 -0.001325 0.017838 -0.005128 0.000000 0.003179 0.000000
# 3 -0.003723 -0.005128 0.018309 0.000000 -0.007234 0.000000
# 4 0.000000 0.000000 0.000000 0.064544 0.000000 -0.021169
# 5 0.000625 0.003179 -0.007234 0.000000 0.034185 0.000000
# 6 0.000000 0.000000 0.000000 -0.021169 0.000000 0.072211
#
#
# Mechanical properties :
#
#
# Convention : Reuss Voigt Hill
#
# Bulk Modulus (GPa) = 36.49801 38.10654 37.30228
# Shear Modulus (GPa) = 20.14728 24.30769 22.22749
#
# Velocity S-wave (km/s) = 3.19023 3.50418 3.35089
# Velocity P-wave (km/s) = 5.65751 5.96844 5.81505
#
# Compressibility (1/GPa) = 0.02739875
#
# Stress axis : x y z
#
# Youngs Moduli (GPa) = 86.19021 56.06016 54.61880
#
# Poissons Ratio (x) = 0.07426 0.20334
# Poissons Ratio (y) = 0.11417 0.28006
# Poissons Ratio (z) = 0.32088 0.28745
#
# Static dielectric constant tensor:
#      x y z
#    x 1.749410 0.000000 0.026170 
#    y 0.000000 1.713950 0.000000 
#    z 0.026170 0.000000 1.701610 
# 
# From -- ./inp_files/47661.got.cif
#   From: 2010.05.17/outbox.cif.g08.bks.cpg/sg11_24_cif.got.tgz:47661.got - 2010.06.03 12:22:45.
