data_PCOD9162107
_publ_section_title
;
Structure prediction by ZEFSAII (Michael W. Deem and Ramdas Pophale) SiO2 
 PCOD9162107
Probable space group: P 21/M
;
_chemical_formula_sum "Si O2"
_cell_formula_units_Z 30
_cell_length_a 19.614505
_cell_length_b 9.142216
_cell_length_c 12.299868
_cell_angle_alpha 90.000000
_cell_angle_beta 33.416833
_cell_angle_gamma 90.000000
_cell_volume 1214.688309
_symmetry_space_group_name_H-M "P 21/M"
_symmetry_group_IT_number 11
_symmetry_cell_setting 'monoclinic'
loop_
_space_group_symop_operation_xyz
x,y,z
-x,1/2+y,-z
-x,-y,-z
x,1/2-y,z
loop_
_atom_site_type_symbol
_atom_site_label
_atom_site_fract_x
_atom_site_fract_y
_atom_site_fract_z
Si Si1 0.222610 0.425198 0.073015
Si Si2 0.852453 0.424576 0.609177
Si Si3 0.637653 0.086949 0.734443
Si Si4 0.652198 0.521482 0.382018
Si Si5 0.464754 0.912758 0.821812
Si Si6 0.143752 0.581000 0.739729
Si Si7 0.474418 0.250000 0.577490
Si Si8 0.972241 0.074416 0.804221
O O1 0.209039 0.250000 0.086348
O O2 0.148554 0.490838 0.276416
O O3 0.160476 0.511384 0.055310
O O4 0.362182 0.473273 0.918109
O O5 0.881600 0.250000 0.578467
O O6 0.713931 0.435559 0.742817
O O7 0.938327 0.505993 0.407869
O O8 0.581688 0.250000 0.806877
O O9 0.745437 0.086602 0.498398
O O10 0.538217 0.968436 0.829698
O O11 0.568523 0.593588 0.589355
O O12 0.786440 0.491629 0.251963
O O13 0.581067 0.373575 0.452603
O O14 0.630329 0.625584 0.310404
O O15 0.410840 0.750000 0.904670
O O16 0.107897 0.750000 0.807884
O O17 0.034407 0.487652 0.831504
O O18 0.972043 0.250000 0.804063
#
# Coordination Sequence:
#
# PCOD9162107 Si02
#       8
#     4   4   4   4   4   4   2   4
#     4  12  25  38  54  75 104 148 193 231 280 323
#     4  10  20  37  57  78 109 140 186 242 279 317
#     4   8  17  32  53  77 104 145 181 220 275 320
#     4  10  20  35  58  90 122 144 174 213 269 325
#     4  11  22  36  54  78 114 148 182 222 267 331
#     4   9  17  32  54  80 114 145 179 223 267 313
#     4  10  20  34  58  92 120 144 172 210 268 332
#     4  11  22  36  56  80 107 143 191 237 274 315
#
# _framework density 24.697692
#
# number of rings (size 3 to 8) (size 9 to 14) (size 15 to 20)
#    0.000    1.867    1.333    4.400    2.800    4.267 
#    0.000    0.000    0.000    0.000    0.000    5.600 
#    0.000    0.000    0.000    0.000    0.000    0.000 
#
# Total GULP energy -167505.968626 kJ/mol
# GULP energy per Si atom -5583.532288 kJ/mol
# Density = 2.464148 g / cm^3
# Si number density = 24.697692 Si / 1000 Ang^3
#
#
#
# Elastic Constant Matrix: (Units=GPa)
#
#
# Indices 1 2 3 4 5 6 
#
# 1 160.7292 80.1770 31.7699 0.0000 -31.1994 0.0000
# 2 80.1770 213.7356 46.7967 0.0000 -30.4757 0.0000
# 3 31.7699 46.7967 107.7639 0.0000 -24.2195 0.0000
# 4 0.0000 0.0000 0.0000 20.9358 0.0000 18.8320
# 5 -31.1994 -30.4757 -24.2195 0.0000 47.5832 0.0000
# 6 0.0000 0.0000 0.0000 18.8320 0.0000 -558.6639
#
#
#
# Elastic Compliance Matrix: (Units=1/GPa)
#
#
# Indices 1 2 3 4 5 6 
#
# 1 0.008251 -0.002466 -0.000565 0.000000 0.003543 0.000000
# 2 -0.002466 0.006173 -0.001613 0.000000 0.001516 0.000000
# 3 -0.000565 -0.001613 0.011101 0.000000 0.004247 0.000000
# 4 0.000000 0.000000 0.000000 0.046359 0.000000 0.001563
# 5 0.003543 0.001516 0.004247 0.000000 0.026471 0.000000
# 6 0.000000 0.000000 0.000000 0.001563 0.000000 -0.001737
#
#
# Mechanical properties :
#
#
# Convention : Reuss Voigt Hill
#
# Bulk Modulus (GPa) = 61.59033 88.85732 75.22383
# Shear Modulus (GPa) = 44.91556 -76.46329 -15.77387
#
# Velocity S-wave (km/s) = 4.26915 -5.57018 -2.52995
# Velocity P-wave (km/s) = 7.02087 2.30502 4.68932
#
# Compressibility (1/GPa) = 0.01623631
#
# Stress axis : x y z
#
# Youngs Moduli (GPa) = 121.19157 161.99296 90.08154
#
# Poissons Ratio (x) = 0.39953 0.05093
# Poissons Ratio (y) = 0.29890 0.14530
# Poissons Ratio (z) = 0.06851 0.26129
#
# Static dielectric constant tensor:
#      x y z
#    x 2.026380 0.000000 0.120120 
#    y 0.000000 1.582800 0.000000 
#    z 0.120120 0.000000 2.044410 
# 
# From -- ./inp_files/61331.got.cif
#   From: 2010.05.17/outbox.cif.g08.bks.cpg/sg11_31_cif.got.tgz:61331.got - 2010.06.03 12:22:45.
