data_PCOD9162530
_publ_section_title
;
Structure prediction by ZEFSAII (Michael W. Deem and Ramdas Pophale) SiO2 
 PCOD9162530
Probable space group: P 21/M
;
_chemical_formula_sum "Si O2"
_cell_formula_units_Z 32
_cell_length_a 14.864736
_cell_length_b 7.726885
_cell_length_c 14.671752
_cell_angle_alpha 90.000000
_cell_angle_beta 106.696601
_cell_angle_gamma 90.000000
_cell_volume 1614.122114
_symmetry_space_group_name_H-M "P 21/M"
_symmetry_group_IT_number 11
_symmetry_cell_setting 'monoclinic'
loop_
_space_group_symop_operation_xyz
x,y,z
-x,1/2+y,-z
-x,-y,-z
x,1/2-y,z
loop_
_atom_site_type_symbol
_atom_site_label
_atom_site_fract_x
_atom_site_fract_y
_atom_site_fract_z
Si Si1 0.122010 0.449794 0.633818
Si Si2 0.193530 0.039721 0.937481
Si Si3 0.086052 0.951946 0.422200
Si Si4 0.011443 0.543215 0.109738
Si Si5 0.697301 0.961094 0.208260
Si Si6 0.810141 0.552548 0.725215
Si Si7 0.504878 0.456672 0.893479
Si Si8 0.700904 0.543762 0.857546
O O1 0.120923 0.250000 0.665328
O O2 0.122239 0.458630 0.524357
O O3 0.218816 0.524300 0.701897
O O4 0.019055 0.521546 0.631298
O O5 0.191835 0.250000 0.942106
O O6 0.268167 0.992844 0.883044
O O7 0.089102 0.987751 0.878974
O O8 0.227002 0.973328 0.045164
O O9 0.074126 0.750000 0.442355
O O10 0.155627 0.965584 0.357588
O O11 0.022813 0.750000 0.124971
O O12 0.099025 0.453745 0.182180
O O13 0.000000 0.500000 0.000000
O O14 0.693925 0.750000 0.214182
O O15 0.590216 0.022049 0.183536
O O16 0.787322 0.750000 0.694321
O O17 0.727479 0.475981 0.764906
O O18 0.506072 0.250000 0.888606
O O19 0.598083 0.519245 0.869396
O O20 0.500000 0.500000 0.000000
O O21 0.717007 0.750000 0.855946
#
# Coordination Sequence:
#
# PCOD9162530 Si02
#       8
#     4   4   4   4   4   4   4   4
#     4   9  18  35  58  82 108 142 177 213 267 331
#     4   9  16  30  49  70 102 141 175 210 258 317
#     4  10  20  35  57  84 111 139 175 223 270 320
#     4  11  20  31  48  72 104 142 180 218 260 314
#     4   9  17  31  54  77 101 137 177 215 264 323
#     4  11  22  36  53  75 106 148 186 221 269 326
#     4  11  21  34  54  79 107 142 184 229 271 317
#     4  10  20  36  53  71 103 145 183 220 266 318
#
# _framework density 19.825018
#
# number of rings (size 3 to 8) (size 9 to 14) (size 15 to 20)
#    0.000    2.000    2.500    2.250    0.000    3.500 
#    0.000    1.250    0.000    0.750    0.000    0.000 
#    0.000    0.000    0.000    0.000    0.000    0.000 
#
# Total GULP energy -178509.441751 kJ/mol
# GULP energy per Si atom -5578.420055 kJ/mol
# Density = 1.977990 g / cm^3
# Si number density = 19.825018 Si / 1000 Ang^3
#
#
#
# Elastic Constant Matrix: (Units=GPa)
#
#
# Indices 1 2 3 4 5 6 
#
# 1 128.9478 -0.8714 42.0880 0.0000 -11.0947 0.0000
# 2 -0.8714 39.1933 -3.9271 0.0000 1.4446 0.0000
# 3 42.0880 -3.9271 75.1515 0.0000 -5.7706 0.0000
# 4 0.0000 0.0000 0.0000 17.1635 0.0000 -1.3060
# 5 -11.0947 1.4446 -5.7706 0.0000 33.4925 0.0000
# 6 0.0000 0.0000 0.0000 -1.3060 0.0000 19.7041
#
#
#
# Elastic Compliance Matrix: (Units=1/GPa)
#
#
# Indices 1 2 3 4 5 6 
#
# 1 0.009667 -0.000397 -0.005257 0.000000 0.002314 0.000000
# 2 -0.000397 0.025691 0.001489 0.000000 -0.000983 0.000000
# 3 -0.005257 0.001489 0.016407 0.000000 0.001021 0.000000
# 4 0.000000 0.000000 0.000000 0.058558 0.000000 0.003881
# 5 0.002314 -0.000983 0.001021 0.000000 0.030842 0.000000
# 6 0.000000 0.000000 0.000000 0.003881 0.000000 0.051008
#
#
# Mechanical properties :
#
#
# Convention : Reuss Voigt Hill
#
# Bulk Modulus (GPa) = 23.02251 35.31907 29.17079
# Shear Modulus (GPa) = 23.25768 27.80557 25.53163
#
# Velocity S-wave (km/s) = 3.42884 3.74913 3.59255
# Velocity P-wave (km/s) = 5.22628 6.04941 5.65285
#
# Compressibility (1/GPa) = 0.04343575
#
# Stress axis : x y z
#
# Youngs Moduli (GPa) = 103.44038 38.92380 60.94977
#
# Poissons Ratio (x) = 0.01546 0.32043
# Poissons Ratio (y) = 0.04108 -0.09078
# Poissons Ratio (z) = 0.54381 -0.05797
#
# Static dielectric constant tensor:
#      x y z
#    x 1.756720 0.000000 -0.019960 
#    y 0.000000 1.746940 0.000000 
#    z -0.019960 0.000000 1.698770 
# 
# From -- ./inp_files/51399.got.cif
#   From: 2010.05.17/outbox.cif.g08.bks.cpg/sg11_26_cif.got.tgz:51399.got - 2010.06.03 12:22:45.
