data_PCOD9162948
_publ_section_title
;
Structure prediction by ZEFSAII (Michael W. Deem and Ramdas Pophale) SiO2 
 PCOD9162948
Probable space group: P 21/M
;
_chemical_formula_sum "Si O2"
_cell_formula_units_Z 32
_cell_length_a 10.574317
_cell_length_b 17.204390
_cell_length_c 16.579941
_cell_angle_alpha 90.000000
_cell_angle_beta 36.539772
_cell_angle_gamma 90.000000
_cell_volume 1795.846844
_symmetry_space_group_name_H-M "P 21/M"
_symmetry_group_IT_number 11
_symmetry_cell_setting 'monoclinic'
loop_
_space_group_symop_operation_xyz
x,y,z
-x,1/2+y,-z
-x,-y,-z
x,1/2-y,z
loop_
_atom_site_type_symbol
_atom_site_label
_atom_site_fract_x
_atom_site_fract_y
_atom_site_fract_z
Si Si1 0.430754 0.342749 0.464951
Si Si2 0.644611 0.598416 0.230961
Si Si3 0.823146 0.655365 0.817079
Si Si4 0.663564 0.416589 0.198799
Si Si5 0.929997 0.656404 0.231694
Si Si6 0.602555 0.343944 0.054742
Si Si7 0.094865 0.340890 0.042012
Si Si8 0.720132 0.156617 0.472919
O O1 0.436479 0.250000 0.447379
O O2 0.497113 0.386715 0.350859
O O3 0.203456 0.363890 0.620143
O O4 0.601235 0.359686 0.448766
O O5 0.660011 0.509061 0.199113
O O6 0.813458 0.617624 0.215353
O O7 0.417388 0.618829 0.385895
O O8 0.712609 0.648385 0.118867
O O9 0.821600 0.750000 0.818033
O O10 0.606106 0.629964 0.886373
O O11 0.845559 0.631724 0.898899
O O12 0.036360 0.631541 0.660606
O O13 0.615300 0.380727 0.136561
O O14 0.893957 0.386937 0.110129
O O15 0.907123 0.750000 0.232885
O O16 0.177725 0.637181 0.103766
O O17 0.595004 0.250000 0.066956
O O18 0.034330 0.250000 0.077595
O O19 0.711608 0.250000 0.487736
#
# Coordination Sequence:
#
# PCOD9162948 Si02
#       8
#     4   4   4   4   4   4   4   4
#     4   9  17  32  54  80 104 136 179 222 266 314
#     4  11  22  33  52  84 114 141 179 221 273 325
#     4   9  19  36  59  81 102 137 189 229 262 317
#     4  12  22  33  53  85 115 139 177 224 272 324
#     4   9  18  33  55  80 110 141 177 225 277 317
#     4  10  20  36  57  81 109 142 176 224 280 321
#     4  11  20  36  58  80 105 139 184 230 264 312
#     4   9  17  34  56  79 108 143 184 226 266 313
#
# _framework density 17.818891000000001
#
# number of rings (size 3 to 8) (size 9 to 14) (size 15 to 20)
#    0.000    2.000    2.500    3.375    0.000    2.000 
#    0.000    2.500    0.000    4.500    0.000    0.000 
#    0.000    0.000    0.000    0.000    0.000    0.000 
#
# Total GULP energy -178610.863288 kJ/mol
# GULP energy per Si atom -5581.589478 kJ/mol
# Density = 1.777833 g / cm^3
# Si number density = 17.818891 Si / 1000 Ang^3
#
#
#
# Elastic Constant Matrix: (Units=GPa)
#
#
# Indices 1 2 3 4 5 6 
#
# 1 92.0673 11.5855 53.3780 0.0000 -10.3497 0.0000
# 2 11.5855 18.6162 14.0061 0.0000 -2.9666 0.0000
# 3 53.3780 14.0061 125.3438 0.0000 -9.5525 0.0000
# 4 0.0000 0.0000 0.0000 -10.6444 0.0000 -8.8925
# 5 -10.3497 -2.9666 -9.5525 0.0000 25.7446 0.0000
# 6 0.0000 0.0000 0.0000 -8.8925 0.0000 -13.2569
#
#
#
# Elastic Compliance Matrix: (Units=1/GPa)
#
#
# Indices 1 2 3 4 5 6 
#
# 1 0.015107 -0.004596 -0.005657 0.000000 0.003444 0.000000
# 2 -0.004596 0.060546 -0.004546 0.000000 0.003442 0.000000
# 3 -0.005657 -0.004546 0.010993 0.000000 0.001281 0.000000
# 4 0.000000 0.000000 0.000000 -0.213698 0.000000 0.143345
# 5 0.003444 0.003442 0.001281 0.000000 0.041100 0.000000
# 6 0.000000 0.000000 0.000000 0.143345 0.000000 -0.171586
#
#
# Mechanical properties :
#
#
# Convention : Reuss Voigt Hill
#
# Bulk Modulus (GPa) = 17.52945 43.77406 30.65175
# Shear Modulus (GPa) = -23.93212 10.83916 -6.54648
#
# Velocity S-wave (km/s) = -3.66878 2.46904 -1.91882
# Velocity P-wave (km/s) = 2.84388 5.72256 3.51141
#
# Compressibility (1/GPa) = 0.05704685
#
# Stress axis : x y z
#
# Youngs Moduli (GPa) = 66.19361 16.51639 90.96862
#
# Poissons Ratio (x) = 0.07592 0.51464
# Poissons Ratio (y) = 0.30426 0.41352
# Poissons Ratio (z) = 0.37448 0.07508
#
# Static dielectric constant tensor:
#      x y z
#    x 1.574550 0.000000 -0.009960 
#    y 0.000000 1.603230 0.000000 
#    z -0.009960 0.000000 1.632340 
# 
# From -- ./inp_files/59606.got.cif
#   From: 2010.05.17/outbox.cif.g08.bks.cpg/sg11_30_cif.got.tgz:59606.got - 2010.06.03 12:22:45.
