data_PCOD9162340
_publ_section_title
;
Structure prediction by ZEFSAII (Michael W. Deem and Ramdas Pophale) SiO2 
 PCOD9162340
Probable space group: P 21/M
;
_chemical_formula_sum "Si O2"
_cell_formula_units_Z 24
_cell_length_a 8.276309
_cell_length_b 7.766427
_cell_length_c 14.911329
_cell_angle_alpha 90.000000
_cell_angle_beta 102.820149
_cell_angle_gamma 90.000000
_cell_volume 934.567608
_symmetry_space_group_name_H-M "P 21/M"
_symmetry_group_IT_number 11
_symmetry_cell_setting 'monoclinic'
loop_
_space_group_symop_operation_xyz
x,y,z
-x,1/2+y,-z
-x,-y,-z
x,1/2-y,z
loop_
_atom_site_type_symbol
_atom_site_label
_atom_site_fract_x
_atom_site_fract_y
_atom_site_fract_z
Si Si1 0.139926 0.957321 0.944909
Si Si2 0.880728 0.057091 0.564035
Si Si3 0.762150 0.449589 0.226734
Si Si4 0.368303 0.050012 0.602633
Si Si5 0.269199 0.960156 0.283894
Si Si6 0.398811 0.959696 0.115019
O O1 0.147215 0.750000 0.938615
O O2 0.126976 0.024152 0.841209
O O3 0.311465 0.016318 0.012970
O O4 0.000000 0.000000 0.000000
O O5 0.928853 0.250000 0.589295
O O6 0.859441 0.970007 0.658307
O O7 0.704580 0.049160 0.490869
O O8 0.000000 0.000000 0.500000
O O9 0.800551 0.250000 0.246823
O O10 0.747228 0.533216 0.322616
O O11 0.576434 0.464772 0.161898
O O12 0.374102 0.250000 0.578818
O O13 0.548536 0.991376 0.656637
O O14 0.263478 0.750000 0.284121
O O15 0.273812 0.011021 0.180965
O O16 0.413669 0.750000 0.117744
#
# Coordination Sequence:
#
# PCOD9162340 Si02
#       6
#     4   4   4   4   4   4
#     4  10  22  36  53  79 113 147 181 218 264 319
#     4  11  22  36  53  79 113 146 178 220 269 322
#     4  10  20  35  55  83 111 138 176 225 271 316
#     4  10  20  37  59  81 103 138 183 225 270 322
#     4   8  17  34  57  80 104 135 177 222 266 315
#     4   9  18  36  58  80 104 138 181 222 264 320
#
# _framework density 25.680326000000001
#
# number of rings (size 3 to 8) (size 9 to 14) (size 15 to 20)
#    0.000    2.333    0.000    3.500    0.000    3.333 
#    0.000    9.167    0.000    0.000    0.000    0.000 
#    0.000    0.000    0.000    0.000    0.000    0.000 
#
# Total GULP energy -134170.737594 kJ/mol
# GULP energy per Si atom -5590.447400 kJ/mol
# Density = 2.562188 g / cm^3
# Si number density = 25.680326 Si / 1000 Ang^3
#
#
#
# Elastic Constant Matrix: (Units=GPa)
#
#
# Indices 1 2 3 4 5 6 
#
# 1 60.4045 3.6560 31.6650 0.0000 -19.4455 0.0000
# 2 3.6560 51.5792 1.6861 0.0000 0.3432 0.0000
# 3 31.6650 1.6861 171.2708 0.0000 -25.2536 0.0000
# 4 0.0000 0.0000 0.0000 18.2790 0.0000 0.1427
# 5 -19.4455 0.3432 -25.2536 0.0000 58.2447 0.0000
# 6 0.0000 0.0000 0.0000 0.1427 0.0000 26.1867
#
#
#
# Elastic Compliance Matrix: (Units=1/GPa)
#
#
# Indices 1 2 3 4 5 6 
#
# 1 0.019878 -0.001351 -0.002865 0.000000 0.005402 0.000000
# 2 -0.001351 0.019488 -0.000027 0.000000 -0.000578 0.000000
# 3 -0.002865 -0.000027 0.006653 0.000000 0.001928 0.000000
# 4 0.000000 0.000000 0.000000 0.054710 0.000000 -0.000298
# 5 0.005402 -0.000578 0.001928 0.000000 0.019812 0.000000
# 6 0.000000 0.000000 0.000000 -0.000298 0.000000 0.038189
#
#
# Mechanical properties :
#
#
# Convention : Reuss Voigt Hill
#
# Bulk Modulus (GPa) = 26.64418 39.69652 33.17035
# Shear Modulus (GPa) = 27.81984 36.95857 32.38921
#
# Velocity S-wave (km/s) = 3.29494 3.79777 3.55526
# Velocity P-wave (km/s) = 4.98732 5.89256 5.45874
#
# Compressibility (1/GPa) = 0.03753165
#
# Stress axis : x y z
#
# Youngs Moduli (GPa) = 50.30706 51.31319 150.30779
#
# Poissons Ratio (x) = 0.06934 0.43067
# Poissons Ratio (y) = 0.06798 0.00409
# Poissons Ratio (z) = 0.14414 0.00140
#
# Static dielectric constant tensor:
#      x y z
#    x 2.149840 0.000000 -0.069580 
#    y 0.000000 1.912500 0.000000 
#    z -0.069580 0.000000 2.048450 
# 
# From -- ./inp_files/20370.got.cif
#   From: 2010.05.17/outbox.cif.g08.bks.cpg/sg11_11_cif.got.tgz:20370.got - 2010.06.03 12:22:45.
