data_PCOD9162300
_publ_section_title
;
Structure prediction by ZEFSAII (Michael W. Deem and Ramdas Pophale) SiO2 
 PCOD9162300
Probable space group: P 21/M
;
_chemical_formula_sum "Si O2"
_cell_formula_units_Z 32
_cell_length_a 14.748672
_cell_length_b 12.743018
_cell_length_c 14.539120
_cell_angle_alpha 90.000000
_cell_angle_beta 38.450958
_cell_angle_gamma 90.000000
_cell_volume 1699.202585
_symmetry_space_group_name_H-M "P 21/M"
_symmetry_group_IT_number 11
_symmetry_cell_setting 'monoclinic'
loop_
_space_group_symop_operation_xyz
x,y,z
-x,1/2+y,-z
-x,-y,-z
x,1/2-y,z
loop_
_atom_site_type_symbol
_atom_site_label
_atom_site_fract_x
_atom_site_fract_y
_atom_site_fract_z
Si Si1 0.535440 0.873297 0.706618
Si Si2 0.911775 0.366136 0.326809
Si Si3 0.139941 0.628590 0.324693
Si Si4 0.233866 0.871267 0.042597
Si Si5 0.625768 0.961670 0.296229
Si Si6 0.087616 0.465015 0.022233
Si Si7 0.647188 0.137972 0.415081
Si Si8 0.838113 0.532150 0.535888
O O1 0.540096 0.750000 0.674168
O O2 0.694347 0.910259 0.613185
O O3 0.477397 0.955879 0.676758
O O4 0.406415 0.881930 0.884961
O O5 0.955290 0.250000 0.326003
O O6 0.743309 0.361844 0.429872
O O7 0.915578 0.457638 0.398194
O O8 0.998249 0.393380 0.164354
O O9 0.175812 0.750000 0.316619
O O10 0.196555 0.602762 0.177325
O O11 0.201096 0.546505 0.349935
O O12 0.964815 0.612084 0.465314
O O13 0.194870 0.750000 0.059978
O O14 0.142432 0.937499 0.041228
O O15 0.520606 0.877912 0.425808
O O16 0.692917 0.038036 0.319886
O O17 0.758593 0.915951 0.133022
O O18 0.000000 0.500000 0.000000
O O19 0.672387 0.250000 0.347304
#
# Coordination Sequence:
#
# PCOD9162300 Si02
#       8
#     4   4   4   4   4   4   4   4
#     4  10  20  35  57  84 113 147 187 233 283 334
#     4  11  22  37  56  81 116 152 189 231 284 339
#     4  10  21  38  61  85 113 146 187 235 285 340
#     4   9  20  38  59  84 114 149 189 234 282 333
#     4  10  20  35  56  79 113 149 192 240 275 332
#     4  11  21  36  56  82 116 152 193 229 279 332
#     4  10  20  35  55  79 111 150 190 232 284 335
#     4  11  21  37  60  87 112 147 188 235 286 338
#
# _framework density 18.832363000000001
#
# number of rings (size 3 to 8) (size 9 to 14) (size 15 to 20)
#    0.000    1.750    3.750    1.125    0.000    2.000 
#    0.000    0.000    0.000    0.000    0.000    0.000 
#    0.000    0.000    0.000    0.000    0.000    0.000 
#
# Total GULP energy -178329.991292 kJ/mol
# GULP energy per Si atom -5572.812228 kJ/mol
# Density = 1.878950 g / cm^3
# Si number density = 18.832363 Si / 1000 Ang^3
#
#
#
# Elastic Constant Matrix: (Units=GPa)
#
#
# Indices 1 2 3 4 5 6 
#
# 1 37.6274 4.4507 1.1249 0.0000 -3.6671 0.0000
# 2 4.4507 55.4648 15.3494 0.0000 -0.2765 0.0000
# 3 1.1249 15.3494 72.7033 0.0000 5.4009 0.0000
# 4 0.0000 0.0000 0.0000 18.5540 0.0000 2.5878
# 5 -3.6671 -0.2765 5.4009 0.0000 28.0752 0.0000
# 6 0.0000 0.0000 0.0000 2.5878 0.0000 16.4101
#
#
#
# Elastic Compliance Matrix: (Units=1/GPa)
#
#
# Indices 1 2 3 4 5 6 
#
# 1 0.027180 -0.002096 -0.000244 0.000000 0.003576 0.000000
# 2 -0.002096 0.019336 -0.004102 0.000000 0.000706 0.000000
# 3 -0.000244 -0.004102 0.014842 0.000000 -0.002927 0.000000
# 4 0.000000 0.000000 0.000000 0.055109 0.000000 -0.008690
# 5 0.003576 0.000706 -0.002927 0.000000 0.036656 0.000000
# 6 0.000000 0.000000 0.000000 -0.008690 0.000000 0.062309
#
#
# Mechanical properties :
#
#
# Convention : Reuss Voigt Hill
#
# Bulk Modulus (GPa) = 20.62935 23.07173 21.85054
# Shear Modulus (GPa) = 20.45209 22.26589 21.35899
#
# Velocity S-wave (km/s) = 3.29904 3.44222 3.37139
# Velocity P-wave (km/s) = 5.04871 5.29870 5.17522
#
# Compressibility (1/GPa) = 0.04847463
#
# Stress axis : x y z
#
# Youngs Moduli (GPa) = 36.79158 51.71585 67.37691
#
# Poissons Ratio (x) = 0.10838 0.01642
# Poissons Ratio (y) = 0.07711 0.27641
# Poissons Ratio (z) = 0.00897 0.21216
#
# Static dielectric constant tensor:
#      x y z
#    x 1.647470 0.000000 0.015990 
#    y 0.000000 1.654100 0.000000 
#    z 0.015990 0.000000 1.668970 
# 
# From -- ./inp_files/26560.got.cif
#   From: 2010.05.17/outbox.cif.g08.bks.cpg/sg11_14_cif.got.tgz:26560.got - 2010.06.03 12:22:45.
