data_PCOD9162364
_publ_section_title
;
Structure prediction by ZEFSAII (Michael W. Deem and Ramdas Pophale) SiO2 
 PCOD9162364
Probable space group: P 21/M
;
_chemical_formula_sum "Si O2"
_cell_formula_units_Z 32
_cell_length_a 15.205093
_cell_length_b 11.370016
_cell_length_c 7.338150
_cell_angle_alpha 90.000000
_cell_angle_beta 99.932812
_cell_angle_gamma 90.000000
_cell_volume 1249.619207
_symmetry_space_group_name_H-M "P 21/M"
_symmetry_group_IT_number 11
_symmetry_cell_setting 'monoclinic'
loop_
_space_group_symop_operation_xyz
x,y,z
-x,1/2+y,-z
-x,-y,-z
x,1/2-y,z
loop_
_atom_site_type_symbol
_atom_site_label
_atom_site_fract_x
_atom_site_fract_y
_atom_site_fract_z
Si Si1 0.616844 0.876925 0.279523
Si Si2 0.432647 0.621039 0.329517
Si Si3 0.398340 0.123979 0.124428
Si Si4 0.196962 0.125287 0.152010
Si Si5 0.047120 0.378023 0.785816
Si Si6 0.880946 0.121946 0.275673
Si Si7 0.158207 0.877538 0.164264
Si Si8 0.695346 0.377074 0.366965
O O1 0.663819 0.750000 0.317853
O O2 0.539554 0.883665 0.403462
O O3 0.673354 0.994225 0.282924
O O4 0.566592 0.874116 0.068158
O O5 0.417869 0.750000 0.234909
O O6 0.417444 0.500859 0.217469
O O7 0.365737 0.621967 0.475365
O O8 0.427191 0.250000 0.219276
O O9 0.290377 0.129219 0.079282
O O10 0.191068 0.250000 0.253951
O O11 0.198180 0.999653 0.250822
O O12 0.113731 0.121682 0.983664
O O13 0.061859 0.250000 0.699217
O O14 0.065612 0.500465 0.690295
O O15 0.945917 0.379228 0.820424
O O16 0.928543 0.250000 0.302233
O O17 0.802672 0.124376 0.395960
O O18 0.837649 0.118873 0.056128
O O19 0.196283 0.750000 0.232627
O O20 0.671518 0.250000 0.266908
#
# Coordination Sequence:
#
# PCOD9162364 Si02
#       8
#     4   4   4   4   4   4   4   4
#     4  10  20  35  56  79 101 129 170 218 264 308
#     4  10  22  38  53  73 103 138 174 212 257 308
#     4  10  21  35  52  76 103 134 175 216 256 306
#     4   9  16  26  41  63  93 125 156 194 240 289
#     4   9  16  26  42  68 101 129 156 199 250 296
#     4   9  16  26  41  63  93 126 157 190 234 289
#     4   9  16  25  41  69 100 128 159 197 247 300
#     4  10  21  35  52  77 106 135 171 212 255 308
#
# _framework density 25.607800999999998
#
# number of rings (size 3 to 8) (size 9 to 14) (size 15 to 20)
#    0.000    2.500    0.000    3.750    0.000    5.000 
#    0.000    0.000    0.000    0.000    0.000    3.500 
#    0.000    4.000    0.000    0.000    0.000    0.000 
#
# Total GULP energy -178484.462879 kJ/mol
# GULP energy per Si atom -5577.639465 kJ/mol
# Density = 2.554952 g / cm^3
# Si number density = 25.607801 Si / 1000 Ang^3
#
#
#
# Elastic Constant Matrix: (Units=GPa)
#
#
# Indices 1 2 3 4 5 6 
#
# 1 56.1395 41.0478 4.3719 0.0000 -17.5012 0.0000
# 2 41.0478 337.4781 55.5311 0.0000 -13.1278 0.0000
# 3 4.3719 55.5311 55.5864 0.0000 -12.5114 0.0000
# 4 0.0000 0.0000 0.0000 -12.6347 0.0000 9.4116
# 5 -17.5012 -13.1278 -12.5114 0.0000 26.9684 0.0000
# 6 0.0000 0.0000 0.0000 9.4116 0.0000 30.4834
#
#
#
# Elastic Compliance Matrix: (Units=1/GPa)
#
#
# Indices 1 2 3 4 5 6 
#
# 1 0.025100 -0.003227 0.005094 0.000000 0.017082 0.000000
# 2 -0.003227 0.003961 -0.004177 0.000000 -0.002104 0.000000
# 3 0.005094 -0.004177 0.024619 0.000000 0.012694 0.000000
# 4 0.000000 0.000000 0.000000 -0.064348 0.000000 0.019867
# 5 0.017082 -0.002104 0.012694 0.000000 0.053031 0.000000
# 6 0.000000 0.000000 0.000000 0.019867 0.000000 0.026671
#
#
# Mechanical properties :
#
#
# Convention : Reuss Voigt Hill
#
# Bulk Modulus (GPa) = 20.38243 72.34506 46.36374
# Shear Modulus (GPa) = 55.55100 32.18029 43.86565
#
# Velocity S-wave (km/s) = 4.66263 3.54879 4.14331
# Velocity P-wave (km/s) = 6.07976 6.71598 6.40577
#
# Compressibility (1/GPa) = 0.04906186
#
# Stress axis : x y z
#
# Youngs Moduli (GPa) = 39.83984 252.45606 40.61867
#
# Poissons Ratio (x) = 0.81461 -0.20692
# Poissons Ratio (y) = 0.12855 0.16966
# Poissons Ratio (z) = -0.20295 1.05447
#
# Static dielectric constant tensor:
#      x y z
#    x 1.968460 0.000000 0.028970 
#    y 0.000000 2.186120 0.000000 
#    z 0.028970 0.000000 2.061550 
# 
# From -- ./inp_files/21534.got.cif
#   From: 2010.05.17/outbox.cif.g08.bks.cpg/sg11_11_cif.got.tgz:21534.got - 2010.06.03 12:22:45.
