data_PCOD9162316
_publ_section_title
;
Structure prediction by ZEFSAII (Michael W. Deem and Ramdas Pophale) SiO2 
 PCOD9162316
Probable space group: P 21/M
;
_chemical_formula_sum "Si O2"
_cell_formula_units_Z 32
_cell_length_a 19.721150
_cell_length_b 14.684993
_cell_length_c 15.192443
_cell_angle_alpha 90.000000
_cell_angle_beta 22.452481
_cell_angle_gamma 90.000000
_cell_volume 1680.361277
_symmetry_space_group_name_H-M "P 21/M"
_symmetry_group_IT_number 11
_symmetry_cell_setting 'monoclinic'
loop_
_space_group_symop_operation_xyz
x,y,z
-x,1/2+y,-z
-x,-y,-z
x,1/2-y,z
loop_
_atom_site_type_symbol
_atom_site_label
_atom_site_fract_x
_atom_site_fract_y
_atom_site_fract_z
Si Si1 0.637756 0.480873 0.070470
Si Si2 0.378549 0.049833 0.717855
Si Si3 0.297634 0.642323 0.292860
Si Si4 0.254477 0.510975 0.505933
Si Si5 0.930295 0.466180 0.990582
Si Si6 0.305722 0.851158 0.609655
Si Si7 0.094438 0.857944 0.352374
Si Si8 0.691670 0.642470 0.875011
O O1 0.636346 0.490000 0.176488
O O2 0.438377 0.455691 0.278871
O O3 0.790281 0.414899 0.854150
O O4 0.667951 0.579519 0.989004
O O5 0.500000 0.000000 0.500000
O O6 0.487022 0.138902 0.613679
O O7 0.184686 0.049691 0.910121
O O8 0.273104 0.750000 0.344829
O O9 0.231680 0.573912 0.447820
O O10 0.189094 0.625104 0.333644
O O11 0.513186 0.627960 0.030560
O O12 0.278376 0.579915 0.560809
O O13 0.087735 0.449624 0.733294
O O14 0.805910 0.383121 0.170676
O O15 0.000000 0.500000 0.000000
O O16 0.258232 0.750000 0.640345
O O17 0.107323 0.750000 0.320216
O O18 0.884906 0.881933 0.604034
O O19 0.697187 0.750000 0.890231
#
# Coordination Sequence:
#
# PCOD9162316 Si02
#       8
#     4   4   4   4   4   4   4   4
#     4  10  20  35  55  81 107 143 182 222 276 330
#     4   9  19  35  55  76 104 139 176 222 268 327
#     4   9  18  33  53  78 110 143 180 229 276 319
#     4   9  18  31  53  78 109 140 177 223 273 328
#     4   9  18  34  53  77 109 140 176 221 276 331
#     4   9  17  33  55  77 106 141 179 226 277 325
#     4  10  21  37  54  78 114 148 186 230 270 326
#     4   9  19  35  55  80 111 144 184 232 277 323
#
# _framework density 19.043524000000001
#
# number of rings (size 3 to 8) (size 9 to 14) (size 15 to 20)
#    0.000    2.750    0.000    1.500    1.750    5.000 
#    2.250    6.250    0.000    0.000    0.000    0.000 
#    0.000    0.000    0.000    0.000    0.000    0.000 
#
# Total GULP energy -178183.671789 kJ/mol
# GULP energy per Si atom -5568.239743 kJ/mol
# Density = 1.900018 g / cm^3
# Si number density = 19.043524 Si / 1000 Ang^3
#
#
#
# Elastic Constant Matrix: (Units=GPa)
#
#
# Indices 1 2 3 4 5 6 
#
# 1 37.1285 0.2765 8.1668 0.0000 3.1202 0.0000
# 2 0.2765 20.5607 12.1774 0.0000 4.8821 0.0000
# 3 8.1668 12.1774 110.8482 0.0000 7.2639 0.0000
# 4 0.0000 0.0000 0.0000 16.7328 0.0000 -1.6076
# 5 3.1202 4.8821 7.2639 0.0000 26.2025 0.0000
# 6 0.0000 0.0000 0.0000 -1.6076 0.0000 11.7792
#
#
#
# Elastic Compliance Matrix: (Units=1/GPa)
#
#
# Indices 1 2 3 4 5 6 
#
# 1 0.027617 0.001533 -0.002005 0.000000 -0.003018 0.000000
# 2 0.001533 0.053922 -0.005466 0.000000 -0.008714 0.000000
# 3 -0.002005 -0.005466 0.009866 0.000000 -0.001478 0.000000
# 4 0.000000 0.000000 0.000000 0.060557 0.000000 0.008265
# 5 -0.003018 -0.008714 -0.001478 0.000000 0.040557 0.000000
# 6 0.000000 0.000000 0.000000 0.008265 0.000000 0.086024
#
#
# Mechanical properties :
#
#
# Convention : Reuss Voigt Hill
#
# Bulk Modulus (GPa) = 12.57394 23.30874 17.94134
# Shear Modulus (GPa) = 15.77644 20.80403 18.29023
#
# Velocity S-wave (km/s) = 2.88139 3.30880 3.10246
# Velocity P-wave (km/s) = 4.20558 5.18304 4.71968
#
# Compressibility (1/GPa) = 0.07952954
#
# Stress axis : x y z
#
# Youngs Moduli (GPa) = 36.20983 18.54527 101.35435
#
# Poissons Ratio (x) = -0.02843 0.20325
# Poissons Ratio (y) = -0.05551 0.55396
# Poissons Ratio (z) = 0.07261 0.10136
#
# Static dielectric constant tensor:
#      x y z
#    x 1.689110 0.000000 -0.033970 
#    y 0.000000 1.661490 0.000000 
#    z -0.033970 0.000000 1.739350 
# 
# From -- ./inp_files/55092.got.cif
#   From: 2010.05.17/outbox.cif.g08.bks.cpg/sg11_28_cif.got.tgz:55092.got - 2010.06.03 12:22:45.
