data_PCOD9162558
_publ_section_title
;
Structure prediction by ZEFSAII (Michael W. Deem and Ramdas Pophale) SiO2 
 PCOD9162558
Probable space group: P 21/M
;
_chemical_formula_sum "Si O2"
_cell_formula_units_Z 32
_cell_length_a 13.106037
_cell_length_b 8.861709
_cell_length_c 32.704412
_cell_angle_alpha 90.000000
_cell_angle_beta 26.548955
_cell_angle_gamma 90.000000
_cell_volume 1697.720207
_symmetry_space_group_name_H-M "P 21/M"
_symmetry_group_IT_number 11
_symmetry_cell_setting 'monoclinic'
loop_
_space_group_symop_operation_xyz
x,y,z
-x,1/2+y,-z
-x,-y,-z
x,1/2-y,z
loop_
_atom_site_type_symbol
_atom_site_label
_atom_site_fract_x
_atom_site_fract_y
_atom_site_fract_z
Si Si1 0.072215 0.932586 0.119368
Si Si2 0.130544 0.568755 0.414747
Si Si3 0.656885 0.569264 0.209368
Si Si4 0.259435 0.069979 0.597997
Si Si5 0.559369 0.930829 0.072390
Si Si6 0.066567 0.566540 0.215672
Si Si7 0.059538 0.075026 0.354624
Si Si8 0.603035 0.076190 0.143076
O O1 0.094191 0.750000 0.110743
O O2 0.064012 0.982111 0.169505
O O3 0.844462 0.972787 0.175733
O O4 0.282155 0.005380 0.020181
O O5 0.111493 0.750000 0.421364
O O6 0.401228 0.529697 0.316192
O O7 0.028238 0.498063 0.410192
O O8 0.000000 0.500000 0.500000
O O9 0.662321 0.750000 0.202103
O O10 0.702900 0.495937 0.148609
O O11 0.279072 0.250000 0.591750
O O12 0.152702 0.018115 0.679537
O O13 0.500000 0.000000 0.500000
O O14 0.077852 0.019093 0.629239
O O15 0.565422 0.750000 0.070772
O O16 0.299223 0.979686 0.155409
O O17 0.644116 0.992064 0.085725
O O18 0.066657 0.750000 0.215452
O O19 0.987221 0.250000 0.380208
O O20 0.328814 0.069836 0.248073
O O21 0.674308 0.250000 0.113962
#
# Coordination Sequence:
#
# PCOD9162558 Si02
#       8
#     4   4   4   4   4   4   4   4
#     4  10  21  39  59  83 114 153 195 237 287 348
#     4  10  20  35  57  85 114 151 194 239 291 353
#     4   9  20  37  57  81 115 154 191 235 294 352
#     4  11  22  38  59  87 119 154 193 240 293 350
#     4  11  21  36  59  87 115 151 194 238 292 350
#     4   9  20  38  60  83 116 156 193 236 290 349
#     4  10  20  36  57  82 111 147 191 242 292 342
#     4  10  20  35  59  85 111 147 192 241 286 339
#
# _framework density 18.848807999999998
#
# number of rings (size 3 to 8) (size 9 to 14) (size 15 to 20)
#    0.000    2.000    1.250    2.250    0.000    3.500 
#    0.000    4.375    0.000    0.000    0.000    0.000 
#    0.000    0.000    0.000    0.000    0.000    0.000 
#
# Total GULP energy -178697.866215 kJ/mol
# GULP energy per Si atom -5584.308319 kJ/mol
# Density = 1.880591 g / cm^3
# Si number density = 18.848808 Si / 1000 Ang^3
#
#
#
# Elastic Constant Matrix: (Units=GPa)
#
#
# Indices 1 2 3 4 5 6 
#
# 1 103.4082 28.4973 51.4540 0.0000 27.4062 0.0000
# 2 28.4973 48.7638 36.9536 0.0000 10.4831 0.0000
# 3 51.4540 36.9536 108.2850 0.0000 30.0753 0.0000
# 4 0.0000 0.0000 0.0000 29.5273 0.0000 4.9521
# 5 27.4062 10.4831 30.0753 0.0000 37.1369 0.0000
# 6 0.0000 0.0000 0.0000 4.9521 0.0000 25.4594
#
#
#
# Elastic Compliance Matrix: (Units=1/GPa)
#
#
# Indices 1 2 3 4 5 6 
#
# 1 0.014340 -0.004299 -0.003541 0.000000 -0.006501 0.000000
# 2 -0.004299 0.028950 -0.008320 0.000000 0.001738 0.000000
# 3 -0.003541 -0.008320 0.015971 0.000000 -0.007972 0.000000
# 4 0.000000 0.000000 0.000000 0.035009 0.000000 -0.006810
# 5 -0.006501 0.001738 -0.007972 0.000000 0.037691 0.000000
# 6 0.000000 0.000000 0.000000 -0.006810 0.000000 0.040603
#
#
# Mechanical properties :
#
#
# Convention : Reuss Voigt Hill
#
# Bulk Modulus (GPa) = 37.11721 54.91852 46.01787
# Shear Modulus (GPa) = 23.37925 27.99487 25.68706
#
# Velocity S-wave (km/s) = 3.52569 3.85805 3.69561
# Velocity P-wave (km/s) = 6.02568 7.00326 6.53278
#
# Compressibility (1/GPa) = 0.02694168
#
# Stress axis : x y z
#
# Youngs Moduli (GPa) = 69.73360 34.54179 62.61346
#
# Poissons Ratio (x) = 0.14850 0.22173
# Poissons Ratio (y) = 0.29979 0.52092
# Poissons Ratio (z) = 0.24695 0.28737
#
# Static dielectric constant tensor:
#      x y z
#    x 1.750890 0.000000 -0.013520 
#    y 0.000000 1.634560 0.000000 
#    z -0.013520 0.000000 1.649370 
# 
# From -- ./inp_files/73094.got.cif
#   From: 2010.05.17/outbox.cif.g08.bks.cpg/sg11_37_cif.got.tgz:73094.got - 2010.06.03 12:22:45.
