data_PCOD9162091
_publ_section_title
;
Structure prediction by ZEFSAII (Michael W. Deem and Ramdas Pophale) SiO2 
 PCOD9162091
Probable space group: P 21/M
;
_chemical_formula_sum "Si O2"
_cell_formula_units_Z 28
_cell_length_a 21.227328
_cell_length_b 9.009175
_cell_length_c 15.703289
_cell_angle_alpha 90.000000
_cell_angle_beta 27.344751
_cell_angle_gamma 90.000000
_cell_volume 1379.458136
_symmetry_space_group_name_H-M "P 21/M"
_symmetry_group_IT_number 11
_symmetry_cell_setting 'monoclinic'
loop_
_space_group_symop_operation_xyz
x,y,z
-x,1/2+y,-z
-x,-y,-z
x,1/2-y,z
loop_
_atom_site_type_symbol
_atom_site_label
_atom_site_fract_x
_atom_site_fract_y
_atom_site_fract_z
Si Si1 0.669610 0.576325 0.860024
Si Si2 0.641702 0.425397 0.730026
Si Si3 0.420437 0.569425 0.677290
Si Si4 0.122976 0.069805 0.080195
Si Si5 0.360225 0.081088 0.442562
Si Si6 0.918461 0.924404 0.675613
Si Si7 0.947200 0.921187 0.146945
O O1 0.665971 0.750000 0.842727
O O2 0.722865 0.492531 0.712386
O O3 0.762296 0.558120 0.831038
O O4 0.516487 0.527084 0.065560
O O5 0.652583 0.250000 0.720469
O O6 0.671545 0.483216 0.601240
O O7 0.500000 0.500000 0.500000
O O8 0.412517 0.750000 0.678200
O O9 0.515838 0.534999 0.645159
O O10 0.269576 0.500079 0.875158
O O11 0.132687 0.250000 0.066119
O O12 0.079910 0.024387 0.228459
O O13 0.007490 0.009918 0.154777
O O14 0.387978 0.250000 0.380337
O O15 0.216906 0.080205 0.663893
O O16 0.954702 0.750000 0.631660
O O17 0.000000 0.000000 0.500000
O O18 0.993160 0.750000 0.098332
O O19 0.000000 0.000000 0.000000
#
# Coordination Sequence:
#
# PCOD9162091 Si02
#       7
#     4   4   4   4   4   4   4
#     4   9  19  37  56  80 117 156 194 245 303 353
#     4  10  20  34  58  87 114 150 197 246 300 360
#     4  11  23  41  67  97 127 165 210 262 325 388
#     4  11  24  43  65  94 133 172 214 268 323 385
#     4  10  23  40  60  88 123 157 199 252 309 371
#     4  10  23  40  60  85 121 166 212 260 311 369
#     4  11  24  43  66  93 126 167 210 260 322 384
#
# _framework density 20.297826000000001
#
# number of rings (size 3 to 8) (size 9 to 14) (size 15 to 20)
#    0.000    1.714    0.000    3.429    2.000    6.857 
#    0.000    0.000    0.000    0.000    0.000    0.000 
#    0.000    0.000    0.000    0.000    0.000    0.000 
#
# Total GULP energy -156281.235045 kJ/mol
# GULP energy per Si atom -5581.472680 kJ/mol
# Density = 2.025163 g / cm^3
# Si number density = 20.297826 Si / 1000 Ang^3
#
#
#
# Elastic Constant Matrix: (Units=GPa)
#
#
# Indices 1 2 3 4 5 6 
#
# 1 80.7475 20.2130 9.3309 0.0000 11.2991 0.0000
# 2 20.2130 33.7107 17.7145 0.0000 3.7184 0.0000
# 3 9.3309 17.7145 60.3404 0.0000 6.2853 0.0000
# 4 0.0000 0.0000 0.0000 31.6598 0.0000 3.4020
# 5 11.2991 3.7184 6.2853 0.0000 35.3352 0.0000
# 6 0.0000 0.0000 0.0000 3.4020 0.0000 31.7920
#
#
#
# Elastic Compliance Matrix: (Units=1/GPa)
#
#
# Indices 1 2 3 4 5 6 
#
# 1 0.015116 -0.009000 0.000723 0.000000 -0.004015 0.000000
# 2 -0.009000 0.040559 -0.010566 0.000000 0.000489 0.000000
# 3 0.000723 -0.010566 0.019839 0.000000 -0.002648 0.000000
# 4 0.000000 0.000000 0.000000 0.031953 0.000000 -0.003419
# 5 -0.004015 0.000489 -0.002648 0.000000 0.030004 0.000000
# 6 0.000000 0.000000 0.000000 -0.003419 0.000000 0.031820
#
#
# Mechanical properties :
#
#
# Convention : Reuss Voigt Hill
#
# Bulk Modulus (GPa) = 26.43676 29.92393 28.18034
# Shear Modulus (GPa) = 22.76999 28.26008 25.51504
#
# Velocity S-wave (km/s) = 3.35295 3.73536 3.54931
# Velocity P-wave (km/s) = 5.29551 5.77740 5.54170
#
# Compressibility (1/GPa) = 0.03782612
#
# Stress axis : x y z
#
# Youngs Moduli (GPa) = 66.15700 24.65521 50.40648
#
# Poissons Ratio (x) = 0.22191 -0.03645
# Poissons Ratio (y) = 0.59544 0.53262
# Poissons Ratio (z) = -0.04784 0.26052
#
# Static dielectric constant tensor:
#      x y z
#    x 1.666250 0.000000 -0.067520 
#    y 0.000000 1.719590 0.000000 
#    z -0.067520 0.000000 1.678900 
# 
# From -- ./inp_files/54443.got.cif
#   From: 2010.05.17/outbox.cif.g08.bks.cpg/sg11_28_cif.got.tgz:54443.got - 2010.06.03 12:22:45.
