data_PCOD9162828
_publ_section_title
;
Structure prediction by ZEFSAII (Michael W. Deem and Ramdas Pophale) SiO2 
 PCOD9162828
Probable space group: P 21/M
;
_chemical_formula_sum "Si O2"
_cell_formula_units_Z 24
_cell_length_a 9.402759
_cell_length_b 13.785503
_cell_length_c 15.319523
_cell_angle_alpha 90.000000
_cell_angle_beta 140.022156
_cell_angle_gamma 90.000000
_cell_volume 1275.823039
_symmetry_space_group_name_H-M "P 21/M"
_symmetry_group_IT_number 11
_symmetry_cell_setting 'monoclinic'
loop_
_space_group_symop_operation_xyz
x,y,z
-x,1/2+y,-z
-x,-y,-z
x,1/2-y,z
loop_
_atom_site_type_symbol
_atom_site_label
_atom_site_fract_x
_atom_site_fract_y
_atom_site_fract_z
Si Si1 0.862063 0.860931 0.600550
Si Si2 0.744849 0.635751 0.167323
Si Si3 0.058108 0.507141 0.204095
Si Si4 0.715279 0.357608 0.978505
Si Si5 0.190450 0.526042 0.656783
Si Si6 0.474384 0.928714 0.287911
O O1 0.845968 0.750000 0.622490
O O2 0.855586 0.940315 0.674777
O O3 0.665452 0.882087 0.438485
O O4 0.099686 0.881473 0.665813
O O5 0.787585 0.750000 0.201831
O O6 0.477288 0.624938 0.039322
O O7 0.803719 0.565049 0.274931
O O8 0.896061 0.592689 0.161889
O O9 0.265202 0.546601 0.248372
O O10 0.903122 0.437069 0.074508
O O11 0.804220 0.250000 0.034036
O O12 0.601758 0.363991 0.829997
O O13 0.417035 0.523076 0.709011
O O14 0.000000 0.500000 0.500000
#
# Coordination Sequence:
#
# PCOD9162828 Si02
#       6
#     4   4   4   4   4   4
#     4  10  20  36  56  78 107 144 180 216 262 319
#     4   9  19  34  54  78 106 143 185 219 257 317
#     4  11  21  35  55  83 113 138 171 225 275 312
#     4  10  20  36  56  77 105 144 182 218 263 317
#     4   8  17  33  53  76 103 138 180 219 258 306
#     4  10  20  36  55  78 108 143 177 219 265 317
#
# _framework density 18.811385999999999
#
# number of rings (size 3 to 8) (size 9 to 14) (size 15 to 20)
#    0.000    2.333    0.000    2.500    0.000    5.333 
#    0.000    1.667    0.000    1.000    0.000    0.000 
#    0.000    0.000    0.000    0.000    0.000    0.000 
#
# Total GULP energy -133663.427492 kJ/mol
# GULP energy per Si atom -5569.309479 kJ/mol
# Density = 1.876857 g / cm^3
# Si number density = 18.811386 Si / 1000 Ang^3
#
#
#
# Elastic Constant Matrix: (Units=GPa)
#
#
# Indices 1 2 3 4 5 6 
#
# 1 64.2834 12.3577 -30.1034 0.0000 -9.8822 0.0000
# 2 12.3577 75.2848 8.9496 0.0000 7.1312 0.0000
# 3 -30.1034 8.9496 44.0499 0.0000 -15.8776 0.0000
# 4 0.0000 0.0000 0.0000 12.3457 0.0000 5.4191
# 5 -9.8822 7.1312 -15.8776 0.0000 6.5480 0.0000
# 6 0.0000 0.0000 0.0000 5.4191 0.0000 9.6726
#
#
#
# Elastic Compliance Matrix: (Units=1/GPa)
#
#
# Indices 1 2 3 4 5 6 
#
# 1 0.001115 0.005497 -0.015127 0.000000 -0.040983 0.000000
# 2 0.005497 0.009413 0.009045 0.000000 0.019977 0.000000
# 3 -0.015127 0.009045 -0.009945 0.000000 -0.056794 0.000000
# 4 0.000000 0.000000 0.000000 0.107416 0.000000 -0.060180
# 5 -0.040983 0.019977 -0.056794 0.000000 -0.068604 0.000000
# 6 0.000000 0.000000 0.000000 -0.060180 0.000000 0.137101
#
#
# Mechanical properties :
#
#
# Convention : Reuss Voigt Hill
#
# Bulk Modulus (GPa) = -1706.07889 18.44734 -843.81578
# Shear Modulus (GPa) = 28.17360 18.54088 23.35724
#
# Velocity S-wave (km/s) = 3.87420 3.14286 3.52753
# Velocity P-wave (km/s) = 29.81436 4.79561 20.80743
#
# Compressibility (1/GPa) = -0.00058614
#
# Stress axis : x y z
#
# Youngs Moduli (GPa) = 896.62245 106.23564 -100.55310
#
# Poissons Ratio (x) = -0.58400 -1.52105
# Poissons Ratio (y) = -4.92889 0.90950
# Poissons Ratio (z) = 13.56307 -0.96089
#
# Static dielectric constant tensor:
#      x y z
#    x 1.687190 0.000000 -0.007740 
#    y 0.000000 1.660470 0.000000 
#    z -0.007740 0.000000 1.665670 
# 
# From -- ./inp_files/31453.got.cif
#   From: 2010.05.17/outbox.cif.g08.bks.cpg/sg11_16_cif.got.tgz:31453.got - 2010.06.03 12:22:45.
