data_PCOD9162021
_publ_section_title
;
Structure prediction by ZEFSAII (Michael W. Deem and Ramdas Pophale) SiO2 
 PCOD9162021
Probable space group: P 21/M
;
_chemical_formula_sum "Si O2"
_cell_formula_units_Z 20
_cell_length_a 4.729999
_cell_length_b 22.478662
_cell_length_c 10.209236
_cell_angle_alpha 90.000000
_cell_angle_beta 54.001133
_cell_angle_gamma 90.000000
_cell_volume 878.190295
_symmetry_space_group_name_H-M "P 21/M"
_symmetry_group_IT_number 11
_symmetry_cell_setting 'monoclinic'
loop_
_space_group_symop_operation_xyz
x,y,z
-x,1/2+y,-z
-x,-y,-z
x,1/2-y,z
loop_
_atom_site_type_symbol
_atom_site_label
_atom_site_fract_x
_atom_site_fract_y
_atom_site_fract_z
Si Si1 0.126493 0.379433 0.052451
Si Si2 0.182053 0.250000 0.991242
Si Si3 0.500958 0.957362 0.873241
Si Si4 0.873187 0.121542 0.697991
Si Si5 0.024859 0.750000 0.241757
Si Si6 0.500194 0.456987 0.624111
O O1 0.199879 0.409805 0.172278
O O2 0.500000 0.500000 0.000000
O O3 0.009684 0.311089 0.084800
O O4 0.849784 0.420060 0.053514
O O5 0.584363 0.250000 0.927158
O O6 0.209613 0.250000 0.824835
O O7 0.497638 0.121176 0.874389
O O8 0.532406 0.998915 0.738994
O O9 0.007511 0.189204 0.668506
O O10 0.797485 0.091886 0.577603
O O11 0.147807 0.080807 0.700293
O O12 0.500000 0.500000 0.500000
#
# Coordination Sequence:
#
# PCOD9162021 Si02
#       6
#     4   2   4   4   2   4
#     4  11  22  37  61  93 122 155 202 254 311 361
#     4  10  20  34  56  91 128 149 189 260 318 356
#     4  12  24  36  62  88 123 160 198 250 302 365
#     4  11  22  39  63  90 124 155 206 257 303 367
#     4  10  20  34  60  91 118 155 197 256 312 344
#     4  12  26  41  59  87 129 168 202 250 306 363
#
# _framework density 22.774107999999998
#
# number of rings (size 3 to 8) (size 9 to 14) (size 15 to 20)
#    0.000    0.800    2.000    8.400    0.000    0.000 
#    0.000    0.000    0.000    7.200    0.000    0.000 
#    0.000    0.000    0.000    0.000    0.000    0.000 
#
# Total GULP energy -111843.714268 kJ/mol
# GULP energy per Si atom -5592.185713 kJ/mol
# Density = 2.272227 g / cm^3
# Si number density = 22.774108 Si / 1000 Ang^3
#
#
#
# Elastic Constant Matrix: (Units=GPa)
#
#
# Indices 1 2 3 4 5 6 
#
# 1 148.7859 74.8730 31.3592 0.0000 38.2008 0.0000
# 2 74.8730 242.0478 63.3305 0.0000 31.5571 0.0000
# 3 31.3592 63.3305 67.7719 0.0000 42.1568 0.0000
# 4 0.0000 0.0000 0.0000 18.6369 0.0000 3.7237
# 5 38.2008 31.5571 42.1568 0.0000 36.1688 0.0000
# 6 0.0000 0.0000 0.0000 3.7237 0.0000 38.3629
#
#
#
# Elastic Compliance Matrix: (Units=1/GPa)
#
#
# Indices 1 2 3 4 5 6 
#
# 1 0.012729 -0.004344 0.015182 0.000000 -0.027349 0.000000
# 2 -0.004344 0.007142 -0.013244 0.000000 0.013793 0.000000
# 3 0.015182 -0.013244 0.083253 0.000000 -0.101515 0.000000
# 4 0.000000 0.000000 0.000000 0.054718 0.000000 -0.005311
# 5 -0.027349 0.013793 -0.101515 0.000000 0.162821 0.000000
# 6 0.000000 0.000000 0.000000 -0.005311 0.000000 0.026582
#
#
# Mechanical properties :
#
#
# Convention : Reuss Voigt Hill
#
# Bulk Modulus (GPa) = 10.17173 88.63678 49.40426
# Shear Modulus (GPa) = 12.99281 37.90326 25.44804
#
# Velocity S-wave (km/s) = 2.39112 4.08403 3.34640
# Velocity P-wave (km/s) = 3.47841 7.82582 6.05569
#
# Compressibility (1/GPa) = 0.09831166
#
# Stress axis : x y z
#
# Youngs Moduli (GPa) = 78.55924 140.01589 12.01163
#
# Poissons Ratio (x) = 0.60824 -0.18236
# Poissons Ratio (y) = 0.34127 0.15908
# Poissons Ratio (z) = -1.19266 1.85433
#
# Static dielectric constant tensor:
#      x y z
#    x 1.866490 0.000000 -0.044220 
#    y 0.000000 1.913340 0.000000 
#    z -0.044220 0.000000 1.905650 
# 
# From -- ./inp_files/29713.got.cif
#   From: 2010.05.17/outbox.cif.g08.bks.cpg/sg11_15_cif.got.tgz:29713.got - 2010.06.03 12:22:45.
