data_PCOD9162826
_publ_section_title
;
Structure prediction by ZEFSAII (Michael W. Deem and Ramdas Pophale) SiO2 
 PCOD9162826
Probable space group: P 21/M
;
_chemical_formula_sum "Si O2"
_cell_formula_units_Z 32
_cell_length_a 14.796438
_cell_length_b 7.716658
_cell_length_c 14.979458
_cell_angle_alpha 90.000000
_cell_angle_beta 53.299915
_cell_angle_gamma 90.000000
_cell_volume 1371.307687
_symmetry_space_group_name_H-M "P 21/M"
_symmetry_group_IT_number 11
_symmetry_cell_setting 'monoclinic'
loop_
_space_group_symop_operation_xyz
x,y,z
-x,1/2+y,-z
-x,-y,-z
x,1/2-y,z
loop_
_atom_site_type_symbol
_atom_site_label
_atom_site_fract_x
_atom_site_fract_y
_atom_site_fract_z
Si Si1 0.702143 0.044282 0.063008
Si Si2 0.197879 0.556943 0.815676
Si Si3 0.038517 0.041586 0.377256
Si Si4 0.147851 0.540969 0.652508
Si Si5 0.571858 0.558757 0.374514
Si Si6 0.550585 0.542090 0.832299
Si Si7 0.362941 0.046583 0.403196
Si Si8 0.736097 0.960239 0.846748
O O1 0.691952 0.250000 0.088262
O O2 0.777053 0.972933 0.101772
O O3 0.573705 0.975616 0.122172
O O4 0.758908 0.016807 0.934110
O O5 0.149054 0.750000 0.858282
O O6 0.141791 0.476870 0.759215
O O7 0.326891 0.566820 0.705260
O O8 0.038818 0.250000 0.370824
O O9 0.162310 0.980722 0.276516
O O10 0.950549 0.977196 0.354542
O O11 0.000000 0.000000 0.500000
O O12 0.142561 0.750000 0.662760
O O13 0.262595 0.501461 0.529359
O O14 0.500000 0.500000 0.500000
O O15 0.619509 0.750000 0.358664
O O16 0.476531 0.555406 0.356962
O O17 0.535454 0.750000 0.850568
O O18 0.644670 0.519738 0.698209
O O19 0.615073 0.474912 0.881777
O O20 0.385928 0.250000 0.403651
O O21 0.732647 0.750000 0.847521
#
# Coordination Sequence:
#
# PCOD9162826 Si02
#       8
#     4   4   4   4   4   4   4   4
#     4  10  20  36  56  80 111 148 190 234 283 340
#     4  10  20  36  55  77 112 152 190 235 285 336
#     4  10  22  41  63  87 114 145 187 236 289 343
#     4  10  21  36  56  82 112 149 192 237 286 342
#     4  12  22  32  49  77 115 156 194 231 278 336
#     4   9  18  33  54  80 112 149 187 227 283 343
#     4  11  20  33  54  82 116 152 189 234 285 341
#     4  10  21  38  58  81 111 147 187 237 289 337
#
# _framework density 23.33539
#
# number of rings (size 3 to 8) (size 9 to 14) (size 15 to 20)
#    0.000    1.750    2.500    2.625    0.000    2.500 
#    0.000    1.875    0.000    0.000    0.000    0.000 
#    0.000    0.000    0.000    0.000    0.000    0.000 
#
# Total GULP energy -178445.179333 kJ/mol
# GULP energy per Si atom -5576.411854 kJ/mol
# Density = 2.328228 g / cm^3
# Si number density = 23.335390 Si / 1000 Ang^3
#
#
#
# Elastic Constant Matrix: (Units=GPa)
#
#
# Indices 1 2 3 4 5 6 
#
# 1 139.9712 5.3759 47.4368 0.0000 31.5088 0.0000
# 2 5.3759 54.2425 -1.3293 0.0000 7.9344 0.0000
# 3 47.4368 -1.3293 122.2011 0.0000 27.4132 0.0000
# 4 0.0000 0.0000 0.0000 21.4141 0.0000 6.8757
# 5 31.5088 7.9344 27.4132 0.0000 37.4312 0.0000
# 6 0.0000 0.0000 0.0000 6.8757 0.0000 1.3529
#
#
#
# Elastic Compliance Matrix: (Units=1/GPa)
#
#
# Indices 1 2 3 4 5 6 
#
# 1 0.009291 -0.000071 -0.002221 0.000000 -0.006179 0.000000
# 2 -0.000071 0.019209 0.001360 0.000000 -0.005008 0.000000
# 3 -0.002221 0.001360 0.010417 0.000000 -0.006047 0.000000
# 4 0.000000 0.000000 0.000000 -0.073914 0.000000 0.375642
# 5 -0.006179 -0.005008 -0.006047 0.000000 0.037407 0.000000
# 6 0.000000 0.000000 0.000000 0.375642 0.000000 -1.169924
#
#
# Mechanical properties :
#
#
# Convention : Reuss Voigt Hill
#
# Bulk Modulus (GPa) = 26.98976 46.59795 36.79386
# Shear Modulus (GPa) = -4.33539 29.70174 12.68318
#
# Velocity S-wave (km/s) = -1.36451 3.57153 2.33387
# Velocity P-wave (km/s) = 3.01805 6.08440 4.80253
#
# Compressibility (1/GPa) = 0.03705109
#
# Stress axis : x y z
#
# Youngs Moduli (GPa) = 107.63363 52.05988 95.99793
#
# Poissons Ratio (x) = 0.00372 0.21323
# Poissons Ratio (y) = 0.00769 -0.13056
# Poissons Ratio (z) = 0.23908 -0.07080
#
# Static dielectric constant tensor:
#      x y z
#    x 2.039470 0.000000 0.095760 
#    y 0.000000 1.884980 0.000000 
#    z 0.095760 0.000000 1.915980 
# 
# From -- ./inp_files/51623.got.cif
#   From: 2010.05.17/outbox.cif.g08.bks.cpg/sg11_26_cif.got.tgz:51623.got - 2010.06.03 12:22:45.
