data_PCOD9162392
_publ_section_title
;
Structure prediction by ZEFSAII (Michael W. Deem and Ramdas Pophale) SiO2 
 PCOD9162392
Probable space group: P 21/M
;
_chemical_formula_sum "Si O2"
_cell_formula_units_Z 32
_cell_length_a 32.380480
_cell_length_b 8.014769
_cell_length_c 12.475655
_cell_angle_alpha 90.000000
_cell_angle_beta 29.689592
_cell_angle_gamma 90.000000
_cell_volume 1603.639479
_symmetry_space_group_name_H-M "P 21/M"
_symmetry_group_IT_number 11
_symmetry_cell_setting 'monoclinic'
loop_
_space_group_symop_operation_xyz
x,y,z
-x,1/2+y,-z
-x,-y,-z
x,1/2-y,z
loop_
_atom_site_type_symbol
_atom_site_label
_atom_site_fract_x
_atom_site_fract_y
_atom_site_fract_z
Si Si1 0.722439 0.552440 0.712826
Si Si2 0.790264 0.547323 0.333632
Si Si3 0.246149 0.450087 0.816139
Si Si4 0.423344 0.047613 0.811899
Si Si5 0.390343 0.450477 0.646357
Si Si6 0.904040 0.449609 0.703035
Si Si7 0.981232 0.052829 0.920527
Si Si8 0.137698 0.944832 0.437435
O O1 0.710228 0.750000 0.725381
O O2 0.749974 0.483988 0.535268
O O3 0.796402 0.529608 0.632134
O O4 0.638166 0.485377 0.956780
O O5 0.789556 0.750000 0.337849
O O6 0.746639 0.490194 0.322368
O O7 0.886134 0.492461 0.112073
O O8 0.254951 0.250000 0.793565
O O9 0.316052 0.517106 0.739958
O O10 0.155302 0.489389 0.068350
O O11 0.421591 0.250000 0.815277
O O12 0.390154 0.989107 0.770013
O O13 0.518866 0.992908 0.605100
O O14 0.382716 0.250000 0.668117
O O15 0.901111 0.250000 0.706705
O O16 0.867442 0.513297 0.671789
O O17 0.000000 0.500000 0.500000
O O18 0.994153 0.250000 0.880529
O O19 0.046445 0.964136 0.695292
O O20 0.000000 0.000000 0.000000
O O21 0.159801 0.750000 0.383275
#
# Coordination Sequence:
#
# PCOD9162392 Si02
#       8
#     4   4   4   4   4   4   4   4
#     4  10  20  35  56  81 109 143 182 227 280 330
#     4  10  21  37  56  80 110 146 188 232 277 326
#     4  10  21  38  59  81 111 149 189 230 275 334
#     4   9  18  33  55  82 109 138 179 228 278 335
#     4   9  18  34  56  81 108 142 180 223 280 335
#     4  11  24  39  56  81 112 146 185 230 278 329
#     4  12  23  36  55  79 109 146 187 229 273 324
#     4  11  23  37  55  81 111 142 183 232 280 329
#
# _framework density 19.954608
#
# number of rings (size 3 to 8) (size 9 to 14) (size 15 to 20)
#    0.000    1.750    1.250    3.375    0.000    7.500 
#    0.000    3.125    0.000    0.000    0.000    0.000 
#    0.000    0.000    0.000    0.000    0.000    0.000 
#
# Total GULP energy -178779.550652 kJ/mol
# GULP energy per Si atom -5586.860958 kJ/mol
# Density = 1.990919 g / cm^3
# Si number density = 19.954608 Si / 1000 Ang^3
#
#
#
# Elastic Constant Matrix: (Units=GPa)
#
#
# Indices 1 2 3 4 5 6 
#
# 1 112.0952 1.1580 41.8258 0.0000 2.4562 0.0000
# 2 1.1580 14.4550 -14.8089 0.0000 0.7746 0.0000
# 3 41.8258 -14.8089 98.9834 0.0000 7.4138 0.0000
# 4 0.0000 0.0000 0.0000 23.9671 0.0000 -3.7797
# 5 2.4562 0.7746 7.4138 0.0000 32.8352 0.0000
# 6 0.0000 0.0000 0.0000 -3.7797 0.0000 18.0194
#
#
#
# Elastic Compliance Matrix: (Units=1/GPa)
#
#
# Indices 1 2 3 4 5 6 
#
# 1 0.011133 -0.006842 -0.005775 0.000000 0.000633 0.000000
# 2 -0.006842 0.086649 0.016244 0.000000 -0.005200 0.000000
# 3 -0.005775 0.016244 0.015227 0.000000 -0.003389 0.000000
# 4 0.000000 0.000000 0.000000 0.043151 0.000000 0.009051
# 5 0.000633 -0.005200 -0.003389 0.000000 0.031296 0.000000
# 6 0.000000 0.000000 0.000000 0.009051 0.000000 0.057394
#
#
# Mechanical properties :
#
#
# Convention : Reuss Voigt Hill
#
# Bulk Modulus (GPa) = 8.31514 31.32037 19.81776
# Shear Modulus (GPa) = 18.00603 28.12157 23.06380
#
# Velocity S-wave (km/s) = 3.00717 3.75811 3.40341
# Velocity P-wave (km/s) = 4.02908 5.87886 5.03957
#
# Compressibility (1/GPa) = 0.12026249
#
# Stress axis : x y z
#
# Youngs Moduli (GPa) = 89.82538 11.54079 65.67187
#
# Poissons Ratio (x) = 0.07897 0.37927
# Poissons Ratio (y) = 0.61462 -1.06679
# Poissons Ratio (z) = 0.51876 -0.18747
#
# Static dielectric constant tensor:
#      x y z
#    x 1.716320 0.000000 0.021030 
#    y 0.000000 1.704710 0.000000 
#    z 0.021030 0.000000 1.692350 
# 
# From -- ./inp_files/45188.got.cif
#   From: 2010.05.17/outbox.cif.g08.bks.cpg/sg11_23_cif.got.tgz:45188.got - 2010.06.03 12:22:45.
