data_PCOD9162423
_publ_section_title
;
Structure prediction by ZEFSAII (Michael W. Deem and Ramdas Pophale) SiO2 
 PCOD9162423
Probable space group: P 21/M
;
_chemical_formula_sum "Si O2"
_cell_formula_units_Z 32
_cell_length_a 31.388678
_cell_length_b 8.739309
_cell_length_c 12.157423
_cell_angle_alpha 90.000000
_cell_angle_beta 30.225069
_cell_angle_gamma 90.000000
_cell_volume 1678.816298
_symmetry_space_group_name_H-M "P 21/M"
_symmetry_group_IT_number 11
_symmetry_cell_setting 'monoclinic'
loop_
_space_group_symop_operation_xyz
x,y,z
-x,1/2+y,-z
-x,-y,-z
x,1/2-y,z
loop_
_atom_site_type_symbol
_atom_site_label
_atom_site_fract_x
_atom_site_fract_y
_atom_site_fract_z
Si Si1 0.722605 0.933681 0.139245
Si Si2 0.780695 0.066611 0.777740
Si Si3 0.888504 0.567752 0.145122
Si Si4 0.405773 0.431787 0.208174
Si Si5 0.472602 0.066009 0.444023
Si Si6 0.258427 0.568374 0.674125
Si Si7 0.370595 0.934133 0.055275
Si Si8 0.070018 0.432930 0.695456
O O1 0.727861 0.750000 0.128841
O O2 0.623474 0.979863 0.364682
O O3 0.763798 0.002310 0.156597
O O4 0.760170 0.997252 0.942306
O O5 0.785602 0.250000 0.774320
O O6 0.866195 0.998607 0.536567
O O7 0.704257 0.029606 0.863285
O O8 0.879655 0.750000 0.150972
O O9 0.812556 0.483374 0.254042
O O10 0.891847 0.533957 0.268137
O O11 0.978230 0.510888 0.897510
O O12 0.409964 0.250000 0.208789
O O13 0.347054 0.497942 0.435249
O O14 0.500000 0.500000 0.000000
O O15 0.363861 0.481355 0.186021
O O16 0.475452 0.250000 0.444021
O O17 0.540705 0.020997 0.199988
O O18 0.500000 0.000000 0.500000
O O19 0.264774 0.750000 0.663650
O O20 0.370601 0.750000 0.073751
O O21 0.061223 0.250000 0.704952
#
# Coordination Sequence:
#
# PCOD9162423 Si02
#       8
#     4   4   4   4   4   4   4   4
#     4  11  23  39  60  86 120 162 206 252 300 357
#     4  11  22  37  59  88 122 159 200 248 301 355
#     4  10  21  40  66  95 124 157 198 244 298 360
#     4  12  25  41  61  87 120 159 203 251 302 356
#     4  10  20  35  56  82 114 154 198 246 294 347
#     4  12  25  42  64  89 121 162 204 247 300 361
#     4  10  21  37  58  86 120 157 200 250 302 358
#     4  10  21  38  63  94 126 157 195 245 301 359
#
# _framework density 19.061049000000001
#
# number of rings (size 3 to 8) (size 9 to 14) (size 15 to 20)
#    0.000    1.250    1.250    5.250    0.000    6.500 
#    0.000    0.625    0.000    0.000    0.000    0.000 
#    0.000    0.000    0.000    0.000    0.000    0.000 
#
# Total GULP energy -179011.675809 kJ/mol
# GULP energy per Si atom -5594.114869 kJ/mol
# Density = 1.901767 g / cm^3
# Si number density = 19.061049 Si / 1000 Ang^3
#
#
#
# Elastic Constant Matrix: (Units=GPa)
#
#
# Indices 1 2 3 4 5 6 
#
# 1 75.5840 39.6469 34.0489 0.0000 13.1054 0.0000
# 2 39.6469 81.3313 37.0202 0.0000 9.9138 0.0000
# 3 34.0489 37.0202 115.2037 0.0000 18.6153 0.0000
# 4 0.0000 0.0000 0.0000 30.6341 0.0000 2.6181
# 5 13.1054 9.9138 18.6153 0.0000 27.3456 0.0000
# 6 0.0000 0.0000 0.0000 2.6181 0.0000 34.5564
#
#
#
# Elastic Compliance Matrix: (Units=1/GPa)
#
#
# Indices 1 2 3 4 5 6 
#
# 1 0.019168 -0.007655 -0.002437 0.000000 -0.004752 0.000000
# 2 -0.007655 0.017592 -0.003318 0.000000 -0.000450 0.000000
# 3 -0.002437 -0.003318 0.011330 0.000000 -0.005342 0.000000
# 4 0.000000 0.000000 0.000000 0.032856 0.000000 -0.002489
# 5 -0.004752 -0.000450 -0.005342 0.000000 0.042646 0.000000
# 6 0.000000 0.000000 0.000000 -0.002489 0.000000 0.029127
#
#
# Mechanical properties :
#
#
# Convention : Reuss Voigt Hill
#
# Bulk Modulus (GPa) = 47.01640 54.83898 50.92769
# Shear Modulus (GPa) = 26.79113 29.26740 28.02926
#
# Velocity S-wave (km/s) = 3.75312 3.92274 3.83887
# Velocity P-wave (km/s) = 6.59553 7.02494 6.81362
#
# Compressibility (1/GPa) = 0.02126917
#
# Stress axis : x y z
#
# Youngs Moduli (GPa) = 52.17151 56.84344 88.26125
#
# Poissons Ratio (x) = 0.43514 0.21512
# Poissons Ratio (y) = 0.39938 0.29284
# Poissons Ratio (z) = 0.12716 0.18860
#
# Static dielectric constant tensor:
#      x y z
#    x 1.653400 0.000000 -0.003990 
#    y 0.000000 1.629940 0.000000 
#    z -0.003990 0.000000 1.648980 
# 
# From -- ./inp_files/45157.got.cif
#   From: 2010.05.17/outbox.cif.g08.bks.cpg/sg11_23_cif.got.tgz:45157.got - 2010.06.03 12:22:45.
