data_PCOD9162281
_publ_section_title
;
Structure prediction by ZEFSAII (Michael W. Deem and Ramdas Pophale) SiO2 
 PCOD9162281
Probable space group: P 21/M
;
_chemical_formula_sum "Si O2"
_cell_formula_units_Z 28
_cell_length_a 9.763936
_cell_length_b 8.783681
_cell_length_c 26.624443
_cell_angle_alpha 90.000000
_cell_angle_beta 140.183008
_cell_angle_gamma 90.000000
_cell_volume 1462.146734
_symmetry_space_group_name_H-M "P 21/M"
_symmetry_group_IT_number 11
_symmetry_cell_setting 'monoclinic'
loop_
_space_group_symop_operation_xyz
x,y,z
-x,1/2+y,-z
-x,-y,-z
x,1/2-y,z
loop_
_atom_site_type_symbol
_atom_site_label
_atom_site_fract_x
_atom_site_fract_y
_atom_site_fract_z
Si Si1 0.789334 0.068715 0.416160
Si Si2 0.807741 0.070009 0.831452
Si Si3 0.861139 0.429756 0.005431
Si Si4 0.552469 0.431443 0.069115
Si Si5 0.665512 0.568715 0.273689
Si Si6 0.322135 0.067310 0.310684
Si Si7 0.094489 0.567487 0.754007
O O1 0.809735 0.250000 0.419192
O O2 0.573413 0.033631 0.387196
O O3 0.749271 0.005464 0.348878
O O4 0.000000 0.000000 0.500000
O O5 0.855750 0.250000 0.849550
O O6 0.589468 0.036196 0.800928
O O7 0.752601 0.024106 0.759362
O O8 0.002407 0.970680 0.906628
O O9 0.835191 0.250000 0.992059
O O10 0.633874 0.510147 0.946696
O O11 0.000000 0.500000 0.000000
O O12 0.546692 0.250000 0.062965
O O13 0.774910 0.475116 0.158497
O O14 0.500000 0.500000 0.000000
O O15 0.686710 0.750000 0.283711
O O16 0.794838 0.509257 0.262373
O O17 0.303214 0.250000 0.295522
O O18 0.154922 0.030769 0.307580
O O19 0.114830 0.750000 0.753958
#
# Coordination Sequence:
#
# PCOD9162281 Si02
#       7
#     4   4   4   4   4   4   4
#     4  10  20  37  62  88 116 146 179 221 269 326
#     4  10  20  35  55  79 106 139 184 233 279 334
#     4  12  24  37  53  75 106 144 189 240 289 337
#     4  11  23  38  57  82 113 151 193 239 290 343
#     4  10  21  36  57  85 114 145 183 227 278 333
#     4   9  19  36  58  83 110 143 180 221 271 327
#     4  10  21  37  56  80 111 146 186 229 277 332
#
# _framework density 19.149923000000001
#
# number of rings (size 3 to 8) (size 9 to 14) (size 15 to 20)
#    0.000    1.714    0.000    4.714    0.000    7.429 
#    0.000    0.714    0.000    0.000    0.000    0.000 
#    0.000    0.000    0.000    0.000    0.000    0.000 
#
# Total GULP energy -156441.572506 kJ/mol
# GULP energy per Si atom -5587.199018 kJ/mol
# Density = 1.910634 g / cm^3
# Si number density = 19.149923 Si / 1000 Ang^3
#
#
#
# Elastic Constant Matrix: (Units=GPa)
#
#
# Indices 1 2 3 4 5 6 
#
# 1 110.5160 29.2999 24.1005 0.0000 22.6351 0.0000
# 2 29.2999 46.0995 30.8399 0.0000 11.6786 0.0000
# 3 24.1005 30.8399 85.6190 0.0000 21.0895 0.0000
# 4 0.0000 0.0000 0.0000 31.6264 0.0000 -3.3916
# 5 22.6351 11.6786 21.0895 0.0000 25.8062 0.0000
# 6 0.0000 0.0000 0.0000 -3.3916 0.0000 33.0965
#
#
#
# Elastic Compliance Matrix: (Units=1/GPa)
#
#
# Indices 1 2 3 4 5 6 
#
# 1 0.012280 -0.006219 0.000931 0.000000 -0.008717 0.000000
# 2 -0.006219 0.032404 -0.009582 0.000000 -0.001379 0.000000
# 3 0.000931 -0.009582 0.017531 0.000000 -0.010807 0.000000
# 4 0.000000 0.000000 0.000000 0.031970 0.000000 0.003276
# 5 -0.008717 -0.001379 -0.010807 0.000000 0.055852 0.000000
# 6 0.000000 0.000000 0.000000 0.003276 0.000000 0.030550
#
#
# Mechanical properties :
#
#
# Convention : Reuss Voigt Hill
#
# Bulk Modulus (GPa) = 30.79316 45.63501 38.21408
# Shear Modulus (GPa) = 22.60884 28.63877 25.62381
#
# Velocity S-wave (km/s) = 3.43975 3.87137 3.66192
# Velocity P-wave (km/s) = 5.64719 6.62310 6.15452
#
# Compressibility (1/GPa) = 0.03247475
#
# Stress axis : x y z
#
# Youngs Moduli (GPa) = 81.43595 30.86011 57.04217
#
# Poissons Ratio (x) = 0.19192 -0.05309
# Poissons Ratio (y) = 0.50645 0.54656
# Poissons Ratio (z) = -0.07579 0.29569
#
# Static dielectric constant tensor:
#      x y z
#    x 1.676730 0.000000 0.014320 
#    y 0.000000 1.637930 0.000000 
#    z 0.014320 0.000000 1.670110 
# 
# From -- ./inp_files/28344.got.cif
#   From: 2010.05.17/outbox.cif.g08.bks.cpg/sg11_15_cif.got.tgz:28344.got - 2010.06.03 12:22:45.
