data_PCOD9162765
_publ_section_title
;
Structure prediction by ZEFSAII (Michael W. Deem and Ramdas Pophale) SiO2 
 PCOD9162765
Probable space group: P 21/M
;
_chemical_formula_sum "Si O2"
_cell_formula_units_Z 28
_cell_length_a 8.047147
_cell_length_b 14.097151
_cell_length_c 11.535657
_cell_angle_alpha 90.000000
_cell_angle_beta 82.143981
_cell_angle_gamma 90.000000
_cell_volume 1296.344348
_symmetry_space_group_name_H-M "P 21/M"
_symmetry_group_IT_number 11
_symmetry_cell_setting 'monoclinic'
loop_
_space_group_symop_operation_xyz
x,y,z
-x,1/2+y,-z
-x,-y,-z
x,1/2-y,z
loop_
_atom_site_type_symbol
_atom_site_label
_atom_site_fract_x
_atom_site_fract_y
_atom_site_fract_z
Si Si1 0.918913 0.644609 0.290931
Si Si2 0.286848 0.641387 0.374890
Si Si3 0.623361 0.138310 0.067615
Si Si4 0.458082 0.542446 0.152012
Si Si5 0.189711 0.137000 0.946999
Si Si6 0.966788 0.361702 0.178833
Si Si7 0.132606 0.968358 0.584614
O O1 0.848175 0.750000 0.312262
O O2 0.930356 0.625556 0.152974
O O3 0.805535 0.565398 0.362798
O O4 0.102006 0.642854 0.331968
O O5 0.346849 0.750000 0.371797
O O6 0.397802 0.575788 0.282081
O O7 0.262820 0.597859 0.505022
O O8 0.581548 0.250000 0.062891
O O9 0.787524 0.129211 0.131513
O O10 0.479423 0.070458 0.135124
O O11 0.651709 0.093616 0.937425
O O12 0.641623 0.584320 0.104538
O O13 0.221179 0.250000 0.955768
O O14 0.103161 0.103339 0.073009
O O15 0.995734 0.250000 0.196150
O O16 0.958577 0.414545 0.301426
O O17 0.000000 0.000000 0.500000
#
# Coordination Sequence:
#
# PCOD9162765 Si02
#       7
#     4   4   4   4   4   4   4
#     4   9  19  36  57  83 116 152 192 239 291 350
#     4  10  20  37  59  83 116 157 198 236 286 357
#     4  10  22  39  58  84 118 154 195 243 299 360
#     4  11  22  36  59  88 119 154 191 240 300 354
#     4  10  20  35  60  92 119 145 186 244 303 353
#     4  10  21  39  62  87 117 153 195 245 299 352
#     4  10  21  36  58  85 112 150 201 242 277 332
#
# _framework density 21.599198000000001
#
# number of rings (size 3 to 8) (size 9 to 14) (size 15 to 20)
#    0.000    2.000    0.000    3.429    0.000    9.714 
#    0.000    3.571    0.000    4.286    0.000    0.000 
#    0.000    0.000    0.000    0.000    0.000    0.000 
#
# Total GULP energy -156442.128907 kJ/mol
# GULP energy per Si atom -5587.218890 kJ/mol
# Density = 2.155004 g / cm^3
# Si number density = 21.599198 Si / 1000 Ang^3
#
#
#
# Elastic Constant Matrix: (Units=GPa)
#
#
# Indices 1 2 3 4 5 6 
#
# 1 43.3888 25.0728 25.3383 0.0000 7.2332 0.0000
# 2 25.0728 114.5388 47.8875 0.0000 -3.5411 0.0000
# 3 25.3383 47.8875 142.1180 0.0000 0.1588 0.0000
# 4 0.0000 0.0000 0.0000 35.6748 0.0000 2.9753
# 5 7.2332 -3.5411 0.1588 0.0000 18.8498 0.0000
# 6 0.0000 0.0000 0.0000 2.9753 0.0000 22.3957
#
#
#
# Elastic Compliance Matrix: (Units=1/GPa)
#
#
# Indices 1 2 3 4 5 6 
#
# 1 0.030455 -0.005582 -0.003535 0.000000 -0.012705 0.000000
# 2 -0.005582 0.011257 -0.002803 0.000000 0.004280 0.000000
# 3 -0.003535 -0.002803 0.008610 0.000000 0.000757 0.000000
# 4 0.000000 0.000000 0.000000 0.028345 0.000000 -0.003766
# 5 -0.012705 0.004280 0.000757 0.000000 0.058724 0.000000
# 6 0.000000 0.000000 0.000000 -0.003766 0.000000 0.045152
#
#
# Mechanical properties :
#
#
# Convention : Reuss Voigt Hill
#
# Bulk Modulus (GPa) = 37.75913 55.18254 46.47083
# Shear Modulus (GPa) = 23.23325 28.83386 26.03356
#
# Velocity S-wave (km/s) = 3.28327 3.65766 3.47551
# Velocity P-wave (km/s) = 5.64738 6.59104 6.13737
#
# Compressibility (1/GPa) = 0.02648366
#
# Stress axis : x y z
#
# Youngs Moduli (GPa) = 32.83512 88.83718 116.14185
#
# Poissons Ratio (x) = 0.49585 0.41055
# Poissons Ratio (y) = 0.18327 0.32550
# Poissons Ratio (z) = 0.11607 0.24898
#
# Static dielectric constant tensor:
#      x y z
#    x 1.819240 0.000000 0.024030 
#    y 0.000000 1.839730 0.000000 
#    z 0.024030 0.000000 1.761680 
# 
# From -- ./inp_files/31666.got.cif
#   From: 2010.05.17/outbox.cif.g08.bks.cpg/sg11_16_cif.got.tgz:31666.got - 2010.06.03 12:22:45.
