data_PCOD9162744
_publ_section_title
;
Structure prediction by ZEFSAII (Michael W. Deem and Ramdas Pophale) SiO2 
 PCOD9162744
Probable space group: P 21/M
;
_chemical_formula_sum "Si O2"
_cell_formula_units_Z 28
_cell_length_a 20.899836
_cell_length_b 15.500682
_cell_length_c 9.159892
_cell_angle_alpha 90.000000
_cell_angle_beta 150.963228
_cell_angle_gamma 90.000000
_cell_volume 1440.315796
_symmetry_space_group_name_H-M "P 21/M"
_symmetry_group_IT_number 11
_symmetry_cell_setting 'monoclinic'
loop_
_space_group_symop_operation_xyz
x,y,z
-x,1/2+y,-z
-x,-y,-z
x,1/2-y,z
loop_
_atom_site_type_symbol
_atom_site_label
_atom_site_fract_x
_atom_site_fract_y
_atom_site_fract_z
Si Si1 0.906713 0.648414 0.163632
Si Si2 0.175856 0.647267 0.871584
Si Si3 0.108109 0.423181 0.194472
Si Si4 0.673259 0.053602 0.348906
Si Si5 0.901671 0.348368 0.960920
Si Si6 0.480919 0.999972 0.212656
Si Si7 0.687857 0.531877 0.870963
O O1 0.870005 0.750000 0.097492
O O2 0.056210 0.641164 0.518965
O O3 0.898573 0.614217 0.981550
O O4 0.813339 0.588922 0.078169
O O5 0.216920 0.750000 0.956153
O O6 0.119323 0.617795 0.917682
O O7 0.279432 0.570814 0.047997
O O8 0.252656 0.460787 0.509734
O O9 0.000000 0.500000 0.000000
O O10 0.049051 0.358778 0.195207
O O11 0.792604 0.114368 0.633322
O O12 0.566702 0.052594 0.265738
O O13 0.602406 0.065880 0.053646
O O14 0.870358 0.250000 0.910579
O O15 0.382606 0.054809 0.117763
O O16 0.584351 0.958926 0.531844
#
# Coordination Sequence:
#
# PCOD9162744 Si02
#       7
#     4   4   4   4   4   4   4
#     4  11  23  39  60  92 125 152 197 252 307 360
#     4  10  22  38  61  90 119 152 197 253 304 360
#     4  10  20  35  60  87 113 151 189 242 302 351
#     4  10  20  39  58  84 111 153 195 245 282 357
#     4  10  20  36  58  86 117 148 190 246 302 354
#     4  10  22  37  61  81 112 154 210 231 288 353
#     4  11  21  40  61  85 114 161 194 248 293 354
#
# _framework density 19.440182
#
# number of rings (size 3 to 8) (size 9 to 14) (size 15 to 20)
#    0.000    1.714    2.857    1.714    6.000    0.000 
#    0.000    4.286    0.000    1.714    0.000    0.000 
#    0.000    0.000    0.000    0.000    0.000    0.000 
#
# Total GULP energy -155968.787006 kJ/mol
# GULP energy per Si atom -5570.313822 kJ/mol
# Density = 1.939594 g / cm^3
# Si number density = 19.440182 Si / 1000 Ang^3
#
#
#
# Elastic Constant Matrix: (Units=GPa)
#
#
# Indices 1 2 3 4 5 6 
#
# 1 105.9921 17.0253 24.0537 0.0000 6.4614 0.0000
# 2 17.0253 59.2190 26.6175 0.0000 5.9615 0.0000
# 3 24.0537 26.6175 72.8161 0.0000 -5.2882 0.0000
# 4 0.0000 0.0000 0.0000 19.3762 0.0000 -4.5685
# 5 6.4614 5.9615 -5.2882 0.0000 26.0874 0.0000
# 6 0.0000 0.0000 0.0000 -4.5685 0.0000 11.5142
#
#
#
# Elastic Compliance Matrix: (Units=1/GPa)
#
#
# Indices 1 2 3 4 5 6 
#
# 1 0.010556 -0.001281 -0.003235 0.000000 -0.002978 0.000000
# 2 -0.001281 0.021403 -0.007848 0.000000 -0.006165 0.000000
# 3 -0.003235 -0.007848 0.018126 0.000000 0.006269 0.000000
# 4 0.000000 0.000000 0.000000 0.056936 0.000000 0.022590
# 5 -0.002978 -0.006165 0.006269 0.000000 0.041750 0.000000
# 6 0.000000 0.000000 0.000000 0.022590 0.000000 0.095812
#
#
# Mechanical properties :
#
#
# Convention : Reuss Voigt Hill
#
# Bulk Modulus (GPa) = 39.43767 41.49115 40.46441
# Shear Modulus (GPa) = 18.00088 22.75094 20.37591
#
# Velocity S-wave (km/s) = 3.04626 3.42468 3.24100
# Velocity P-wave (km/s) = 5.71871 6.08500 5.90470
#
# Compressibility (1/GPa) = 0.02535647
#
# Stress axis : x y z
#
# Youngs Moduli (GPa) = 94.73193 46.72247 55.16924
#
# Poissons Ratio (x) = 0.05985 0.17847
# Poissons Ratio (y) = 0.12135 0.43298
# Poissons Ratio (z) = 0.30646 0.36669
#
# Static dielectric constant tensor:
#      x y z
#    x 1.956330 0.000000 0.011150 
#    y 0.000000 1.647450 0.000000 
#    z 0.011150 0.000000 1.672710 
# 
# From -- ./inp_files/26944.got.cif
#   From: 2010.05.17/outbox.cif.g08.bks.cpg/sg11_14_cif.got.tgz:26944.got - 2010.06.03 12:22:45.
