data_PCOD9162474
_publ_section_title
;
Structure prediction by ZEFSAII (Michael W. Deem and Ramdas Pophale) SiO2 
 PCOD9162474
Probable space group: P 21/M
;
_chemical_formula_sum "Si O2"
_cell_formula_units_Z 32
_cell_length_a 11.259377
_cell_length_b 14.151158
_cell_length_c 8.875041
_cell_angle_alpha 90.000000
_cell_angle_beta 106.015092
_cell_angle_gamma 90.000000
_cell_volume 1359.206765
_symmetry_space_group_name_H-M "P 21/M"
_symmetry_group_IT_number 11
_symmetry_cell_setting 'monoclinic'
loop_
_space_group_symop_operation_xyz
x,y,z
-x,1/2+y,-z
-x,-y,-z
x,1/2-y,z
loop_
_atom_site_type_symbol
_atom_site_label
_atom_site_fract_x
_atom_site_fract_y
_atom_site_fract_z
Si Si1 0.869924 0.861847 0.048671
Si Si2 0.513110 0.140796 0.909563
Si Si3 0.476763 0.640465 0.726259
Si Si4 0.193190 0.640027 0.638845
Si Si5 0.758934 0.861068 0.319904
Si Si6 0.856589 0.997053 0.603477
Si Si7 0.682487 0.995025 0.797761
Si Si8 0.036306 0.639486 0.847869
O O1 0.836558 0.750000 0.022750
O O2 0.772303 0.926409 0.925449
O O3 0.002070 0.875188 0.011293
O O4 0.855070 0.884514 0.218648
O O5 0.544563 0.250000 0.887947
O O6 0.377898 0.120798 0.793499
O O7 0.612798 0.071210 0.874204
O O8 0.504486 0.131577 0.086582
O O9 0.496291 0.750000 0.691195
O O10 0.334198 0.615569 0.651503
O O11 0.576338 0.571701 0.689489
O O12 0.174443 0.750000 0.600027
O O13 0.106420 0.578130 0.501369
O O14 0.166740 0.627710 0.808672
O O15 0.769321 0.750000 0.356413
O O16 0.786110 0.921796 0.474377
O O17 0.764531 0.039593 0.695575
O O18 0.954279 0.935552 0.729749
O O19 0.001562 0.750000 0.807023
#
# Coordination Sequence:
#
# PCOD9162474 Si02
#       8
#     4   4   4   4   4   4   4   4
#     4   9  18  34  59  85 109 138 183 237 282 322
#     4  10  21  35  54  81 117 150 183 228 277 330
#     4  10  20  35  57  84 111 145 187 231 276 332
#     4  10  22  38  58  79 111 155 191 223 273 335
#     4  10  20  35  56  86 115 142 178 231 289 329
#     4  11  23  36  57  86 116 145 186 232 278 328
#     4  11  21  34  57  84 114 148 185 224 278 328
#     4   9  19  39  62  82 108 145 189 234 278 327
#
# _framework density 23.543144999999999
#
# number of rings (size 3 to 8) (size 9 to 14) (size 15 to 20)
#    0.000    2.000    1.250    2.250    1.750    4.000 
#    0.000    3.125    2.750    0.000    0.000    0.000 
#    0.000    0.000    0.000    0.000    0.000    0.000 
#
# Total GULP energy -178980.531704 kJ/mol
# GULP energy per Si atom -5593.141616 kJ/mol
# Density = 2.348956 g / cm^3
# Si number density = 23.543145 Si / 1000 Ang^3
#
#
#
# Elastic Constant Matrix: (Units=GPa)
#
#
# Indices 1 2 3 4 5 6 
#
# 1 59.7671 31.4244 17.0240 0.0000 -15.6107 0.0000
# 2 31.4244 85.8880 21.3909 0.0000 1.5161 0.0000
# 3 17.0240 21.3909 36.7367 0.0000 -0.7464 0.0000
# 4 0.0000 0.0000 0.0000 30.6474 0.0000 -4.6038
# 5 -15.6107 1.5161 -0.7464 0.0000 37.1046 0.0000
# 6 0.0000 0.0000 0.0000 -4.6038 0.0000 25.1217
#
#
#
# Elastic Compliance Matrix: (Units=1/GPa)
#
#
# Indices 1 2 3 4 5 6 
#
# 1 0.025770 -0.007842 -0.007152 0.000000 0.011018 0.000000
# 2 -0.007842 0.016023 -0.005779 0.000000 -0.004070 0.000000
# 3 -0.007152 -0.005779 0.033857 0.000000 -0.002092 0.000000
# 4 0.000000 0.000000 0.000000 0.033553 0.000000 0.006149
# 5 0.011018 -0.004070 -0.002092 0.000000 0.031711 0.000000
# 6 0.000000 0.000000 0.000000 0.006149 0.000000 0.040933
#
#
# Mechanical properties :
#
#
# Convention : Reuss Voigt Hill
#
# Bulk Modulus (GPa) = 29.32080 35.78558 32.55319
# Shear Modulus (GPa) = 21.29833 26.07826 23.68829
#
# Velocity S-wave (km/s) = 3.01100 3.33179 3.17545
# Velocity P-wave (km/s) = 4.95674 5.48034 5.22510
#
# Compressibility (1/GPa) = 0.03410548
#
# Stress axis : x y z
#
# Youngs Moduli (GPa) = 38.80520 62.40915 29.53578
#
# Poissons Ratio (x) = 0.48940 0.21123
# Poissons Ratio (y) = 0.30430 0.17068
# Poissons Ratio (z) = 0.27753 0.36065
#
# Static dielectric constant tensor:
#      x y z
#    x 1.921100 0.000000 -0.005340 
#    y 0.000000 1.882510 0.000000 
#    z -0.005340 0.000000 1.838710 
# 
# From -- ./inp_files/18053.got.cif
#   From: 2010.05.17/outbox.cif.g08.bks.cpg/sg11_10_cif.got.tgz:18053.got - 2010.06.03 12:22:45.
