data_PCOD9162003
_publ_section_title
;
Structure prediction by ZEFSAII (Michael W. Deem and Ramdas Pophale) SiO2 
 PCOD9162003
Probable space group: P 21/M
;
_chemical_formula_sum "Si O2"
_cell_formula_units_Z 28
_cell_length_a 8.624802
_cell_length_b 12.334412
_cell_length_c 14.842206
_cell_angle_alpha 90.000000
_cell_angle_beta 121.309830
_cell_angle_gamma 90.000000
_cell_volume 1348.999753
_symmetry_space_group_name_H-M "P 21/M"
_symmetry_group_IT_number 11
_symmetry_cell_setting 'monoclinic'
loop_
_space_group_symop_operation_xyz
x,y,z
-x,1/2+y,-z
-x,-y,-z
x,1/2-y,z
loop_
_atom_site_type_symbol
_atom_site_label
_atom_site_fract_x
_atom_site_fract_y
_atom_site_fract_z
Si Si1 0.832267 0.039323 0.747483
Si Si2 0.471268 0.136107 0.352493
Si Si3 0.191936 0.563900 0.066298
Si Si4 0.178235 0.579119 0.451136
Si Si5 0.202084 0.125097 0.578250
Si Si6 0.161278 0.627064 0.858912
Si Si7 0.413708 0.970092 0.782093
O O1 0.648244 0.971317 0.677558
O O2 0.821027 0.109001 0.835343
O O3 0.981696 0.945443 0.802405
O O4 0.873362 0.097363 0.667368
O O5 0.368135 0.250000 0.326042
O O6 0.630171 0.133060 0.472367
O O7 0.571677 0.125440 0.286624
O O8 0.378741 0.495745 0.128134
O O9 0.213230 0.629395 0.980557
O O10 0.000000 0.500000 0.000000
O O11 0.210441 0.453747 0.493331
O O12 0.010145 0.621365 0.458669
O O13 0.258713 0.250000 0.581604
O O14 0.314859 0.066362 0.694082
O O15 0.135150 0.750000 0.819597
O O16 0.302445 0.566407 0.835870
#
# Coordination Sequence:
#
# PCOD9162003 Si02
#       7
#     4   4   4   4   4   4   4
#     4  10  20  38  57  81 118 156 191 242 293 344
#     4  10  20  34  56  87 118 153 192 235 288 351
#     4   9  21  39  61  79 112 153 192 244 297 345
#     4  10  20  37  56  84 119 156 194 241 290 340
#     4  10  21  36  57  86 118 153 195 240 295 354
#     4  11  21  36  60  87 113 151 200 245 294 348
#     4  10  20  38  59  85 119 151 190 246 295 348
#
# _framework density 20.756119999999999
#
# number of rings (size 3 to 8) (size 9 to 14) (size 15 to 20)
#    0.000    2.000    1.429    2.143    0.000    1.714 
#    0.000    2.143    0.000    1.714    0.000    0.000 
#    0.000    0.000    0.000    0.000    0.000    0.000 
#
# Total GULP energy -155955.783105 kJ/mol
# GULP energy per Si atom -5569.849397 kJ/mol
# Density = 2.070888 g / cm^3
# Si number density = 20.756120 Si / 1000 Ang^3
#
#
#
# Elastic Constant Matrix: (Units=GPa)
#
#
# Indices 1 2 3 4 5 6 
#
# 1 68.2713 1.3340 17.9983 0.0000 -3.6457 0.0000
# 2 1.3340 71.4110 4.2423 0.0000 -1.2058 0.0000
# 3 17.9983 4.2423 94.0370 0.0000 -8.6012 0.0000
# 4 0.0000 0.0000 0.0000 -40.6863 0.0000 16.4115
# 5 -3.6457 -1.2058 -8.6012 0.0000 47.4415 0.0000
# 6 0.0000 0.0000 0.0000 16.4115 0.0000 0.9817
#
#
#
# Elastic Compliance Matrix: (Units=1/GPa)
#
#
# Indices 1 2 3 4 5 6 
#
# 1 0.015447 -0.000106 -0.002891 0.000000 0.000660 0.000000
# 2 -0.000106 0.014045 -0.000591 0.000000 0.000242 0.000000
# 3 -0.002891 -0.000591 0.011381 0.000000 0.001826 0.000000
# 4 0.000000 0.000000 0.000000 -0.003174 0.000000 0.053064
# 5 0.000660 0.000242 0.001826 0.000000 0.021467 0.000000
# 6 0.000000 0.000000 0.000000 0.053064 0.000000 0.131553
#
#
# Mechanical properties :
#
#
# Convention : Reuss Voigt Hill
#
# Bulk Modulus (GPa) = 29.67685 31.20763 30.44224
# Shear Modulus (GPa) = 23.90898 15.55703 19.73300
#
# Velocity S-wave (km/s) = 3.39765 2.74070 3.08670
# Velocity P-wave (km/s) = 5.45169 5.00832 5.23470
#
# Compressibility (1/GPa) = 0.03369630
#
# Stress axis : x y z
#
# Youngs Moduli (GPa) = 64.73747 71.20161 87.86409
#
# Poissons Ratio (x) = 0.00752 0.25405
# Poissons Ratio (y) = 0.00684 0.05195
# Poissons Ratio (z) = 0.18718 0.04210
#
# Static dielectric constant tensor:
#      x y z
#    x 1.748450 0.000000 -0.024320 
#    y 0.000000 1.776050 0.000000 
#    z -0.024320 0.000000 1.789090 
# 
# From -- ./inp_files/47276.got.cif
#   From: 2010.05.17/outbox.cif.g08.bks.cpg/sg11_24_cif.got.tgz:47276.got - 2010.06.03 12:22:45.
