data_PCOD9162421
_publ_section_title
;
Structure prediction by ZEFSAII (Michael W. Deem and Ramdas Pophale) SiO2 
 PCOD9162421
Probable space group: P 21/M
;
_chemical_formula_sum "Si O2"
_cell_formula_units_Z 22
_cell_length_a 8.486617
_cell_length_b 7.400958
_cell_length_c 14.984906
_cell_angle_alpha 90.000000
_cell_angle_beta 78.211858
_cell_angle_gamma 90.000000
_cell_volume 921.338445
_symmetry_space_group_name_H-M "P 21/M"
_symmetry_group_IT_number 11
_symmetry_cell_setting 'monoclinic'
loop_
_space_group_symop_operation_xyz
x,y,z
-x,1/2+y,-z
-x,-y,-z
x,1/2-y,z
loop_
_atom_site_type_symbol
_atom_site_label
_atom_site_fract_x
_atom_site_fract_y
_atom_site_fract_z
Si Si1 0.177994 0.534402 0.941306
Si Si2 0.697020 0.970471 0.803281
Si Si3 0.061839 0.529642 0.767470
Si Si4 0.500000 0.500000 0.000000
Si Si5 0.605769 0.962716 0.617750
Si Si6 0.266284 0.967653 0.579340
O O1 0.213986 0.750000 0.939356
O O2 0.171256 0.475435 0.838876
O O3 0.315725 0.454636 0.987051
O O4 0.000000 0.500000 0.000000
O O5 0.693099 0.750000 0.805394
O O6 0.654641 0.032895 0.708382
O O7 0.878853 0.028781 0.803096
O O8 0.568759 0.029784 0.890843
O O9 0.061477 0.750000 0.768390
O O10 0.130326 0.471520 0.664040
O O11 0.579131 0.750000 0.633574
O O12 0.437351 0.035892 0.598817
O O13 0.736948 0.982402 0.524157
O O14 0.266861 0.750000 0.581346
#
# Coordination Sequence:
#
# PCOD9162421 Si02
#       6
#     4   4   4   2   4   4
#     4  11  23  40  63  91 124 163 208 258 311 371
#     4  10  20  35  56  82 113 155 203 248 300 367
#     4   9  18  35  58  83 114 154 199 244 298 366
#     4  12  22  36  62  90 120 160 208 260 304 360
#     4   9  18  33  54  80 109 147 193 238 294 362
#     4   9  17  32  55  80 109 146 190 242 295 353
#
# _framework density 23.878304
#
# number of rings (size 3 to 8) (size 9 to 14) (size 15 to 20)
#    0.000    2.182    1.818    1.636    0.000    4.364 
#    0.000    2.727    0.000    6.545    0.000    0.000 
#    0.000    0.000    0.000    0.000    0.000    0.000 
#
# Total GULP energy -122479.594742 kJ/mol
# GULP energy per Si atom -5567.254306 kJ/mol
# Density = 2.382396 g / cm^3
# Si number density = 23.878304 Si / 1000 Ang^3
#
#
#
# Elastic Constant Matrix: (Units=GPa)
#
#
# Indices 1 2 3 4 5 6 
#
# 1 117.9173 -5.4873 62.8507 0.0000 -1.5349 0.0000
# 2 -5.4873 81.0936 -9.7009 0.0000 7.6001 0.0000
# 3 62.8507 -9.7009 208.5371 0.0000 3.5002 0.0000
# 4 0.0000 0.0000 0.0000 -64.7245 0.0000 9.1517
# 5 -1.5349 7.6001 3.5002 0.0000 45.4519 0.0000
# 6 0.0000 0.0000 0.0000 9.1517 0.0000 -9.8808
#
#
#
# Elastic Compliance Matrix: (Units=1/GPa)
#
#
# Indices 1 2 3 4 5 6 
#
# 1 0.010124 0.000271 -0.003048 0.000000 0.000531 0.000000
# 2 0.000271 0.012615 0.000541 0.000000 -0.002142 0.000000
# 3 -0.003048 0.000541 0.005750 0.000000 -0.000636 0.000000
# 4 0.000000 0.000000 0.000000 -0.017778 0.000000 -0.016467
# 5 0.000531 -0.002142 -0.000636 0.000000 0.022426 0.000000
# 6 0.000000 0.000000 0.000000 -0.016467 0.000000 -0.116458
#
#
# Mechanical properties :
#
#
# Convention : Reuss Voigt Hill
#
# Bulk Modulus (GPa) = 41.63579 55.87480 48.75529
# Shear Modulus (GPa) = -70.57830 18.16171 -26.20830
#
# Velocity S-wave (km/s) = -5.44258 2.76088 -3.31657
# Velocity P-wave (km/s) = 4.69266 5.79775 2.40758
#
# Compressibility (1/GPa) = 0.02401780
#
# Stress axis : x y z
#
# Youngs Moduli (GPa) = 98.77038 79.26923 173.92167
#
# Poissons Ratio (x) = -0.02146 0.53007
# Poissons Ratio (y) = -0.02674 -0.09413
# Poissons Ratio (z) = 0.30103 -0.04290
#
# Static dielectric constant tensor:
#      x y z
#    x 1.858460 0.000000 -0.002800 
#    y 0.000000 1.997890 0.000000 
#    z -0.002800 0.000000 1.873270 
# 
# From -- ./inp_files/46476.got.cif
#   From: 2010.05.17/outbox.cif.g08.bks.cpg/sg11_24_cif.got.tgz:46476.got - 2010.06.03 12:22:45.
