data_PCOD9162941
_publ_section_title
;
Structure prediction by ZEFSAII (Michael W. Deem and Ramdas Pophale) SiO2 
 PCOD9162941
Probable space group: P 21/M
;
_chemical_formula_sum "Si O2"
_cell_formula_units_Z 32
_cell_length_a 21.662128
_cell_length_b 8.294685
_cell_length_c 27.062338
_cell_angle_alpha 90.000000
_cell_angle_beta 20.633848
_cell_angle_gamma 90.000000
_cell_volume 1713.545104
_symmetry_space_group_name_H-M "P 21/M"
_symmetry_group_IT_number 11
_symmetry_cell_setting 'monoclinic'
loop_
_space_group_symop_operation_xyz
x,y,z
-x,1/2+y,-z
-x,-y,-z
x,1/2-y,z
loop_
_atom_site_type_symbol
_atom_site_label
_atom_site_fract_x
_atom_site_fract_y
_atom_site_fract_z
Si Si1 0.655509 0.052719 0.655231
Si Si2 0.974931 0.444995 0.345795
Si Si3 0.033577 0.944838 0.761568
Si Si4 0.691384 0.443325 0.841259
Si Si5 0.258574 0.055772 0.942370
Si Si6 0.991871 0.557290 0.061979
Si Si7 0.801127 0.444457 0.651203
Si Si8 0.698134 0.942996 0.358352
O O1 0.656227 0.250000 0.653656
O O2 0.458236 0.998002 0.792266
O O3 0.705700 0.000651 0.672961
O O4 0.805980 0.000091 0.504169
O O5 0.971592 0.250000 0.347707
O O6 0.152743 0.496051 0.240179
O O7 0.967578 0.500950 0.294320
O O8 0.030728 0.750000 0.763036
O O9 0.202998 0.996777 0.666341
O O10 0.862191 0.000181 0.921020
O O11 0.697134 0.250000 0.837214
O O12 0.723849 0.501867 0.760928
O O13 0.500000 0.500000 0.000000
O O14 0.263094 0.250000 0.941695
O O15 0.156271 0.005582 0.969996
O O16 0.992301 0.750000 0.062538
O O17 0.819809 0.501310 0.221231
O O18 0.000000 0.500000 0.000000
O O19 0.794753 0.250000 0.655958
O O20 0.000000 0.500000 0.500000
O O21 0.699695 0.750000 0.358110
O O22 0.500000 0.000000 0.500000
#
# Coordination Sequence:
#
# PCOD9162941 Si02
#       8
#     4   4   4   4   4   4   4   4
#     4   9  18  33  55  80 107 141 180 223 273 326
#     4  10  20  36  57  80 111 146 183 227 275 329
#     4   9  19  34  55  80 109 148 188 226 271 325
#     4  11  24  38  56  82 112 146 188 233 279 332
#     4   9  18  34  55  78 107 145 186 225 268 322
#     4  10  21  37  57  83 114 146 182 226 273 324
#     4  10  20  36  58  81 109 144 184 230 278 330
#     4  10  21  37  58  83 114 149 187 229 274 328
#
# _framework density 18.674734000000001
#
# number of rings (size 3 to 8) (size 9 to 14) (size 15 to 20)
#    0.000    2.250    1.250    1.125    1.750    3.500 
#    0.000    3.750    0.000    0.000    0.000    0.000 
#    0.000    0.000    0.000    0.000    0.000    0.000 
#
# Total GULP energy -178574.916808 kJ/mol
# GULP energy per Si atom -5580.466150 kJ/mol
# Density = 1.863223 g / cm^3
# Si number density = 18.674734 Si / 1000 Ang^3
#
#
#
# Elastic Constant Matrix: (Units=GPa)
#
#
# Indices 1 2 3 4 5 6 
#
# 1 202.8827 18.1441 132.6423 0.0000 9.8641 0.0000
# 2 18.1441 7.6047 16.1180 0.0000 1.3875 0.0000
# 3 132.6423 16.1180 194.7290 0.0000 -13.0068 0.0000
# 4 0.0000 0.0000 0.0000 21.6037 0.0000 -7.7871
# 5 9.8641 1.3875 -13.0068 0.0000 32.1233 0.0000
# 6 0.0000 0.0000 0.0000 -7.7871 0.0000 24.9713
#
#
#
# Elastic Compliance Matrix: (Units=1/GPa)
#
#
# Indices 1 2 3 4 5 6 
#
# 1 0.010418 -0.009754 -0.006654 0.000000 -0.005472 0.000000
# 2 -0.009754 0.173704 -0.008258 0.000000 -0.007851 0.000000
# 3 -0.006654 -0.008258 0.010804 0.000000 0.006775 0.000000
# 4 0.000000 0.000000 0.000000 0.052150 0.000000 0.016263
# 5 -0.005472 -0.007851 0.006775 0.000000 0.035893 0.000000
# 6 0.000000 0.000000 0.000000 0.016263 0.000000 0.045117
#
#
# Mechanical properties :
#
#
# Convention : Reuss Voigt Hill
#
# Bulk Modulus (GPa) = 6.86844 82.11392 44.49118
# Shear Modulus (GPa) = 11.73844 31.62714 21.68279
#
# Velocity S-wave (km/s) = 2.50986 4.11978 3.41115
# Velocity P-wave (km/s) = 3.47636 8.16677 6.27619
#
# Compressibility (1/GPa) = 0.14559344
#
# Stress axis : x y z
#
# Youngs Moduli (GPa) = 95.98824 5.75691 92.55654
#
# Poissons Ratio (x) = 0.05615 0.61592
# Poissons Ratio (y) = 0.93625 0.76436
# Poissons Ratio (z) = 0.63875 0.04754
#
# Static dielectric constant tensor:
#      x y z
#    x 1.613920 0.000000 0.014800 
#    y 0.000000 1.598560 0.000000 
#    z 0.014800 0.000000 1.630440 
# 
# From -- ./inp_files/71978.got.cif
#   From: 2010.05.17/outbox.cif.g08.bks.cpg/sg11_36_cif.got.tgz:71978.got - 2010.06.03 12:22:45.
