data_PCOD9162283
_publ_section_title
;
Structure prediction by ZEFSAII (Michael W. Deem and Ramdas Pophale) SiO2 
 PCOD9162283
Probable space group: P 21/M
;
_chemical_formula_sum "Si O2"
_cell_formula_units_Z 28
_cell_length_a 29.902787
_cell_length_b 8.967829
_cell_length_c 9.354070
_cell_angle_alpha 90.000000
_cell_angle_beta 38.325938
_cell_angle_gamma 90.000000
_cell_volume 1555.554788
_symmetry_space_group_name_H-M "P 21/M"
_symmetry_group_IT_number 11
_symmetry_cell_setting 'monoclinic'
loop_
_space_group_symop_operation_xyz
x,y,z
-x,1/2+y,-z
-x,-y,-z
x,1/2-y,z
loop_
_atom_site_type_symbol
_atom_site_label
_atom_site_fract_x
_atom_site_fract_y
_atom_site_fract_z
Si Si1 0.219644 0.429125 0.862606
Si Si2 0.502269 0.929920 0.837662
Si Si3 0.640782 0.929371 0.302908
Si Si4 0.225931 0.569243 0.534444
Si Si5 0.363173 0.929465 0.999199
Si Si6 0.067605 0.573377 0.252828
Si Si7 0.065562 0.925489 0.917002
O O1 0.214786 0.250000 0.865328
O O2 0.284375 0.469107 0.807074
O O3 0.235712 0.496155 0.665374
O O4 0.143240 0.496572 0.103105
O O5 0.502251 0.750000 0.851131
O O6 0.574022 0.974474 0.571311
O O7 0.432257 0.973486 0.920774
O O8 0.500000 0.000000 0.000000
O O9 0.638294 0.750000 0.295539
O O10 0.634571 0.000112 0.162702
O O11 0.224983 0.750000 0.554850
O O12 0.146812 0.523108 0.675713
O O13 0.290439 0.529239 0.266712
O O14 0.364257 0.750000 0.982939
O O15 0.071046 0.750000 0.272834
O O16 0.000000 0.500000 0.500000
O O17 0.058951 0.552474 0.103916
O O18 0.062270 0.750000 0.895909
O O19 0.000000 0.000000 0.000000
#
# Coordination Sequence:
#
# PCOD9162283 Si02
#       7
#     4   4   4   4   4   4   4
#     4  10  20  35  55  79 106 141 182 220 264 323
#     4  10  21  37  57  82 109 141 181 224 269 324
#     4  10  22  37  53  79 114 143 175 222 272 320
#     4   9  19  36  54  76 105 137 177 224 267 316
#     4  10  21  36  56  81 108 140 182 225 269 323
#     4  10  21  37  56  80 109 141 179 224 269 318
#     4   9  19  34  52  75 104 135 171 215 262 312
#
# _framework density 18.000008999999999
#
# number of rings (size 3 to 8) (size 9 to 14) (size 15 to 20)
#    0.000    2.286    0.000    3.000    0.000    6.857 
#    0.000    2.857    0.000    0.000    0.000    0.000 
#    0.000    0.000    0.000    0.000    0.000    0.000 
#
# Total GULP energy -156309.541352 kJ/mol
# GULP energy per Si atom -5582.483620 kJ/mol
# Density = 1.795904 g / cm^3
# Si number density = 18.000009 Si / 1000 Ang^3
#
#
#
# Elastic Constant Matrix: (Units=GPa)
#
#
# Indices 1 2 3 4 5 6 
#
# 1 176.4119 57.2902 105.8584 0.0000 -21.8381 0.0000
# 2 57.2902 35.2604 58.3314 0.0000 -6.7204 0.0000
# 3 105.8584 58.3314 186.3518 0.0000 -15.8937 0.0000
# 4 0.0000 0.0000 0.0000 28.9985 0.0000 5.8689
# 5 -21.8381 -6.7204 -15.8937 0.0000 26.7428 0.0000
# 6 0.0000 0.0000 0.0000 5.8689 0.0000 35.5143
#
#
#
# Elastic Compliance Matrix: (Units=1/GPa)
#
#
# Indices 1 2 3 4 5 6 
#
# 1 0.012865 -0.017737 -0.001307 0.000000 0.005272 0.000000
# 2 -0.017737 0.083689 -0.016393 0.000000 -0.003196 0.000000
# 3 -0.001307 -0.016393 0.011374 0.000000 0.001573 0.000000
# 4 0.000000 0.000000 0.000000 0.035678 0.000000 -0.005896
# 5 0.005272 -0.003196 0.001573 0.000000 0.041830 0.000000
# 6 0.000000 0.000000 0.000000 -0.005896 0.000000 0.029132
#
#
# Mechanical properties :
#
#
# Convention : Reuss Voigt Hill
#
# Bulk Modulus (GPa) = 26.98688 93.44268 60.21478
# Shear Modulus (GPa) = 16.79015 30.02074 23.40544
#
# Velocity S-wave (km/s) = 3.05747 4.08832 3.60988
# Velocity P-wave (km/s) = 5.24303 8.62039 7.13444
#
# Compressibility (1/GPa) = 0.03705504
#
# Stress axis : x y z
#
# Youngs Moduli (GPa) = 77.72825 11.94897 87.92003
#
# Poissons Ratio (x) = 0.21194 0.11488
# Poissons Ratio (y) = 1.37866 1.44129
# Poissons Ratio (z) = 0.10156 0.19588
#
# Static dielectric constant tensor:
#      x y z
#    x 1.592790 0.000000 -0.018180 
#    y 0.000000 1.601770 0.000000 
#    z -0.018180 0.000000 1.607190 
# 
# From -- ./inp_files/28236.got.cif
#   From: 2010.05.17/outbox.cif.g08.bks.cpg/sg11_15_cif.got.tgz:28236.got - 2010.06.03 12:22:45.
