data_PCOD9162422
_publ_section_title
;
Structure prediction by ZEFSAII (Michael W. Deem and Ramdas Pophale) SiO2 
 PCOD9162422
Probable space group: P 21/M
;
_chemical_formula_sum "Si O2"
_cell_formula_units_Z 32
_cell_length_a 14.513864
_cell_length_b 8.898351
_cell_length_c 19.919994
_cell_angle_alpha 90.000000
_cell_angle_beta 46.549712
_cell_angle_gamma 90.000000
_cell_volume 1867.674811
_symmetry_space_group_name_H-M "P 21/M"
_symmetry_group_IT_number 11
_symmetry_cell_setting 'monoclinic'
loop_
_space_group_symop_operation_xyz
x,y,z
-x,1/2+y,-z
-x,-y,-z
x,1/2-y,z
loop_
_atom_site_type_symbol
_atom_site_label
_atom_site_fract_x
_atom_site_fract_y
_atom_site_fract_z
Si Si1 0.117801 0.929243 0.900887
Si Si2 0.627301 0.069137 0.148816
Si Si3 0.732250 0.429200 0.951089
Si Si4 0.023643 0.430061 0.661949
Si Si5 0.366044 0.928982 0.271653
Si Si6 0.883434 0.429886 0.516778
Si Si7 0.742170 0.570871 0.806114
Si Si8 0.033316 0.428055 0.809609
O O1 0.108412 0.750000 0.910857
O O2 0.250486 0.974735 0.868499
O O3 0.105441 0.981186 0.830377
O O4 0.000000 0.000000 0.000000
O O5 0.613229 0.250000 0.159978
O O6 0.498348 0.988603 0.234011
O O7 0.657549 0.031603 0.055877
O O8 0.720500 0.250000 0.944786
O O9 0.694729 0.516437 0.902742
O O10 0.881888 0.458807 0.889710
O O11 0.013254 0.250000 0.659277
O O12 0.882670 0.499855 0.726744
O O13 0.108509 0.500404 0.561282
O O14 0.070156 0.461464 0.714303
O O15 0.369409 0.750000 0.260329
O O16 0.247185 0.964303 0.379415
O O17 0.341236 0.009045 0.212963
O O18 0.898525 0.250000 0.506306
O O19 0.000000 0.500000 0.500000
O O20 0.749379 0.750000 0.800125
O O21 0.049709 0.250000 0.813377
#
# Coordination Sequence:
#
# PCOD9162422 Si02
#       8
#     4   4   4   4   4   4   4   4
#     4  11  21  35  57  84 112 145 185 230 275 326
#     4  10  22  39  56  78 110 149 188 228 276 328
#     4   9  18  35  54  75 111 149 184 227 271 321
#     4  10  20  35  56  82 114 145 180 228 277 326
#     4  11  24  39  55  79 111 147 185 229 279 329
#     4  11  22  36  58  84 111 144 184 230 280 330
#     4  11  21  33  53  80 110 147 188 225 269 328
#     4   9  18  34  55  82 113 144 177 225 280 325
#
# _framework density 17.133603000000001
#
# number of rings (size 3 to 8) (size 9 to 14) (size 15 to 20)
#    0.000    1.750    2.500    3.375    0.000    6.000 
#    0.000    0.000    0.000    0.750    0.000    0.000 
#    0.000    0.000    0.000    0.000    0.000    0.000 
#
# Total GULP energy -178734.201101 kJ/mol
# GULP energy per Si atom -5585.443784 kJ/mol
# Density = 1.709461 g / cm^3
# Si number density = 17.133603 Si / 1000 Ang^3
#
#
#
# Elastic Constant Matrix: (Units=GPa)
#
#
# Indices 1 2 3 4 5 6 
#
# 1 113.2141 55.9868 65.1704 0.0000 -2.2241 0.0000
# 2 55.9868 65.5440 55.3382 0.0000 -0.8481 0.0000
# 3 65.1704 55.3382 105.3906 0.0000 0.0477 0.0000
# 4 0.0000 0.0000 0.0000 28.8403 0.0000 3.9986
# 5 -2.2241 -0.8481 0.0477 0.0000 22.0109 0.0000
# 6 0.0000 0.0000 0.0000 3.9986 0.0000 30.5814
#
#
#
# Elastic Compliance Matrix: (Units=1/GPa)
#
#
# Indices 1 2 3 4 5 6 
#
# 1 0.016725 -0.009946 -0.005120 0.000000 0.001318 0.000000
# 2 -0.009946 0.033348 -0.011360 0.000000 0.000305 0.000000
# 3 -0.005120 -0.011360 0.018620 0.000000 -0.000995 0.000000
# 4 0.000000 0.000000 0.000000 0.035314 0.000000 -0.004617
# 5 0.001318 0.000305 -0.000995 0.000000 0.045579 0.000000
# 6 0.000000 0.000000 0.000000 -0.004617 0.000000 0.033303
#
#
# Mechanical properties :
#
#
# Convention : Reuss Voigt Hill
#
# Bulk Modulus (GPa) = 63.13111 70.79328 66.96220
# Shear Modulus (GPa) = 20.74513 23.46343 22.10428
#
# Velocity S-wave (km/s) = 3.48341 3.70461 3.59571
# Velocity P-wave (km/s) = 7.28733 7.72702 7.51040
#
# Compressibility (1/GPa) = 0.01584005
#
# Stress axis : x y z
#
# Youngs Moduli (GPa) = 59.79231 29.98719 53.70570
#
# Poissons Ratio (x) = 0.29825 0.27498
# Poissons Ratio (y) = 0.59469 0.61009
# Poissons Ratio (z) = 0.30615 0.34065
#
# Static dielectric constant tensor:
#      x y z
#    x 1.575860 0.000000 0.008270 
#    y 0.000000 1.569530 0.000000 
#    z 0.008270 0.000000 1.583120 
# 
# From -- ./inp_files/65199.got.cif
#   From: 2010.05.17/outbox.cif.g08.bks.cpg/sg11_33_cif.got.tgz:65199.got - 2010.06.03 12:22:45.
