data_PCOD9162395
_publ_section_title
;
Structure prediction by ZEFSAII (Michael W. Deem and Ramdas Pophale) SiO2 
 PCOD9162395
Probable space group: P 21/M
;
_chemical_formula_sum "Si O2"
_cell_formula_units_Z 28
_cell_length_a 19.524047
_cell_length_b 8.145212
_cell_length_c 14.816969
_cell_angle_alpha 90.000000
_cell_angle_beta 145.888083
_cell_angle_gamma 90.000000
_cell_volume 1321.442579
_symmetry_space_group_name_H-M "P 21/M"
_symmetry_group_IT_number 11
_symmetry_cell_setting 'monoclinic'
loop_
_space_group_symop_operation_xyz
x,y,z
-x,1/2+y,-z
-x,-y,-z
x,1/2-y,z
loop_
_atom_site_type_symbol
_atom_site_label
_atom_site_fract_x
_atom_site_fract_y
_atom_site_fract_z
Si Si1 0.092285 0.563615 0.722400
Si Si2 0.545229 0.549981 0.818820
Si Si3 0.140206 0.553061 0.142734
Si Si4 0.831516 0.058020 0.458506
Si Si5 0.276019 0.951027 0.471603
Si Si6 0.317202 0.439115 0.860124
Si Si7 0.212696 0.054648 0.024390
O O1 0.121822 0.750000 0.728939
O O2 0.191496 0.450665 0.781245
O O3 0.951602 0.527376 0.550256
O O4 0.115130 0.534351 0.853626
O O5 0.543791 0.750000 0.821752
O O6 0.414854 0.494941 0.640372
O O7 0.654876 0.505328 0.870561
O O8 0.581949 0.493810 0.959930
O O9 0.145176 0.750000 0.146466
O O10 0.217127 0.494964 0.313574
O O11 0.193762 0.487538 0.107504
O O12 0.000000 0.500000 0.000000
O O13 0.859779 0.250000 0.494351
O O14 0.801363 0.996649 0.525649
O O15 0.715414 0.031781 0.267063
O O16 0.276103 0.750000 0.471858
O O17 0.343794 0.250000 0.868204
O O18 0.198288 0.250000 0.996469
#
# Coordination Sequence:
#
# PCOD9162395 Si02
#       7
#     4   4   4   4   4   4   4
#     4  11  21  35  56  82 112 144 186 232 275 328
#     4   8  17  36  58  79 107 144 184 225 274 329
#     4  11  22  37  59  85 114 146 185 229 276 330
#     4  11  21  34  54  80 112 148 187 230 278 328
#     4   9  20  37  56  79 108 145 186 229 274 324
#     4  10  20  35  56  81 111 145 182 227 279 333
#     4  10  20  36  59  84 113 146 179 223 280 334
#
# _framework density 21.188966000000001
#
# number of rings (size 3 to 8) (size 9 to 14) (size 15 to 20)
#    0.000    2.000    0.000    5.143    0.000    2.286 
#    0.000    2.143    0.000   18.857    0.000    0.000 
#    0.000    0.000    0.000    0.000    0.000    0.000 
#
# Total GULP energy -156472.067615 kJ/mol
# GULP energy per Si atom -5588.288129 kJ/mol
# Density = 2.114074 g / cm^3
# Si number density = 21.188966 Si / 1000 Ang^3
#
#
#
# Elastic Constant Matrix: (Units=GPa)
#
#
# Indices 1 2 3 4 5 6 
#
# 1 36.7103 -9.7201 14.9531 0.0000 -12.9925 0.0000
# 2 -9.7201 35.9615 -5.9841 0.0000 3.7915 0.0000
# 3 14.9531 -5.9841 134.2665 0.0000 -5.4881 0.0000
# 4 0.0000 0.0000 0.0000 24.1514 0.0000 -7.8201
# 5 -12.9925 3.7915 -5.4881 0.0000 38.4921 0.0000
# 6 0.0000 0.0000 0.0000 -7.8201 0.0000 20.0073
#
#
#
# Elastic Compliance Matrix: (Units=1/GPa)
#
#
# Indices 1 2 3 4 5 6 
#
# 1 0.034163 0.007637 -0.003041 0.000000 0.010345 0.000000
# 2 0.007637 0.029983 0.000473 0.000000 -0.000308 0.000000
# 3 -0.003041 0.000473 0.007809 0.000000 0.000040 0.000000
# 4 0.000000 0.000000 0.000000 0.047405 0.000000 0.018529
# 5 0.010345 -0.000308 0.000040 0.000000 0.029507 0.000000
# 6 0.000000 0.000000 0.000000 0.018529 0.000000 0.057224
#
#
# Mechanical properties :
#
#
# Convention : Reuss Voigt Hill
#
# Bulk Modulus (GPa) = 12.18138 22.82624 17.50381
# Shear Modulus (GPa) = 22.38958 30.37610 26.38284
#
# Velocity S-wave (km/s) = 3.25416 3.79037 3.53246
# Velocity P-wave (km/s) = 4.45879 5.47284 4.99163
#
# Compressibility (1/GPa) = 0.08209250
#
# Stress axis : x y z
#
# Youngs Moduli (GPa) = 29.27171 33.35231 128.05202
#
# Poissons Ratio (x) = -0.25471 0.38946
# Poissons Ratio (y) = -0.22355 -0.06059
# Poissons Ratio (z) = 0.08903 -0.01578
#
# Static dielectric constant tensor:
#      x y z
#    x 1.756210 0.000000 -0.010820 
#    y 0.000000 1.752200 0.000000 
#    z -0.010820 0.000000 1.767450 
# 
# From -- ./inp_files/54624.got.cif
#   From: 2010.05.17/outbox.cif.g08.bks.cpg/sg11_28_cif.got.tgz:54624.got - 2010.06.03 12:22:45.
