data_PCOD9162760
_publ_section_title
;
Structure prediction by ZEFSAII (Michael W. Deem and Ramdas Pophale) SiO2 
 PCOD9162760
Probable space group: P 21/M
;
_chemical_formula_sum "Si O2"
_cell_formula_units_Z 32
_cell_length_a 32.234712
_cell_length_b 8.562574
_cell_length_c 12.389665
_cell_angle_alpha 90.000000
_cell_angle_beta 150.130910
_cell_angle_gamma 90.000000
_cell_volume 1703.077744
_symmetry_space_group_name_H-M "P 21/M"
_symmetry_group_IT_number 11
_symmetry_cell_setting 'monoclinic'
loop_
_space_group_symop_operation_xyz
x,y,z
-x,1/2+y,-z
-x,-y,-z
x,1/2-y,z
loop_
_atom_site_type_symbol
_atom_site_label
_atom_site_fract_x
_atom_site_fract_y
_atom_site_fract_z
Si Si1 0.899219 0.938913 0.881493
Si Si2 0.473940 0.563693 0.558354
Si Si3 0.081962 0.436784 0.323734
Si Si4 0.593372 0.563417 0.199063
Si Si5 0.711843 0.562803 0.844203
Si Si6 0.623407 0.437070 0.034184
Si Si7 0.228924 0.936509 0.796214
Si Si8 0.253485 0.439996 0.314413
O O1 0.904100 0.750000 0.897067
O O2 0.889509 0.982276 0.733526
O O3 0.821874 0.992482 0.779320
O O4 0.986779 0.007858 0.118594
O O5 0.500000 0.500000 0.500000
O O6 0.481714 0.750000 0.577955
O O7 0.379473 0.512713 0.363716
O O8 0.536031 0.489326 0.785398
O O9 0.086479 0.250000 0.342653
O O10 0.142907 0.513281 0.547563
O O11 0.588999 0.750000 0.193749
O O12 0.630510 0.512269 0.167695
O O13 0.657633 0.508465 0.436355
O O14 0.500000 0.500000 0.000000
O O15 0.702880 0.750000 0.825263
O O16 0.755809 0.515901 0.831395
O O17 0.757131 0.509832 0.055114
O O18 0.625425 0.250000 0.048653
O O19 0.696366 0.486509 0.116265
O O20 0.233664 0.750000 0.816743
O O21 0.253624 0.250000 0.319061
#
# Coordination Sequence:
#
# PCOD9162760 Si02
#       8
#     4   4   4   4   4   4   4   4
#     4   9  18  37  62  87 116 149 186 231 289 350
#     4  12  23  37  57  82 113 153 197 241 293 345
#     4  10  20  35  60  91 119 146 184 235 291 350
#     4  11  22  38  59  85 119 155 195 240 293 349
#     4  11  22  38  60  84 115 153 197 244 290 346
#     4  11  23  38  57  83 116 151 195 245 293 345
#     4  11  23  38  57  83 116 152 192 239 291 344
#     4   9  20  38  60  84 113 154 195 236 287 347
#
# _framework density 18.789511000000001
#
# number of rings (size 3 to 8) (size 9 to 14) (size 15 to 20)
#    0.000    1.500    1.250    4.500    0.000    4.000 
#    0.000    5.000    0.000    0.000    0.000    0.000 
#    0.000    0.000    0.000    0.000    0.000    0.000 
#
# Total GULP energy -178868.339008 kJ/mol
# GULP energy per Si atom -5589.635594 kJ/mol
# Density = 1.874674 g / cm^3
# Si number density = 18.789511 Si / 1000 Ang^3
#
#
#
# Elastic Constant Matrix: (Units=GPa)
#
#
# Indices 1 2 3 4 5 6 
#
# 1 125.0433 19.7928 54.8914 0.0000 0.7610 0.0000
# 2 19.7928 36.5909 5.5367 0.0000 0.5805 0.0000
# 3 54.8914 5.5367 97.4281 0.0000 -7.0296 0.0000
# 4 0.0000 0.0000 0.0000 25.2593 0.0000 0.3424
# 5 0.7610 0.5805 -7.0296 0.0000 30.5338 0.0000
# 6 0.0000 0.0000 0.0000 0.3424 0.0000 25.4232
#
#
#
# Elastic Compliance Matrix: (Units=1/GPa)
#
#
# Indices 1 2 3 4 5 6 
#
# 1 0.011649 -0.005309 -0.006381 0.000000 -0.001658 0.000000
# 2 -0.005309 0.030010 0.001275 0.000000 -0.000145 0.000000
# 3 -0.006381 0.001275 0.014029 0.000000 0.003365 0.000000
# 4 0.000000 0.000000 0.000000 0.039597 0.000000 -0.000533
# 5 -0.001658 -0.000145 0.003365 0.000000 0.033569 0.000000
# 6 0.000000 0.000000 0.000000 -0.000533 0.000000 0.039341
#
#
# Mechanical properties :
#
#
# Convention : Reuss Voigt Hill
#
# Bulk Modulus (GPa) = 28.68709 46.61156 37.64932
# Shear Modulus (GPa) = 24.91966 28.16604 26.54285
#
# Velocity S-wave (km/s) = 3.64573 3.87593 3.76259
# Velocity P-wave (km/s) = 5.74652 6.70011 6.24156
#
# Compressibility (1/GPa) = 0.03485889
#
# Stress axis : x y z
#
# Youngs Moduli (GPa) = 85.84579 33.32183 71.27942
#
# Poissons Ratio (x) = 0.17691 0.45483
# Poissons Ratio (y) = 0.45578 -0.09091
# Poissons Ratio (z) = 0.54777 -0.04250
#
# Static dielectric constant tensor:
#      x y z
#    x 1.651700 0.000000 -0.004590 
#    y 0.000000 1.648520 0.000000 
#    z -0.004590 0.000000 1.629840 
# 
# From -- ./inp_files/45285.got.cif
#   From: 2010.05.17/outbox.cif.g08.bks.cpg/sg11_23_cif.got.tgz:45285.got - 2010.06.03 12:22:45.
