data_PCOD9162882
_publ_section_title
;
Structure prediction by ZEFSAII (Michael W. Deem and Ramdas Pophale) SiO2 
 PCOD9162882
Probable space group: P 21/M
;
_chemical_formula_sum "Si O2"
_cell_formula_units_Z 20
_cell_length_a 10.595602
_cell_length_b 10.568271
_cell_length_c 16.669875
_cell_angle_alpha 90.000000
_cell_angle_beta 32.788859
_cell_angle_gamma 90.000000
_cell_volume 1010.872250
_symmetry_space_group_name_H-M "P 21/M"
_symmetry_group_IT_number 11
_symmetry_cell_setting 'monoclinic'
loop_
_space_group_symop_operation_xyz
x,y,z
-x,1/2+y,-z
-x,-y,-z
x,1/2-y,z
loop_
_atom_site_type_symbol
_atom_site_label
_atom_site_fract_x
_atom_site_fract_y
_atom_site_fract_z
Si Si1 0.967036 0.100227 0.213388
Si Si2 0.251310 0.114718 0.356696
Si Si3 0.391483 0.393512 0.866473
Si Si4 0.324773 0.390087 0.720441
Si Si5 0.860323 0.045167 0.445952
O O1 0.901827 0.250000 0.247426
O O2 0.781819 0.006645 0.270867
O O3 0.989867 0.053550 0.292540
O O4 0.205164 0.088519 0.036073
O O5 0.370227 0.250000 0.284676
O O6 0.190447 0.087206 0.482109
O O7 0.411940 0.000306 0.240348
O O8 0.017917 0.112909 0.428532
O O9 0.487525 0.250000 0.820461
O O10 0.267002 0.401990 0.845897
O O11 0.248817 0.250000 0.732918
O O12 0.605675 0.396230 0.567533
#
# Coordination Sequence:
#
# PCOD9162882 Si02
#       5
#     4   4   4   4   4
#     4  11  22  37  58  84 116 151 186 228 280 335
#     4  10  21  39  62  83 109 149 193 232 276 335
#     4   9  21  39  58  83 116 151 184 227 283 333
#     4  10  20  36  56  80 114 151 187 229 276 329
#     4  10  22  37  57  84 115 146 184 234 286 329
#
# _framework density 19.784893
#
# number of rings (size 3 to 8) (size 9 to 14) (size 15 to 20)
#    0.000    2.000    0.000    3.000    0.000   11.200 
#    0.000    0.000    0.000    0.000    0.000    0.000 
#    0.000    0.000    0.000    0.000    0.000    0.000 
#
# Total GULP energy -111528.853562 kJ/mol
# GULP energy per Si atom -5576.442678 kJ/mol
# Density = 1.973986 g / cm^3
# Si number density = 19.784893 Si / 1000 Ang^3
#
#
#
# Elastic Constant Matrix: (Units=GPa)
#
#
# Indices 1 2 3 4 5 6 
#
# 1 57.7471 65.2808 69.9022 0.0000 12.6835 0.0000
# 2 65.2808 160.6086 38.8590 0.0000 -10.3595 0.0000
# 3 69.9022 38.8590 -13.0144 0.0000 29.4653 0.0000
# 4 0.0000 0.0000 0.0000 5.4147 0.0000 10.7047
# 5 12.6835 -10.3595 29.4653 0.0000 34.4384 0.0000
# 6 0.0000 0.0000 0.0000 10.7047 0.0000 -2.3061
#
#
#
# Elastic Compliance Matrix: (Units=1/GPa)
#
#
# Indices 1 2 3 4 5 6 
#
# 1 0.019868 -0.013072 0.014373 0.000000 -0.023546 0.000000
# 2 -0.013072 0.013207 -0.003705 0.000000 0.011957 0.000000
# 3 0.014373 -0.003705 -0.008583 0.000000 0.000936 0.000000
# 4 0.000000 0.000000 0.000000 0.018147 0.000000 0.084237
# 5 -0.023546 0.011957 0.000936 0.000000 0.040505 0.000000
# 6 0.000000 0.000000 0.000000 0.084237 0.000000 -0.042609
#
#
# Mechanical properties :
#
#
# Convention : Reuss Voigt Hill
#
# Bulk Modulus (GPa) = 50.80342 61.49170 56.14756
# Shear Modulus (GPa) = 96.33296 9.59602 52.96449
#
# Velocity S-wave (km/s) = 6.98540 2.20470 5.17960
# Velocity P-wave (km/s) = 9.52863 6.13421 8.01322
#
# Compressibility (1/GPa) = 0.01968372
#
# Stress axis : x y z
#
# Youngs Moduli (GPa) = 50.33276 75.71759 -116.50418
#
# Poissons Ratio (x) = 0.98975 1.67446
# Poissons Ratio (y) = 0.65793 -0.43161
# Poissons Ratio (z) = -0.72341 0.28051
#
# Static dielectric constant tensor:
#      x y z
#    x 1.680330 0.000000 0.014090 
#    y 0.000000 1.726530 0.000000 
#    z 0.014090 0.000000 1.711610 
# 
# From -- ./inp_files/58824.got.cif
#   From: 2010.05.17/outbox.cif.g08.bks.cpg/sg11_30_cif.got.tgz:58824.got - 2010.06.03 12:22:45.
