data_PCOD9162777
_publ_section_title
;
Structure prediction by ZEFSAII (Michael W. Deem and Ramdas Pophale) SiO2 
 PCOD9162777
Probable space group: P 21/M
;
_chemical_formula_sum "Si O2"
_cell_formula_units_Z 32
_cell_length_a 12.965913
_cell_length_b 9.169461
_cell_length_c 32.348762
_cell_angle_alpha 90.000000
_cell_angle_beta 25.762620
_cell_angle_gamma 90.000000
_cell_volume 1671.621314
_symmetry_space_group_name_H-M "P 21/M"
_symmetry_group_IT_number 11
_symmetry_cell_setting 'monoclinic'
loop_
_space_group_symop_operation_xyz
x,y,z
-x,1/2+y,-z
-x,-y,-z
x,1/2-y,z
loop_
_atom_site_type_symbol
_atom_site_label
_atom_site_fract_x
_atom_site_fract_y
_atom_site_fract_z
Si Si1 0.020763 0.079158 0.140523
Si Si2 0.102017 0.578388 0.422960
Si Si3 0.669864 0.579355 0.205748
Si Si4 0.253984 0.076378 0.599303
Si Si5 0.565602 0.920707 0.075591
Si Si6 0.078627 0.575316 0.207132
Si Si7 0.055493 0.082563 0.356254
Si Si8 0.624577 0.083343 0.138281
O O1 0.966365 0.250000 0.165331
O O2 0.066397 0.005613 0.168126
O O3 0.252288 0.066800 0.027946
O O4 0.813500 0.999905 0.189964
O O5 0.042138 0.750000 0.444107
O O6 0.388455 0.566751 0.316702
O O7 0.004372 0.495358 0.418047
O O8 0.000000 0.500000 0.500000
O O9 0.730499 0.750000 0.182142
O O10 0.721202 0.504859 0.142833
O O11 0.271626 0.250000 0.587933
O O12 0.154056 0.047041 0.681252
O O13 0.500000 0.000000 0.500000
O O14 0.062775 0.010802 0.636871
O O15 0.545247 0.750000 0.094913
O O16 0.308915 0.969269 0.151063
O O17 0.657388 0.008787 0.082058
O O18 0.098754 0.750000 0.193207
O O19 0.970756 0.250000 0.386327
O O20 0.338951 0.084581 0.247706
O O21 0.711073 0.250000 0.107612
#
# Coordination Sequence:
#
# PCOD9162777 Si02
#       8
#     4   4   4   4   4   4   4   4
#     4  11  24  39  60  89 122 158 199 250 300 351
#     4  10  21  37  60  87 114 152 197 243 296 355
#     4  10  22  40  60  83 119 160 197 241 299 360
#     4  11  23  39  61  88 119 156 197 245 299 354
#     4  10  21  39  62  89 119 156 201 245 297 360
#     4  10  22  41  63  85 118 160 200 244 298 359
#     4  10  20  36  58  85 116 149 191 243 294 351
#     4  10  20  35  61  91 117 150 195 247 294 346
#
# _framework density 19.143091999999999
#
# number of rings (size 3 to 8) (size 9 to 14) (size 15 to 20)
#    0.000    1.750    1.250    2.625    0.000    6.500 
#    0.000    1.250    0.000    0.000    0.000    0.000 
#    0.000    0.000    0.000    0.000    0.000    0.000 
#
# Total GULP energy -178826.755928 kJ/mol
# GULP energy per Si atom -5588.336123 kJ/mol
# Density = 1.909952 g / cm^3
# Si number density = 19.143092 Si / 1000 Ang^3
#
#
#
# Elastic Constant Matrix: (Units=GPa)
#
#
# Indices 1 2 3 4 5 6 
#
# 1 98.7178 56.9523 32.3835 0.0000 30.1749 0.0000
# 2 56.9523 116.5514 52.9203 0.0000 23.3410 0.0000
# 3 32.3835 52.9203 45.9116 0.0000 17.3376 0.0000
# 4 0.0000 0.0000 0.0000 29.1312 0.0000 4.8065
# 5 30.1749 23.3410 17.3376 0.0000 31.3930 0.0000
# 6 0.0000 0.0000 0.0000 4.8065 0.0000 41.4469
#
#
#
# Elastic Compliance Matrix: (Units=1/GPa)
#
#
# Indices 1 2 3 4 5 6 
#
# 1 0.017378 -0.005425 -0.001541 0.000000 -0.011819 0.000000
# 2 -0.005425 0.019843 -0.019513 0.000000 0.001238 0.000000
# 3 -0.001541 -0.019513 0.049683 0.000000 -0.011450 0.000000
# 4 0.000000 0.000000 0.000000 0.034997 0.000000 -0.004059
# 5 -0.011819 0.001238 -0.011450 0.000000 0.048618 0.000000
# 6 0.000000 0.000000 0.000000 -0.004059 0.000000 0.024598
#
#
# Mechanical properties :
#
#
# Convention : Reuss Voigt Hill
#
# Bulk Modulus (GPa) = 29.45837 60.63258 45.04547
# Shear Modulus (GPa) = 19.27605 28.32254 23.79930
#
# Velocity S-wave (km/s) = 3.17668 3.85062 3.52977
# Velocity P-wave (km/s) = 5.37373 7.17717 6.33991
#
# Compressibility (1/GPa) = 0.03394621
#
# Stress axis : x y z
#
# Youngs Moduli (GPa) = 57.54444 50.39636 20.12757
#
# Poissons Ratio (x) = 0.27340 0.03102
# Poissons Ratio (y) = 0.31218 0.39274
# Poissons Ratio (z) = 0.08868 0.98337
#
# Static dielectric constant tensor:
#      x y z
#    x 1.641200 0.000000 -0.019080 
#    y 0.000000 1.646850 0.000000 
#    z -0.019080 0.000000 1.673990 
# 
# From -- ./inp_files/45301.got.cif
#   From: 2010.05.17/outbox.cif.g08.bks.cpg/sg11_23_cif.got.tgz:45301.got - 2010.06.03 12:22:45.
