data_PCOD9162704
_publ_section_title
;
Structure prediction by ZEFSAII (Michael W. Deem and Ramdas Pophale) SiO2 
 PCOD9162704
Probable space group: P 21/M
;
_chemical_formula_sum "Si O2"
_cell_formula_units_Z 32
_cell_length_a 12.840746
_cell_length_b 8.392796
_cell_length_c 29.690581
_cell_angle_alpha 90.000000
_cell_angle_beta 30.487564
_cell_angle_gamma 90.000000
_cell_volume 1623.395830
_symmetry_space_group_name_H-M "P 21/M"
_symmetry_group_IT_number 11
_symmetry_cell_setting 'monoclinic'
loop_
_space_group_symop_operation_xyz
x,y,z
-x,1/2+y,-z
-x,-y,-z
x,1/2-y,z
loop_
_atom_site_type_symbol
_atom_site_label
_atom_site_fract_x
_atom_site_fract_y
_atom_site_fract_z
Si Si1 0.535445 0.560723 0.289317
Si Si2 0.434188 0.056290 0.974569
Si Si3 0.502685 0.561921 0.549376
Si Si4 0.915087 0.936218 0.267777
Si Si5 0.015905 0.564720 0.852734
Si Si6 0.803557 0.938564 0.514124
Si Si7 0.242209 0.945506 0.322441
Si Si8 0.772369 0.443327 0.775191
O O1 0.540791 0.750000 0.287306
O O2 0.766457 0.505094 0.212956
O O3 0.365212 0.510101 0.389611
O O4 0.441228 0.505739 0.276655
O O5 0.434299 0.250000 0.975698
O O6 0.593479 0.005805 0.876400
O O7 0.203201 0.000178 0.048689
O O8 0.500000 0.000000 0.000000
O O9 0.500000 0.500000 0.500000
O O10 0.453840 0.750000 0.569097
O O11 0.326062 0.465393 0.640510
O O12 0.714627 0.540601 0.496752
O O13 0.960778 0.750000 0.242397
O O14 0.017173 0.982773 0.277093
O O15 0.998593 0.038127 0.195562
O O16 0.024020 0.750000 0.860497
O O17 0.808918 0.750000 0.521679
O O18 0.036609 0.999456 0.425682
O O19 0.234195 0.750000 0.324835
O O20 0.241654 0.000699 0.270846
O O21 0.763801 0.250000 0.775977
#
# Coordination Sequence:
#
# PCOD9162704 Si02
#       8
#     4   4   4   4   4   4   4   4
#     4  11  22  36  58  83 109 148 197 240 272 324
#     4  10  20  35  59  87 114 146 183 228 283 343
#     4  11  22  34  51  78 115 154 188 227 281 339
#     4  11  20  33  57  83 111 146 186 230 280 338
#     4  11  22  36  55  82 116 148 181 229 285 337
#     4  10  20  36  57  80 111 148 186 233 286 336
#     4   9  19  36  57  82 111 146 190 235 281 334
#     4   9  18  35  58  84 113 146 182 228 288 346
#
# _framework density 19.711767999999999
#
# number of rings (size 3 to 8) (size 9 to 14) (size 15 to 20)
#    0.000    1.750    2.500    2.625    0.000    3.000 
#    0.000    1.250    0.000    5.250    0.000    0.000 
#    0.000    0.000    0.000    0.000    0.000    0.000 
#
# Total GULP energy -178554.166164 kJ/mol
# GULP energy per Si atom -5579.817693 kJ/mol
# Density = 1.966690 g / cm^3
# Si number density = 19.711768 Si / 1000 Ang^3
#
#
#
# Elastic Constant Matrix: (Units=GPa)
#
#
# Indices 1 2 3 4 5 6 
#
# 1 118.3773 20.3919 41.4525 0.0000 -21.1626 0.0000
# 2 20.3919 13.2376 13.1687 0.0000 -11.1217 0.0000
# 3 41.4525 13.1687 97.6000 0.0000 -21.2764 0.0000
# 4 0.0000 0.0000 0.0000 9.3318 0.0000 6.5201
# 5 -21.1626 -11.1217 -21.2764 0.0000 28.4727 0.0000
# 6 0.0000 0.0000 0.0000 6.5201 0.0000 12.9485
#
#
#
# Elastic Compliance Matrix: (Units=1/GPa)
#
#
# Indices 1 2 3 4 5 6 
#
# 1 0.012264 -0.015109 -0.002950 0.000000 0.001009 0.000000
# 2 -0.015109 0.134834 -0.003276 0.000000 0.038990 0.000000
# 3 -0.002950 -0.003276 0.013360 0.000000 0.006511 0.000000
# 4 0.000000 0.000000 0.000000 0.165326 0.000000 -0.083249
# 5 0.001009 0.038990 0.006511 0.000000 0.055966 0.000000
# 6 0.000000 0.000000 0.000000 -0.083249 0.000000 0.119148
#
#
# Mechanical properties :
#
#
# Convention : Reuss Voigt Hill
#
# Bulk Modulus (GPa) = 8.48986 42.13789 25.31387
# Shear Modulus (GPa) = 8.57881 20.43073 14.50477
#
# Velocity S-wave (km/s) = 2.08844 3.22292 2.71559
# Velocity P-wave (km/s) = 3.18305 5.93911 4.76471
#
# Compressibility (1/GPa) = 0.11778762
#
# Stress axis : x y z
#
# Youngs Moduli (GPa) = 81.54138 7.41653 74.84869
#
# Poissons Ratio (x) = 0.11206 0.22081
# Poissons Ratio (y) = 1.23204 0.24518
# Poissons Ratio (z) = 0.24055 0.02429
#
# Static dielectric constant tensor:
#      x y z
#    x 1.700660 0.000000 -0.015030 
#    y 0.000000 1.695850 0.000000 
#    z -0.015030 0.000000 1.713320 
# 
# From -- ./inp_files/38104.got.cif
#   From: 2010.05.17/outbox.cif.g08.bks.cpg/sg11_20_cif.got.tgz:38104.got - 2010.06.03 12:22:45.
