data_PCOD9162268
_publ_section_title
;
Structure prediction by ZEFSAII (Michael W. Deem and Ramdas Pophale) SiO2 
 PCOD9162268
Probable space group: P 21/M
;
_chemical_formula_sum "Si O2"
_cell_formula_units_Z 32
_cell_length_a 16.005221
_cell_length_b 8.846031
_cell_length_c 23.748879
_cell_angle_alpha 90.000000
_cell_angle_beta 29.607326
_cell_angle_gamma 90.000000
_cell_volume 1661.218740
_symmetry_space_group_name_H-M "P 21/M"
_symmetry_group_IT_number 11
_symmetry_cell_setting 'monoclinic'
loop_
_space_group_symop_operation_xyz
x,y,z
-x,1/2+y,-z
-x,-y,-z
x,1/2-y,z
loop_
_atom_site_type_symbol
_atom_site_label
_atom_site_fract_x
_atom_site_fract_y
_atom_site_fract_z
Si Si1 0.695713 0.931651 0.549658
Si Si2 0.028929 0.567394 0.421758
Si Si3 0.371879 0.929834 0.813627
Si Si4 0.506615 0.427535 0.557652
Si Si5 0.157381 0.069488 0.030064
Si Si6 0.291292 0.431708 0.070287
Si Si7 0.680238 0.431840 0.828876
Si Si8 0.175258 0.427818 0.828147
O O1 0.691492 0.750000 0.546251
O O2 0.550359 0.972747 0.680517
O O3 0.876144 0.976321 0.469266
O O4 0.642791 0.001902 0.521002
O O5 0.027555 0.750000 0.426643
O O6 0.205311 0.518054 0.290291
O O7 0.000000 0.500000 0.500000
O O8 0.368325 0.750000 0.824449
O O9 0.323152 0.016064 0.898909
O O10 0.231922 0.978803 0.849598
O O11 0.500000 0.500000 0.500000
O O12 0.539672 0.250000 0.532841
O O13 0.325808 0.447692 0.694595
O O14 0.140617 0.250000 0.034992
O O15 0.176383 0.029039 0.084454
O O16 0.997837 0.987815 0.096077
O O17 0.290431 0.250000 0.077234
O O18 0.245226 0.507122 0.156173
O O19 0.484253 0.479183 0.942449
O O20 0.683634 0.250000 0.828041
O O21 0.163558 0.250000 0.849185
#
# Coordination Sequence:
#
# PCOD9162268 Si02
#       8
#     4   4   4   4   4   4   4   4
#     4   9  20  38  56  81 114 147 187 234 282 335
#     4  10  22  38  59  87 117 150 189 235 288 339
#     4  10  20  35  55  77 109 147 182 223 274 328
#     4  10  21  37  59  83 109 147 187 228 279 337
#     4  11  22  34  53  81 111 142 181 227 274 327
#     4   9  20  37  56  80 108 144 185 227 276 329
#     4   9  19  38  59  79 109 145 182 228 278 328
#     4  10  21  37  54  77 108 142 183 224 271 327
#
# _framework density 19.262965999999999
#
# number of rings (size 3 to 8) (size 9 to 14) (size 15 to 20)
#    0.000    2.250    0.000    1.875    1.750    5.000 
#    0.000    3.750    0.000    0.000    0.000    0.000 
#    0.000    0.000    0.000    0.000    0.000    0.000 
#
# Total GULP energy -178699.986193 kJ/mol
# GULP energy per Si atom -5584.374569 kJ/mol
# Density = 1.921912 g / cm^3
# Si number density = 19.262966 Si / 1000 Ang^3
#
#
#
# Elastic Constant Matrix: (Units=GPa)
#
#
# Indices 1 2 3 4 5 6 
#
# 1 55.2791 8.6840 23.6695 0.0000 15.3417 0.0000
# 2 8.6840 18.4400 15.9037 0.0000 5.2207 0.0000
# 3 23.6695 15.9037 57.9642 0.0000 11.7705 0.0000
# 4 0.0000 0.0000 0.0000 25.1681 0.0000 7.3238
# 5 15.3417 5.2207 11.7705 0.0000 28.1464 0.0000
# 6 0.0000 0.0000 0.0000 7.3238 0.0000 32.3183
#
#
#
# Elastic Compliance Matrix: (Units=1/GPa)
#
#
# Indices 1 2 3 4 5 6 
#
# 1 0.024290 -0.002399 -0.007281 0.000000 -0.009750 0.000000
# 2 -0.002399 0.072063 -0.017860 0.000000 -0.004590 0.000000
# 3 -0.007281 -0.017860 0.025841 0.000000 -0.003525 0.000000
# 4 0.000000 0.000000 0.000000 0.042538 0.000000 -0.009640
# 5 -0.009750 -0.004590 -0.003525 0.000000 0.043169 0.000000
# 6 0.000000 0.000000 0.000000 -0.009640 0.000000 0.033127
#
#
# Mechanical properties :
#
#
# Convention : Reuss Voigt Hill
#
# Bulk Modulus (GPa) = 14.89997 25.35529 20.12763
# Shear Modulus (GPa) = 15.69955 22.68829 19.19392
#
# Velocity S-wave (km/s) = 2.85794 3.43566 3.16003
# Velocity P-wave (km/s) = 4.31767 5.37863 4.87708
#
# Compressibility (1/GPa) = 0.06711425
#
# Stress axis : x y z
#
# Youngs Moduli (GPa) = 41.16854 13.87669 38.69774
#
# Poissons Ratio (x) = 0.03330 0.28175
# Poissons Ratio (y) = 0.09878 0.69115
# Poissons Ratio (z) = 0.29973 0.24784
#
# Static dielectric constant tensor:
#      x y z
#    x 1.646250 0.000000 -0.004100 
#    y 0.000000 1.641400 0.000000 
#    z -0.004100 0.000000 1.694970 
# 
# From -- ./inp_files/69002.got.cif
#   From: 2010.05.17/outbox.cif.g08.bks.cpg/sg11_35_cif.got.tgz:69002.got - 2010.06.03 12:22:45.
