data_PCOD9162046
_publ_section_title
;
Structure prediction by ZEFSAII (Michael W. Deem and Ramdas Pophale) SiO2 
 PCOD9162046
Probable space group: P 21/M
;
_chemical_formula_sum "Si O2"
_cell_formula_units_Z 32
_cell_length_a 6.507983
_cell_length_b 13.447054
_cell_length_c 18.916211
_cell_angle_alpha 90.000000
_cell_angle_beta 100.029817
_cell_angle_gamma 90.000000
_cell_volume 1630.118797
_symmetry_space_group_name_H-M "P 21/M"
_symmetry_group_IT_number 11
_symmetry_cell_setting 'monoclinic'
loop_
_space_group_symop_operation_xyz
x,y,z
-x,1/2+y,-z
-x,-y,-z
x,1/2-y,z
loop_
_atom_site_type_symbol
_atom_site_label
_atom_site_fract_x
_atom_site_fract_y
_atom_site_fract_z
Si Si1 0.687255 0.633283 0.470400
Si Si2 0.942163 0.864840 0.340759
Si Si3 0.499406 0.629446 0.707431
Si Si4 0.312902 0.498869 0.401771
Si Si5 0.229040 0.861361 0.814544
Si Si6 0.839506 0.970199 0.829347
Si Si7 0.508290 0.488807 0.916995
Si Si8 0.816242 0.636402 0.181403
O O1 0.673622 0.750000 0.487146
O O2 0.461328 0.585182 0.441477
O O3 0.776857 0.568438 0.540229
O O4 0.821973 0.623270 0.407226
O O5 0.022527 0.750000 0.342404
O O6 0.787078 0.874658 0.264395
O O7 0.128102 0.944994 0.349294
O O8 0.540424 0.750000 0.705939
O O9 0.542318 0.575534 0.635911
O O10 0.276887 0.616252 0.734532
O O11 0.652151 0.564883 0.767420
O O12 0.296972 0.750000 0.827485
O O13 0.370706 0.925523 0.873754
O O14 0.997594 0.879270 0.827450
O O15 0.737080 0.995275 0.898398
O O16 0.987710 0.064065 0.821052
O O17 0.386242 0.394172 0.876313
O O18 0.500000 0.500000 0.000000
O O19 0.870748 0.750000 0.169738
#
# Coordination Sequence:
#
# PCOD9162046 Si02
#       8
#     4   4   4   4   4   4   4   4
#     4  10  23  38  55  84 121 157 197 244 296 351
#     4  10  21  38  60  86 118 155 199 245 294 351
#     4  10  20  34  57  86 116 152 197 243 290 345
#     4  11  21  36  60  84 117 159 199 245 297 345
#     4   9  20  37  58  86 116 152 194 239 291 349
#     4  10  20  38  61  83 117 151 190 238 296 347
#     4  10  23  40  59  87 121 155 192 240 294 352
#     4  10  22  38  60  90 118 152 200 243 290 352
#
# _framework density 19.630472000000001
#
# number of rings (size 3 to 8) (size 9 to 14) (size 15 to 20)
#    0.000    2.000    1.250    1.500    5.250    3.500 
#    0.000    1.250    0.000    6.000    0.000    0.000 
#    0.000    0.000    0.000    0.000    0.000    0.000 
#
# Total GULP energy -178214.803907 kJ/mol
# GULP energy per Si atom -5569.212622 kJ/mol
# Density = 1.958579 g / cm^3
# Si number density = 19.630472 Si / 1000 Ang^3
#
#
#
# Elastic Constant Matrix: (Units=GPa)
#
#
# Indices 1 2 3 4 5 6 
#
# 1 44.8022 3.4084 19.9660 0.0000 -10.9316 0.0000
# 2 3.4084 93.7209 18.2147 0.0000 -3.7494 0.0000
# 3 19.9660 18.2147 110.5692 0.0000 -16.9055 0.0000
# 4 0.0000 0.0000 0.0000 50.9662 0.0000 11.2188
# 5 -10.9316 -3.7494 -16.9055 0.0000 26.6878 0.0000
# 6 0.0000 0.0000 0.0000 11.2188 0.0000 23.5605
#
#
#
# Elastic Compliance Matrix: (Units=1/GPa)
#
#
# Indices 1 2 3 4 5 6 
#
# 1 0.025893 0.000056 -0.003390 0.000000 0.008466 0.000000
# 2 0.000056 0.011028 -0.001756 0.000000 0.000460 0.000000
# 3 -0.003390 -0.001756 0.010735 0.000000 0.005165 0.000000
# 4 0.000000 0.000000 0.000000 0.021918 0.000000 -0.010437
# 5 0.008466 0.000460 0.005165 0.000000 0.044274 0.000000
# 6 0.000000 0.000000 0.000000 -0.010437 0.000000 0.047414
#
#
# Mechanical properties :
#
#
# Convention : Reuss Voigt Hill
#
# Bulk Modulus (GPa) = 26.68519 36.91894 31.80207
# Shear Modulus (GPa) = 27.18350 34.07644 30.62997
#
# Velocity S-wave (km/s) = 3.72527 4.17093 3.95438
# Velocity P-wave (km/s) = 5.66805 6.48408 6.08975
#
# Compressibility (1/GPa) = 0.03747396
#
# Stress axis : x y z
#
# Youngs Moduli (GPa) = 38.62095 90.68076 93.15006
#
# Poissons Ratio (x) = -0.00508 0.31581
# Poissons Ratio (y) = -0.00216 0.16362
# Poissons Ratio (z) = 0.13094 0.15928
#
# Static dielectric constant tensor:
#      x y z
#    x 1.780920 0.000000 0.114930 
#    y 0.000000 3.910380 0.000000 
#    z 0.114930 0.000000 2.140940 
# 
# From -- ./inp_files/57068.got.cif
#   From: 2010.05.17/outbox.cif.g08.bks.cpg/sg11_29_cif.got.tgz:57068.got - 2010.06.03 12:22:45.
