data_PCOD9162440
_publ_section_title
;
Structure prediction by ZEFSAII (Michael W. Deem and Ramdas Pophale) SiO2 
 PCOD9162440
Probable space group: P 21/M
;
_chemical_formula_sum "Si O2"
_cell_formula_units_Z 32
_cell_length_a 19.024071
_cell_length_b 8.724349
_cell_length_c 21.332748
_cell_angle_alpha 90.000000
_cell_angle_beta 21.676559
_cell_angle_gamma 90.000000
_cell_volume 1307.798726
_symmetry_space_group_name_H-M "P 21/M"
_symmetry_group_IT_number 11
_symmetry_cell_setting 'monoclinic'
loop_
_space_group_symop_operation_xyz
x,y,z
-x,1/2+y,-z
-x,-y,-z
x,1/2-y,z
loop_
_atom_site_type_symbol
_atom_site_label
_atom_site_fract_x
_atom_site_fract_y
_atom_site_fract_z
Si Si1 0.586010 0.568732 0.187842
Si Si2 0.715250 0.571516 0.770982
Si Si3 0.699182 0.575574 0.279546
Si Si4 0.030112 0.927501 0.696679
Si Si5 0.633730 0.571945 0.514331
Si Si6 0.031362 0.075049 0.068367
Si Si7 0.618268 0.432492 0.031007
Si Si8 0.066254 0.075442 0.543406
O O1 0.551900 0.750000 0.228488
O O2 0.485627 0.466516 0.323444
O O3 0.536661 0.518637 0.159267
O O4 0.813969 0.542373 0.006697
O O5 0.718587 0.750000 0.789650
O O6 0.852321 0.468576 0.699350
O O7 0.813865 0.568488 0.619912
O O8 0.501865 0.519607 0.930581
O O9 0.637379 0.750000 0.337690
O O10 0.513420 0.475825 0.418424
O O11 0.847113 0.528097 0.210797
O O12 0.834307 0.565923 0.105361
O O13 0.981582 0.750000 0.743372
O O14 0.174739 0.976780 0.631394
O O15 0.839148 0.025678 0.848534
O O16 0.126250 0.960925 0.549111
O O17 0.678598 0.750000 0.473058
O O18 0.964963 0.250000 0.128258
O O19 0.593662 0.250000 0.057944
O O20 0.077306 0.250000 0.557991
#
# Coordination Sequence:
#
# PCOD9162440 Si02
#       8
#     4   4   4   4   4   4   4   4
#     4  10  20  35  56  83 113 146 186 229 276 328
#     4   9  20  38  60  86 114 144 179 222 271 325
#     4   9  16  27  46  75 108 140 178 225 276 326
#     4  12  25  40  57  79 111 148 187 231 279 330
#     4  11  21  35  56  81 110 145 186 230 278 331
#     4   8  15  27  45  73 108 142 177 221 271 324
#     4  11  23  39  58  81 112 149 189 230 275 327
#     4  10  20  37  62  89 114 142 180 224 272 327
#
# _framework density 24.468595000000001
#
# number of rings (size 3 to 8) (size 9 to 14) (size 15 to 20)
#    0.000    2.000    0.000    5.250    0.000    6.500 
#    0.000    0.000    0.000    0.750    0.000    0.000 
#    0.000    0.000    0.000    0.000    0.000    0.000 
#
# Total GULP energy -179142.061750 kJ/mol
# GULP energy per Si atom -5598.189430 kJ/mol
# Density = 2.441290 g / cm^3
# Si number density = 24.468595 Si / 1000 Ang^3
#
#
#
# Elastic Constant Matrix: (Units=GPa)
#
#
# Indices 1 2 3 4 5 6 
#
# 1 109.0188 11.1118 -0.6636 0.0000 -23.6183 0.0000
# 2 11.1118 61.3710 9.3102 0.0000 -18.9179 0.0000
# 3 -0.6636 9.3102 92.9436 0.0000 -16.7737 0.0000
# 4 0.0000 0.0000 0.0000 33.0832 0.0000 -9.9648
# 5 -23.6183 -18.9179 -16.7737 0.0000 47.9683 0.0000
# 6 0.0000 0.0000 0.0000 -9.9648 0.0000 30.7525
#
#
#
# Elastic Compliance Matrix: (Units=1/GPa)
#
#
# Indices 1 2 3 4 5 6 
#
# 1 0.010374 -0.000400 0.001075 0.000000 0.005326 0.000000
# 2 -0.000400 0.018594 -0.000616 0.000000 0.006921 0.000000
# 3 0.001075 -0.000616 0.011613 0.000000 0.004347 0.000000
# 4 0.000000 0.000000 0.000000 0.033496 0.000000 0.010854
# 5 0.005326 0.006921 0.004347 0.000000 0.027719 0.000000
# 6 0.000000 0.000000 0.000000 0.010854 0.000000 0.036035
#
#
# Mechanical properties :
#
#
# Convention : Reuss Voigt Hill
#
# Bulk Modulus (GPa) = 24.57041 33.65004 29.11023
# Shear Modulus (GPa) = 33.05167 38.59913 35.82540
#
# Velocity S-wave (km/s) = 3.67928 3.97608 3.83056
# Velocity P-wave (km/s) = 5.30216 5.90433 5.61133
#
# Compressibility (1/GPa) = 0.04069935
#
# Stress axis : x y z
#
# Youngs Moduli (GPa) = 96.39571 53.78214 86.10896
#
# Poissons Ratio (x) = 0.02149 -0.09260
# Poissons Ratio (y) = 0.03852 0.05308
# Poissons Ratio (z) = -0.10366 0.03315
#
# Static dielectric constant tensor:
#      x y z
#    x 2.013150 0.000000 0.077900 
#    y 0.000000 1.819980 0.000000 
#    z 0.077900 0.000000 2.021650 
# 
# From -- ./inp_files/71992.got.cif
#   From: 2010.05.17/outbox.cif.g08.bks.cpg/sg11_36_cif.got.tgz:71992.got - 2010.06.03 12:22:45.
