data_PCOD9162362
_publ_section_title
;
Structure prediction by ZEFSAII (Michael W. Deem and Ramdas Pophale) SiO2 
 PCOD9162362
Probable space group: P 21/M
;
_chemical_formula_sum "Si O2"
_cell_formula_units_Z 20
_cell_length_a 23.288308
_cell_length_b 7.544406
_cell_length_c 7.400899
_cell_angle_alpha 90.000000
_cell_angle_beta 40.805394
_cell_angle_gamma 90.000000
_cell_volume 849.743111
_symmetry_space_group_name_H-M "P 21/M"
_symmetry_group_IT_number 11
_symmetry_cell_setting 'monoclinic'
loop_
_space_group_symop_operation_xyz
x,y,z
-x,1/2+y,-z
-x,-y,-z
x,1/2-y,z
loop_
_atom_site_type_symbol
_atom_site_label
_atom_site_fract_x
_atom_site_fract_y
_atom_site_fract_z
Si Si1 0.947119 0.033282 0.370857
Si Si2 0.635471 0.037737 0.193546
Si Si3 0.190963 0.967601 0.022888
Si Si4 0.860976 0.451048 0.220283
Si Si5 0.513585 0.958507 0.177950
O O1 0.954947 0.250000 0.343671
O O2 0.900610 0.979867 0.666300
O O3 0.879683 0.974317 0.372677
O O4 0.040938 0.952598 0.100398
O O5 0.638058 0.250000 0.203530
O O6 0.561864 0.965381 0.509026
O O7 0.604896 0.002700 0.061499
O O8 0.729069 0.974061 0.042116
O O9 0.190559 0.750000 0.018534
O O10 0.197141 0.030852 0.801346
O O11 0.829942 0.250000 0.323645
O O12 0.504934 0.750000 0.210607
O O13 0.500000 0.000000 0.000000
#
# Coordination Sequence:
#
# PCOD9162362 Si02
#       5
#     4   4   4   4   4
#     4   9  17  29  46  67  92 124 161 198 235 279
#     4   9  19  35  54  77 102 129 167 210 249 295
#     4   9  17  30  49  71  93 121 159 200 240 284
#     4   9  17  29  45  66  93 124 159 196 235 282
#     4  10  20  35  56  78 102 133 165 201 249 302
#
# _framework density 23.536525999999999
#
# number of rings (size 3 to 8) (size 9 to 14) (size 15 to 20)
#    0.000    2.800    0.000    1.200    0.000    2.400 
#    0.000    8.000    0.000    4.800    0.000    0.000 
#    0.000    0.000    0.000    0.000    0.000    0.000 
#
# Total GULP energy -111555.353427 kJ/mol
# GULP energy per Si atom -5577.767671 kJ/mol
# Density = 2.348296 g / cm^3
# Si number density = 23.536526 Si / 1000 Ang^3
#
#
#
# Elastic Constant Matrix: (Units=GPa)
#
#
# Indices 1 2 3 4 5 6 
#
# 1 163.7156 -10.5790 15.9128 0.0000 15.6450 0.0000
# 2 -10.5790 67.1677 -6.1483 0.0000 -1.3062 0.0000
# 3 15.9128 -6.1483 18.0684 0.0000 6.7678 0.0000
# 4 0.0000 0.0000 0.0000 10.5989 0.0000 0.6840
# 5 15.6450 -1.3062 6.7678 0.0000 35.3285 0.0000
# 6 0.0000 0.0000 0.0000 0.6840 0.0000 17.1660
#
#
#
# Elastic Compliance Matrix: (Units=1/GPa)
#
#
# Indices 1 2 3 4 5 6 
#
# 1 0.006831 0.000573 -0.005059 0.000000 -0.002035 0.000000
# 2 0.000573 0.015422 0.004982 0.000000 -0.000638 0.000000
# 3 -0.005059 0.004982 0.065271 0.000000 -0.010079 0.000000
# 4 0.000000 0.000000 0.000000 0.094592 0.000000 -0.003769
# 5 -0.002035 -0.000638 -0.010079 0.000000 0.031114 0.000000
# 6 0.000000 0.000000 0.000000 -0.003769 0.000000 0.058405
#
#
# Mechanical properties :
#
#
# Convention : Reuss Voigt Hill
#
# Bulk Modulus (GPa) = 11.29729 27.48032 19.38880
# Shear Modulus (GPa) = 16.65838 29.26978 22.96408
#
# Velocity S-wave (km/s) = 2.66328 3.53028 3.12697
# Velocity P-wave (km/s) = 3.77726 5.32148 4.61443
#
# Compressibility (1/GPa) = 0.08851679
#
# Stress axis : x y z
#
# Youngs Moduli (GPa) = 146.38313 64.84239 15.32068
#
# Poissons Ratio (x) = -0.03717 0.07751
# Poissons Ratio (y) = -0.08392 -0.07633
# Poissons Ratio (z) = 0.74057 -0.32304
#
# Static dielectric constant tensor:
#      x y z
#    x 1.976800 0.000000 0.009890 
#    y 0.000000 1.866590 0.000000 
#    z 0.009890 0.000000 1.887080 
# 
# From -- ./inp_files/27229.got.cif
#   From: 2010.05.17/outbox.cif.g08.bks.cpg/sg11_14_cif.got.tgz:27229.got - 2010.06.03 12:22:45.
