data_PCOD9162234
_publ_section_title
;
Structure prediction by ZEFSAII (Michael W. Deem and Ramdas Pophale) SiO2 
 PCOD9162234
Probable space group: P 21/M
;
_chemical_formula_sum "Si O2"
_cell_formula_units_Z 24
_cell_length_a 18.593692
_cell_length_b 8.504019
_cell_length_c 24.901388
_cell_angle_alpha 90.000000
_cell_angle_beta 19.219126
_cell_angle_gamma 90.000000
_cell_volume 1296.132262
_symmetry_space_group_name_H-M "P 21/M"
_symmetry_group_IT_number 11
_symmetry_cell_setting 'monoclinic'
loop_
_space_group_symop_operation_xyz
x,y,z
-x,1/2+y,-z
-x,-y,-z
x,1/2-y,z
loop_
_atom_site_type_symbol
_atom_site_label
_atom_site_fract_x
_atom_site_fract_y
_atom_site_fract_z
Si Si1 0.744143 0.061565 0.830952
Si Si2 0.114511 0.058898 0.647766
Si Si3 0.938413 0.437056 0.485109
Si Si4 0.930839 0.059787 0.990368
Si Si5 0.746096 0.940612 0.332674
Si Si6 0.568644 0.940141 0.672693
O O1 0.742346 0.250000 0.831352
O O2 0.882508 0.010633 0.785959
O O3 0.883519 0.000961 0.682464
O O4 0.500000 0.000000 0.000000
O O5 0.117127 0.250000 0.646887
O O6 0.161384 0.005045 0.674878
O O7 0.301605 0.010940 0.473071
O O8 0.940820 0.250000 0.483584
O O9 0.706031 0.496128 0.626044
O O10 0.000000 0.500000 0.500000
O O11 0.932068 0.250000 0.990386
O O12 0.100211 0.007623 0.824936
O O13 0.682749 0.009593 0.152219
O O14 0.000000 0.000000 0.000000
O O15 0.744387 0.750000 0.333927
O O16 0.500000 0.000000 0.500000
O O17 0.575697 0.750000 0.669835
#
# Coordination Sequence:
#
# PCOD9162234 Si02
#       6
#     4   4   4   4   4   4
#     4  10  20  36  57  83 112 146 185 227 276 332
#     4   8  16  32  53  73 102 141 179 217 265 320
#     4  11  22  37  57  82 112 147 184 229 279 334
#     4  10  21  35  55  81 111 145 183 225 273 328
#     4  10  20  35  54  79 106 139 179 219 265 320
#     4   9  18  35  55  76 105 144 184 227 276 328
#
# _framework density 18.516628000000001
#
# number of rings (size 3 to 8) (size 9 to 14) (size 15 to 20)
#    0.000    2.333    0.000    4.000    0.000    4.000 
#    0.000    9.167    0.000    0.000    0.000    0.000 
#    0.000    0.000    0.000    0.000    0.000    0.000 
#
# Total GULP energy -133955.812977 kJ/mol
# GULP energy per Si atom -5581.492207 kJ/mol
# Density = 1.847448 g / cm^3
# Si number density = 18.516628 Si / 1000 Ang^3
#
#
#
# Elastic Constant Matrix: (Units=GPa)
#
#
# Indices 1 2 3 4 5 6 
#
# 1 216.5467 35.1267 116.7565 0.0000 -11.1677 0.0000
# 2 35.1267 38.0368 33.5733 0.0000 -6.1547 0.0000
# 3 116.7565 33.5733 172.1296 0.0000 -28.2928 0.0000
# 4 0.0000 0.0000 0.0000 28.9627 0.0000 -4.5640
# 5 -11.1677 -6.1547 -28.2928 0.0000 27.7906 0.0000
# 6 0.0000 0.0000 0.0000 -4.5640 0.0000 29.5711
#
#
#
# Elastic Compliance Matrix: (Units=1/GPa)
#
#
# Indices 1 2 3 4 5 6 
#
# 1 0.007719 -0.003084 -0.005088 0.000000 -0.002761 0.000000
# 2 -0.003084 0.033008 -0.004021 0.000000 0.001977 0.000000
# 3 -0.005088 -0.004021 0.011485 0.000000 0.008757 0.000000
# 4 0.000000 0.000000 0.000000 0.035388 0.000000 0.005462
# 5 -0.002761 0.001977 0.008757 0.000000 0.044227 0.000000
# 6 0.000000 0.000000 0.000000 0.005462 0.000000 0.034660
#
#
# Mechanical properties :
#
#
# Convention : Reuss Voigt Hill
#
# Bulk Modulus (GPa) = 35.93960 88.62513 62.28237
# Shear Modulus (GPa) = 24.98147 33.34865 29.16506
#
# Velocity S-wave (km/s) = 3.67704 4.24844 3.97303
# Velocity P-wave (km/s) = 6.12201 8.48717 7.39970
#
# Compressibility (1/GPa) = 0.02782446
#
# Stress axis : x y z
#
# Youngs Moduli (GPa) = 129.54383 30.29595 87.07220
#
# Poissons Ratio (x) = 0.09344 0.44306
# Poissons Ratio (y) = 0.39956 0.35011
# Poissons Ratio (z) = 0.65917 0.12182
#
# Static dielectric constant tensor:
#      x y z
#    x 1.624460 0.000000 -0.006430 
#    y 0.000000 1.633770 0.000000 
#    z -0.006430 0.000000 1.617170 
# 
# From -- ./inp_files/20378.got.cif
#   From: 2010.05.17/outbox.cif.g08.bks.cpg/sg11_11_cif.got.tgz:20378.got - 2010.06.03 12:22:45.
