data_PCOD9162899
_publ_section_title
;
Structure prediction by ZEFSAII (Michael W. Deem and Ramdas Pophale) SiO2 
 PCOD9162899
Probable space group: P 21/M
;
_chemical_formula_sum "Si O2"
_cell_formula_units_Z 32
_cell_length_a 12.574274
_cell_length_b 9.172498
_cell_length_c 28.922656
_cell_angle_alpha 90.000000
_cell_angle_beta 30.146357
_cell_angle_gamma 90.000000
_cell_volume 1675.307569
_symmetry_space_group_name_H-M "P 21/M"
_symmetry_group_IT_number 11
_symmetry_cell_setting 'monoclinic'
loop_
_space_group_symop_operation_xyz
x,y,z
-x,1/2+y,-z
-x,-y,-z
x,1/2-y,z
loop_
_atom_site_type_symbol
_atom_site_label
_atom_site_fract_x
_atom_site_fract_y
_atom_site_fract_z
Si Si1 0.781773 0.923915 0.767928
Si Si2 0.529514 0.420997 0.537081
Si Si3 0.242239 0.577116 0.321805
Si Si4 0.997919 0.081117 0.139936
Si Si5 0.169785 0.575989 0.495908
Si Si6 0.558702 0.923953 0.281477
Si Si7 0.864976 0.082778 0.292535
Si Si8 0.428928 0.575595 0.978632
O O1 0.786018 0.750000 0.757360
O O2 0.595634 0.953836 0.874818
O O3 0.996700 0.959402 0.715162
O O4 0.757372 0.006555 0.729000
O O5 0.500000 0.500000 0.500000
O O6 0.520865 0.250000 0.533624
O O7 0.739933 0.453768 0.486528
O O8 0.329359 0.475510 0.641505
O O9 0.210355 0.750000 0.330626
O O10 0.459400 0.551081 0.268086
O O11 0.048738 0.509826 0.424379
O O12 0.012334 0.250000 0.119662
O O13 0.000725 0.080892 0.194976
O O14 0.773811 0.012013 0.209131
O O15 0.201124 0.987698 0.049423
O O16 0.134136 0.750000 0.504142
O O17 0.363893 0.536207 0.389140
O O18 0.597046 0.750000 0.273368
O O19 0.789686 0.250000 0.327258
O O20 0.419873 0.750000 0.989138
O O21 0.500000 0.500000 0.000000
#
# Coordination Sequence:
#
# PCOD9162899 Si02
#       8
#     4   4   4   4   4   4   4   4
#     4  10  22  41  61  85 122 160 195 239 298 359
#     4  11  22  34  51  79 115 157 196 236 292 352
#     4  11  24  39  60  89 119 154 203 255 298 347
#     4  11  22  38  62  93 121 151 195 244 296 355
#     4  10  21  38  59  82 115 159 202 243 298 357
#     4  10  22  42  62  86 120 158 203 252 297 347
#     4  10  20  36  56  82 117 152 190 238 290 350
#     4  11  22  39  64  93 124 159 196 243 298 357
#
# _framework density 19.10097
#
# number of rings (size 3 to 8) (size 9 to 14) (size 15 to 20)
#    0.000    1.500    2.500    2.625    0.000    7.500 
#    0.000    0.625    0.000    0.000    0.000    0.000 
#    0.000    0.000    0.000    0.000    0.000    0.000 
#
# Total GULP energy -178740.240342 kJ/mol
# GULP energy per Si atom -5585.632511 kJ/mol
# Density = 1.905749 g / cm^3
# Si number density = 19.100970 Si / 1000 Ang^3
#
#
#
# Elastic Constant Matrix: (Units=GPa)
#
#
# Indices 1 2 3 4 5 6 
#
# 1 105.6799 52.9421 36.7149 0.0000 -13.7079 0.0000
# 2 52.9421 54.9690 41.1365 0.0000 -13.2143 0.0000
# 3 36.7149 41.1365 87.0115 0.0000 -18.0900 0.0000
# 4 0.0000 0.0000 0.0000 33.0583 0.0000 -2.1236
# 5 -13.7079 -13.2143 -18.0900 0.0000 26.1117 0.0000
# 6 0.0000 0.0000 0.0000 -2.1236 0.0000 26.1268
#
#
#
# Elastic Compliance Matrix: (Units=1/GPa)
#
#
# Indices 1 2 3 4 5 6 
#
# 1 0.018366 -0.018243 0.001122 0.000000 0.001187 0.000000
# 2 -0.018243 0.047066 -0.013543 0.000000 0.004859 0.000000
# 3 0.001122 -0.013543 0.018832 0.000000 0.006782 0.000000
# 4 0.000000 0.000000 0.000000 0.030408 0.000000 0.002472
# 5 0.001187 0.004859 0.006782 0.000000 0.046077 0.000000
# 6 0.000000 0.000000 0.000000 0.002472 0.000000 0.038476
#
#
# Mechanical properties :
#
#
# Convention : Reuss Voigt Hill
#
# Bulk Modulus (GPa) = 43.60200 56.58304 50.09252
# Shear Modulus (GPa) = 18.64291 24.85049 21.74670
#
# Velocity S-wave (km/s) = 3.12752 3.61086 3.37785
# Velocity P-wave (km/s) = 5.99320 6.86089 6.44168
#
# Compressibility (1/GPa) = 0.02293473
#
# Stress axis : x y z
#
# Youngs Moduli (GPa) = 54.44930 21.24698 53.10023
#
# Poissons Ratio (x) = 0.38760 -0.05957
# Poissons Ratio (y) = 0.99331 0.71916
# Poissons Ratio (z) = -0.06108 0.28776
#
# Static dielectric constant tensor:
#      x y z
#    x 1.702790 0.000000 0.005070 
#    y 0.000000 1.634720 0.000000 
#    z 0.005070 0.000000 1.704800 
# 
# From -- ./inp_files/38101.got.cif
#   From: 2010.05.17/outbox.cif.g08.bks.cpg/sg11_20_cif.got.tgz:38101.got - 2010.06.03 12:22:45.
