data_PCOD9162113
_publ_section_title
;
Structure prediction by ZEFSAII (Michael W. Deem and Ramdas Pophale) SiO2 
 PCOD9162113
Probable space group: P 21/M
;
_chemical_formula_sum "Si O2"
_cell_formula_units_Z 24
_cell_length_a 15.167400
_cell_length_b 8.618697
_cell_length_c 14.565221
_cell_angle_alpha 90.000000
_cell_angle_beta 140.371964
_cell_angle_gamma 90.000000
_cell_volume 1214.381067
_symmetry_space_group_name_H-M "P 21/M"
_symmetry_group_IT_number 11
_symmetry_cell_setting 'monoclinic'
loop_
_space_group_symop_operation_xyz
x,y,z
-x,1/2+y,-z
-x,-y,-z
x,1/2-y,z
loop_
_atom_site_type_symbol
_atom_site_label
_atom_site_fract_x
_atom_site_fract_y
_atom_site_fract_z
Si Si1 0.715643 0.065396 0.126083
Si Si2 0.231953 0.565654 0.131023
Si Si3 0.801072 0.566065 0.701245
Si Si4 0.554627 0.563473 0.376680
Si Si5 0.438307 0.564980 0.814638
Si Si6 0.063136 0.067923 0.825772
O O1 0.733728 0.250000 0.132911
O O2 0.673508 0.025372 0.196595
O O3 0.848835 0.981790 0.192106
O O4 0.581878 0.016456 0.958726
O O5 0.218478 0.750000 0.103914
O O6 0.172047 0.521158 0.181945
O O7 0.394390 0.523494 0.263602
O O8 0.157362 0.476316 0.989240
O O9 0.798750 0.750000 0.716932
O O10 0.655442 0.516458 0.539950
O O11 0.921750 0.525053 0.726853
O O12 0.563517 0.750000 0.375590
O O13 0.600685 0.488484 0.317914
O O14 0.459741 0.750000 0.834610
O O15 0.034934 0.250000 0.802128
#
# Coordination Sequence:
#
# PCOD9162113 Si02
#       6
#     4   4   4   4   4   4
#     4  10  20  36  58  87 119 151 191 240 288 341
#     4  11  22  39  62  88 116 153 196 245 291 343
#     4  11  24  41  59  84 119 159 196 241 292 346
#     4  10  22  39  61  87 119 156 195 238 292 345
#     4  10  20  34  59  90 118 150 191 238 288 342
#     4  12  24  39  60  88 117 155 198 242 292 346
#
# _framework density 19.763155000000001
#
# number of rings (size 3 to 8) (size 9 to 14) (size 15 to 20)
#    0.000    1.333    1.667    4.500    0.000    4.000 
#    0.000    0.833    0.000    0.000    0.000    0.000 
#    0.000    0.000    0.000    0.000    0.000    0.000 
#
# Total GULP energy -134211.276538 kJ/mol
# GULP energy per Si atom -5592.136522 kJ/mol
# Density = 1.971817 g / cm^3
# Si number density = 19.763155 Si / 1000 Ang^3
#
#
#
# Elastic Constant Matrix: (Units=GPa)
#
#
# Indices 1 2 3 4 5 6 
#
# 1 71.9694 -3.4446 -5.5232 0.0000 -3.0634 0.0000
# 2 -3.4446 18.5182 -0.1176 0.0000 -2.9786 0.0000
# 3 -5.5232 -0.1176 28.8809 0.0000 5.7869 0.0000
# 4 0.0000 0.0000 0.0000 22.1587 0.0000 -5.0593
# 5 -3.0634 -2.9786 5.7869 0.0000 27.2910 0.0000
# 6 0.0000 0.0000 0.0000 -5.0593 0.0000 30.5283
#
#
#
# Elastic Compliance Matrix: (Units=1/GPa)
#
#
# Indices 1 2 3 4 5 6 
#
# 1 0.014282 0.002897 0.002463 0.000000 0.001397 0.000000
# 2 0.002897 0.055582 -0.000523 0.000000 0.006502 0.000000
# 3 0.002463 -0.000523 0.036605 0.000000 -0.007543 0.000000
# 4 0.000000 0.000000 0.000000 0.046904 0.000000 0.007773
# 5 0.001397 0.006502 -0.007543 0.000000 0.039108 0.000000
# 6 0.000000 0.000000 0.000000 0.007773 0.000000 0.034045
#
#
# Mechanical properties :
#
#
# Convention : Reuss Voigt Hill
#
# Bulk Modulus (GPa) = 8.60997 11.24419 9.92708
# Shear Modulus (GPa) = 19.56445 24.55918 22.06181
#
# Velocity S-wave (km/s) = 3.14975 3.52898 3.34475
# Velocity P-wave (km/s) = 4.19452 4.72301 4.46658
#
# Compressibility (1/GPa) = 0.11614446
#
# Stress axis : x y z
#
# Youngs Moduli (GPa) = 70.01842 17.99135 27.31855
#
# Poissons Ratio (x) = -0.05212 -0.06729
# Poissons Ratio (y) = -0.20284 0.01428
# Poissons Ratio (z) = -0.17247 0.00940
#
# Static dielectric constant tensor:
#      x y z
#    x 1.702730 0.000000 0.012010 
#    y 0.000000 1.659300 0.000000 
#    z 0.012010 0.000000 1.675350 
# 
# From -- ./inp_files/20352.got.cif
#   From: 2010.05.17/outbox.cif.g08.bks.cpg/sg11_11_cif.got.tgz:20352.got - 2010.06.03 12:22:45.
