data_PCOD9162656
_publ_section_title
;
Structure prediction by ZEFSAII (Michael W. Deem and Ramdas Pophale) SiO2 
 PCOD9162656
Probable space group: P 21/M
;
_chemical_formula_sum "Si O2"
_cell_formula_units_Z 28
_cell_length_a 29.063253
_cell_length_b 9.055193
_cell_length_c 7.932646
_cell_angle_alpha 90.000000
_cell_angle_beta 141.659267
_cell_angle_gamma 90.000000
_cell_volume 1295.053016
_symmetry_space_group_name_H-M "P 21/M"
_symmetry_group_IT_number 11
_symmetry_cell_setting 'monoclinic'
loop_
_space_group_symop_operation_xyz
x,y,z
-x,1/2+y,-z
-x,-y,-z
x,1/2-y,z
loop_
_atom_site_type_symbol
_atom_site_label
_atom_site_fract_x
_atom_site_fract_y
_atom_site_fract_z
Si Si1 0.579288 0.926395 0.277680
Si Si2 0.752128 0.425523 0.246701
Si Si3 0.015683 0.927454 0.363746
Si Si4 0.356733 0.414139 0.854463
Si Si5 0.168135 0.427952 0.827597
Si Si6 0.850578 0.927037 0.825838
Si Si7 0.472169 0.587554 0.577335
O O1 0.573021 0.750000 0.273186
O O2 0.648958 0.963443 0.356988
O O3 0.585842 0.996551 0.480474
O O4 0.500000 0.000000 0.000000
O O5 0.759729 0.250000 0.254840
O O6 0.672341 0.474536 0.091372
O O7 0.771140 0.502768 0.123601
O O8 0.803571 0.489331 0.548257
O O9 0.026086 0.750000 0.405148
O O10 0.091332 0.006826 0.528796
O O11 0.000000 0.000000 0.500000
O O12 0.938295 0.955123 0.046029
O O13 0.324932 0.250000 0.790404
O O14 0.445226 0.395626 0.105404
O O15 0.169322 0.250000 0.821280
O O16 0.168213 0.465774 0.030172
O O17 0.839761 0.750000 0.781600
O O18 0.500000 0.500000 0.500000
O O19 0.443269 0.750000 0.460572
#
# Coordination Sequence:
#
# PCOD9162656 Si02
#       7
#     4   4   4   4   4   4   4
#     4   9  17  32  56  81 106 140 177 221 272 325
#     4  12  25  38  58  86 118 156 196 246 295 344
#     4   9  17  32  57  87 116 149 192 244 297 347
#     4   9  20  39  58  78 110 151 188 223 277 343
#     4  10  21  39  62  85 115 156 197 244 296 349
#     4   9  20  39  61  84 113 154 197 238 292 354
#     4  10  20  35  58  87 115 145 182 230 280 333
#
# _framework density 21.620735
#
# number of rings (size 3 to 8) (size 9 to 14) (size 15 to 20)
#    0.000    2.286    0.000    4.714    0.000    7.429 
#    2.571    0.000    0.000    0.000    0.000    0.000 
#    0.000    0.000    0.000    0.000    0.000    0.000 
#
# Total GULP energy -155885.042503 kJ/mol
# GULP energy per Si atom -5567.322947 kJ/mol
# Density = 2.157152 g / cm^3
# Si number density = 21.620735 Si / 1000 Ang^3
#
#
#
# Elastic Constant Matrix: (Units=GPa)
#
#
# Indices 1 2 3 4 5 6 
#
# 1 114.2595 46.3552 -4.7278 0.0000 0.3265 0.0000
# 2 46.3552 93.7904 0.9407 0.0000 0.4992 0.0000
# 3 -4.7278 0.9407 42.6024 0.0000 6.2546 0.0000
# 4 0.0000 0.0000 0.0000 25.1271 0.0000 -1.6576
# 5 0.3265 0.4992 6.2546 0.0000 20.2295 0.0000
# 6 0.0000 0.0000 0.0000 -1.6576 0.0000 40.0659
#
#
#
# Elastic Compliance Matrix: (Units=1/GPa)
#
#
# Indices 1 2 3 4 5 6 
#
# 1 0.011028 -0.005462 0.001415 0.000000 -0.000481 0.000000
# 2 -0.005462 0.013371 -0.000907 0.000000 0.000039 0.000000
# 3 0.001415 -0.000907 0.024775 0.000000 -0.007660 0.000000
# 4 0.000000 0.000000 0.000000 0.039907 0.000000 0.001651
# 5 -0.000481 0.000039 -0.007660 0.000000 0.051808 0.000000
# 6 0.000000 0.000000 0.000000 0.001651 0.000000 0.025027
#
#
# Mechanical properties :
#
#
# Convention : Reuss Voigt Hill
#
# Bulk Modulus (GPa) = 25.46818 37.30985 31.38902
# Shear Modulus (GPa) = 26.46743 30.95676 28.71210
#
# Velocity S-wave (km/s) = 3.50261 3.78803 3.64811
# Velocity P-wave (km/s) = 5.30686 6.03541 5.68282
#
# Compressibility (1/GPa) = 0.03926468
#
# Stress axis : x y z
#
# Youngs Moduli (GPa) = 90.67899 74.79112 40.36400
#
# Poissons Ratio (x) = 0.40852 -0.05712
# Poissons Ratio (y) = 0.49530 0.03661
# Poissons Ratio (z) = -0.12831 0.06784
#
# Static dielectric constant tensor:
#      x y z
#    x 2.118330 0.000000 -0.312020 
#    y 0.000000 1.717220 0.000000 
#    z -0.312020 0.000000 2.419540 
# 
# From -- ./inp_files/29086.got.cif
#   From: 2010.05.17/outbox.cif.g08.bks.cpg/sg11_15_cif.got.tgz:29086.got - 2010.06.03 12:22:45.
