data_PCOD9162884
_publ_section_title
;
Structure prediction by ZEFSAII (Michael W. Deem and Ramdas Pophale) SiO2 
 PCOD9162884
Probable space group: P 21/M
;
_chemical_formula_sum "Si O2"
_cell_formula_units_Z 28
_cell_length_a 9.649491
_cell_length_b 8.916432
_cell_length_c 25.360606
_cell_angle_alpha 90.000000
_cell_angle_beta 45.986617
_cell_angle_gamma 90.000000
_cell_volume 1569.246759
_symmetry_space_group_name_H-M "P 21/M"
_symmetry_group_IT_number 11
_symmetry_cell_setting 'monoclinic'
loop_
_space_group_symop_operation_xyz
x,y,z
-x,1/2+y,-z
-x,-y,-z
x,1/2-y,z
loop_
_atom_site_type_symbol
_atom_site_label
_atom_site_fract_x
_atom_site_fract_y
_atom_site_fract_z
Si Si1 0.328300 0.067797 0.579629
Si Si2 0.699131 0.069986 0.296895
Si Si3 0.791346 0.431199 0.068568
Si Si4 0.905006 0.081179 0.677652
Si Si5 0.095090 0.919436 0.196118
Si Si6 0.515984 0.572018 0.939045
Si Si7 0.497332 0.569926 0.760425
O O1 0.331403 0.250000 0.579923
O O2 0.120625 0.021193 0.608987
O O3 0.500000 0.000000 0.500000
O O4 0.346581 0.005611 0.634649
O O5 0.704862 0.250000 0.301796
O O6 0.561475 0.033075 0.284081
O O7 0.908214 0.006421 0.225756
O O8 0.811263 0.250000 0.066243
O O9 0.653403 0.471481 0.056048
O O10 0.669441 0.479217 0.153358
O O11 0.000000 0.500000 0.000000
O O12 0.887394 0.250000 0.660498
O O13 0.917541 0.091606 0.737590
O O14 0.710222 0.993238 0.715871
O O15 0.106371 0.750000 0.171420
O O16 0.283581 0.013676 0.135846
O O17 0.515158 0.750000 0.943212
O O18 0.500000 0.500000 0.000000
O O19 0.505679 0.750000 0.763203
#
# Coordination Sequence:
#
# PCOD9162884 Si02
#       7
#     4   4   4   4   4   4   4
#     4  10  21  39  62  91 121 151 190 233 280 341
#     4  10  21  36  58  87 117 152 189 234 284 335
#     4  10  23  40  56  80 112 152 195 241 294 347
#     4   9  19  35  58  85 112 145 185 230 279 334
#     4  10  20  36  56  81 109 144 191 238 283 339
#     4  11  23  38  56  79 109 145 190 241 294 347
#     4  10  21  38  58  83 115 150 195 238 283 345
#
# _framework density 17.842956000000001
#
# number of rings (size 3 to 8) (size 9 to 14) (size 15 to 20)
#    0.000    2.000    1.429    2.571    2.000    5.714 
#    0.000    0.714    0.000    0.000    0.000    0.000 
#    0.000    0.000    0.000    0.000    0.000    0.000 
#
# Total GULP energy -156061.095481 kJ/mol
# GULP energy per Si atom -5573.610553 kJ/mol
# Density = 1.780234 g / cm^3
# Si number density = 17.842956 Si / 1000 Ang^3
#
#
#
# Elastic Constant Matrix: (Units=GPa)
#
#
# Indices 1 2 3 4 5 6 
#
# 1 116.3351 54.1114 73.7859 0.0000 -16.7907 0.0000
# 2 54.1114 41.8109 31.9668 0.0000 -3.6596 0.0000
# 3 73.7859 31.9668 126.2437 0.0000 -24.4207 0.0000
# 4 0.0000 0.0000 0.0000 32.6816 0.0000 -3.0202
# 5 -16.7907 -3.6596 -24.4207 0.0000 25.4473 0.0000
# 6 0.0000 0.0000 0.0000 -3.0202 0.0000 28.8813
#
#
#
# Elastic Compliance Matrix: (Units=1/GPa)
#
#
# Indices 1 2 3 4 5 6 
#
# 1 0.028833 -0.030840 -0.007639 0.000000 0.007259 0.000000
# 2 -0.030840 0.062919 -0.000114 0.000000 -0.011410 0.000000
# 3 -0.007639 -0.000114 0.014044 0.000000 0.008420 0.000000
# 4 0.000000 0.000000 0.000000 0.030897 0.000000 0.003231
# 5 0.007259 -0.011410 0.008420 0.000000 0.050526 0.000000
# 6 0.000000 0.000000 0.000000 0.003231 0.000000 0.034962
#
#
# Mechanical properties :
#
#
# Convention : Reuss Voigt Hill
#
# Bulk Modulus (GPa) = 34.95315 67.12422 51.03868
# Shear Modulus (GPa) = 16.18624 25.70374 20.94499
#
# Velocity S-wave (km/s) = 3.01516 3.79958 3.42987
# Velocity P-wave (km/s) = 5.63502 7.54654 6.65972
#
# Compressibility (1/GPa) = 0.02860973
#
# Stress axis : x y z
#
# Youngs Moduli (GPa) = 34.68196 15.89348 71.20678
#
# Poissons Ratio (x) = 0.49016 0.54394
# Poissons Ratio (y) = 1.06960 0.00811
# Poissons Ratio (z) = 0.26493 0.00181
#
# Static dielectric constant tensor:
#      x y z
#    x 1.579650 0.000000 -0.017570 
#    y 0.000000 1.606460 0.000000 
#    z -0.017570 0.000000 1.590800 
# 
# From -- ./inp_files/28444.got.cif
#   From: 2010.05.17/outbox.cif.g08.bks.cpg/sg11_15_cif.got.tgz:28444.got - 2010.06.03 12:22:45.
