data_PCOD9162344
_publ_section_title
;
Structure prediction by ZEFSAII (Michael W. Deem and Ramdas Pophale) SiO2 
 PCOD9162344
Probable space group: P 21/M
;
_chemical_formula_sum "Si O2"
_cell_formula_units_Z 32
_cell_length_a 26.384765
_cell_length_b 7.682817
_cell_length_c 15.289747
_cell_angle_alpha 90.000000
_cell_angle_beta 153.771859
_cell_angle_gamma 90.000000
_cell_volume 1369.757566
_symmetry_space_group_name_H-M "P 21/M"
_symmetry_group_IT_number 11
_symmetry_cell_setting 'monoclinic'
loop_
_space_group_symop_operation_xyz
x,y,z
-x,1/2+y,-z
-x,-y,-z
x,1/2-y,z
loop_
_atom_site_type_symbol
_atom_site_label
_atom_site_fract_x
_atom_site_fract_y
_atom_site_fract_z
Si Si1 0.361858 0.952137 0.383225
Si Si2 0.373379 0.039510 0.206443
Si Si3 0.961572 0.052978 0.536634
Si Si4 0.766072 0.049409 0.525805
Si Si5 0.293621 0.038143 0.893078
Si Si6 0.486631 0.958933 0.877158
Si Si7 0.025162 0.534233 0.255275
Si Si8 0.149524 0.052374 0.161895
O O1 0.359213 0.750000 0.405706
O O2 0.492983 0.014289 0.595058
O O3 0.329904 0.969361 0.231586
O O4 0.272345 0.049883 0.304502
O O5 0.371699 0.250000 0.209848
O O6 0.307981 0.989047 0.017311
O O7 0.000996 0.250000 0.604022
O O8 0.004600 0.969715 0.693742
O O9 0.824061 0.036736 0.325838
O O10 0.000000 0.000000 0.500000
O O11 0.746858 0.250000 0.471562
O O12 0.639656 0.972383 0.343827
O O13 0.848012 0.975050 0.577752
O O14 0.836161 0.042742 0.724381
O O15 0.286830 0.250000 0.878684
O O16 0.405434 0.977916 0.012393
O O17 0.487868 0.750000 0.865880
O O18 0.500000 0.000000 0.000000
O O19 0.023863 0.750000 0.253044
O O20 0.937679 0.478196 0.044595
O O21 0.115390 0.250000 0.129150
#
# Coordination Sequence:
#
# PCOD9162344 Si02
#       8
#     4   4   4   4   4   4   4   4
#     4  10  20  35  55  83 115 151 195 241 290 350
#     4   9  19  36  57  79 112 152 190 239 297 350
#     4  11  24  43  64  88 117 156 202 250 300 359
#     4  10  20  39  63  88 119 158 200 247 296 352
#     4  10  21  38  59  85 117 153 192 240 299 358
#     4  10  21  37  61  90 122 158 198 244 302 357
#     4   9  21  40  61  83 116 158 199 244 303 357
#     4  11  22  36  57  86 118 157 198 241 297 358
#
# _framework density 23.361796999999999
#
# number of rings (size 3 to 8) (size 9 to 14) (size 15 to 20)
#    0.000    2.000    0.000    3.000    1.750    5.000 
#    0.000    5.000    0.000    0.000    0.000    0.000 
#    0.000    0.000    0.000    0.000    0.000    0.000 
#
# Total GULP energy -178855.191542 kJ/mol
# GULP energy per Si atom -5589.224736 kJ/mol
# Density = 2.330862 g / cm^3
# Si number density = 23.361797 Si / 1000 Ang^3
#
#
#
# Elastic Constant Matrix: (Units=GPa)
#
#
# Indices 1 2 3 4 5 6 
#
# 1 114.2014 -4.3899 24.8208 0.0000 -2.4596 0.0000
# 2 -4.3899 33.9153 -11.7554 0.0000 9.4099 0.0000
# 3 24.8208 -11.7554 66.0911 0.0000 -11.8841 0.0000
# 4 0.0000 0.0000 0.0000 19.5397 0.0000 -2.4053
# 5 -2.4596 9.4099 -11.8841 0.0000 30.4567 0.0000
# 6 0.0000 0.0000 0.0000 -2.4053 0.0000 22.1612
#
#
#
# Elastic Compliance Matrix: (Units=1/GPa)
#
#
# Indices 1 2 3 4 5 6 
#
# 1 0.009548 0.000157 -0.003687 0.000000 -0.000716 0.000000
# 2 0.000157 0.033398 0.004332 0.000000 -0.008615 0.000000
# 3 -0.003687 0.004332 0.018274 0.000000 0.005494 0.000000
# 4 0.000000 0.000000 0.000000 0.051871 0.000000 0.005630
# 5 -0.000716 -0.008615 0.005494 0.000000 0.037581 0.000000
# 6 0.000000 0.000000 0.000000 0.005630 0.000000 0.045735
#
#
# Mechanical properties :
#
#
# Convention : Reuss Voigt Hill
#
# Bulk Modulus (GPa) = 15.91750 25.72875 20.82312
# Shear Modulus (GPa) = 23.17566 28.13369 25.65467
#
# Velocity S-wave (km/s) = 3.15307 3.47401 3.31742
# Velocity P-wave (km/s) = 4.48153 5.20853 4.85864
#
# Compressibility (1/GPa) = 0.06282393
#
# Stress axis : x y z
#
# Youngs Moduli (GPa) = 104.73005 29.94236 54.72343
#
# Poissons Ratio (x) = -0.00469 0.20175
# Poissons Ratio (y) = -0.01641 -0.23708
# Poissons Ratio (z) = 0.38612 -0.12972
#
# Static dielectric constant tensor:
#      x y z
#    x 1.885990 0.000000 0.007380 
#    y 0.000000 -1.080620 0.000000 
#    z 0.007380 0.000000 1.884330 
# 
# From -- ./inp_files/55664.got.cif
#   From: 2010.05.17/outbox.cif.g08.bks.cpg/sg11_28_cif.got.tgz:55664.got - 2010.06.03 12:22:45.
