data_PCOD9162007
_publ_section_title
;
Structure prediction by ZEFSAII (Michael W. Deem and Ramdas Pophale) SiO2 
 PCOD9162007
Probable space group: P 21/M
;
_chemical_formula_sum "Si O2"
_cell_formula_units_Z 32
_cell_length_a 21.028882
_cell_length_b 14.284223
_cell_length_c 14.814264
_cell_angle_alpha 90.000000
_cell_angle_beta 159.722762
_cell_angle_gamma 90.000000
_cell_volume 1542.180169
_symmetry_space_group_name_H-M "P 21/M"
_symmetry_group_IT_number 11
_symmetry_cell_setting 'monoclinic'
loop_
_space_group_symop_operation_xyz
x,y,z
-x,1/2+y,-z
-x,-y,-z
x,1/2-y,z
loop_
_atom_site_type_symbol
_atom_site_label
_atom_site_fract_x
_atom_site_fract_y
_atom_site_fract_z
Si Si1 0.643722 0.639591 0.019029
Si Si2 0.719681 0.011056 0.492475
Si Si3 0.263705 0.650682 0.791460
Si Si4 0.371428 0.142712 0.478511
Si Si5 0.216495 0.645945 0.942959
Si Si6 0.627359 0.912862 0.196092
Si Si7 0.945302 0.858388 0.085699
Si Si8 0.061495 0.054538 0.727901
O O1 0.619701 0.750000 0.967078
O O2 0.456153 0.579857 0.755446
O O3 0.699328 0.630259 0.198881
O O4 0.795291 0.593297 0.155883
O O5 0.896556 0.075104 0.743508
O O6 0.679007 0.936687 0.516504
O O7 0.749239 0.951347 0.440028
O O8 0.174519 0.750000 0.647013
O O9 0.139038 0.571409 0.581328
O O10 0.262361 0.643725 0.897037
O O11 0.470579 0.650863 0.032782
O O12 0.342932 0.250000 0.475007
O O13 0.588113 0.135596 0.747118
O O14 0.241748 0.130891 0.219444
O O15 0.139337 0.750000 0.860239
O O16 0.099507 0.553430 0.800496
O O17 0.500000 0.000000 0.000000
O O18 0.002998 0.750000 0.157008
O O19 0.920178 0.887020 0.156095
#
# Coordination Sequence:
#
# PCOD9162007 Si02
#       8
#     4   4   4   4   4   4   4   4
#     4  11  22  36  58  91 132 165 205 252 308 369
#     4  11  21  41  63  95 120 160 207 265 314 365
#     4  11  21  36  61  88 124 163 204 249 311 379
#     4  10  21  42  68  93 120 163 213 258 310 369
#     4  10  21  39  63  90 121 162 207 259 311 368
#     4  10  20  34  56  87 121 162 200 248 304 364
#     4  11  25  42  65  91 125 165 209 257 312 372
#     4  12  23  40  60  89 128 169 209 248 306 371
#
# _framework density 20.749845000000001
#
# number of rings (size 3 to 8) (size 9 to 14) (size 15 to 20)
#    0.000    1.250    2.500    4.875    0.000    2.000 
#    0.000    0.625    0.000    3.750    0.000    0.000 
#    0.000    0.000    0.000    0.000    0.000    0.000 
#
# Total GULP energy -178827.034053 kJ/mol
# GULP energy per Si atom -5588.344814 kJ/mol
# Density = 2.070262 g / cm^3
# Si number density = 20.749845 Si / 1000 Ang^3
#
#
#
# Elastic Constant Matrix: (Units=GPa)
#
#
# Indices 1 2 3 4 5 6 
#
# 1 41.7178 12.7253 17.2011 0.0000 9.5796 0.0000
# 2 12.7253 127.4844 57.6260 0.0000 8.4107 0.0000
# 3 17.2011 57.6260 108.4669 0.0000 -3.0183 0.0000
# 4 0.0000 0.0000 0.0000 34.7263 0.0000 -3.4434
# 5 9.5796 8.4107 -3.0183 0.0000 27.5593 0.0000
# 6 0.0000 0.0000 0.0000 -3.4434 0.0000 18.8874
#
#
#
# Elastic Compliance Matrix: (Units=1/GPa)
#
#
# Indices 1 2 3 4 5 6 
#
# 1 0.028322 0.000024 -0.004793 0.000000 -0.010377 0.000000
# 2 0.000024 0.010727 -0.005812 0.000000 -0.003919 0.000000
# 3 -0.004793 -0.005812 0.013203 0.000000 0.004886 0.000000
# 4 0.000000 0.000000 0.000000 0.029327 0.000000 0.005347
# 5 -0.010377 -0.003919 0.004886 0.000000 0.041624 0.000000
# 6 0.000000 0.000000 0.000000 0.005347 0.000000 0.053920
#
#
# Mechanical properties :
#
#
# Convention : Reuss Voigt Hill
#
# Bulk Modulus (GPa) = 32.16362 50.30820 41.23591
# Shear Modulus (GPa) = 23.96367 28.90905 26.43636
#
# Velocity S-wave (km/s) = 3.40205 3.73663 3.57326
# Velocity P-wave (km/s) = 5.56473 6.55090 6.07785
#
# Compressibility (1/GPa) = 0.03109102
#
# Stress axis : x y z
#
# Youngs Moduli (GPa) = 35.30777 93.21875 75.73859
#
# Poissons Ratio (x) = -0.00225 0.36302
# Poissons Ratio (y) = -0.00085 0.44020
# Poissons Ratio (z) = 0.16923 0.54180
#
# Static dielectric constant tensor:
#      x y z
#    x 1.745150 0.000000 0.026770 
#    y 0.000000 1.794850 0.000000 
#    z 0.026770 0.000000 1.746910 
# 
# From -- ./inp_files/55017.got.cif
#   From: 2010.05.17/outbox.cif.g08.bks.cpg/sg11_28_cif.got.tgz:55017.got - 2010.06.03 12:22:45.
