data_PCOD9162001
_publ_section_title
;
Structure prediction by ZEFSAII (Michael W. Deem and Ramdas Pophale) SiO2 
 PCOD9162001
Probable space group: P 21/M
;
_chemical_formula_sum "Si O2"
_cell_formula_units_Z 32
_cell_length_a 11.377207
_cell_length_b 9.169874
_cell_length_c 28.012702
_cell_angle_alpha 90.000000
_cell_angle_beta 144.309249
_cell_angle_gamma 90.000000
_cell_volume 1705.014129
_symmetry_space_group_name_H-M "P 21/M"
_symmetry_group_IT_number 11
_symmetry_cell_setting 'monoclinic'
loop_
_space_group_symop_operation_xyz
x,y,z
-x,1/2+y,-z
-x,-y,-z
x,1/2-y,z
loop_
_atom_site_type_symbol
_atom_site_label
_atom_site_fract_x
_atom_site_fract_y
_atom_site_fract_z
Si Si1 0.154986 0.422988 0.586039
Si Si2 0.930345 0.419177 0.254903
Si Si3 0.413043 0.079276 0.425026
Si Si4 0.281303 0.424358 0.728806
Si Si5 0.689497 0.920937 0.879655
Si Si6 0.432548 0.923463 0.332438
Si Si7 0.989226 0.925447 0.824729
Si Si8 0.120685 0.921618 0.971114
O O1 0.116986 0.250000 0.571919
O O2 0.149880 0.471191 0.639498
O O3 0.381043 0.447908 0.641314
O O4 0.000000 0.500000 0.500000
O O5 0.869491 0.250000 0.240556
O O6 0.812599 0.517120 0.253343
O O7 0.169561 0.428753 0.344256
O O8 0.907249 0.461169 0.191672
O O9 0.469845 0.250000 0.442878
O O10 0.500000 0.000000 0.500000
O O11 0.480715 0.998710 0.399039
O O12 0.292011 0.250000 0.732259
O O13 0.503641 0.490407 0.797456
O O14 0.642363 0.750000 0.865778
O O15 0.892339 0.939930 0.915494
O O16 0.739905 0.982411 0.948890
O O17 0.405469 0.750000 0.329876
O O18 0.225991 0.994623 0.245598
O O19 0.952713 0.750000 0.812611
O O20 0.115346 0.960368 0.913601
O O21 0.172131 0.750000 0.993467
#
# Coordination Sequence:
#
# PCOD9162001 Si02
#       8
#     4   4   4   4   4   4   4   4
#     4  10  24  40  55  79 108 143 184 229 277 329
#     4   9  20  37  55  78 107 143 184 227 274 328
#     4  10  21  36  56  80 107 139 180 230 279 327
#     4  11  23  39  57  79 111 148 187 228 275 330
#     4  10  20  34  56  87 116 148 183 221 277 333
#     4  10  20  35  54  79 109 139 179 226 276 329
#     4   9  18  35  58  83 110 144 184 226 278 328
#     4   9  18  34  58  86 116 145 182 229 274 328
#
# _framework density 18.768173000000001
#
# number of rings (size 3 to 8) (size 9 to 14) (size 15 to 20)
#    0.000    2.250    0.000    3.000    1.750    5.500 
#    0.000    0.625    0.000    0.000    0.000    0.000 
#    0.000    0.000    0.000    0.000    0.000    0.000 
#
# Total GULP energy -178676.578904 kJ/mol
# GULP energy per Si atom -5583.643091 kJ/mol
# Density = 1.872546 g / cm^3
# Si number density = 18.768173 Si / 1000 Ang^3
#
#
#
# Elastic Constant Matrix: (Units=GPa)
#
#
# Indices 1 2 3 4 5 6 
#
# 1 56.4644 35.6530 27.4691 0.0000 -21.5691 0.0000
# 2 35.6530 59.9380 30.3000 0.0000 -7.9664 0.0000
# 3 27.4691 30.3000 68.5357 0.0000 -27.2667 0.0000
# 4 0.0000 0.0000 0.0000 34.9188 0.0000 0.9335
# 5 -21.5691 -7.9664 -27.2667 0.0000 27.8617 0.0000
# 6 0.0000 0.0000 0.0000 0.9335 0.0000 29.3018
#
#
#
# Elastic Compliance Matrix: (Units=1/GPa)
#
#
# Indices 1 2 3 4 5 6 
#
# 1 0.041863 -0.023951 0.006516 0.000000 0.031937 0.000000
# 2 -0.023951 0.035652 -0.015530 0.000000 -0.023546 0.000000
# 3 0.006516 -0.015530 0.031254 0.000000 0.031191 0.000000
# 4 0.000000 0.000000 0.000000 0.028662 0.000000 -0.000913
# 5 0.031937 -0.023546 0.031191 0.000000 0.084407 0.000000
# 6 0.000000 0.000000 0.000000 -0.000913 0.000000 0.034157
#
#
# Mechanical properties :
#
#
# Convention : Reuss Voigt Hill
#
# Bulk Modulus (GPa) = 23.34289 41.30915 32.32602
# Shear Modulus (GPa) = 14.87188 24.51754 19.69471
#
# Velocity S-wave (km/s) = 2.81801 3.61825 3.24291
# Velocity P-wave (km/s) = 4.80133 6.28599 5.59314
#
# Compressibility (1/GPa) = 0.04283960
#
# Stress axis : x y z
#
# Youngs Moduli (GPa) = 23.88742 28.04913 31.99558
#
# Poissons Ratio (x) = 0.67179 -0.20848
# Poissons Ratio (y) = 0.57212 0.49689
# Poissons Ratio (z) = -0.15565 0.43560
#
# Static dielectric constant tensor:
#      x y z
#    x 1.660610 0.000000 -0.008500 
#    y 0.000000 1.632440 0.000000 
#    z -0.008500 0.000000 1.633710 
# 
# From -- ./inp_files/73145.got.cif
#   From: 2010.05.17/outbox.cif.g08.bks.cpg/sg11_37_cif.got.tgz:73145.got - 2010.06.03 12:22:45.
