data_PCOD9162817
_publ_section_title
;
Structure prediction by ZEFSAII (Michael W. Deem and Ramdas Pophale) SiO2 
 PCOD9162817
Probable space group: P 21/M
;
_chemical_formula_sum "Si O2"
_cell_formula_units_Z 32
_cell_length_a 17.781474
_cell_length_b 13.684992
_cell_length_c 14.651390
_cell_angle_alpha 90.000000
_cell_angle_beta 22.519646
_cell_angle_gamma 90.000000
_cell_volume 1365.495058
_symmetry_space_group_name_H-M "P 21/M"
_symmetry_group_IT_number 11
_symmetry_cell_setting 'monoclinic'
loop_
_space_group_symop_operation_xyz
x,y,z
-x,1/2+y,-z
-x,-y,-z
x,1/2-y,z
loop_
_atom_site_type_symbol
_atom_site_label
_atom_site_fract_x
_atom_site_fract_y
_atom_site_fract_z
Si Si1 0.127430 0.641542 0.386138
Si Si2 0.373260 0.138315 0.495043
Si Si3 0.809796 0.518498 0.150785
Si Si4 0.576016 0.427608 0.089563
Si Si5 0.946189 0.361348 0.869824
Si Si6 0.178786 0.482665 0.482509
Si Si7 0.730785 0.643768 0.905540
Si Si8 0.002552 0.857899 0.783015
O O1 0.172469 0.750000 0.374712
O O2 0.173672 0.550323 0.399748
O O3 0.891172 0.638948 0.643945
O O4 0.254865 0.627362 0.153955
O O5 0.403700 0.250000 0.492671
O O6 0.354165 0.059218 0.597233
O O7 0.530887 0.108699 0.241642
O O8 0.159627 0.138292 0.682510
O O9 0.869681 0.604327 0.014046
O O10 0.800361 0.421937 0.098614
O O11 0.000000 0.500000 0.000000
O O12 0.369087 0.415807 0.268948
O O13 0.614014 0.543909 0.040583
O O14 0.888925 0.250000 0.920062
O O15 0.992531 0.418713 0.723698
O O16 0.172389 0.563781 0.571816
O O17 0.629502 0.750000 0.014474
O O18 0.866496 0.643709 0.844881
O O19 0.078605 0.750000 0.715386
#
# Coordination Sequence:
#
# PCOD9162817 Si02
#       8
#     4   4   4   4   4   4   4   4
#     4  10  20  36  55  74  98 135 175 210 257 319
#     4   9  17  29  46  72 102 134 171 210 251 301
#     4   9  16  28  49  77 102 131 172 210 244 293
#     4  11  20  33  51  76 105 135 171 219 262 299
#     4   8  15  28  46  71 106 138 165 201 251 305
#     4   9  18  31  51  79 104 128 166 214 262 304
#     4   9  20  36  53  72  97 132 174 213 256 309
#     4   9  17  33  55  75  99 137 173 205 251 310
#
# _framework density 23.434725
#
# number of rings (size 3 to 8) (size 9 to 14) (size 15 to 20)
#    0.000    2.750    0.000    3.375    0.000    2.000 
#    0.000    1.875    0.000   15.000    0.000    0.000 
#    0.000    0.000    0.000    0.000    0.000    0.000 
#
# Total GULP energy -178683.409140 kJ/mol
# GULP energy per Si atom -5583.856536 kJ/mol
# Density = 2.338139 g / cm^3
# Si number density = 23.434725 Si / 1000 Ang^3
#
#
#
# Elastic Constant Matrix: (Units=GPa)
#
#
# Indices 1 2 3 4 5 6 
#
# 1 49.6387 22.8516 32.8132 0.0000 14.1460 0.0000
# 2 22.8516 172.5769 60.8605 0.0000 25.9817 0.0000
# 3 32.8132 60.8605 154.7732 0.0000 38.6873 0.0000
# 4 0.0000 0.0000 0.0000 22.9223 0.0000 0.9141
# 5 14.1460 25.9817 38.6873 0.0000 29.8261 0.0000
# 6 0.0000 0.0000 0.0000 0.9141 0.0000 21.7680
#
#
#
# Elastic Compliance Matrix: (Units=1/GPa)
#
#
# Indices 1 2 3 4 5 6 
#
# 1 0.024626 -0.001167 -0.003102 0.000000 -0.006638 0.000000
# 2 -0.001167 0.007054 -0.001670 0.000000 -0.003424 0.000000
# 3 -0.003102 -0.001670 0.010424 0.000000 -0.010594 0.000000
# 4 0.000000 0.000000 0.000000 0.043699 0.000000 -0.001835
# 5 -0.006638 -0.003424 -0.010594 0.000000 0.053401 0.000000
# 6 0.000000 0.000000 0.000000 -0.001835 0.000000 0.046016
#
#
# Mechanical properties :
#
#
# Convention : Reuss Voigt Hill
#
# Bulk Modulus (GPa) = 33.08728 67.78216 50.43472
# Shear Modulus (GPa) = 24.13441 32.26750 28.20096
#
# Velocity S-wave (km/s) = 3.21262 3.71470 3.47274
# Velocity P-wave (km/s) = 5.28307 6.88370 6.13580
#
# Compressibility (1/GPa) = 0.03022310
#
# Stress axis : x y z
#
# Youngs Moduli (GPa) = 40.60814 141.77064 95.93497
#
# Poissons Ratio (x) = 0.16548 0.29764
# Poissons Ratio (y) = 0.04740 0.16023
# Poissons Ratio (z) = 0.12599 0.23679
#
# Static dielectric constant tensor:
#      x y z
#    x 2.069900 0.000000 -0.042760 
#    y 0.000000 1.874000 0.000000 
#    z -0.042760 0.000000 1.910260 
# 
# From -- ./inp_files/54992.got.cif
#   From: 2010.05.17/outbox.cif.g08.bks.cpg/sg11_28_cif.got.tgz:54992.got - 2010.06.03 12:22:45.
