data_PCOD9162273
_publ_section_title
;
Structure prediction by ZEFSAII (Michael W. Deem and Ramdas Pophale) SiO2 
 PCOD9162273
Probable space group: P 21/M
;
_chemical_formula_sum "Si O2"
_cell_formula_units_Z 32
_cell_length_a 23.014161
_cell_length_b 8.214307
_cell_length_c 11.489363
_cell_angle_alpha 90.000000
_cell_angle_beta 130.482176
_cell_angle_gamma 90.000000
_cell_volume 1652.048893
_symmetry_space_group_name_H-M "P 21/M"
_symmetry_group_IT_number 11
_symmetry_cell_setting 'monoclinic'
loop_
_space_group_symop_operation_xyz
x,y,z
-x,1/2+y,-z
-x,-y,-z
x,1/2-y,z
loop_
_atom_site_type_symbol
_atom_site_label
_atom_site_fract_x
_atom_site_fract_y
_atom_site_fract_z
Si Si1 0.515537 0.552891 0.151751
Si Si2 0.791545 0.553671 0.226670
Si Si3 0.862189 0.554966 0.076847
Si Si4 0.826989 0.949614 0.532291
Si Si5 0.674588 0.945485 0.466254
Si Si6 0.706563 0.055522 0.765497
Si Si7 0.364123 0.946531 0.084262
Si Si8 0.014360 0.055609 0.150154
O O1 0.516303 0.750000 0.155959
O O2 0.597202 0.493370 0.305070
O O3 0.445382 0.496672 0.141724
O O4 0.500000 0.500000 0.000000
O O5 0.793257 0.750000 0.229047
O O6 0.840910 0.497061 0.179645
O O7 0.821057 0.497920 0.390227
O O8 0.704714 0.500786 0.089173
O O9 0.860068 0.750000 0.073095
O O10 0.943818 0.498671 0.138035
O O11 0.794081 0.493604 0.905058
O O12 0.827192 0.750000 0.533735
O O13 0.751506 0.004766 0.502890
O O14 0.904699 0.005300 0.694801
O O15 0.674465 0.750000 0.454820
O O16 0.678155 0.987140 0.606671
O O17 0.701965 0.250000 0.755675
O O18 0.658207 0.996498 0.814880
O O19 0.364679 0.750000 0.087245
O O20 0.017270 0.250000 0.154314
O O21 0.000000 0.000000 0.000000
#
# Coordination Sequence:
#
# PCOD9162273 Si02
#       8
#     4   4   4   4   4   4   4   4
#     4  10  21  36  55  79 108 142 179 221 269 319
#     4   9  18  35  58  80 103 138 180 215 257 319
#     4  10  20  35  56  81 108 137 174 219 264 317
#     4   9  19  35  54  76 103 136 175 220 265 310
#     4  10  20  35  55  78 106 140 179 223 269 315
#     4  10  20  35  55  78 107 142 178 217 264 317
#     4   9  19  35  53  78 111 141 172 217 268 313
#     4  11  22  36  55  78 107 142 180 222 268 317
#
# _framework density 19.369886000000001
#
# number of rings (size 3 to 8) (size 9 to 14) (size 15 to 20)
#    0.000    2.250    0.000    2.625    0.000    5.000 
#    0.000    2.500    0.000    0.000    0.000    0.000 
#    0.000    0.000    0.000    0.000    0.000    0.000 
#
# Total GULP energy -178690.790033 kJ/mol
# GULP energy per Si atom -5584.087189 kJ/mol
# Density = 1.932580 g / cm^3
# Si number density = 19.369886 Si / 1000 Ang^3
#
#
#
# Elastic Constant Matrix: (Units=GPa)
#
#
# Indices 1 2 3 4 5 6 
#
# 1 149.2179 6.1222 110.8344 0.0000 25.6412 0.0000
# 2 6.1222 0.1560 0.2902 0.0000 3.0745 0.0000
# 3 110.8344 0.2902 193.6818 0.0000 2.2292 0.0000
# 4 0.0000 0.0000 0.0000 23.1848 0.0000 -4.4963
# 5 25.6412 3.0745 2.2292 0.0000 31.1604 0.0000
# 6 0.0000 0.0000 0.0000 -4.4963 0.0000 18.6700
#
#
#
# Elastic Compliance Matrix: (Units=1/GPa)
#
#
# Indices 1 2 3 4 5 6 
#
# 1 0.006565 0.158187 -0.003755 0.000000 -0.020741 0.000000
# 2 0.158187 -2.971034 -0.088020 0.000000 0.169272 0.000000
# 3 -0.003755 -0.088020 0.007314 0.000000 0.011251 0.000000
# 4 0.000000 0.000000 0.000000 0.045245 0.000000 0.010896
# 5 -0.020741 0.169272 0.011251 0.000000 0.031653 0.000000
# 6 0.000000 0.000000 0.000000 0.010896 0.000000 0.056186
#
#
# Mechanical properties :
#
#
# Convention : Reuss Voigt Hill
#
# Bulk Modulus (GPa) = -0.35407 64.17211 31.90902
# Shear Modulus (GPa) = -1.28260 29.65697 14.18719
#
# Velocity S-wave (km/s) = -0.81462 3.91716 2.70929
# Velocity P-wave (km/s) = 1.03343 7.32534 5.12799
#
# Compressibility (1/GPa) = -2.82432969
#
# Stress axis : x y z
#
# Youngs Moduli (GPa) = 152.33443 -0.33658 136.72078
#
# Poissons Ratio (x) = 0.05324 0.51336
# Poissons Ratio (y) = -24.09740 12.03412
# Poissons Ratio (z) = 0.57199 -0.02963
#
# Static dielectric constant tensor:
#      x y z
#    x 1.675180 0.000000 -0.001380 
#    y 0.000000 1.680660 0.000000 
#    z -0.001380 0.000000 1.644270 
# 
# From -- ./inp_files/42948.got.cif
#   From: 2010.05.17/outbox.cif.g08.bks.cpg/sg11_22_cif.got.tgz:42948.got - 2010.06.03 12:22:45.
