data_PCOD9162959
_publ_section_title
;
Structure prediction by ZEFSAII (Michael W. Deem and Ramdas Pophale) SiO2 
 PCOD9162959
Probable space group: P 21/M
;
_chemical_formula_sum "Si O2"
_cell_formula_units_Z 28
_cell_length_a 12.687142
_cell_length_b 8.616296
_cell_length_c 15.536127
_cell_angle_alpha 90.000000
_cell_angle_beta 105.652803
_cell_angle_gamma 90.000000
_cell_volume 1635.365461
_symmetry_space_group_name_H-M "P 21/M"
_symmetry_group_IT_number 11
_symmetry_cell_setting 'monoclinic'
loop_
_space_group_symop_operation_xyz
x,y,z
-x,1/2+y,-z
-x,-y,-z
x,1/2-y,z
loop_
_atom_site_type_symbol
_atom_site_label
_atom_site_fract_x
_atom_site_fract_y
_atom_site_fract_z
Si Si1 0.609120 0.064025 0.713953
Si Si2 0.793170 0.563018 0.286272
Si Si3 0.346379 0.436658 0.905787
Si Si4 0.973570 0.064026 0.589017
Si Si5 0.737988 0.565869 0.583883
Si Si6 0.590942 0.436707 0.904300
Si Si7 0.373702 0.565787 0.609485
O O1 0.620601 0.250000 0.711511
O O2 0.625771 0.013897 0.816728
O O3 0.690890 0.984982 0.665278
O O4 0.485836 0.018293 0.660253
O O5 0.778847 0.750000 0.292143
O O6 0.745761 0.516783 0.182926
O O7 0.720244 0.483741 0.343841
O O8 0.920286 0.528504 0.329522
O O9 0.347042 0.250000 0.910826
O O10 0.464931 0.486748 0.894046
O O11 0.339183 0.502118 0.000235
O O12 0.960175 0.250000 0.581754
O O13 0.862362 0.989029 0.598335
O O14 0.000000 0.000000 0.500000
O O15 0.730624 0.750000 0.571431
O O16 0.665771 0.485992 0.493407
O O17 0.591710 0.250000 0.906091
O O18 0.389969 0.750000 0.615263
#
# Coordination Sequence:
#
# PCOD9162959 Si02
#       7
#     4   4   4   4   4   4   4
#     4  11  22  39  58  79 113 149 186 226 277 334
#     4  10  20  36  57  81 113 148 182 227 276 324
#     4   9  17  32  53  80 111 144 178 219 273 326
#     4  11  22  37  59  83 109 146 190 231 277 322
#     4  12  25  40  56  78 112 149 189 231 276 328
#     4   9  18  32  53  80 111 144 176 221 274 327
#     4  12  23  35  55  83 113 147 186 224 274 331
#
# _framework density 17.121555000000001
#
# number of rings (size 3 to 8) (size 9 to 14) (size 15 to 20)
#    0.000    1.429    2.857    3.857    0.000    2.286 
#    0.000    0.000    0.000    0.857    0.000    0.000 
#    0.000    0.000    0.000    0.000    0.000    0.000 
#
# Total GULP energy -156424.348053 kJ/mol
# GULP energy per Si atom -5586.583859 kJ/mol
# Density = 1.708259 g / cm^3
# Si number density = 17.121555 Si / 1000 Ang^3
#
#
#
# Elastic Constant Matrix: (Units=GPa)
#
#
# Indices 1 2 3 4 5 6 
#
# 1 43.5585 -3.5142 26.6838 0.0000 -15.5345 0.0000
# 2 -3.5142 15.8472 3.4038 0.0000 2.0462 0.0000
# 3 26.6838 3.4038 138.8467 0.0000 -7.0782 0.0000
# 4 0.0000 0.0000 0.0000 26.4199 0.0000 -4.5688
# 5 -15.5345 2.0462 -7.0782 0.0000 23.2483 0.0000
# 6 0.0000 0.0000 0.0000 -4.5688 0.0000 26.2751
#
#
#
# Elastic Compliance Matrix: (Units=1/GPa)
#
#
# Indices 1 2 3 4 5 6 
#
# 1 0.034305 0.006164 -0.005691 0.000000 0.020647 0.000000
# 2 0.006164 0.065423 -0.002917 0.000000 -0.002528 0.000000
# 3 -0.005691 -0.002917 0.008316 0.000000 -0.001014 0.000000
# 4 0.000000 0.000000 0.000000 0.039024 0.000000 0.006786
# 5 0.020647 -0.002528 -0.001014 0.000000 0.056724 0.000000
# 6 0.000000 0.000000 0.000000 0.006786 0.000000 0.039239
#
#
# Mechanical properties :
#
#
# Convention : Reuss Voigt Hill
#
# Bulk Modulus (GPa) = 9.69426 27.93324 18.81375
# Shear Modulus (GPa) = 17.71140 26.63391 22.17266
#
# Velocity S-wave (km/s) = 3.21978 3.94836 3.60253
# Velocity P-wave (km/s) = 4.41553 6.09394 5.32133
#
# Compressibility (1/GPa) = 0.10315378
#
# Stress axis : x y z
#
# Youngs Moduli (GPa) = 29.15036 15.28522 120.25356
#
# Poissons Ratio (x) = -0.09422 0.68440
# Poissons Ratio (y) = -0.17968 0.35081
# Poissons Ratio (z) = 0.16590 0.04459
#
# Static dielectric constant tensor:
#      x y z
#    x 1.552810 0.000000 0.004130 
#    y 0.000000 1.579880 0.000000 
#    z 0.004130 0.000000 1.579100 
# 
# From -- ./inp_files/48927.got.cif
#   From: 2010.05.17/outbox.cif.g08.bks.cpg/sg11_25_cif.got.tgz:48927.got - 2010.06.03 12:22:45.
