data_PCOD9162401
_publ_section_title
;
Structure prediction by ZEFSAII (Michael W. Deem and Ramdas Pophale) SiO2 
 PCOD9162401
Probable space group: P 21/M
;
_chemical_formula_sum "Si O2"
_cell_formula_units_Z 24
_cell_length_a 8.829834
_cell_length_b 14.519918
_cell_length_c 9.522495
_cell_angle_alpha 90.000000
_cell_angle_beta 88.590216
_cell_angle_gamma 90.000000
_cell_volume 1220.494921
_symmetry_space_group_name_H-M "P 21/M"
_symmetry_group_IT_number 11
_symmetry_cell_setting 'monoclinic'
loop_
_space_group_symop_operation_xyz
x,y,z
-x,1/2+y,-z
-x,-y,-z
x,1/2-y,z
loop_
_atom_site_type_symbol
_atom_site_label
_atom_site_fract_x
_atom_site_fract_y
_atom_site_fract_z
Si Si1 0.323326 0.140583 0.244579
Si Si2 0.957763 0.641213 0.577956
Si Si3 0.797275 0.143209 0.628181
Si Si4 0.862573 0.461960 0.196509
Si Si5 0.599985 0.437951 0.395373
Si Si6 0.814496 0.028186 0.889918
O O1 0.308073 0.250000 0.217099
O O2 0.212415 0.114639 0.379019
O O3 0.490855 0.114296 0.289030
O O4 0.258941 0.073622 0.124539
O O5 0.958739 0.750000 0.558119
O O6 0.044959 0.602539 0.440527
O O7 0.054959 0.616649 0.713908
O O8 0.814898 0.250000 0.663918
O O9 0.684552 0.131035 0.500083
O O10 0.745685 0.088089 0.765727
O O11 0.726680 0.492412 0.301745
O O12 0.004845 0.526036 0.149538
O O13 0.795113 0.434605 0.046971
O O14 0.500000 0.500000 0.500000
#
# Coordination Sequence:
#
# PCOD9162401 Si02
#       6
#     4   4   4   4   4   4
#     4  10  20  35  56  81 112 147 187 224 275 332
#     4   8  17  33  56  81 107 145 187 229 269 322
#     4  10  20  35  56  84 112 141 188 232 272 323
#     4   9  21  35  56  80 111 143 185 224 276 331
#     4  11  21  35  57  82 110 148 180 226 280 328
#     4  10  20  38  58  83 108 148 185 231 274 321
#
# _framework density 19.664152999999999
#
# number of rings (size 3 to 8) (size 9 to 14) (size 15 to 20)
#    0.000    2.333    1.667    0.500    2.333    4.000 
#    0.000    2.500    0.000    1.000    0.000    0.000 
#    0.000    0.000    0.000    0.000    0.000    0.000 
#
# Total GULP energy -133624.718875 kJ/mol
# GULP energy per Si atom -5567.696620 kJ/mol
# Density = 1.961940 g / cm^3
# Si number density = 19.664153 Si / 1000 Ang^3
#
#
#
# Elastic Constant Matrix: (Units=GPa)
#
#
# Indices 1 2 3 4 5 6 
#
# 1 77.9775 9.8329 21.7337 0.0000 -2.5450 0.0000
# 2 9.8329 48.4827 16.7875 0.0000 -2.0668 0.0000
# 3 21.7337 16.7875 107.6971 0.0000 6.5866 0.0000
# 4 0.0000 0.0000 0.0000 10.1152 0.0000 -0.7725
# 5 -2.5450 -2.0668 6.5866 0.0000 23.0502 0.0000
# 6 0.0000 0.0000 0.0000 -0.7725 0.0000 17.8106
#
#
#
# Elastic Compliance Matrix: (Units=1/GPa)
#
#
# Indices 1 2 3 4 5 6 
#
# 1 0.013858 -0.001804 -0.002645 0.000000 0.002124 0.000000
# 2 -0.001804 0.022240 -0.003270 0.000000 0.002729 0.000000
# 3 -0.002645 -0.003270 0.010549 0.000000 -0.003600 0.000000
# 4 0.000000 0.000000 0.000000 0.099190 0.000000 0.004302
# 5 0.002124 0.002729 -0.003600 0.000000 0.044891 0.000000
# 6 0.000000 0.000000 0.000000 0.004302 0.000000 0.056333
#
#
# Mechanical properties :
#
#
# Convention : Reuss Voigt Hill
#
# Bulk Modulus (GPa) = 32.04159 36.76285 34.40222
# Shear Modulus (GPa) = 18.32152 22.58206 20.45179
#
# Velocity S-wave (km/s) = 3.05572 3.39246 3.22849
# Velocity P-wave (km/s) = 5.36467 5.83790 5.60628
#
# Compressibility (1/GPa) = 0.03120944
#
# Stress axis : x y z
#
# Youngs Moduli (GPa) = 72.15863 44.96343 94.79611
#
# Poissons Ratio (x) = 0.08112 0.25077
# Poissons Ratio (y) = 0.13018 0.30995
# Poissons Ratio (z) = 0.19089 0.14701
#
# Static dielectric constant tensor:
#      x y z
#    x 1.773080 0.000000 -0.012660 
#    y 0.000000 1.689610 0.000000 
#    z -0.012660 0.000000 1.699730 
# 
# From -- ./inp_files/12449.got.cif
#   From: 2010.05.17/outbox.cif.g08.bks.cpg/sg11_7_cif.got.tgz:12449.got - 2010.06.03 12:22:45.
