data_PCOD9162995
_publ_section_title
;
Structure prediction by ZEFSAII (Michael W. Deem and Ramdas Pophale) SiO2 
 PCOD9162995
Probable space group: P 21/M
;
_chemical_formula_sum "Si O2"
_cell_formula_units_Z 28
_cell_length_a 22.483977
_cell_length_b 7.990675
_cell_length_c 15.216747
_cell_angle_alpha 90.000000
_cell_angle_beta 29.138150
_cell_angle_gamma 90.000000
_cell_volume 1331.169681
_symmetry_space_group_name_H-M "P 21/M"
_symmetry_group_IT_number 11
_symmetry_cell_setting 'monoclinic'
loop_
_space_group_symop_operation_xyz
x,y,z
-x,1/2+y,-z
-x,-y,-z
x,1/2-y,z
loop_
_atom_site_type_symbol
_atom_site_label
_atom_site_fract_x
_atom_site_fract_y
_atom_site_fract_z
Si Si1 0.838992 0.953921 0.503829
Si Si2 0.876435 0.952757 0.262797
Si Si3 0.656979 0.947340 0.047745
Si Si4 0.385755 0.047738 0.088542
Si Si5 0.156636 0.552284 0.885983
Si Si6 0.614785 0.552228 0.293713
Si Si7 0.934929 0.049257 0.675032
O O1 0.836402 0.750000 0.507838
O O2 0.818808 0.007181 0.429525
O O3 0.736464 0.012724 0.704184
O O4 0.972340 0.001789 0.367191
O O5 0.876518 0.750000 0.259672
O O6 0.814765 0.014805 0.253033
O O7 0.018293 0.011960 0.079416
O O8 0.627017 0.750000 0.086563
O O9 0.614254 0.021990 0.195731
O O10 0.606429 0.018074 0.021175
O O11 0.803319 0.966708 0.853625
O O12 0.377611 0.250000 0.094817
O O13 0.500000 0.000000 0.000000
O O14 0.152046 0.750000 0.904918
O O15 0.259209 0.486288 0.818767
O O16 0.500000 0.500000 0.500000
O O17 0.608298 0.750000 0.292554
O O18 0.919945 0.250000 0.697011
O O19 0.000000 0.000000 0.500000
#
# Coordination Sequence:
#
# PCOD9162995 Si02
#       7
#     4   4   4   4   4   4   4
#     4   9  18  34  56  81 113 149 185 233 285 336
#     4   9  18  34  58  85 112 149 192 235 289 347
#     4  10  22  41  61  85 118 152 189 243 299 344
#     4  10  21  39  57  77 111 148 187 231 281 339
#     4  10  20  36  57  84 118 150 188 239 294 349
#     4  11  24  41  62  85 115 154 199 247 296 351
#     4  11  20  34  59  89 121 154 192 237 289 349
#
# _framework density 21.034134000000002
#
# number of rings (size 3 to 8) (size 9 to 14) (size 15 to 20)
#    0.000    2.000    1.429    2.143    0.000    4.571 
#    0.000    5.000    0.000    0.000    0.000    0.000 
#    0.000    0.000    0.000    0.000    0.000    0.000 
#
# Total GULP energy -156387.352525 kJ/mol
# GULP energy per Si atom -5585.262590 kJ/mol
# Density = 2.098626 g / cm^3
# Si number density = 21.034134 Si / 1000 Ang^3
#
#
#
# Elastic Constant Matrix: (Units=GPa)
#
#
# Indices 1 2 3 4 5 6 
#
# 1 169.8692 6.3706 68.0244 0.0000 24.4874 0.0000
# 2 6.3706 20.3996 -3.3416 0.0000 3.7220 0.0000
# 3 68.0244 -3.3416 71.1377 0.0000 23.1997 0.0000
# 4 0.0000 0.0000 0.0000 22.3764 0.0000 -6.7774
# 5 24.4874 3.7220 23.1997 0.0000 39.8888 0.0000
# 6 0.0000 0.0000 0.0000 -6.7774 0.0000 25.9498
#
#
#
# Elastic Compliance Matrix: (Units=1/GPa)
#
#
# Indices 1 2 3 4 5 6 
#
# 1 0.009970 -0.004709 -0.009752 0.000000 -0.000009 0.000000
# 2 -0.004709 0.053437 0.009498 0.000000 -0.007619 0.000000
# 3 -0.009752 0.009498 0.027353 0.000000 -0.010809 0.000000
# 4 0.000000 0.000000 0.000000 0.048529 0.000000 0.012674
# 5 -0.000009 -0.007619 -0.010809 0.000000 0.032073 0.000000
# 6 0.000000 0.000000 0.000000 0.012674 0.000000 0.041846
#
#
# Mechanical properties :
#
#
# Convention : Reuss Voigt Hill
#
# Bulk Modulus (GPa) = 12.37088 44.83482 28.60285
# Shear Modulus (GPa) = 19.99368 30.33321 25.16344
#
# Velocity S-wave (km/s) = 3.08642 3.80161 3.46253
# Velocity P-wave (km/s) = 4.31224 6.37426 5.44181
#
# Compressibility (1/GPa) = 0.08083499
#
# Stress axis : x y z
#
# Youngs Moduli (GPa) = 100.30120 18.71351 36.55845
#
# Poissons Ratio (x) = 0.08813 0.35651
# Poissons Ratio (y) = 0.47234 -0.34724
# Poissons Ratio (z) = 0.97812 -0.17774
#
# Static dielectric constant tensor:
#      x y z
#    x 1.766840 0.000000 0.025650 
#    y 0.000000 1.748310 0.000000 
#    z 0.025650 0.000000 1.702020 
# 
# From -- ./inp_files/37492.got.cif
#   From: 2010.05.17/outbox.cif.g08.bks.cpg/sg11_19_cif.got.tgz:37492.got - 2010.06.03 12:22:45.
