data_PCOD9162136
_publ_section_title
;
Structure prediction by ZEFSAII (Michael W. Deem and Ramdas Pophale) SiO2 
 PCOD9162136
Probable space group: P 21/M
;
_chemical_formula_sum "Si O2"
_cell_formula_units_Z 28
_cell_length_a 9.392934
_cell_length_b 30.370277
_cell_length_c 5.264245
_cell_angle_alpha 90.000000
_cell_angle_beta 70.169120
_cell_angle_gamma 90.000000
_cell_volume 1412.655838
_symmetry_space_group_name_H-M "P 21/M"
_symmetry_group_IT_number 11
_symmetry_cell_setting 'monoclinic'
loop_
_space_group_symop_operation_xyz
x,y,z
-x,1/2+y,-z
-x,-y,-z
x,1/2-y,z
loop_
_atom_site_type_symbol
_atom_site_label
_atom_site_fract_x
_atom_site_fract_y
_atom_site_fract_z
Si Si1 0.150823 0.342058 0.654328
Si Si2 0.221237 0.412261 0.011908
Si Si3 0.597262 0.750000 0.923138
Si Si4 0.396417 0.999398 0.810282
Si Si5 0.250924 0.595768 0.923047
Si Si6 0.796097 0.750000 0.293553
Si Si7 0.054201 0.608765 0.546488
Si Si8 0.449442 0.347851 0.167412
O O1 0.115696 0.295349 0.798353
O O2 0.327164 0.342176 0.467146
O O3 0.041279 0.348178 0.480114
O O4 0.139246 0.383730 0.844649
O O5 0.352695 0.379745 0.038115
O O6 0.089837 0.422334 0.297699
O O7 0.294319 0.457047 0.874494
O O8 0.726868 0.750000 0.622252
O O9 0.517968 0.797758 0.941767
O O10 0.666661 0.750000 0.160965
O O11 0.301486 0.954653 0.860522
O O12 0.500000 0.000000 0.500000
O O13 0.500000 0.000000 0.000000
O O14 0.158606 0.610681 0.730257
O O15 0.399303 0.626317 0.856237
O O16 0.156313 0.597967 0.241668
#
# Coordination Sequence:
#
# PCOD9162136 Si02
#       8
#     4   4   2   4   4   2   4   4
#     4  10  21  43  65  99 123 170 216 266 318 379
#     4  11  22  43  69  93 129 170 217 264 314 380
#     4  10  20  36  60 105 119 158 213 270 320 367
#     4  12  26  42  67 101 125 166 220 269 317 377
#     4  12  25  44  63  96 133 172 209 266 324 381
#     4  10  20  34  68  93 127 156 219 268 310 373
#     4  11  26  43  64  92 134 171 209 258 325 386
#     4  10  22  38  70  92 129 164 215 270 316 374
#
# _framework density 19.820824000000002
#
# number of rings (size 3 to 8) (size 9 to 14) (size 15 to 20)
#    0.000    1.143    4.286    1.714    4.000    1.143 
#    0.000    1.429    0.000    0.000    0.000    0.000 
#    0.000    0.000    0.000    0.000    0.000    0.000 
#
# Total GULP energy -156150.514636 kJ/mol
# GULP energy per Si atom -5576.804094 kJ/mol
# Density = 1.977571 g / cm^3
# Si number density = 19.820824 Si / 1000 Ang^3
#
#
#
# Elastic Constant Matrix: (Units=GPa)
#
#
# Indices 1 2 3 4 5 6 
#
# 1 135.3474 70.7116 60.3584 0.0000 11.3880 0.0000
# 2 70.7116 131.0306 33.1483 0.0000 -2.9668 0.0000
# 3 60.3584 33.1483 126.0255 0.0000 -2.5610 0.0000
# 4 0.0000 0.0000 0.0000 24.7729 0.0000 6.1303
# 5 11.3880 -2.9668 -2.5610 0.0000 36.2226 0.0000
# 6 0.0000 0.0000 0.0000 6.1303 0.0000 -2.2350
#
#
#
# Elastic Compliance Matrix: (Units=1/GPa)
#
#
# Indices 1 2 3 4 5 6 
#
# 1 0.013037 -0.005937 -0.004782 0.000000 -0.004923 0.000000
# 2 -0.005937 0.010889 0.000035 0.000000 0.002761 0.000000
# 3 -0.004782 0.000035 0.010261 0.000000 0.002232 0.000000
# 4 0.000000 0.000000 0.000000 0.024046 0.000000 0.065955
# 5 -0.004923 0.002761 0.002232 0.000000 0.029539 0.000000
# 6 0.000000 0.000000 0.000000 0.065955 0.000000 -0.266526
#
#
# Mechanical properties :
#
#
# Convention : Reuss Voigt Hill
#
# Bulk Modulus (GPa) = 78.00515 80.09334 79.04924
# Shear Modulus (GPa) = -32.65588 26.96444 -2.84572
#
# Velocity S-wave (km/s) = -4.06341 3.69237 -1.19952
# Velocity P-wave (km/s) = 4.17439 7.65993 6.16847
#
# Compressibility (1/GPa) = 0.01281967
#
# Stress axis : x y z
#
# Youngs Moduli (GPa) = 76.70345 91.83217 97.45249
#
# Poissons Ratio (x) = 0.54523 0.46606
# Poissons Ratio (y) = 0.45541 -0.00345
# Poissons Ratio (z) = 0.36683 -0.00325
#
# Static dielectric constant tensor:
#      x y z
#    x 1.691910 0.000000 0.009000 
#    y 0.000000 1.732490 0.000000 
#    z 0.009000 0.000000 1.748650 
# 
# From -- ./inp_files/3227.got.cif
#   From: 2010.05.17/outbox.cif.g08.bks.cpg/sg11_2_cif.got.tgz:3227.got - 2010.06.03 12:22:45.
