data_PCOD9162112
_publ_section_title
;
Structure prediction by ZEFSAII (Michael W. Deem and Ramdas Pophale) SiO2 
 PCOD9162112
Probable space group: P 21/M
;
_chemical_formula_sum "Si O2"
_cell_formula_units_Z 28
_cell_length_a 11.718400
_cell_length_b 8.690623
_cell_length_c 15.220517
_cell_angle_alpha 90.000000
_cell_angle_beta 65.880981
_cell_angle_gamma 90.000000
_cell_volume 1414.737972
_symmetry_space_group_name_H-M "P 21/M"
_symmetry_group_IT_number 11
_symmetry_cell_setting 'monoclinic'
loop_
_space_group_symop_operation_xyz
x,y,z
-x,1/2+y,-z
-x,-y,-z
x,1/2-y,z
loop_
_atom_site_type_symbol
_atom_site_label
_atom_site_fract_x
_atom_site_fract_y
_atom_site_fract_z
Si Si1 0.828504 0.434683 0.838479
Si Si2 0.478938 0.065152 0.409709
Si Si3 0.633205 0.934559 0.205125
Si Si4 0.552562 0.435543 0.892382
Si Si5 0.197203 0.435302 0.458451
Si Si6 0.013564 0.066215 0.358744
Si Si7 0.137587 0.934231 0.969417
O O1 0.839782 0.250000 0.828180
O O2 0.696561 0.484294 0.837854
O O3 0.941693 0.509765 0.750057
O O4 0.822956 0.474358 0.943093
O O5 0.481426 0.250000 0.410712
O O6 0.341219 0.014982 0.418267
O O7 0.500000 0.000000 0.500000
O O8 0.584745 0.003329 0.311149
O O9 0.634488 0.750000 0.209561
O O10 0.533583 0.983854 0.161406
O O11 0.766253 0.994470 0.130016
O O12 0.550474 0.250000 0.897802
O O13 0.500000 0.500000 0.000000
O O14 0.195058 0.250000 0.460957
O O15 0.120532 0.484995 0.395617
O O16 0.116116 0.497224 0.565601
O O17 0.006149 0.250000 0.363012
O O18 0.138248 0.750000 0.961229
O O19 0.000000 0.000000 0.000000
#
# Coordination Sequence:
#
# PCOD9162112 Si02
#       7
#     4   4   4   4   4   4   4
#     4  10  21  37  57  85 120 157 192 236 296 353
#     4  11  24  42  64  88 119 159 204 252 302 358
#     4  11  23  40  64  93 123 157 199 249 305 363
#     4  10  20  35  59  90 122 155 194 243 297 357
#     4   9  20  39  59  84 118 154 191 240 300 353
#     4  10  20  34  59  90 117 150 192 240 293 353
#     4  11  24  42  62  84 118 160 203 246 295 355
#
# _framework density 19.791650000000001
#
# number of rings (size 3 to 8) (size 9 to 14) (size 15 to 20)
#    0.000    1.714    1.429    2.571    0.000    5.143 
#    0.000    1.429    0.000    0.000    0.000    0.000 
#    0.000    0.000    0.000    0.000    0.000    0.000 
#
# Total GULP energy -156502.850192 kJ/mol
# GULP energy per Si atom -5589.387507 kJ/mol
# Density = 1.974660 g / cm^3
# Si number density = 19.791650 Si / 1000 Ang^3
#
#
#
# Elastic Constant Matrix: (Units=GPa)
#
#
# Indices 1 2 3 4 5 6 
#
# 1 86.7507 26.2640 42.8468 0.0000 -19.5453 0.0000
# 2 26.2640 28.3607 36.1563 0.0000 -3.1051 0.0000
# 3 42.8468 36.1563 163.7266 0.0000 -20.3166 0.0000
# 4 0.0000 0.0000 0.0000 36.6539 0.0000 -2.2325
# 5 -19.5453 -3.1051 -20.3166 0.0000 30.9439 0.0000
# 6 0.0000 0.0000 0.0000 -2.2325 0.0000 25.5779
#
#
#
# Elastic Compliance Matrix: (Units=1/GPa)
#
#
# Indices 1 2 3 4 5 6 
#
# 1 0.018745 -0.016147 -0.000078 0.000000 0.010169 0.000000
# 2 -0.016147 0.063147 -0.011103 0.000000 -0.011152 0.000000
# 3 -0.000078 -0.011103 0.009184 0.000000 0.004866 0.000000
# 4 0.000000 0.000000 0.000000 0.027428 0.000000 0.002394
# 5 0.010169 -0.011152 0.004866 0.000000 0.040816 0.000000
# 6 0.000000 0.000000 0.000000 0.002394 0.000000 0.039305
#
#
# Mechanical properties :
#
#
# Convention : Reuss Voigt Hill
#
# Bulk Modulus (GPa) = 27.45707 54.37468 40.91588
# Shear Modulus (GPa) = 18.83794 30.20654 24.52224
#
# Velocity S-wave (km/s) = 3.08849 3.91093 3.52379
# Velocity P-wave (km/s) = 5.15961 6.92294 6.10527
#
# Compressibility (1/GPa) = 0.03642049
#
# Stress axis : x y z
#
# Youngs Moduli (GPa) = 53.34649 15.83600 108.88472
#
# Poissons Ratio (x) = 0.25570 0.00850
# Poissons Ratio (y) = 0.86137 1.20899
# Poissons Ratio (z) = 0.00416 0.17583
#
# Static dielectric constant tensor:
#      x y z
#    x 1.728890 0.000000 -0.013070 
#    y 0.000000 1.659500 0.000000 
#    z -0.013070 0.000000 1.696290 
# 
# From -- ./inp_files/49109.got.cif
#   From: 2010.05.17/outbox.cif.g08.bks.cpg/sg11_25_cif.got.tgz:49109.got - 2010.06.03 12:22:45.
