data_PCOD9162716
_publ_section_title
;
Structure prediction by ZEFSAII (Michael W. Deem and Ramdas Pophale) SiO2 
 PCOD9162716
Probable space group: P 21/M
;
_chemical_formula_sum "Si O2"
_cell_formula_units_Z 32
_cell_length_a 11.697034
_cell_length_b 8.854759
_cell_length_c 15.523365
_cell_angle_alpha 90.000000
_cell_angle_beta 85.855686
_cell_angle_gamma 90.000000
_cell_volume 1603.619323
_symmetry_space_group_name_H-M "P 21/M"
_symmetry_group_IT_number 11
_symmetry_cell_setting 'monoclinic'
loop_
_space_group_symop_operation_xyz
x,y,z
-x,1/2+y,-z
-x,-y,-z
x,1/2-y,z
loop_
_atom_site_type_symbol
_atom_site_label
_atom_site_fract_x
_atom_site_fract_y
_atom_site_fract_z
Si Si1 0.566297 0.929571 0.869263
Si Si2 0.322371 0.926211 0.473429
Si Si3 0.924306 0.931493 0.080358
Si Si4 0.949539 0.070679 0.262827
Si Si5 0.535453 0.069347 0.695933
Si Si6 0.933382 0.424933 0.583427
Si Si7 0.284860 0.071118 0.658616
Si Si8 0.333692 0.068546 0.955994
O O1 0.561287 0.750000 0.862879
O O2 0.595542 0.998237 0.775241
O O3 0.441519 0.991701 0.903941
O O4 0.651832 0.968112 0.943169
O O5 0.345812 0.750000 0.495534
O O6 0.414619 0.980985 0.398698
O O7 0.200225 0.929535 0.432048
O O8 0.311888 0.025921 0.558968
O O9 0.930534 0.750000 0.078742
O O10 0.790488 0.974479 0.073171
O O11 0.965915 0.994257 0.169516
O O12 0.000000 0.000000 0.000000
O O13 0.957210 0.250000 0.255427
O O14 0.823695 0.021557 0.303062
O O15 0.035800 0.009910 0.330684
O O16 0.550090 0.250000 0.697895
O O17 0.400038 0.036687 0.705327
O O18 0.969337 0.250000 0.589027
O O19 0.000000 0.500000 0.500000
O O20 0.261329 0.250000 0.667028
O O21 0.346062 0.250000 0.945511
#
# Coordination Sequence:
#
# PCOD9162716 Si02
#       8
#     4   4   4   4   4   4   4   4
#     4  10  20  35  59  89 115 149 195 241 289 351
#     4  10  22  39  59  84 117 155 196 243 297 358
#     4  11  24  43  64  89 123 159 199 250 305 363
#     4  12  25  41  63  90 121 160 205 252 300 358
#     4  10  22  38  55  83 121 157 191 236 297 358
#     4  11  22  39  63  90 120 156 201 252 302 355
#     4  11  22  37  60  86 117 155 198 245 297 355
#     4   9  20  39  61  85 117 153 191 240 297 353
#
# _framework density 19.954858999999999
#
# number of rings (size 3 to 8) (size 9 to 14) (size 15 to 20)
#    0.000    1.500    1.250    3.750    0.000    7.500 
#    0.000    2.500    0.000    0.000    0.000    0.000 
#    0.000    0.000    0.000    0.000    0.000    0.000 
#
# Total GULP energy -178928.389641 kJ/mol
# GULP energy per Si atom -5591.512176 kJ/mol
# Density = 1.990944 g / cm^3
# Si number density = 19.954859 Si / 1000 Ang^3
#
#
#
# Elastic Constant Matrix: (Units=GPa)
#
#
# Indices 1 2 3 4 5 6 
#
# 1 27.9025 12.4204 2.5001 0.0000 11.6387 0.0000
# 2 12.4204 60.3124 26.7349 0.0000 11.0462 0.0000
# 3 2.5001 26.7349 123.1662 0.0000 15.4724 0.0000
# 4 0.0000 0.0000 0.0000 38.8675 0.0000 -1.7080
# 5 11.6387 11.0462 15.4724 0.0000 27.7063 0.0000
# 6 0.0000 0.0000 0.0000 -1.7080 0.0000 19.1806
#
#
#
# Elastic Compliance Matrix: (Units=1/GPa)
#
#
# Indices 1 2 3 4 5 6 
#
# 1 0.046532 -0.007573 0.002985 0.000000 -0.018195 0.000000
# 2 -0.007573 0.020384 -0.003925 0.000000 -0.002754 0.000000
# 3 0.002985 -0.003925 0.009541 0.000000 -0.005017 0.000000
# 4 0.000000 0.000000 0.000000 0.025829 0.000000 0.002300
# 5 -0.018195 -0.002754 -0.005017 0.000000 0.047636 0.000000
# 6 0.000000 0.000000 0.000000 0.002300 0.000000 0.052341
#
#
# Mechanical properties :
#
#
# Convention : Reuss Voigt Hill
#
# Bulk Modulus (GPa) = 16.82644 32.74354 24.78499
# Shear Modulus (GPa) = 20.91177 28.46593 24.68885
#
# Velocity S-wave (km/s) = 3.24072 3.78102 3.52125
# Velocity P-wave (km/s) = 4.73852 5.95869 5.38329
#
# Compressibility (1/GPa) = 0.05943028
#
# Stress axis : x y z
#
# Youngs Moduli (GPa) = 21.49051 49.05771 104.81359
#
# Poissons Ratio (x) = 0.37153 -0.31287
# Poissons Ratio (y) = 0.16276 0.41139
# Poissons Ratio (z) = -0.06415 0.19255
#
# Static dielectric constant tensor:
#      x y z
#    x 1.700060 0.000000 0.006740 
#    y 0.000000 1.667860 0.000000 
#    z 0.006740 0.000000 1.702710 
# 
# From -- ./inp_files/49365.got.cif
#   From: 2010.05.17/outbox.cif.g08.bks.cpg/sg11_25_cif.got.tgz:49365.got - 2010.06.03 12:22:45.
