data_PCOD9162207
_publ_section_title
;
Structure prediction by ZEFSAII (Michael W. Deem and Ramdas Pophale) SiO2 
 PCOD9162207
Probable space group: P 21/M
;
_chemical_formula_sum "Si O2"
_cell_formula_units_Z 32
_cell_length_a 29.175955
_cell_length_b 8.446300
_cell_length_c 23.265800
_cell_angle_alpha 90.000000
_cell_angle_beta 18.305824
_cell_angle_gamma 90.000000
_cell_volume 1800.786588
_symmetry_space_group_name_H-M "P 21/M"
_symmetry_group_IT_number 11
_symmetry_cell_setting 'monoclinic'
loop_
_space_group_symop_operation_xyz
x,y,z
-x,1/2+y,-z
-x,-y,-z
x,1/2-y,z
loop_
_atom_site_type_symbol
_atom_site_label
_atom_site_fract_x
_atom_site_fract_y
_atom_site_fract_z
Si Si1 0.331949 0.441536 0.987441
Si Si2 0.175787 0.439687 0.000788
Si Si3 0.531257 0.060174 0.290963
Si Si4 0.580082 0.941293 0.990357
Si Si5 0.220351 0.441318 0.709891
Si Si6 0.919864 0.060558 0.009168
Si Si7 0.721548 0.441368 0.708641
Si Si8 0.970960 0.942764 0.707596
O O1 0.335654 0.250000 0.982134
O O2 0.434801 0.501421 0.813772
O O3 0.379484 0.495773 0.993926
O O4 0.167010 0.490596 0.167257
O O5 0.178911 0.250000 0.997229
O O6 0.336153 0.499995 0.827294
O O7 0.124291 0.498729 0.000478
O O8 0.068407 0.492050 0.180550
O O9 0.532517 0.250000 0.289720
O O10 0.374652 0.004850 0.500786
O O11 0.582650 0.750000 0.987128
O O12 0.690553 0.000812 0.810004
O O13 0.418228 0.992233 0.162901
O O14 0.220570 0.250000 0.710797
O O15 0.082122 0.492631 0.835671
O O16 0.188513 0.501388 0.811915
O O17 0.918296 0.250000 0.010360
O O18 0.723243 0.250000 0.706923
O O19 0.874269 0.498453 0.500645
O O20 0.974712 0.750000 0.702903
#
# Coordination Sequence:
#
# PCOD9162207 Si02
#       8
#     4   4   4   4   4   4   4   4
#     4   9  18  33  50  69  97 129 162 201 245 295
#     4  10  20  35  54  76 104 135 168 207 252 301
#     4  10  20  35  54  76 103 133 168 209 251 297
#     4   9  18  31  47  69  96 125 158 198 243 291
#     4   9  20  37  54  75 104 135 167 207 253 299
#     4  10  20  35  55  78 103 132 169 210 250 296
#     4   9  17  31  49  68  93 125 161 199 240 289
#     4   8  16  31  49  68  92 125 161 197 238 287
#
# _framework density 17.770012000000001
#
# number of rings (size 3 to 8) (size 9 to 14) (size 15 to 20)
#    0.000    2.750    0.000    1.875    0.000    4.000 
#    0.000    4.375    0.000    0.000    0.000    0.000 
#    0.000    0.000    0.000    0.000    0.000    0.000 
#
# Total GULP energy -178454.130503 kJ/mol
# GULP energy per Si atom -5576.691578 kJ/mol
# Density = 1.772957 g / cm^3
# Si number density = 17.770012 Si / 1000 Ang^3
#
#
#
# Elastic Constant Matrix: (Units=GPa)
#
#
# Indices 1 2 3 4 5 6 
#
# 1 191.9023 21.7622 104.5467 0.0000 20.5292 0.0000
# 2 21.7622 13.6333 22.9618 0.0000 2.1262 0.0000
# 3 104.5467 22.9618 198.1517 0.0000 15.2247 0.0000
# 4 0.0000 0.0000 0.0000 23.3625 0.0000 7.8291
# 5 20.5292 2.1262 15.2247 0.0000 8.4535 0.0000
# 6 0.0000 0.0000 0.0000 7.8291 0.0000 14.7463
#
#
#
# Elastic Compliance Matrix: (Units=1/GPa)
#
#
# Indices 1 2 3 4 5 6 
#
# 1 0.009271 -0.007639 -0.002813 0.000000 -0.015526 0.000000
# 2 -0.007639 0.097581 -0.007912 0.000000 0.008257 0.000000
# 3 -0.002813 -0.007912 0.007857 0.000000 -0.005329 0.000000
# 4 0.000000 0.000000 0.000000 0.052067 0.000000 -0.027644
# 5 -0.015526 0.008257 -0.005329 0.000000 0.163520 0.000000
# 6 0.000000 0.000000 0.000000 -0.027644 0.000000 0.082490
#
#
# Mechanical properties :
#
#
# Convention : Reuss Voigt Hill
#
# Bulk Modulus (GPa) = 12.82356 78.02541 45.42448
# Shear Modulus (GPa) = 10.51507 26.27357 18.39432
#
# Velocity S-wave (km/s) = 2.43519 3.84934 3.22084
# Velocity P-wave (km/s) = 3.89088 7.98501 6.28090
#
# Compressibility (1/GPa) = 0.07798147
#
# Stress axis : x y z
#
# Youngs Moduli (GPa) = 107.86524 10.24786 127.27212
#
# Poissons Ratio (x) = 0.07828 0.35805
# Poissons Ratio (y) = 0.82398 1.00694
# Poissons Ratio (z) = 0.30345 0.08108
#
# Static dielectric constant tensor:
#      x y z
#    x 1.585530 0.000000 -0.010270 
#    y 0.000000 1.601500 0.000000 
#    z -0.010270 0.000000 1.598310 
# 
# From -- ./inp_files/66998.got.cif
#   From: 2010.05.17/outbox.cif.g08.bks.cpg/sg11_34_cif.got.tgz:66998.got - 2010.06.03 12:22:45.
