data_PCOD9162085
_publ_section_title
;
Structure prediction by ZEFSAII (Michael W. Deem and Ramdas Pophale) SiO2 
 PCOD9162085
Probable space group: P 21/M
;
_chemical_formula_sum "Si O2"
_cell_formula_units_Z 24
_cell_length_a 8.737365
_cell_length_b 17.822986
_cell_length_c 14.537212
_cell_angle_alpha 90.000000
_cell_angle_beta 23.544249
_cell_angle_gamma 90.000000
_cell_volume 904.299535
_symmetry_space_group_name_H-M "P 21/M"
_symmetry_group_IT_number 11
_symmetry_cell_setting 'monoclinic'
loop_
_space_group_symop_operation_xyz
x,y,z
-x,1/2+y,-z
-x,-y,-z
x,1/2-y,z
loop_
_atom_site_type_symbol
_atom_site_label
_atom_site_fract_x
_atom_site_fract_y
_atom_site_fract_z
Si Si1 0.951653 0.250000 0.514494
Si Si2 0.853336 0.583312 0.602690
Si Si3 0.669170 0.407751 0.434856
Si Si4 0.140885 0.750000 0.955647
Si Si5 0.732902 0.250000 0.326499
Si Si6 0.182950 0.750000 0.209729
Si Si7 0.343253 0.974717 0.742013
Si Si8 0.832083 0.125946 0.912539
O O1 0.910693 0.160724 0.507942
O O2 0.407860 0.250000 0.274039
O O3 0.736977 0.250000 0.728933
O O4 0.591373 0.591399 0.652689
O O5 0.000000 0.500000 0.500000
O O6 0.519389 0.576495 0.862276
O O7 0.801109 0.322383 0.352769
O O8 0.850605 0.445244 0.244634
O O9 0.630964 0.457819 0.548296
O O10 0.213719 0.408027 0.661591
O O11 0.078993 0.750000 0.880000
O O12 0.014097 0.677255 0.085557
O O13 0.275962 0.250000 0.555583
O O14 0.337082 0.679170 0.071559
O O15 0.000000 0.000000 0.000000
#
# Coordination Sequence:
#
# PCOD9162085 Si02
#       8
#     2   4   4   2   2   2   4   4
#     4   9  18  36  57  82 116 155 210 248 286 364
#     4  11  22  38  62  91 120 162 204 250 308 362
#     4  10  20  34  58  85 120 153 202 246 302 356
#     4   8  14  24  52  82 114 145 199 251 295 332
#     4   9  16  28  49  85 112 149 196 249 292 357
#     4   8  14  26  52  81 114 145 203 256 287 333
#     4  11  22  38  58  87 125 157 196 251 306 359
#     4   9  15  29  52  86 113 150 198 252 294 355
#
# _framework density 26.539878999999999
#
# number of rings (size 3 to 8) (size 9 to 14) (size 15 to 20)
#    0.000    2.333    1.667    5.000    0.000    0.000 
#    0.000    4.167    0.000    0.000    0.000    0.000 
#    0.000    0.000    0.000    0.000    0.000    0.000 
#
# Total GULP energy -133649.354413 kJ/mol
# GULP energy per Si atom -5568.723101 kJ/mol
# Density = 2.647947 g / cm^3
# Si number density = 26.539879 Si / 1000 Ang^3
#
#
#
# Elastic Constant Matrix: (Units=GPa)
#
#
# Indices 1 2 3 4 5 6 
#
# 1 46.9372 30.3025 46.4999 0.0000 16.9737 0.0000
# 2 30.3025 177.5513 32.1582 0.0000 16.7644 0.0000
# 3 46.4999 32.1582 123.7025 0.0000 37.2604 0.0000
# 4 0.0000 0.0000 0.0000 32.2046 0.0000 -8.2579
# 5 16.9737 16.7644 37.2604 0.0000 48.0944 0.0000
# 6 0.0000 0.0000 0.0000 -8.2579 0.0000 -14.1178
#
#
#
# Elastic Compliance Matrix: (Units=1/GPa)
#
#
# Indices 1 2 3 4 5 6 
#
# 1 0.036544 -0.003842 -0.012075 0.000000 -0.002204 0.000000
# 2 -0.003842 0.006362 0.000065 0.000000 -0.000912 0.000000
# 3 -0.012075 0.000065 0.014778 0.000000 -0.007210 0.000000
# 4 0.000000 0.000000 0.000000 0.027002 0.000000 -0.015794
# 5 -0.002204 -0.000912 -0.007210 0.000000 0.027474 0.000000
# 6 0.000000 0.000000 0.000000 -0.015794 0.000000 -0.061594
#
#
# Mechanical properties :
#
#
# Convention : Reuss Voigt Hill
#
# Bulk Modulus (GPa) = 38.48944 62.90133 50.69539
# Shear Modulus (GPa) = 54.98814 29.18494 42.08654
#
# Velocity S-wave (km/s) = 4.55676 3.31972 3.98651
# Velocity P-wave (km/s) = 6.49764 6.20050 6.35081
#
# Compressibility (1/GPa) = 0.02598115
#
# Stress axis : x y z
#
# Youngs Moduli (GPa) = 27.36398 157.17757 67.67017
#
# Poissons Ratio (x) = 0.60387 0.81709
# Poissons Ratio (y) = 0.10513 -0.00440
# Poissons Ratio (z) = 0.33041 -0.01022
#
# Static dielectric constant tensor:
#      x y z
#    x 2.251610 0.000000 0.005350 
#    y 0.000000 2.251720 0.000000 
#    z 0.005350 0.000000 2.053870 
# 
# From -- ./inp_files/59696.got.cif
#   From: 2010.05.17/outbox.cif.g08.bks.cpg/sg11_30_cif.got.tgz:59696.got - 2010.06.03 12:22:45.
