data_PCOD9162345
_publ_section_title
;
Structure prediction by ZEFSAII (Michael W. Deem and Ramdas Pophale) SiO2 
 PCOD9162345
Probable space group: P 21/M
;
_chemical_formula_sum "Si O2"
_cell_formula_units_Z 20
_cell_length_a 7.950575
_cell_length_b 8.008156
_cell_length_c 25.155533
_cell_angle_alpha 90.000000
_cell_angle_beta 142.453699
_cell_angle_gamma 90.000000
_cell_volume 976.042451
_symmetry_space_group_name_H-M "P 21/M"
_symmetry_group_IT_number 11
_symmetry_cell_setting 'monoclinic'
loop_
_space_group_symop_operation_xyz
x,y,z
-x,1/2+y,-z
-x,-y,-z
x,1/2-y,z
loop_
_atom_site_type_symbol
_atom_site_label
_atom_site_fract_x
_atom_site_fract_y
_atom_site_fract_z
Si Si1 0.246605 0.547675 0.399276
Si Si2 0.809886 0.949387 0.089811
Si Si3 0.197340 0.436817 0.096061
Si Si4 0.256191 0.952319 0.281139
Si Si5 0.349892 0.446939 0.715781
O O1 0.500000 0.500000 0.500000
O O2 0.229736 0.750000 0.392684
O O3 0.290004 0.486597 0.349567
O O4 0.955213 0.484497 0.350127
O O5 0.844049 0.750000 0.088655
O O6 0.947249 0.985184 0.181327
O O7 0.996766 0.051431 0.096155
O O8 0.500000 0.000000 0.000000
O O9 0.283508 0.250000 0.104755
O O10 0.465987 0.532477 0.184678
O O11 0.000000 0.500000 0.000000
O O12 0.282574 0.750000 0.288740
O O13 0.477641 0.013559 0.292173
O O14 0.322024 0.250000 0.699196
#
# Coordination Sequence:
#
# PCOD9162345 Si02
#       5
#     4   4   4   4   4
#     4  10  21  37  58  83 110 146 188 236 291 346
#     4  10  20  35  55  83 115 152 194 236 287 347
#     4  11  22  36  55  82 115 152 192 237 290 347
#     4   8  17  35  55  77 110 148 185 229 284 341
#     4   9  19  37  58  79 110 149 189 234 289 347
#
# _framework density 20.490911000000001
#
# number of rings (size 3 to 8) (size 9 to 14) (size 15 to 20)
#    0.000    2.400    0.000    3.600    2.800    1.600 
#    0.000    5.000    0.000    0.000    0.000    0.000 
#    0.000    0.000    0.000    0.000    0.000    0.000 
#
# Total GULP energy -111466.366705 kJ/mol
# GULP energy per Si atom -5573.318335 kJ/mol
# Density = 2.044427 g / cm^3
# Si number density = 20.490911 Si / 1000 Ang^3
#
#
#
# Elastic Constant Matrix: (Units=GPa)
#
#
# Indices 1 2 3 4 5 6 
#
# 1 106.8745 7.7423 99.7880 0.0000 -3.5303 0.0000
# 2 7.7423 22.9712 -1.8207 0.0000 -4.0798 0.0000
# 3 99.7880 -1.8207 191.3855 0.0000 -2.1520 0.0000
# 4 0.0000 0.0000 0.0000 32.7466 0.0000 -0.6389
# 5 -3.5303 -4.0798 -2.1520 0.0000 42.4281 0.0000
# 6 0.0000 0.0000 0.0000 -0.6389 0.0000 9.9015
#
#
#
# Elastic Compliance Matrix: (Units=1/GPa)
#
#
# Indices 1 2 3 4 5 6 
#
# 1 0.019404 -0.007276 -0.010182 0.000000 0.000398 0.000000
# 2 -0.007276 0.047060 0.004288 0.000000 0.004137 0.000000
# 3 -0.010182 0.004288 0.010576 0.000000 0.000102 0.000000
# 4 0.000000 0.000000 0.000000 0.030576 0.000000 0.001973
# 5 0.000398 0.004137 0.000102 0.000000 0.024005 0.000000
# 6 0.000000 0.000000 0.000000 0.001973 0.000000 0.101122
#
#
# Mechanical properties :
#
#
# Convention : Reuss Voigt Hill
#
# Bulk Modulus (GPa) = 19.72409 59.18338 39.45373
# Shear Modulus (GPa) = 18.11707 31.38335 24.75021
#
# Velocity S-wave (km/s) = 2.97669 3.91778 3.47920
# Velocity P-wave (km/s) = 4.63260 7.02928 5.95280
#
# Compressibility (1/GPa) = 0.05069941
#
# Stress axis : x y z
#
# Youngs Moduli (GPa) = 51.53661 21.24952 94.55599
#
# Poissons Ratio (x) = 0.15462 0.96275
# Poissons Ratio (y) = 0.37499 -0.40546
# Poissons Ratio (z) = 0.52473 -0.09112
#
# Static dielectric constant tensor:
#      x y z
#    x 1.742940 0.000000 -0.007170 
#    y 0.000000 1.736700 0.000000 
#    z -0.007170 0.000000 1.745290 
# 
# From -- ./inp_files/20184.got.cif
#   From: 2010.05.17/outbox.cif.g08.bks.cpg/sg11_11_cif.got.tgz:20184.got - 2010.06.03 12:22:45.
