data_PCOD9162921
_publ_section_title
;
Structure prediction by ZEFSAII (Michael W. Deem and Ramdas Pophale) SiO2 
 PCOD9162921
Probable space group: P 21/M
;
_chemical_formula_sum "Si O2"
_cell_formula_units_Z 22
_cell_length_a 7.656011
_cell_length_b 7.478220
_cell_length_c 15.272840
_cell_angle_alpha 90.000000
_cell_angle_beta 83.163427
_cell_angle_gamma 90.000000
_cell_volume 868.203646
_symmetry_space_group_name_H-M "P 21/M"
_symmetry_group_IT_number 11
_symmetry_cell_setting 'monoclinic'
loop_
_space_group_symop_operation_xyz
x,y,z
-x,1/2+y,-z
-x,-y,-z
x,1/2-y,z
loop_
_atom_site_type_symbol
_atom_site_label
_atom_site_fract_x
_atom_site_fract_y
_atom_site_fract_z
Si Si1 0.792167 0.543159 0.525911
Si Si2 0.284022 0.545654 0.911453
Si Si3 0.736364 0.952729 0.283369
Si Si4 0.624718 0.250000 0.406685
Si Si5 0.695267 0.468514 0.901668
Si Si6 0.870560 0.465300 0.711716
O O1 0.749483 0.750000 0.506873
O O2 0.680108 0.406802 0.475599
O O3 0.771741 0.524964 0.631189
O O4 0.000000 0.500000 0.500000
O O5 0.225943 0.750000 0.906448
O O6 0.241873 0.453029 0.822843
O O7 0.496260 0.536663 0.906340
O O8 0.223683 0.474065 0.009832
O O9 0.697492 0.750000 0.311647
O O10 0.925454 0.017155 0.308349
O O11 0.605178 0.094056 0.331291
O O12 0.688767 0.250000 0.903612
O O13 0.796245 0.526618 0.808934
O O14 0.867883 0.250000 0.713051
#
# Coordination Sequence:
#
# PCOD9162921 Si02
#       6
#     4   4   4   2   4   4
#     4  12  20  33  56  85 118 158 196 243 292 350
#     4  10  20  38  59  88 120 158 198 240 292 356
#     4  11  22  37  60  89 121 156 194 244 301 349
#     4  12  22  36  56  86 120 156 200 244 292 354
#     4   9  20  38  62  85 118 159 200 239 290 355
#     4  10  20  36  56  90 119 154 199 245 292 345
#
# _framework density 25.339675
#
# number of rings (size 3 to 8) (size 9 to 14) (size 15 to 20)
#    0.000    1.455    4.545    1.091    0.000    2.182 
#    0.000    0.000    0.000    1.091    0.000    0.000 
#    0.000    0.000    0.000    0.000    0.000    0.000 
#
# Total GULP energy -122694.117911 kJ/mol
# GULP energy per Si atom -5577.005360 kJ/mol
# Density = 2.528200 g / cm^3
# Si number density = 25.339675 Si / 1000 Ang^3
#
#
#
# Elastic Constant Matrix: (Units=GPa)
#
#
# Indices 1 2 3 4 5 6 
#
# 1 77.4908 4.4694 21.0189 0.0000 13.4959 0.0000
# 2 4.4694 129.7728 40.5134 0.0000 -18.5577 0.0000
# 3 21.0189 40.5134 221.5593 0.0000 -5.1493 0.0000
# 4 0.0000 0.0000 0.0000 42.3978 0.0000 11.7937
# 5 13.4959 -18.5577 -5.1493 0.0000 56.8535 0.0000
# 6 0.0000 0.0000 0.0000 11.7937 0.0000 14.0568
#
#
#
# Elastic Compliance Matrix: (Units=1/GPa)
#
#
# Indices 1 2 3 4 5 6 
#
# 1 0.013920 -0.000592 -0.001296 0.000000 -0.003615 0.000000
# 2 -0.000592 0.008580 -0.001447 0.000000 0.002810 0.000000
# 3 -0.001296 -0.001447 0.004908 0.000000 0.000280 0.000000
# 4 0.000000 0.000000 0.000000 0.030767 0.000000 -0.025813
# 5 -0.003615 0.002810 0.000280 0.000000 0.019390 0.000000
# 6 0.000000 0.000000 0.000000 -0.025813 0.000000 0.092797
#
#
# Mechanical properties :
#
#
# Convention : Reuss Voigt Hill
#
# Bulk Modulus (GPa) = 48.22385 62.31404 55.26895
# Shear Modulus (GPa) = 27.18214 46.84968 37.01591
#
# Velocity S-wave (km/s) = 3.27878 4.30451 3.82617
# Velocity P-wave (km/s) = 5.77980 7.02495 6.43258
#
# Compressibility (1/GPa) = 0.02073663
#
# Stress axis : x y z
#
# Youngs Moduli (GPa) = 71.83858 116.55221 203.76450
#
# Poissons Ratio (x) = 0.06895 0.26416
# Poissons Ratio (y) = 0.04250 0.29494
# Poissons Ratio (z) = 0.09313 0.16870
#
# Static dielectric constant tensor:
#      x y z
#    x 2.112490 0.000000 -0.065370 
#    y 0.000000 1.896440 0.000000 
#    z -0.065370 0.000000 2.020000 
# 
# From -- ./inp_files/46552.got.cif
#   From: 2010.05.17/outbox.cif.g08.bks.cpg/sg11_24_cif.got.tgz:46552.got - 2010.06.03 12:22:45.
