data_PCOD9162508
_publ_section_title
;
Structure prediction by ZEFSAII (Michael W. Deem and Ramdas Pophale) SiO2 
 PCOD9162508
Probable space group: P 21/M
;
_chemical_formula_sum "Si O2"
_cell_formula_units_Z 32
_cell_length_a 25.853147
_cell_length_b 8.036254
_cell_length_c 14.993312
_cell_angle_alpha 90.000000
_cell_angle_beta 149.760831
_cell_angle_gamma 90.000000
_cell_volume 1568.771075
_symmetry_space_group_name_H-M "P 21/M"
_symmetry_group_IT_number 11
_symmetry_cell_setting 'monoclinic'
loop_
_space_group_symop_operation_xyz
x,y,z
-x,1/2+y,-z
-x,-y,-z
x,1/2-y,z
loop_
_atom_site_type_symbol
_atom_site_label
_atom_site_fract_x
_atom_site_fract_y
_atom_site_fract_z
Si Si1 0.444997 0.946224 0.008182
Si Si2 0.014081 0.548322 0.302022
Si Si3 0.285294 0.046172 0.293418
Si Si4 0.601636 0.948526 0.706683
Si Si5 0.942403 0.950687 0.003798
Si Si6 0.218620 0.448611 0.711937
Si Si7 0.896544 0.950527 0.293033
Si Si8 0.486404 0.050814 0.700037
O O1 0.457843 0.750000 0.032936
O O2 0.493404 0.018836 0.171582
O O3 0.500000 0.000000 0.000000
O O4 0.324331 0.984393 0.831019
O O5 0.013319 0.750000 0.301184
O O6 0.121190 0.493119 0.505207
O O7 0.997939 0.490535 0.177130
O O8 0.921122 0.492630 0.229339
O O9 0.286449 0.250000 0.295420
O O10 0.307132 0.996021 0.223142
O O11 0.381391 0.988896 0.496990
O O12 0.175718 0.991136 0.166671
O O13 0.607192 0.750000 0.722041
O O14 0.500000 0.000000 0.500000
O O15 0.581233 0.015649 0.774684
O O16 0.940286 0.750000 0.003853
O O17 0.000000 0.000000 0.000000
O O18 0.226449 0.250000 0.727574
O O19 0.193152 0.511712 0.774804
O O20 0.887507 0.750000 0.276182
O O21 0.000000 0.000000 0.500000
O O22 0.476070 0.250000 0.689444
#
# Coordination Sequence:
#
# PCOD9162508 Si02
#       8
#     4   4   4   4   4   4   4   4
#     4  11  24  40  56  77 108 145 187 231 272 321
#     4   9  18  34  55  79 109 143 177 219 271 323
#     4   8  16  33  55  77 104 139 174 210 261 319
#     4   9  16  29  53  82 110 140 175 216 264 322
#     4  10  21  36  53  75 104 140 183 225 263 310
#     4  10  20  35  57  83 109 139 176 220 272 328
#     4   8  15  29  51  78 106 135 171 214 263 323
#     4   9  19  36  56  79 108 141 175 217 271 324
#
# _framework density 20.398133000000001
#
# number of rings (size 3 to 8) (size 9 to 14) (size 15 to 20)
#    0.000    2.750    0.000    1.875    0.000    4.000 
#    0.000    6.875    0.000    0.000    0.000    0.000 
#    0.000    0.000    0.000    0.000    0.000    0.000 
#
# Total GULP energy -178416.472430 kJ/mol
# GULP energy per Si atom -5575.514763 kJ/mol
# Density = 2.035171 g / cm^3
# Si number density = 20.398133 Si / 1000 Ang^3
#
#
#
# Elastic Constant Matrix: (Units=GPa)
#
#
# Indices 1 2 3 4 5 6 
#
# 1 243.4798 16.8751 97.8730 0.0000 3.6790 0.0000
# 2 16.8751 17.7277 8.1626 0.0000 -1.7353 0.0000
# 3 97.8730 8.1626 103.4999 0.0000 2.8484 0.0000
# 4 0.0000 0.0000 0.0000 1.6821 0.0000 -5.4300
# 5 3.6790 -1.7353 2.8484 0.0000 36.2444 0.0000
# 6 0.0000 0.0000 0.0000 -5.4300 0.0000 25.5111
#
#
#
# Elastic Compliance Matrix: (Units=1/GPa)
#
#
# Indices 1 2 3 4 5 6 
#
# 1 0.006854 -0.003718 -0.006177 0.000000 -0.000388 0.000000
# 2 -0.003718 0.060917 -0.001382 0.000000 0.003403 0.000000
# 3 -0.006177 -0.001382 0.015631 0.000000 -0.000668 0.000000
# 4 0.000000 0.000000 0.000000 1.899935 0.000000 0.404396
# 5 -0.000388 0.003403 -0.000668 0.000000 0.027845 0.000000
# 6 0.000000 0.000000 0.000000 0.404396 0.000000 0.125273
#
#
# Mechanical properties :
#
#
# Convention : Reuss Voigt Hill
#
# Bulk Modulus (GPa) = 16.43464 67.83653 42.13558
# Shear Modulus (GPa) = 2.29432 28.80730 15.55081
#
# Velocity S-wave (km/s) = 1.06170 3.76207 2.76409
# Velocity P-wave (km/s) = 3.09473 7.22491 5.55773
#
# Compressibility (1/GPa) = 0.06084710
#
# Stress axis : x y z
#
# Youngs Moduli (GPa) = 145.90508 16.41568 63.97679
#
# Poissons Ratio (x) = 0.06103 0.39520
# Poissons Ratio (y) = 0.54245 0.08843
# Poissons Ratio (z) = 0.90129 0.02269
#
# Static dielectric constant tensor:
#      x y z
#    x 1.793320 0.000000 -0.032610 
#    y 0.000000 1.738360 0.000000 
#    z -0.032610 0.000000 1.732280 
# 
# From -- ./inp_files/55750.got.cif
#   From: 2010.05.17/outbox.cif.g08.bks.cpg/sg11_28_cif.got.tgz:55750.got - 2010.06.03 12:22:45.
