data_PCOD9162848
_publ_section_title
;
Structure prediction by ZEFSAII (Michael W. Deem and Ramdas Pophale) SiO2 
 PCOD9162848
Probable space group: P 21/M
;
_chemical_formula_sum "Si O2"
_cell_formula_units_Z 28
_cell_length_a 26.737281
_cell_length_b 9.521288
_cell_length_c 8.152714
_cell_angle_alpha 90.000000
_cell_angle_beta 140.966134
_cell_angle_gamma 90.000000
_cell_volume 1307.084787
_symmetry_space_group_name_H-M "P 21/M"
_symmetry_group_IT_number 11
_symmetry_cell_setting 'monoclinic'
loop_
_space_group_symop_operation_xyz
x,y,z
-x,1/2+y,-z
-x,-y,-z
x,1/2-y,z
loop_
_atom_site_type_symbol
_atom_site_label
_atom_site_fract_x
_atom_site_fract_y
_atom_site_fract_z
Si Si1 0.836208 0.917809 0.026469
Si Si2 0.686738 0.919474 0.832179
Si Si3 0.538258 0.913900 0.243951
Si Si4 0.614028 0.415336 0.950879
Si Si5 0.014278 0.413007 0.775565
Si Si6 0.888992 0.589379 0.630551
Si Si7 0.735879 0.584630 0.438490
O O1 0.846535 0.750000 0.073416
O O2 0.776401 0.965737 0.016269
O O3 0.783334 0.935352 0.727399
O O4 0.923513 0.973369 0.200127
O O5 0.687066 0.750000 0.860070
O O6 0.627242 0.946544 0.527877
O O7 0.646806 0.999470 0.880319
O O8 0.536347 0.750000 0.193689
O O9 0.478887 0.932934 0.247306
O O10 0.500000 0.000000 0.000000
O O11 0.630255 0.250000 0.976227
O O12 0.662374 0.483046 0.225449
O O13 0.997087 0.250000 0.694919
O O14 0.934903 0.497154 0.614969
O O15 0.062489 0.415051 0.072688
O O16 0.889748 0.750000 0.575785
O O17 0.799927 0.553479 0.457626
O O18 0.713819 0.750000 0.371489
#
# Coordination Sequence:
#
# PCOD9162848 Si02
#       7
#     4   4   4   4   4   4   4
#     4   8  15  29  51  76  98 126 172 216 245 292
#     4  10  20  36  56  75  99 137 176 203 240 300
#     4  10  22  38  58  82 105 131 166 207 249 296
#     4  11  23  36  50  76 109 134 164 209 255 295
#     4   8  13  23  41  67  98 127 156 201 256 296
#     4   8  14  24  41  68  98 127 163 203 244 297
#     4   9  17  32  53  74  99 135 174 209 248 299
#
# _framework density 21.421716
#
# number of rings (size 3 to 8) (size 9 to 14) (size 15 to 20)
#    0.000    2.857    0.000    3.429    0.000    3.429 
#    0.000    3.571    0.000    0.857    0.000    0.000 
#    0.000    0.000    0.000    0.000    0.000    0.000 
#
# Total GULP energy -156305.788663 kJ/mol
# GULP energy per Si atom -5582.349595 kJ/mol
# Density = 2.137296 g / cm^3
# Si number density = 21.421716 Si / 1000 Ang^3
#
#
#
# Elastic Constant Matrix: (Units=GPa)
#
#
# Indices 1 2 3 4 5 6 
#
# 1 127.0413 39.4636 26.2375 0.0000 15.3744 0.0000
# 2 39.4636 27.7827 21.6142 0.0000 14.7129 0.0000
# 3 26.2375 21.6142 74.0568 0.0000 13.4757 0.0000
# 4 0.0000 0.0000 0.0000 20.9343 0.0000 3.2971
# 5 15.3744 14.7129 13.4757 0.0000 44.2728 0.0000
# 6 0.0000 0.0000 0.0000 3.2971 0.0000 28.1411
#
#
#
# Elastic Compliance Matrix: (Units=1/GPa)
#
#
# Indices 1 2 3 4 5 6 
#
# 1 0.014317 -0.022264 0.001042 0.000000 0.002110 0.000000
# 2 -0.022264 0.088112 -0.014722 0.000000 -0.017069 0.000000
# 3 0.001042 -0.014722 0.017580 0.000000 -0.000820 0.000000
# 4 0.000000 0.000000 0.000000 0.048667 0.000000 -0.005702
# 5 0.002110 -0.017069 -0.000820 0.000000 0.027777 0.000000
# 6 0.000000 0.000000 0.000000 -0.005702 0.000000 0.036203
#
#
# Mechanical properties :
#
#
# Convention : Reuss Voigt Hill
#
# Bulk Modulus (GPa) = 20.78180 44.83458 32.80819
# Shear Modulus (GPa) = 15.59649 28.10733 21.85191
#
# Velocity S-wave (km/s) = 2.70120 3.62622 3.19734
# Velocity P-wave (km/s) = 4.41033 6.20544 5.38324
#
# Compressibility (1/GPa) = 0.04811902
#
# Stress axis : x y z
#
# Youngs Moduli (GPa) = 69.84656 11.34923 56.88233
#
# Poissons Ratio (x) = 0.25268 -0.05926
# Poissons Ratio (y) = 1.55510 0.83744
# Poissons Ratio (z) = -0.07276 0.16709
#
# Static dielectric constant tensor:
#      x y z
#    x 1.841500 0.000000 -0.029430 
#    y 0.000000 1.701930 0.000000 
#    z -0.029430 0.000000 1.817980 
# 
# From -- ./inp_files/28589.got.cif
#   From: 2010.05.17/outbox.cif.g08.bks.cpg/sg11_15_cif.got.tgz:28589.got - 2010.06.03 12:22:45.
