data_PCOD9162092
_publ_section_title
;
Structure prediction by ZEFSAII (Michael W. Deem and Ramdas Pophale) SiO2 
 PCOD9162092
Probable space group: P 21/M
;
_chemical_formula_sum "Si O2"
_cell_formula_units_Z 28
_cell_length_a 16.134580
_cell_length_b 12.160528
_cell_length_c 19.256435
_cell_angle_alpha 90.000000
_cell_angle_beta 20.545938
_cell_angle_gamma 90.000000
_cell_volume 1325.993691
_symmetry_space_group_name_H-M "P 21/M"
_symmetry_group_IT_number 11
_symmetry_cell_setting 'monoclinic'
loop_
_space_group_symop_operation_xyz
x,y,z
-x,1/2+y,-z
-x,-y,-z
x,1/2-y,z
loop_
_atom_site_type_symbol
_atom_site_label
_atom_site_fract_x
_atom_site_fract_y
_atom_site_fract_z
Si Si1 0.750212 0.484127 0.657178
Si Si2 0.783537 0.372513 0.337285
Si Si3 0.533588 0.626115 0.008053
Si Si4 0.116312 0.953212 0.002673
Si Si5 0.293233 0.624091 0.009845
Si Si6 0.970784 0.055599 0.337330
Si Si7 0.715454 0.870550 0.225919
O O1 0.615853 0.387162 0.803675
O O2 0.000000 0.500000 0.500000
O O3 0.805273 0.465751 0.533101
O O4 0.561579 0.583551 0.811476
O O5 0.857852 0.250000 0.258731
O O6 0.926650 0.461037 0.182330
O O7 0.502606 0.381420 0.550346
O O8 0.841674 0.390957 0.373016
O O9 0.474628 0.750000 0.024978
O O10 0.500000 0.500000 0.000000
O O11 0.810306 0.627297 0.807316
O O12 0.964595 0.878393 0.070087
O O13 0.235311 0.895490 0.974260
O O14 0.293545 0.028400 0.819789
O O15 0.262425 0.750000 0.050240
O O16 0.106780 0.552281 0.200550
O O17 0.690437 0.750000 0.212514
#
# Coordination Sequence:
#
# PCOD9162092 Si02
#       7
#     4   4   4   4   4   4   4
#     4  11  23  43  61  90 120 160 208 260 314 378
#     4  10  20  35  57  83 113 152 196 244 298 358
#     4  11  24  42  64  92 124 161 206 258 318 379
#     4  10  20  37  57  84 122 155 194 247 301 358
#     4  10  23  40  62  89 124 164 207 256 316 379
#     4  10  22  42  60  87 122 160 205 258 314 373
#     4  10  20  34  58  87 116 155 200 242 293 357
#
# _framework density 21.116240999999999
#
# number of rings (size 3 to 8) (size 9 to 14) (size 15 to 20)
#    0.000    1.714    1.429    2.571    0.000    4.571 
#    0.000    3.571    0.000    9.429    0.000    0.000 
#    0.000    0.000    0.000    0.000    0.000    0.000 
#
# Total GULP energy -156161.104246 kJ/mol
# GULP energy per Si atom -5577.182294 kJ/mol
# Density = 2.106818 g / cm^3
# Si number density = 21.116241 Si / 1000 Ang^3
#
#
#
# Elastic Constant Matrix: (Units=GPa)
#
#
# Indices 1 2 3 4 5 6 
#
# 1 64.8958 17.9271 -6.2324 0.0000 3.9264 0.0000
# 2 17.9271 136.1967 19.1182 0.0000 -1.6794 0.0000
# 3 -6.2324 19.1182 71.8940 0.0000 4.9925 0.0000
# 4 0.0000 0.0000 0.0000 9.5658 0.0000 0.5824
# 5 3.9264 -1.6794 4.9925 0.0000 38.1956 0.0000
# 6 0.0000 0.0000 0.0000 0.5824 0.0000 34.1190
#
#
#
# Elastic Compliance Matrix: (Units=1/GPa)
#
#
# Indices 1 2 3 4 5 6 
#
# 1 0.016442 -0.002504 0.002237 0.000000 -0.002093 0.000000
# 2 -0.002504 0.008022 -0.002415 0.000000 0.000926 0.000000
# 3 0.002237 -0.002415 0.014904 0.000000 -0.002284 0.000000
# 4 0.000000 0.000000 0.000000 0.104648 0.000000 -0.001786
# 5 -0.002093 0.000926 -0.002284 0.000000 0.026735 0.000000
# 6 0.000000 0.000000 0.000000 -0.001786 0.000000 0.029340
#
#
# Mechanical properties :
#
#
# Convention : Reuss Voigt Hill
#
# Bulk Modulus (GPa) = 29.40789 37.17915 33.29352
# Shear Modulus (GPa) = 23.06368 32.52098 27.79233
#
# Velocity S-wave (km/s) = 3.30847 3.92866 3.63183
# Velocity P-wave (km/s) = 5.34336 6.18258 5.77823
#
# Compressibility (1/GPa) = 0.03400448
#
# Stress axis : x y z
#
# Youngs Moduli (GPa) = 60.81823 124.65277 67.09621
#
# Poissons Ratio (x) = 0.31213 -0.15007
# Poissons Ratio (y) = 0.15229 0.16201
# Poissons Ratio (z) = -0.13602 0.30099
#
# Static dielectric constant tensor:
#      x y z
#    x 1.800130 0.000000 0.014900 
#    y 0.000000 1.793470 0.000000 
#    z 0.014900 0.000000 1.754280 
# 
# From -- ./inp_files/66173.got.cif
#   From: 2010.05.17/outbox.cif.g08.bks.cpg/sg11_34_cif.got.tgz:66173.got - 2010.06.03 12:22:45.
