data_PCOD9162165
_publ_section_title
;
Structure prediction by ZEFSAII (Michael W. Deem and Ramdas Pophale) SiO2 
 PCOD9162165
Probable space group: P 21/M
;
_chemical_formula_sum "Si O2"
_cell_formula_units_Z 24
_cell_length_a 17.890657
_cell_length_b 17.619876
_cell_length_c 11.326736
_cell_angle_alpha 90.000000
_cell_angle_beta 156.518056
_cell_angle_gamma 90.000000
_cell_volume 1422.717588
_symmetry_space_group_name_H-M "P 21/M"
_symmetry_group_IT_number 11
_symmetry_cell_setting 'monoclinic'
loop_
_space_group_symop_operation_xyz
x,y,z
-x,1/2+y,-z
-x,-y,-z
x,1/2-y,z
loop_
_atom_site_type_symbol
_atom_site_label
_atom_site_fract_x
_atom_site_fract_y
_atom_site_fract_z
Si Si1 0.950405 0.045207 0.307922
Si Si2 0.658790 0.166598 0.218934
Si Si3 0.793108 0.899431 0.671041
Si Si4 0.786711 0.833480 0.411645
Si Si5 0.921016 0.048459 0.724620
Si Si6 0.622650 0.160592 0.887778
O O1 0.120004 0.103198 0.531780
O O2 0.765746 0.098860 0.040766
O O3 0.000000 0.000000 0.500000
O O4 0.956839 0.991005 0.202169
O O5 0.721969 0.250000 0.350330
O O6 0.771959 0.101672 0.445948
O O7 0.437021 0.160443 0.919628
O O8 0.679655 0.162163 0.108358
O O9 0.838707 0.846366 0.624567
O O10 0.590001 0.872312 0.423094
O O11 0.809144 0.983628 0.635948
O O12 0.945887 0.903968 0.995412
O O13 0.847206 0.750000 0.461616
O O14 0.629358 0.250000 0.856907
#
# Coordination Sequence:
#
# PCOD9162165 Si02
#       6
#     4   4   4   4   4   4
#     4  11  21  32  54  82 108 144 172 221 268 309
#     4   9  18  32  53  77 102 134 177 225 262 308
#     4   9  20  34  56  77 103 137 177 222 263 308
#     4   9  19  35  55  77 104 139 179 218 263 317
#     4  10  20  35  52  83 107 134 176 221 269 315
#     4  10  20  35  54  78 106 142 182 214 258 323
#
# _framework density 16.869125
#
# number of rings (size 3 to 8) (size 9 to 14) (size 15 to 20)
#    0.000    2.333    1.667    2.000    2.333    4.000 
#    0.000    0.000    0.000    0.000    0.000    0.000 
#    0.000    0.000    0.000    0.000    0.000    0.000 
#
# Total GULP energy -133643.098260 kJ/mol
# GULP energy per Si atom -5568.462427 kJ/mol
# Density = 1.683073 g / cm^3
# Si number density = 16.869125 Si / 1000 Ang^3
#
#
#
# Elastic Constant Matrix: (Units=GPa)
#
#
# Indices 1 2 3 4 5 6 
#
# 1 54.2271 33.6061 24.4881 0.0000 4.8422 0.0000
# 2 33.6061 82.2596 46.8891 0.0000 -2.8616 0.0000
# 3 24.4881 46.8891 53.7354 0.0000 -12.2523 0.0000
# 4 0.0000 0.0000 0.0000 24.3432 0.0000 4.8301
# 5 4.8422 -2.8616 -12.2523 0.0000 22.5736 0.0000
# 6 0.0000 0.0000 0.0000 4.8301 0.0000 15.3754
#
#
#
# Elastic Compliance Matrix: (Units=1/GPa)
#
#
# Indices 1 2 3 4 5 6 
#
# 1 0.027892 -0.005915 -0.010368 0.000000 -0.012360 0.000000
# 2 -0.005915 0.027402 -0.022977 0.000000 -0.007729 0.000000
# 3 -0.010368 -0.022977 0.049332 0.000000 0.026087 0.000000
# 4 0.000000 0.000000 0.000000 0.043810 0.000000 -0.013763
# 5 -0.012360 -0.007729 0.026087 0.000000 0.060130 0.000000
# 6 0.000000 0.000000 0.000000 -0.013763 0.000000 0.069362
#
#
# Mechanical properties :
#
#
# Convention : Reuss Voigt Hill
#
# Bulk Modulus (GPa) = 38.30492 44.46541 41.38516
# Shear Modulus (GPa) = 13.69298 18.14104 15.91701
#
# Velocity S-wave (km/s) = 2.85216 3.28289 3.07507
# Velocity P-wave (km/s) = 5.79679 6.38640 6.09872
#
# Compressibility (1/GPa) = 0.02610631
#
# Stress axis : x y z
#
# Youngs Moduli (GPa) = 35.85206 36.49416 20.27078
#
# Poissons Ratio (x) = 0.21588 0.21016
# Poissons Ratio (y) = 0.21208 0.46576
# Poissons Ratio (z) = 0.37170 0.83853
#
# Static dielectric constant tensor:
#      x y z
#    x 1.572510 0.000000 0.018830 
#    y 0.000000 1.616390 0.000000 
#    z 0.018830 0.000000 1.536240 
# 
# From -- ./inp_files/12608.got.cif
#   From: 2010.05.17/outbox.cif.g08.bks.cpg/sg11_7_cif.got.tgz:12608.got - 2010.06.03 12:22:45.
