data_PCOD9162027
_publ_section_title
;
Structure prediction by ZEFSAII (Michael W. Deem and Ramdas Pophale) SiO2 
 PCOD9162027
Probable space group: P 21/M
;
_chemical_formula_sum "Si O2"
_cell_formula_units_Z 28
_cell_length_a 5.541729
_cell_length_b 21.532296
_cell_length_c 11.089515
_cell_angle_alpha 90.000000
_cell_angle_beta 81.141992
_cell_angle_gamma 90.000000
_cell_volume 1307.486474
_symmetry_space_group_name_H-M "P 21/M"
_symmetry_group_IT_number 11
_symmetry_cell_setting 'monoclinic'
loop_
_space_group_symop_operation_xyz
x,y,z
-x,1/2+y,-z
-x,-y,-z
x,1/2-y,z
loop_
_atom_site_type_symbol
_atom_site_label
_atom_site_fract_x
_atom_site_fract_y
_atom_site_fract_z
Si Si1 0.242125 0.998586 0.260902
Si Si2 0.031249 0.903581 0.464435
Si Si3 0.179459 0.683196 0.021293
Si Si4 0.957396 0.565146 0.937810
Si Si5 0.839217 0.819686 0.280944
Si Si6 0.510591 0.437085 0.422231
Si Si7 0.527664 0.887263 0.137890
O O1 0.088006 0.046987 0.196200
O O2 0.482597 0.034741 0.290106
O O3 0.086649 0.965287 0.378685
O O4 0.328404 0.940838 0.173073
O O5 0.251794 0.901431 0.545127
O O6 0.016212 0.847321 0.369237
O O7 0.755684 0.905247 0.538205
O O8 0.177027 0.750000 0.958976
O O9 0.418133 0.673415 0.083965
O O10 0.974115 0.683055 0.141430
O O11 0.142457 0.622230 0.943272
O O12 0.717141 0.587733 0.026503
O O13 0.000000 0.500000 0.000000
O O14 0.756388 0.750000 0.317902
O O15 0.630921 0.869725 0.262362
O O16 0.500000 0.500000 0.500000
#
# Coordination Sequence:
#
# PCOD9162027 Si02
#       7
#     4   4   4   4   4   4   4
#     4  11  20  36  57  87 117 157 189 247 305 360
#     4  11  21  39  55  86 121 151 196 247 303 354
#     4  10  21  37  55  82 119 156 195 239 301 374
#     4  11  22  35  56  90 121 151 195 251 302 357
#     4  10  20  34  57  82 112 153 194 244 304 360
#     4  10  22  36  56  83 116 153 188 240 302 356
#     4  11  20  36  54  87 121 149 195 244 304 367
#
# _framework density 21.415133999999998
#
# number of rings (size 3 to 8) (size 9 to 14) (size 15 to 20)
#    0.000    1.429    2.857    5.143    0.000    1.714 
#    0.000    0.000    0.000    1.714    0.000    0.000 
#    0.000    0.000    0.000    0.000    0.000    0.000 
#
# Total GULP energy -156101.563319 kJ/mol
# GULP energy per Si atom -5575.055833 kJ/mol
# Density = 2.136639 g / cm^3
# Si number density = 21.415134 Si / 1000 Ang^3
#
#
#
# Elastic Constant Matrix: (Units=GPa)
#
#
# Indices 1 2 3 4 5 6 
#
# 1 91.0901 31.9614 15.1224 0.0000 18.5087 0.0000
# 2 31.9614 113.4183 35.1918 0.0000 24.7638 0.0000
# 3 15.1224 35.1918 47.6763 0.0000 24.3536 0.0000
# 4 0.0000 0.0000 0.0000 23.1557 0.0000 2.2871
# 5 18.5087 24.7638 24.3536 0.0000 41.9845 0.0000
# 6 0.0000 0.0000 0.0000 2.2871 0.0000 14.3373
#
#
#
# Elastic Compliance Matrix: (Units=1/GPa)
#
#
# Indices 1 2 3 4 5 6 
#
# 1 0.012747 -0.002719 0.000022 0.000000 -0.004028 0.000000
# 2 -0.002719 0.012224 -0.007233 0.000000 -0.001816 0.000000
# 3 0.000022 -0.007233 0.034294 0.000000 -0.015636 0.000000
# 4 0.000000 0.000000 0.000000 0.043877 0.000000 -0.006999
# 5 -0.004028 -0.001816 -0.015636 0.000000 0.035735 0.000000
# 6 0.000000 0.000000 0.000000 -0.006999 0.000000 0.070865
#
#
# Mechanical properties :
#
#
# Convention : Reuss Voigt Hill
#
# Bulk Modulus (GPa) = 25.37846 46.30399 35.84122
# Shear Modulus (GPa) = 20.59838 27.22278 23.91058
#
# Velocity S-wave (km/s) = 3.10475 3.56925 3.34507
# Velocity P-wave (km/s) = 4.97284 6.21732 5.62957
#
# Compressibility (1/GPa) = 0.03940349
#
# Stress axis : x y z
#
# Youngs Moduli (GPa) = 78.44857 81.80662 29.15980
#
# Poissons Ratio (x) = 0.22246 -0.00063
# Poissons Ratio (y) = 0.21333 0.21091
# Poissons Ratio (z) = -0.00170 0.59170
#
# Static dielectric constant tensor:
#      x y z
#    x 1.832860 0.000000 0.044000 
#    y 0.000000 1.806230 0.000000 
#    z 0.044000 0.000000 1.827330 
# 
# From -- ./inp_files/29883.got.cif
#   From: 2010.05.17/outbox.cif.g08.bks.cpg/sg11_15_cif.got.tgz:29883.got - 2010.06.03 12:22:45.
