data_PCOD9162218
_publ_section_title
;
Structure prediction by ZEFSAII (Michael W. Deem and Ramdas Pophale) SiO2 
 PCOD9162218
Probable space group: P 21/M
;
_chemical_formula_sum "Si O2"
_cell_formula_units_Z 32
_cell_length_a 16.455527
_cell_length_b 8.593368
_cell_length_c 26.584930
_cell_angle_alpha 90.000000
_cell_angle_beta 151.131675
_cell_angle_gamma 90.000000
_cell_volume 1814.999377
_symmetry_space_group_name_H-M "P 21/M"
_symmetry_group_IT_number 11
_symmetry_cell_setting 'monoclinic'
loop_
_space_group_symop_operation_xyz
x,y,z
-x,1/2+y,-z
-x,-y,-z
x,1/2-y,z
loop_
_atom_site_type_symbol
_atom_site_label
_atom_site_fract_x
_atom_site_fract_y
_atom_site_fract_z
Si Si1 0.656696 0.437830 0.149531
Si Si2 0.228406 0.435990 0.578372
Si Si3 0.471595 0.064709 0.326566
Si Si4 0.592713 0.436905 0.599229
Si Si5 0.106521 0.563002 0.104131
Si Si6 0.275356 0.061970 0.921033
Si Si7 0.972242 0.060968 0.826682
Si Si8 0.158509 0.937991 0.648555
O O1 0.662058 0.250000 0.150730
O O2 0.741303 0.502101 0.144833
O O3 0.748093 0.488181 0.250054
O O4 0.460456 0.485964 0.040890
O O5 0.243551 0.250000 0.583800
O O6 0.371128 0.511747 0.621566
O O7 0.238396 0.490359 0.641649
O O8 0.039395 0.479980 0.458150
O O9 0.461965 0.250000 0.322977
O O10 0.483435 0.999666 0.389810
O O11 0.297627 0.998513 0.209269
O O12 0.500000 0.500000 0.500000
O O13 0.585540 0.250000 0.596135
O O14 0.789652 0.484846 0.706403
O O15 0.110914 0.750000 0.105072
O O16 0.024262 0.513991 0.112965
O O17 0.000000 0.500000 0.000000
O O18 0.272012 0.250000 0.918469
O O19 0.126873 0.005346 0.876832
O O20 0.977059 0.250000 0.828741
O O21 0.169071 0.750000 0.650545
#
# Coordination Sequence:
#
# PCOD9162218 Si02
#       8
#     4   4   4   4   4   4   4   4
#     4   9  18  32  50  74 103 133 166 206 251 302
#     4  10  20  35  54  77 106 137 173 219 265 310
#     4  11  22  37  56  78 106 142 181 219 266 321
#     4  10  20  36  55  77 106 137 175 222 270 321
#     4  10  20  36  56  80 109 139 176 222 271 321
#     4   9  17  32  52  72  97 131 169 206 249 301
#     4   8  17  33  52  74 102 136 172 213 258 308
#     4   9  19  35  53  75 105 139 173 211 261 319
#
# _framework density 17.630859999999998
#
# number of rings (size 3 to 8) (size 9 to 14) (size 15 to 20)
#    0.000    2.500    0.000    3.000    0.000    3.000 
#    0.000    8.750    0.000    0.000    0.000    0.000 
#    0.000    0.000    0.000    0.000    0.000    0.000 
#
# Total GULP energy -178537.546799 kJ/mol
# GULP energy per Si atom -5579.298337 kJ/mol
# Density = 1.759073 g / cm^3
# Si number density = 17.630860 Si / 1000 Ang^3
#
#
#
# Elastic Constant Matrix: (Units=GPa)
#
#
# Indices 1 2 3 4 5 6 
#
# 1 182.8681 47.8347 114.6544 0.0000 4.1935 0.0000
# 2 47.8347 52.6435 40.4886 0.0000 -2.8564 0.0000
# 3 114.6544 40.4886 133.0806 0.0000 -30.0811 0.0000
# 4 0.0000 0.0000 0.0000 25.0838 0.0000 -4.0880
# 5 4.1935 -2.8564 -30.0811 0.0000 31.1122 0.0000
# 6 0.0000 0.0000 0.0000 -4.0880 0.0000 30.8667
#
#
#
# Elastic Compliance Matrix: (Units=1/GPa)
#
#
# Indices 1 2 3 4 5 6 
#
# 1 0.021686 -0.002889 -0.023706 0.000000 -0.026108 0.000000
# 2 -0.002889 0.026228 -0.006217 0.000000 -0.003213 0.000000
# 3 -0.023706 -0.006217 0.038930 0.000000 0.040265 0.000000
# 4 0.000000 0.000000 0.000000 0.040746 0.000000 0.005396
# 5 -0.026108 -0.003213 0.040265 0.000000 0.074296 0.000000
# 6 0.000000 0.000000 0.000000 0.005396 0.000000 0.033112
#
#
# Mechanical properties :
#
#
# Convention : Reuss Voigt Hill
#
# Bulk Modulus (GPa) = 47.12345 86.06085 66.59215
# Shear Modulus (GPa) = 16.24987 28.45350 22.35168
#
# Velocity S-wave (km/s) = 3.03920 4.02163 3.56442
# Velocity P-wave (km/s) = 6.25312 8.39543 7.40219
#
# Compressibility (1/GPa) = 0.02122086
#
# Stress axis : x y z
#
# Youngs Moduli (GPa) = 46.11301 38.12715 25.68696
#
# Poissons Ratio (x) = 0.11016 0.60893
# Poissons Ratio (y) = 0.13323 0.15969
# Poissons Ratio (z) = 1.09314 0.23703
#
# Static dielectric constant tensor:
#      x y z
#    x 1.577590 0.000000 0.006680 
#    y 0.000000 1.598150 0.000000 
#    z 0.006680 0.000000 1.587360 
# 
# From -- ./inp_files/69150.got.cif
#   From: 2010.05.17/outbox.cif.g08.bks.cpg/sg11_35_cif.got.tgz:69150.got - 2010.06.03 12:22:45.
