data_PCOD9162414
_publ_section_title
;
Structure prediction by ZEFSAII (Michael W. Deem and Ramdas Pophale) SiO2 
 PCOD9162414
Probable space group: P 21/M
;
_chemical_formula_sum "Si O2"
_cell_formula_units_Z 28
_cell_length_a 18.612484
_cell_length_b 7.677122
_cell_length_c 14.970629
_cell_angle_alpha 90.000000
_cell_angle_beta 147.910595
_cell_angle_gamma 90.000000
_cell_volume 1136.410316
_symmetry_space_group_name_H-M "P 21/M"
_symmetry_group_IT_number 11
_symmetry_cell_setting 'monoclinic'
loop_
_space_group_symop_operation_xyz
x,y,z
-x,1/2+y,-z
-x,-y,-z
x,1/2-y,z
loop_
_atom_site_type_symbol
_atom_site_label
_atom_site_fract_x
_atom_site_fract_y
_atom_site_fract_z
Si Si1 0.984874 0.459855 0.794082
Si Si2 0.906576 0.460830 0.524747
Si Si3 0.795488 0.547451 0.225331
Si Si4 0.504585 0.444268 0.902350
Si Si5 0.559032 0.536750 0.351940
Si Si6 0.279313 0.541992 0.144777
Si Si7 0.205637 0.955058 0.261835
O O1 0.975762 0.250000 0.785636
O O2 0.897248 0.520310 0.616958
O O3 0.925534 0.528736 0.824915
O O4 0.141185 0.505428 0.946865
O O5 0.899856 0.250000 0.513884
O O6 0.805117 0.529105 0.343180
O O7 0.058523 0.514363 0.654727
O O8 0.780741 0.750000 0.186674
O O9 0.665517 0.450387 0.051197
O O10 0.453074 0.250000 0.848842
O O11 0.433297 0.531614 0.742198
O O12 0.500000 0.500000 0.000000
O O13 0.560762 0.750000 0.352423
O O14 0.415603 0.477342 0.242534
O O15 0.675842 0.475173 0.540746
O O16 0.295824 0.750000 0.168813
O O17 0.251990 0.469667 0.215913
O O18 0.181418 0.750000 0.221249
#
# Coordination Sequence:
#
# PCOD9162414 Si02
#       7
#     4   4   4   4   4   4   4
#     4  10  21  36  57  87 119 152 194 238 288 346
#     4   9  19  35  55  81 115 152 190 237 285 338
#     4  10  20  35  56  82 111 148 195 237 285 342
#     4  11  24  40  58  82 114 149 191 240 291 348
#     4  10  23  41  61  86 116 153 199 242 288 347
#     4  10  21  39  61  87 119 155 195 241 289 344
#     4  10  22  38  59  89 122 155 194 238 291 346
#
# _framework density 24.638987
#
# number of rings (size 3 to 8) (size 9 to 14) (size 15 to 20)
#    0.000    2.000    0.000    2.571    2.000    4.000 
#    0.000    0.000    0.000    0.000    0.000    0.000 
#    0.000    0.000    0.000    0.000    0.000    0.000 
#
# Total GULP energy -156571.784043 kJ/mol
# GULP energy per Si atom -5591.849430 kJ/mol
# Density = 2.458291 g / cm^3
# Si number density = 24.638987 Si / 1000 Ang^3
#
#
#
# Elastic Constant Matrix: (Units=GPa)
#
#
# Indices 1 2 3 4 5 6 
#
# 1 78.1738 5.1694 7.7912 0.0000 -11.4571 0.0000
# 2 5.1694 45.7964 -17.5158 0.0000 -3.5561 0.0000
# 3 7.7912 -17.5158 94.2317 0.0000 -9.5178 0.0000
# 4 0.0000 0.0000 0.0000 29.1288 0.0000 1.1427
# 5 -11.4571 -3.5561 -9.5178 0.0000 48.4016 0.0000
# 6 0.0000 0.0000 0.0000 1.1427 0.0000 12.0890
#
#
#
# Elastic Compliance Matrix: (Units=1/GPa)
#
#
# Indices 1 2 3 4 5 6 
#
# 1 0.013436 -0.001736 -0.001148 0.000000 0.002827 0.000000
# 2 -0.001736 0.024066 0.004850 0.000000 0.002311 0.000000
# 3 -0.001148 0.004850 0.011853 0.000000 0.002415 0.000000
# 4 0.000000 0.000000 0.000000 0.034458 0.000000 -0.003257
# 5 0.002827 0.002311 0.002415 0.000000 0.021974 0.000000
# 6 0.000000 0.000000 0.000000 -0.003257 0.000000 0.083028
#
#
# Mechanical properties :
#
#
# Convention : Reuss Voigt Hill
#
# Bulk Modulus (GPa) = 18.76631 23.23240 20.99935
# Shear Modulus (GPa) = 24.67375 32.77436 28.72405
#
# Velocity S-wave (km/s) = 3.16794 3.65112 3.41808
# Velocity P-wave (km/s) = 4.58412 5.21765 4.91111
#
# Compressibility (1/GPa) = 0.05328697
#
# Stress axis : x y z
#
# Youngs Moduli (GPa) = 74.42937 41.55178 84.36949
#
# Poissons Ratio (x) = 0.07214 0.09686
# Poissons Ratio (y) = 0.12922 -0.40923
# Poissons Ratio (z) = 0.08545 -0.20154
#
# Static dielectric constant tensor:
#      x y z
#    x 2.043980 0.000000 -0.029940 
#    y 0.000000 1.897930 0.000000 
#    z -0.029940 0.000000 1.917540 
# 
# From -- ./inp_files/54615.got.cif
#   From: 2010.05.17/outbox.cif.g08.bks.cpg/sg11_28_cif.got.tgz:54615.got - 2010.06.03 12:22:45.
