data_PCOD9162017
_publ_section_title
;
Structure prediction by ZEFSAII (Michael W. Deem and Ramdas Pophale) SiO2 
 PCOD9162017
Probable space group: P 21/M
;
_chemical_formula_sum "Si O2"
_cell_formula_units_Z 32
_cell_length_a 12.558445
_cell_length_b 17.222682
_cell_length_c 16.393343
_cell_angle_alpha 90.000000
_cell_angle_beta 151.628370
_cell_angle_gamma 90.000000
_cell_volume 1684.884687
_symmetry_space_group_name_H-M "P 21/M"
_symmetry_group_IT_number 11
_symmetry_cell_setting 'monoclinic'
loop_
_space_group_symop_operation_xyz
x,y,z
-x,1/2+y,-z
-x,-y,-z
x,1/2-y,z
loop_
_atom_site_type_symbol
_atom_site_label
_atom_site_fract_x
_atom_site_fract_y
_atom_site_fract_z
Si Si1 0.732655 0.339325 0.973637
Si Si2 0.843567 0.619564 0.637864
Si Si3 0.467347 0.158112 0.959938
Si Si4 0.013776 0.413063 0.604652
Si Si5 0.219380 0.552076 0.148314
Si Si6 0.633626 0.162052 0.624360
Si Si7 0.879828 0.094832 0.334788
Si Si8 0.344238 0.955465 0.507636
O O1 0.692533 0.250000 0.919960
O O2 0.565231 0.358906 0.935194
O O3 0.724322 0.401669 0.896325
O O4 0.978150 0.345748 0.179602
O O5 0.604232 0.658696 0.488881
O O6 0.805611 0.527313 0.627525
O O7 0.947144 0.626259 0.617128
O O8 0.484173 0.250000 0.983494
O O9 0.210960 0.131420 0.784640
O O10 0.633060 0.118495 0.137107
O O11 0.952296 0.379726 0.474110
O O12 0.791507 0.419244 0.509066
O O13 0.101371 0.501444 0.653016
O O14 0.195859 0.617995 0.201500
O O15 0.428212 0.497088 0.311504
O O16 0.000000 0.500000 0.000000
O O17 0.694767 0.250000 0.647282
O O18 0.610438 0.108977 0.529162
#
# Coordination Sequence:
#
# PCOD9162017 Si02
#       8
#     4   4   4   4   4   4   4   4
#     4  10  20  34  56  89 121 148 186 241 303 352
#     4   9  18  36  60  85 116 151 188 244 296 345
#     4  10  22  37  57  88 124 158 192 246 306 354
#     4  10  21  38  62  86 117 161 203 247 291 353
#     4  11  22  38  59  86 118 151 196 248 296 352
#     4  11  22  37  59  84 114 152 194 240 295 356
#     4   9  20  37  60  92 117 150 204 247 293 358
#     4  10  22  39  58  85 114 156 202 238 290 353
#
# _framework density 18.992397
#
# number of rings (size 3 to 8) (size 9 to 14) (size 15 to 20)
#    0.000    2.000    0.000    4.125    7.000    1.500 
#    2.250    0.625    0.000    0.000    0.000    0.000 
#    0.000    0.000    0.000    0.000    0.000    0.000 
#
# Total GULP energy -178666.592914 kJ/mol
# GULP energy per Si atom -5583.331029 kJ/mol
# Density = 1.894917 g / cm^3
# Si number density = 18.992397 Si / 1000 Ang^3
#
#
#
# Elastic Constant Matrix: (Units=GPa)
#
#
# Indices 1 2 3 4 5 6 
#
# 1 57.9310 43.9911 39.5957 0.0000 -9.1411 0.0000
# 2 43.9911 75.9770 37.0360 0.0000 -11.6221 0.0000
# 3 39.5957 37.0360 74.9884 0.0000 -8.7958 0.0000
# 4 0.0000 0.0000 0.0000 13.5730 0.0000 -2.2228
# 5 -9.1411 -11.6221 -8.7958 0.0000 25.2710 0.0000
# 6 0.0000 0.0000 0.0000 -2.2228 0.0000 17.8621
#
#
#
# Elastic Compliance Matrix: (Units=1/GPa)
#
#
# Indices 1 2 3 4 5 6 
#
# 1 0.037612 -0.015645 -0.011866 0.000000 0.002280 0.000000
# 2 -0.015645 0.024525 -0.003329 0.000000 0.004461 0.000000
# 3 -0.011866 -0.003329 0.021437 0.000000 0.001638 0.000000
# 4 0.000000 0.000000 0.000000 0.075208 0.000000 0.009359
# 5 0.002280 0.004461 0.001638 0.000000 0.043018 0.000000
# 6 0.000000 0.000000 0.000000 0.009359 0.000000 0.057149
#
#
# Mechanical properties :
#
#
# Convention : Reuss Voigt Hill
#
# Bulk Modulus (GPa) = 45.67059 50.01577 47.84318
# Shear Modulus (GPa) = 15.24729 17.22613 16.23671
#
# Velocity S-wave (km/s) = 2.83646 3.01491 2.92705
# Velocity P-wave (km/s) = 5.90139 6.20576 6.05548
#
# Compressibility (1/GPa) = 0.02189593
#
# Stress axis : x y z
#
# Youngs Moduli (GPa) = 26.58718 40.77419 46.64805
#
# Poissons Ratio (x) = 0.63790 0.55352
# Poissons Ratio (y) = 0.41595 0.15528
# Poissons Ratio (z) = 0.31548 0.13573
#
# Static dielectric constant tensor:
#      x y z
#    x 1.664390 0.000000 -0.010190 
#    y 0.000000 1.674060 0.000000 
#    z -0.010190 0.000000 1.657400 
# 
# From -- ./inp_files/50732.got.cif
#   From: 2010.05.17/outbox.cif.g08.bks.cpg/sg11_26_cif.got.tgz:50732.got - 2010.06.03 12:22:45.
