data_PCOD9162748
_publ_section_title
;
Structure prediction by ZEFSAII (Michael W. Deem and Ramdas Pophale) SiO2 
 PCOD9162748
Probable space group: P 21/M
;
_chemical_formula_sum "Si O2"
_cell_formula_units_Z 32
_cell_length_a 17.209935
_cell_length_b 14.660758
_cell_length_c 12.348443
_cell_angle_alpha 90.000000
_cell_angle_beta 149.686665
_cell_angle_gamma 90.000000
_cell_volume 1572.554600
_symmetry_space_group_name_H-M "P 21/M"
_symmetry_group_IT_number 11
_symmetry_cell_setting 'monoclinic'
loop_
_space_group_symop_operation_xyz
x,y,z
-x,1/2+y,-z
-x,-y,-z
x,1/2-y,z
loop_
_atom_site_type_symbol
_atom_site_label
_atom_site_fract_x
_atom_site_fract_y
_atom_site_fract_z
Si Si1 0.663887 0.650339 0.077196
Si Si2 0.367794 0.935130 0.789398
Si Si3 0.317789 0.645654 0.342601
Si Si4 0.705901 0.513749 0.523326
Si Si5 0.929470 0.649924 0.554584
Si Si6 0.571248 0.357536 0.763438
Si Si7 0.041343 0.148627 0.151765
Si Si8 0.200140 0.543288 0.805322
O O1 0.697806 0.750000 0.068623
O O2 0.755064 0.647752 0.301703
O O3 0.736739 0.560755 0.107668
O O4 0.481612 0.641030 0.877100
O O5 0.256641 0.918569 0.756854
O O6 0.277389 0.978484 0.579492
O O7 0.500000 0.000000 0.000000
O O8 0.351217 0.750000 0.416557
O O9 0.348980 0.570964 0.470620
O O10 0.407912 0.626759 0.339669
O O11 0.135559 0.640871 0.095427
O O12 0.575559 0.590645 0.367040
O O13 0.853500 0.563215 0.753519
O O14 0.991549 0.750000 0.593782
O O15 0.944892 0.647378 0.701427
O O16 0.022870 0.567779 0.612828
O O17 0.561782 0.250000 0.769932
O O18 0.715416 0.398673 0.000123
O O19 0.096414 0.250000 0.181643
#
# Coordination Sequence:
#
# PCOD9162748 Si02
#       8
#     4   4   4   4   4   4   4   4
#     4  10  21  35  53  81 120 161 196 233 289 356
#     4  10  21  38  54  87 123 153 197 238 289 354
#     4  10  23  42  62  87 118 154 199 242 294 359
#     4  12  22  39  62  89 121 159 193 238 306 349
#     4  10  20  35  60  88 116 156 200 247 296 340
#     4  11  22  39  63  90 116 149 201 253 293 344
#     4  10  20  37  62  92 116 146 198 252 295 342
#     4  11  20  38  58  86 118 158 196 248 295 345
#
# _framework density 20.349055
#
# number of rings (size 3 to 8) (size 9 to 14) (size 15 to 20)
#    0.000    1.500    3.750    3.375    0.000    1.500 
#    0.000    0.000    0.000    1.500    0.000    0.000 
#    0.000    0.000    0.000    0.000    0.000    0.000 
#
# Total GULP energy -178528.941892 kJ/mol
# GULP energy per Si atom -5579.029434 kJ/mol
# Density = 2.030274 g / cm^3
# Si number density = 20.349055 Si / 1000 Ang^3
#
#
#
# Elastic Constant Matrix: (Units=GPa)
#
#
# Indices 1 2 3 4 5 6 
#
# 1 50.0152 35.0601 -9.8995 0.0000 -4.7722 0.0000
# 2 35.0601 105.8300 3.0286 0.0000 -11.9376 0.0000
# 3 -9.8995 3.0286 27.4947 0.0000 0.7911 0.0000
# 4 0.0000 0.0000 0.0000 20.7478 0.0000 5.5429
# 5 -4.7722 -11.9376 0.7911 0.0000 32.4030 0.0000
# 6 0.0000 0.0000 0.0000 5.5429 0.0000 29.0732
#
#
#
# Elastic Compliance Matrix: (Units=1/GPa)
#
#
# Indices 1 2 3 4 5 6 
#
# 1 0.029361 -0.010022 0.011665 0.000000 0.000347 0.000000
# 2 -0.010022 0.013319 -0.005178 0.000000 0.003557 0.000000
# 3 0.011665 -0.005178 0.041175 0.000000 -0.001195 0.000000
# 4 0.000000 0.000000 0.000000 0.050785 0.000000 -0.009682
# 5 0.000347 0.003557 -0.001195 0.000000 0.032252 0.000000
# 6 0.000000 0.000000 0.000000 -0.009682 0.000000 0.036242
#
#
# Mechanical properties :
#
#
# Convention : Reuss Voigt Hill
#
# Bulk Modulus (GPa) = 13.02299 26.63538 19.82918
# Shear Modulus (GPa) = 21.20465 26.78818 23.99642
#
# Velocity S-wave (km/s) = 3.23158 3.63221 3.43773
# Velocity P-wave (km/s) = 4.50975 5.54150 5.05203
#
# Compressibility (1/GPa) = 0.07678727
#
# Stress axis : x y z
#
# Youngs Moduli (GPa) = 34.05872 75.08313 24.28629
#
# Poissons Ratio (x) = 0.75245 -0.28331
# Poissons Ratio (y) = 0.34132 0.12575
# Poissons Ratio (z) = -0.39731 0.38876
#
# Static dielectric constant tensor:
#      x y z
#    x 1.715740 0.000000 0.027980 
#    y 0.000000 1.801240 0.000000 
#    z 0.027980 0.000000 1.753550 
# 
# From -- ./inp_files/41705.got.cif
#   From: 2010.05.17/outbox.cif.g08.bks.cpg/sg11_21_cif.got.tgz:41705.got - 2010.06.03 12:22:45.
