data_PCOD9162900
_publ_section_title
;
Structure prediction by ZEFSAII (Michael W. Deem and Ramdas Pophale) SiO2 
 PCOD9162900
Probable space group: P 21/M
;
_chemical_formula_sum "Si O2"
_cell_formula_units_Z 32
_cell_length_a 11.867705
_cell_length_b 15.974793
_cell_length_c 16.582131
_cell_angle_alpha 90.000000
_cell_angle_beta 25.917990
_cell_angle_gamma 90.000000
_cell_volume 1374.065531
_symmetry_space_group_name_H-M "P 21/M"
_symmetry_group_IT_number 11
_symmetry_cell_setting 'monoclinic'
loop_
_space_group_symop_operation_xyz
x,y,z
-x,1/2+y,-z
-x,-y,-z
x,1/2-y,z
loop_
_atom_site_type_symbol
_atom_site_label
_atom_site_fract_x
_atom_site_fract_y
_atom_site_fract_z
Si Si1 0.591035 0.654088 0.146679
Si Si2 0.466149 0.151576 0.634904
Si Si3 0.036996 0.661250 0.425628
Si Si4 0.590043 0.350939 0.378692
Si Si5 0.892021 0.953743 0.370280
Si Si6 0.857556 0.153130 0.043340
Si Si7 0.126830 0.446959 0.343521
Si Si8 0.694382 0.477578 0.024997
O O1 0.699194 0.750000 0.081254
O O2 0.499050 0.624630 0.294843
O O3 0.337195 0.660052 0.254985
O O4 0.744066 0.574403 0.014722
O O5 0.523061 0.250000 0.601706
O O6 0.609175 0.122899 0.460938
O O7 0.155524 0.140365 0.826321
O O8 0.949294 0.750000 0.451631
O O9 0.983294 0.601888 0.386216
O O10 0.895520 0.643080 0.601077
O O11 0.513980 0.250000 0.427716
O O12 0.817396 0.355674 0.165860
O O13 0.383203 0.417587 0.476975
O O14 0.970772 0.042142 0.361434
O O15 0.077378 0.943600 0.176030
O O16 0.788734 0.250000 0.067603
O O17 0.687949 0.083369 0.106936
O O18 0.425358 0.471491 0.149943
O O19 0.000000 0.500000 0.500000
#
# Coordination Sequence:
#
# PCOD9162900 Si02
#       8
#     4   4   4   4   4   4   4   4
#     4  10  22  40  62  83 117 168 208 244 301 370
#     4   9  19  40  62  85 121 162 205 256 306 357
#     4  10  21  39  62  87 117 163 206 244 305 371
#     4  10  20  37  62  91 121 157 200 256 314 365
#     4  11  21  35  59  89 122 155 196 253 309 364
#     4  10  21  37  62  94 123 157 203 256 314 366
#     4  10  20  36  56  82 118 156 193 248 302 355
#     4  12  22  37  63  89 126 162 203 249 313 365
#
# _framework density 23.288554000000001
#
# number of rings (size 3 to 8) (size 9 to 14) (size 15 to 20)
#    0.000    1.750    3.750    2.250    0.000    2.500 
#    0.000    2.500    0.000    3.000    0.000    0.000 
#    0.000    0.000    0.000    0.000    0.000    0.000 
#
# Total GULP energy -178341.371987 kJ/mol
# GULP energy per Si atom -5573.167875 kJ/mol
# Density = 2.323555 g / cm^3
# Si number density = 23.288554 Si / 1000 Ang^3
#
#
#
# Elastic Constant Matrix: (Units=GPa)
#
#
# Indices 1 2 3 4 5 6 
#
# 1 64.8086 8.8231 -4.6850 0.0000 16.8925 0.0000
# 2 8.8231 64.1181 14.8226 0.0000 -3.3974 0.0000
# 3 -4.6850 14.8226 70.1157 0.0000 21.3596 0.0000
# 4 0.0000 0.0000 0.0000 23.6818 0.0000 6.2912
# 5 16.8925 -3.3974 21.3596 0.0000 37.8396 0.0000
# 6 0.0000 0.0000 0.0000 6.2912 0.0000 13.9831
#
#
#
# Elastic Compliance Matrix: (Units=1/GPa)
#
#
# Indices 1 2 3 4 5 6 
#
# 1 0.019901 -0.004872 0.006279 0.000000 -0.012866 0.000000
# 2 -0.004872 0.018146 -0.006425 0.000000 0.007431 0.000000
# 3 0.006279 -0.006425 0.020615 0.000000 -0.015017 0.000000
# 4 0.000000 0.000000 0.000000 0.047959 0.000000 -0.021577
# 5 -0.012866 0.007431 -0.015017 0.000000 0.041315 0.000000
# 6 0.000000 0.000000 0.000000 -0.021577 0.000000 0.081223
#
#
# Mechanical properties :
#
#
# Convention : Reuss Voigt Hill
#
# Bulk Modulus (GPa) = 20.56557 26.32931 23.44744
# Shear Modulus (GPa) = 19.57702 27.10634 23.34168
#
# Velocity S-wave (km/s) = 2.90250 3.41535 3.16932
# Velocity P-wave (km/s) = 4.48137 5.18489 4.84591
#
# Compressibility (1/GPa) = 0.04862496
#
# Stress axis : x y z
#
# Youngs Moduli (GPa) = 50.24929 55.10932 48.50942
#
# Poissons Ratio (x) = 0.26848 -0.30459
# Poissons Ratio (y) = 0.24480 0.31169
# Poissons Ratio (z) = -0.31552 0.35410
#
# Static dielectric constant tensor:
#      x y z
#    x 1.900030 0.000000 -0.033970 
#    y 0.000000 2.071580 0.000000 
#    z -0.033970 0.000000 1.885290 
# 
# From -- ./inp_files/50655.got.cif
#   From: 2010.05.17/outbox.cif.g08.bks.cpg/sg11_26_cif.got.tgz:50655.got - 2010.06.03 12:22:45.
