data_PCOD9162430
_publ_section_title
;
Structure prediction by ZEFSAII (Michael W. Deem and Ramdas Pophale) SiO2 
 PCOD9162430
Probable space group: P 21/M
;
_chemical_formula_sum "Si O2"
_cell_formula_units_Z 32
_cell_length_a 25.846657
_cell_length_b 7.831780
_cell_length_c 14.988650
_cell_angle_alpha 90.000000
_cell_angle_beta 149.977174
_cell_angle_gamma 90.000000
_cell_volume 1518.087905
_symmetry_space_group_name_H-M "P 21/M"
_symmetry_group_IT_number 11
_symmetry_cell_setting 'monoclinic'
loop_
_space_group_symop_operation_xyz
x,y,z
-x,1/2+y,-z
-x,-y,-z
x,1/2-y,z
loop_
_atom_site_type_symbol
_atom_site_label
_atom_site_fract_x
_atom_site_fract_y
_atom_site_fract_z
Si Si1 0.453187 0.946923 0.023945
Si Si2 0.022256 0.542703 0.316019
Si Si3 0.280463 0.048256 0.288302
Si Si4 0.606552 0.046874 0.710151
Si Si5 0.947400 0.955962 0.014521
Si Si6 0.226451 0.452460 0.731168
Si Si7 0.896568 0.955028 0.290061
Si Si8 0.487096 0.460556 0.696181
O O1 0.478888 0.750000 0.070087
O O2 0.499070 0.026458 0.183192
O O3 0.500000 0.000000 0.000000
O O4 0.330168 0.969527 0.846680
O O5 0.022968 0.750000 0.319011
O O6 0.128126 0.483990 0.520393
O O7 0.008374 0.484734 0.193852
O O8 0.925655 0.484913 0.234293
O O9 0.278306 0.250000 0.302707
O O10 0.379493 0.980896 0.490860
O O11 0.303753 0.026956 0.217808
O O12 0.170102 0.977628 0.152762
O O13 0.618881 0.250000 0.729040
O O14 0.582397 0.986491 0.774266
O O15 0.500000 0.000000 0.500000
O O16 0.943493 0.750000 0.014469
O O17 0.000000 0.000000 0.000000
O O18 0.242660 0.250000 0.761847
O O19 0.195016 0.521050 0.783030
O O20 0.885582 0.750000 0.270138
O O21 0.000000 0.000000 0.500000
O O22 0.487166 0.250000 0.694116
#
# Coordination Sequence:
#
# PCOD9162430 Si02
#       8
#     4   4   4   4   4   4   4   4
#     4  11  23  39  55  75 105 143 185 228 266 312
#     4   9  18  35  56  80 110 144 177 216 266 320
#     4   9  18  35  56  79 107 141 175 215 266 318
#     4   9  16  30  53  82 110 137 170 211 260 320
#     4  10  22  37  54  77 107 143 186 227 266 312
#     4  10  20  35  56  83 109 138 175 219 270 323
#     4   8  15  29  51  77 106 134 167 210 260 319
#     4   8  17  34  55  77 106 140 172 208 262 320
#
# _framework density 21.079148
#
# number of rings (size 3 to 8) (size 9 to 14) (size 15 to 20)
#    0.000    2.750    0.000    1.875    0.000    3.500 
#    0.000    8.750    0.000    0.000    0.000    0.000 
#    0.000    0.000    0.000    0.000    0.000    0.000 
#
# Total GULP energy -178437.759078 kJ/mol
# GULP energy per Si atom -5576.179971 kJ/mol
# Density = 2.103117 g / cm^3
# Si number density = 21.079148 Si / 1000 Ang^3
#
#
#
# Elastic Constant Matrix: (Units=GPa)
#
#
# Indices 1 2 3 4 5 6 
#
# 1 245.9625 -9.1048 93.6471 0.0000 -2.1380 0.0000
# 2 -9.1048 19.0115 -13.7021 0.0000 -4.6351 0.0000
# 3 93.6471 -13.7021 102.2070 0.0000 -2.0563 0.0000
# 4 0.0000 0.0000 0.0000 1.5231 0.0000 -9.7004
# 5 -2.1380 -4.6351 -2.0563 0.0000 34.4529 0.0000
# 6 0.0000 0.0000 0.0000 -9.7004 0.0000 15.7854
#
#
#
# Elastic Compliance Matrix: (Units=1/GPa)
#
#
# Indices 1 2 3 4 5 6 
#
# 1 0.006272 -0.001300 -0.005923 0.000000 -0.000139 0.000000
# 2 -0.001300 0.060972 0.009540 0.000000 0.008691 0.000000
# 3 -0.005923 0.009540 0.016529 0.000000 0.001902 0.000000
# 4 0.000000 0.000000 0.000000 -0.225325 0.000000 -0.138467
# 5 -0.000139 0.008691 0.001902 0.000000 0.030299 0.000000
# 6 0.000000 0.000000 0.000000 -0.138467 0.000000 -0.021741
#
#
# Mechanical properties :
#
#
# Convention : Reuss Voigt Hill
#
# Bulk Modulus (GPa) = 11.31153 56.54015 33.92584
# Shear Modulus (GPa) = -46.22792 30.10834 -8.05979
#
# Velocity S-wave (km/s) = -4.68810 3.78345 -1.95752
# Velocity P-wave (km/s) = 4.89147 6.77990 3.31968
#
# Compressibility (1/GPa) = 0.08840541
#
# Stress axis : x y z
#
# Youngs Moduli (GPa) = 159.44914 16.40101 60.50148
#
# Poissons Ratio (x) = 0.02131 0.35837
# Poissons Ratio (y) = 0.20721 -0.57716
# Poissons Ratio (z) = 0.94448 -0.15646
#
# Static dielectric constant tensor:
#      x y z
#    x 1.802850 0.000000 -0.029300 
#    y 0.000000 1.786940 0.000000 
#    z -0.029300 0.000000 1.764180 
# 
# From -- ./inp_files/51679.got.cif
#   From: 2010.05.17/outbox.cif.g08.bks.cpg/sg11_26_cif.got.tgz:51679.got - 2010.06.03 12:22:45.
