data_PCOD9162407
_publ_section_title
;
Structure prediction by ZEFSAII (Michael W. Deem and Ramdas Pophale) SiO2 
 PCOD9162407
Probable space group: P 21/M
;
_chemical_formula_sum "Si O2"
_cell_formula_units_Z 24
_cell_length_a 24.796895
_cell_length_b 8.312778
_cell_length_c 12.149529
_cell_angle_alpha 90.000000
_cell_angle_beta 28.927781
_cell_angle_gamma 90.000000
_cell_volume 1211.393201
_symmetry_space_group_name_H-M "P 21/M"
_symmetry_group_IT_number 11
_symmetry_cell_setting 'monoclinic'
loop_
_space_group_symop_operation_xyz
x,y,z
-x,1/2+y,-z
-x,-y,-z
x,1/2-y,z
loop_
_atom_site_type_symbol
_atom_site_label
_atom_site_fract_x
_atom_site_fract_y
_atom_site_fract_z
Si Si1 0.903538 0.445280 0.488269
Si Si2 0.686887 0.056635 0.473332
Si Si3 0.302823 0.555092 0.293127
Si Si4 0.749446 0.058576 0.962566
Si Si5 0.151092 0.440564 0.994916
Si Si6 0.447790 0.058678 0.833539
O O1 0.907538 0.250000 0.487378
O O2 0.817391 0.485493 0.544704
O O3 0.845091 0.500064 0.705943
O O4 0.027730 0.505414 0.244338
O O5 0.680845 0.250000 0.488097
O O6 0.687556 0.000456 0.598477
O O7 0.574873 0.999663 0.611659
O O8 0.794907 0.009306 0.211702
O O9 0.314647 0.750000 0.267175
O O10 0.393495 0.479914 0.049389
O O11 0.759391 0.250000 0.956512
O O12 0.769593 0.980522 0.044024
O O13 0.632026 0.020073 0.114619
O O14 0.142207 0.250000 0.998269
O O15 0.446382 0.250000 0.818282
#
# Coordination Sequence:
#
# PCOD9162407 Si02
#       6
#     4   4   4   4   4   4
#     4   8  17  34  56  81 106 135 173 218 264 310
#     4  10  22  37  53  77 111 147 177 211 261 317
#     4   9  18  36  59  80 106 140 177 216 261 314
#     4  10  20  37  59  79 104 139 177 218 268 320
#     4  11  22  35  53  79 110 141 177 220 262 310
#     4  10  20  35  56  82 108 135 176 224 264 308
#
# _framework density 19.811899
#
# number of rings (size 3 to 8) (size 9 to 14) (size 15 to 20)
#    0.000    2.333    0.000    3.500    0.000    3.333 
#    0.000    7.500    0.000    0.000    0.000    0.000 
#    0.000    0.000    0.000    0.000    0.000    0.000 
#
# Total GULP energy -134002.005190 kJ/mol
# GULP energy per Si atom -5583.416883 kJ/mol
# Density = 1.976681 g / cm^3
# Si number density = 19.811899 Si / 1000 Ang^3
#
#
#
# Elastic Constant Matrix: (Units=GPa)
#
#
# Indices 1 2 3 4 5 6 
#
# 1 22.8266 -10.0169 11.2550 0.0000 -8.0972 0.0000
# 2 -10.0169 -2.7437 4.6582 0.0000 -5.4258 0.0000
# 3 11.2550 4.6582 23.0750 0.0000 -1.4350 0.0000
# 4 0.0000 0.0000 0.0000 27.1142 0.0000 5.5027
# 5 -8.0972 -5.4258 -1.4350 0.0000 3.6611 0.0000
# 6 0.0000 0.0000 0.0000 5.5027 0.0000 20.2176
#
#
#
# Elastic Compliance Matrix: (Units=1/GPa)
#
#
# Indices 1 2 3 4 5 6 
#
# 1 0.020203 -0.041841 -0.002547 0.000000 -0.018326 0.000000
# 2 -0.041841 -0.003681 0.015433 0.000000 -0.091947 0.000000
# 3 -0.002547 0.015433 0.043599 0.000000 0.034328 0.000000
# 4 0.000000 0.000000 0.000000 0.039037 0.000000 -0.010625
# 5 -0.018326 -0.091947 0.034328 0.000000 0.109799 0.000000
# 6 0.000000 0.000000 0.000000 -0.010625 0.000000 0.052354
#
#
# Mechanical properties :
#
#
# Convention : Reuss Voigt Hill
#
# Bulk Modulus (GPa) = 452.36833 6.10561 229.23697
# Shear Modulus (GPa) = 15.62710 12.68268 14.15489
#
# Velocity S-wave (km/s) = 2.81156 2.53287 2.67585
# Velocity P-wave (km/s) = 15.47149 3.41210 11.20289
#
# Compressibility (1/GPa) = 0.00221059
#
# Stress axis : x y z
#
# Youngs Moduli (GPa) = 49.49814 -271.65416 22.93650
#
# Poissons Ratio (x) = -11.36633 0.05842
# Poissons Ratio (y) = 2.07106 -0.35399
# Poissons Ratio (z) = 0.12608 4.19257
#
# Static dielectric constant tensor:
#      x y z
#    x 1.681720 0.000000 -0.017860 
#    y 0.000000 1.678940 0.000000 
#    z -0.017860 0.000000 1.694560 
# 
# From -- ./inp_files/33799.got.cif
#   From: 2010.05.17/outbox.cif.g08.bks.cpg/sg11_17_cif.got.tgz:33799.got - 2010.06.03 12:22:45.
