data_PCOD9162972
_publ_section_title
;
Structure prediction by ZEFSAII (Michael W. Deem and Ramdas Pophale) SiO2 
 PCOD9162972
Probable space group: P 21/M
;
_chemical_formula_sum "Si O2"
_cell_formula_units_Z 24
_cell_length_a 22.432465
_cell_length_b 8.879012
_cell_length_c 9.771289
_cell_angle_alpha 90.000000
_cell_angle_beta 43.919044
_cell_angle_gamma 90.000000
_cell_volume 1349.983423
_symmetry_space_group_name_H-M "P 21/M"
_symmetry_group_IT_number 11
_symmetry_cell_setting 'monoclinic'
loop_
_space_group_symop_operation_xyz
x,y,z
-x,1/2+y,-z
-x,-y,-z
x,1/2-y,z
loop_
_atom_site_type_symbol
_atom_site_label
_atom_site_fract_x
_atom_site_fract_y
_atom_site_fract_z
Si Si1 0.905967 0.930742 0.644980
Si Si2 0.473241 0.070415 0.190092
Si Si3 0.240259 0.570547 0.927481
Si Si4 0.288136 0.927882 0.540167
Si Si5 0.628735 0.929005 0.084227
Si Si6 0.779287 0.927990 0.613277
O O1 0.908450 0.750000 0.652470
O O2 0.859805 0.967006 0.576540
O O3 0.000000 0.000000 0.500000
O O4 0.842684 0.996762 0.864953
O O5 0.478242 0.250000 0.173613
O O6 0.377188 0.017899 0.381907
O O7 0.540013 0.007375 0.191293
O O8 0.500000 0.000000 0.000000
O O9 0.239301 0.750000 0.952726
O O10 0.245408 0.542454 0.757453
O O11 0.323328 0.499986 0.865143
O O12 0.306722 0.750000 0.499869
O O13 0.230107 0.978572 0.508853
O O14 0.617675 0.750000 0.120150
O O15 0.694878 0.952129 0.847718
O O16 0.782606 0.750000 0.576030
#
# Coordination Sequence:
#
# PCOD9162972 Si02
#       6
#     4   4   4   4   4   4
#     4  10  21  39  64  90 114 144 185 231 281 344
#     4  12  23  35  55  81 113 152 196 242 283 331
#     4  10  22  39  58  84 117 151 188 233 286 340
#     4  11  23  37  56  83 116 153 192 235 284 336
#     4  10  20  36  57  82 111 150 197 240 281 333
#     4   9  19  35  57  83 112 146 186 232 281 336
#
# _framework density 17.777996999999999
#
# number of rings (size 3 to 8) (size 9 to 14) (size 15 to 20)
#    0.000    1.667    1.667    4.500    0.000    6.667 
#    0.000    0.833    0.000    0.000    0.000    0.000 
#    0.000    0.000    0.000    0.000    0.000    0.000 
#
# Total GULP energy -134103.370475 kJ/mol
# GULP energy per Si atom -5587.640436 kJ/mol
# Density = 1.773753 g / cm^3
# Si number density = 17.777997 Si / 1000 Ang^3
#
#
#
# Elastic Constant Matrix: (Units=GPa)
#
#
# Indices 1 2 3 4 5 6 
#
# 1 135.1877 83.0692 70.8238 0.0000 -4.6369 0.0000
# 2 83.0692 115.5292 66.2312 0.0000 10.3761 0.0000
# 3 70.8238 66.2312 75.3685 0.0000 4.7978 0.0000
# 4 0.0000 0.0000 0.0000 28.5502 0.0000 -0.5101
# 5 -4.6369 10.3761 4.7978 0.0000 31.4591 0.0000
# 6 0.0000 0.0000 0.0000 -0.5101 0.0000 36.4102
#
#
#
# Elastic Compliance Matrix: (Units=1/GPa)
#
#
# Indices 1 2 3 4 5 6 
#
# 1 0.017601 -0.007102 -0.010717 0.000000 0.006571 0.000000
# 2 -0.007102 0.020688 -0.011113 0.000000 -0.006175 0.000000
# 3 -0.010717 -0.011113 0.033295 0.000000 -0.002992 0.000000
# 4 0.000000 0.000000 0.000000 0.035035 0.000000 0.000491
# 5 0.006571 -0.006175 -0.002992 0.000000 0.035249 0.000000
# 6 0.000000 0.000000 0.000000 0.000491 0.000000 0.027472
#
#
# Mechanical properties :
#
#
# Convention : Reuss Voigt Hill
#
# Bulk Modulus (GPa) = 72.88585 85.14821 79.01703
# Shear Modulus (GPa) = 21.57246 26.34798 23.96022
#
# Velocity S-wave (km/s) = 3.48722 3.85392 3.67515
# Velocity P-wave (km/s) = 7.56975 8.23425 7.90898
#
# Compressibility (1/GPa) = 0.01372008
#
# Stress axis : x y z
#
# Youngs Moduli (GPa) = 56.81461 48.33745 30.03440
#
# Poissons Ratio (x) = 0.34329 0.32188
# Poissons Ratio (y) = 0.40350 0.33377
# Poissons Ratio (z) = 0.60889 0.53717
#
# Static dielectric constant tensor:
#      x y z
#    x 1.599940 0.000000 0.011240 
#    y 0.000000 1.584500 0.000000 
#    z 0.011240 0.000000 1.581910 
# 
# From -- ./inp_files/20416.got.cif
#   From: 2010.05.17/outbox.cif.g08.bks.cpg/sg11_11_cif.got.tgz:20416.got - 2010.06.03 12:22:45.
