data_PCOD9162599
_publ_section_title
;
Structure prediction by ZEFSAII (Michael W. Deem and Ramdas Pophale) SiO2 
 PCOD9162599
Probable space group: P 21/M
;
_chemical_formula_sum "Si O2"
_cell_formula_units_Z 28
_cell_length_a 16.478155
_cell_length_b 9.084107
_cell_length_c 12.658256
_cell_angle_alpha 90.000000
_cell_angle_beta 123.824831
_cell_angle_gamma 90.000000
_cell_volume 1574.097205
_symmetry_space_group_name_H-M "P 21/M"
_symmetry_group_IT_number 11
_symmetry_cell_setting 'monoclinic'
loop_
_space_group_symop_operation_xyz
x,y,z
-x,1/2+y,-z
-x,-y,-z
x,1/2-y,z
loop_
_atom_site_type_symbol
_atom_site_label
_atom_site_fract_x
_atom_site_fract_y
_atom_site_fract_z
Si Si1 0.287450 0.425292 0.466147
Si Si2 0.074141 0.574198 0.695458
Si Si3 0.487199 0.578597 0.662071
Si Si4 0.291480 0.073426 0.231627
Si Si5 0.128876 0.925303 0.497066
Si Si6 0.242014 0.926319 0.981383
Si Si7 0.439618 0.077317 0.048182
O O1 0.282970 0.250000 0.474574
O O2 0.398057 0.479883 0.560925
O O3 0.255493 0.461921 0.322919
O O4 0.218712 0.501838 0.501816
O O5 0.054564 0.750000 0.682921
O O6 0.125775 0.541145 0.620299
O O7 0.146308 0.538244 0.843523
O O8 0.972348 0.488455 0.622493
O O9 0.467949 0.750000 0.621837
O O10 0.592672 0.537261 0.690864
O O11 0.501777 0.567202 0.798873
O O12 0.284390 0.250000 0.209059
O O13 0.239887 0.990197 0.098267
O O14 0.132888 0.750000 0.487996
O O15 0.253547 0.750000 0.992012
O O16 0.336264 0.998654 0.993831
O O17 0.424482 0.250000 0.014551
O O18 0.500000 0.000000 0.000000
#
# Coordination Sequence:
#
# PCOD9162599 Si02
#       7
#     4   4   4   4   4   4   4
#     4  11  22  35  55  82 112 144 185 229 273 324
#     4   9  20  39  59  81 110 140 176 225 277 327
#     4   9  19  35  53  75 108 147 185 226 271 315
#     4   9  20  38  55  78 112 148 184 228 271 319
#     4  10  21  37  58  83 110 141 178 223 276 329
#     4  10  20  35  58  82 107 143 182 223 277 330
#     4  10  21  35  51  77 113 147 184 226 266 319
#
# _framework density 17.787973000000001
#
# number of rings (size 3 to 8) (size 9 to 14) (size 15 to 20)
#    0.000    2.286    0.000    3.000    2.000    5.714 
#    0.000    0.714    0.000    0.000    0.000    0.000 
#    0.000    0.000    0.000    0.000    0.000    0.000 
#
# Total GULP energy -156308.298655 kJ/mol
# GULP energy per Si atom -5582.439238 kJ/mol
# Density = 1.774749 g / cm^3
# Si number density = 17.787973 Si / 1000 Ang^3
#
#
#
# Elastic Constant Matrix: (Units=GPa)
#
#
# Indices 1 2 3 4 5 6 
#
# 1 33.8373 23.0052 29.4435 0.0000 -7.8874 0.0000
# 2 23.0052 53.1765 44.0145 0.0000 3.4267 0.0000
# 3 29.4435 44.0145 86.9117 0.0000 15.6201 0.0000
# 4 0.0000 0.0000 0.0000 32.1498 0.0000 1.7020
# 5 -7.8874 3.4267 15.6201 0.0000 14.3308 0.0000
# 6 0.0000 0.0000 0.0000 1.7020 0.0000 28.5380
#
#
#
# Elastic Compliance Matrix: (Units=1/GPa)
#
#
# Indices 1 2 3 4 5 6 
#
# 1 0.117814 -0.011992 -0.057217 0.000000 0.130075 0.000000
# 2 -0.011992 0.035536 -0.013954 0.000000 0.000112 0.000000
# 3 -0.057217 -0.013954 0.053496 0.000000 -0.086464 0.000000
# 4 0.000000 0.000000 0.000000 0.031203 0.000000 -0.001861
# 5 0.130075 0.000112 -0.086464 0.000000 0.235587 0.000000
# 6 0.000000 0.000000 0.000000 -0.001861 0.000000 0.035152
#
#
# Mechanical properties :
#
#
# Convention : Reuss Voigt Hill
#
# Bulk Modulus (GPa) = 24.67916 40.76132 32.72024
# Shear Modulus (GPa) = 7.26090 20.16788 13.71439
#
# Velocity S-wave (km/s) = 2.02257 3.37084 2.77969
# Velocity P-wave (km/s) = 4.39984 6.17373 5.36067
#
# Compressibility (1/GPa) = 0.04052002
#
# Stress axis : x y z
#
# Youngs Moduli (GPa) = 8.48796 28.14078 18.69300
#
# Poissons Ratio (x) = 0.33745 1.06956
# Poissons Ratio (y) = 0.10178 0.26084
# Poissons Ratio (z) = 0.48566 0.39267
#
# Static dielectric constant tensor:
#      x y z
#    x 1.582990 0.000000 -0.015770 
#    y 0.000000 1.592320 0.000000 
#    z -0.015770 0.000000 1.600030 
# 
# From -- ./inp_files/37808.got.cif
#   From: 2010.05.17/outbox.cif.g08.bks.cpg/sg11_19_cif.got.tgz:37808.got - 2010.06.03 12:22:45.
