data_PCOD9162847
_publ_section_title
;
Structure prediction by ZEFSAII (Michael W. Deem and Ramdas Pophale) SiO2 
 PCOD9162847
Probable space group: P 21/M
;
_chemical_formula_sum "Si O2"
_cell_formula_units_Z 32
_cell_length_a 22.030741
_cell_length_b 8.872600
_cell_length_c 22.077086
_cell_angle_alpha 90.000000
_cell_angle_beta 25.676706
_cell_angle_gamma 90.000000
_cell_volume 1869.834372
_symmetry_space_group_name_H-M "P 21/M"
_symmetry_group_IT_number 11
_symmetry_cell_setting 'monoclinic'
loop_
_space_group_symop_operation_xyz
x,y,z
-x,1/2+y,-z
-x,-y,-z
x,1/2-y,z
loop_
_atom_site_type_symbol
_atom_site_label
_atom_site_fract_x
_atom_site_fract_y
_atom_site_fract_z
Si Si1 0.623929 0.571285 0.306701
Si Si2 0.065235 0.429943 0.381669
Si Si3 0.559029 0.069282 0.243981
Si Si4 0.675371 0.931044 0.389698
Si Si5 0.308982 0.931476 0.002849
Si Si6 0.007024 0.430833 0.299778
Si Si7 0.236150 0.069523 0.561243
Si Si8 0.383678 0.069110 0.061104
O O1 0.628274 0.750000 0.294980
O O2 0.647302 0.494887 0.221022
O O3 0.467511 0.518514 0.466193
O O4 0.714804 0.531786 0.284910
O O5 0.055392 0.250000 0.395379
O O6 0.991779 0.474816 0.384410
O O7 0.229053 0.468404 0.225980
O O8 0.000000 0.500000 0.500000
O O9 0.563665 0.250000 0.243823
O O10 0.395309 0.026498 0.399372
O O11 0.618599 0.023855 0.125378
O O12 0.645850 0.750000 0.418198
O O13 0.776861 0.962167 0.354890
O O14 0.308033 0.750000 0.007920
O O15 0.150935 0.993952 0.147696
O O16 0.387861 0.000144 0.990016
O O17 0.022177 0.250000 0.283754
O O18 0.877751 0.485344 0.376135
O O19 0.221882 0.250000 0.565509
O O20 0.395815 0.250000 0.047114
O O21 0.500000 0.000000 0.000000
#
# Coordination Sequence:
#
# PCOD9162847 Si02
#       8
#     4   4   4   4   4   4   4   4
#     4   9  15  24  43  69  96 128 163 201 249 298
#     4   9  20  36  53  74 100 128 161 201 243 289
#     4   9  19  33  49  73 103 130 164 209 251 295
#     4   8  15  27  42  65  98 130 162 203 248 294
#     4  10  20  36  56  75  98 134 171 202 246 299
#     4  10  21  36  51  73 103 131 163 204 246 292
#     4   9  17  31  50  72  99 131 164 201 245 292
#     4  10  21  37  55  78 105 132 165 205 246 292
#
# _framework density 17.113816
#
# number of rings (size 3 to 8) (size 9 to 14) (size 15 to 20)
#    0.000    2.750    0.000    3.000    0.000    7.500 
#    0.000    3.750    0.000    0.750    0.000    0.000 
#    0.000    0.000    0.000    0.000    0.000    0.000 
#
# Total GULP energy -178262.136261 kJ/mol
# GULP energy per Si atom -5570.691758 kJ/mol
# Density = 1.707486 g / cm^3
# Si number density = 17.113816 Si / 1000 Ang^3
#
#
#
# Elastic Constant Matrix: (Units=GPa)
#
#
# Indices 1 2 3 4 5 6 
#
# 1 191.2234 55.1302 83.8849 0.0000 24.0810 0.0000
# 2 55.1302 36.5138 31.0050 0.0000 8.3556 0.0000
# 3 83.8849 31.0050 60.1722 0.0000 23.5090 0.0000
# 4 0.0000 0.0000 0.0000 22.4579 0.0000 1.8138
# 5 24.0810 8.3556 23.5090 0.0000 25.8682 0.0000
# 6 0.0000 0.0000 0.0000 1.8138 0.0000 34.6643
#
#
#
# Elastic Compliance Matrix: (Units=1/GPa)
#
#
# Indices 1 2 3 4 5 6 
#
# 1 0.015450 -0.007806 -0.019974 0.000000 0.006291 0.000000
# 2 -0.007806 0.054728 -0.020545 0.000000 0.008260 0.000000
# 3 -0.019974 -0.020545 0.070074 0.000000 -0.038453 0.000000
# 4 0.000000 0.000000 0.000000 0.044717 0.000000 -0.002340
# 5 0.006291 0.008260 -0.038453 0.000000 0.065079 0.000000
# 6 0.000000 0.000000 0.000000 -0.002340 0.000000 0.028971
#
#
# Mechanical properties :
#
#
# Convention : Reuss Voigt Hill
#
# Bulk Modulus (GPa) = 22.93482 69.77217 46.35349
# Shear Modulus (GPa) = 12.81388 24.45734 18.63561
#
# Velocity S-wave (km/s) = 2.73929 3.78444 3.30346
# Velocity P-wave (km/s) = 4.84101 7.74300 6.45714
#
# Compressibility (1/GPa) = 0.04360183
#
# Stress axis : x y z
#
# Youngs Moduli (GPa) = 64.72565 18.27233 14.27057
#
# Poissons Ratio (x) = 0.14263 0.28504
# Poissons Ratio (y) = 0.50524 0.29319
# Poissons Ratio (z) = 1.29284 0.37540
#
# Static dielectric constant tensor:
#      x y z
#    x 1.604740 0.000000 0.018520 
#    y 0.000000 1.574310 0.000000 
#    z 0.018520 0.000000 1.563160 
# 
# From -- ./inp_files/66435.got.cif
#   From: 2010.05.17/outbox.cif.g08.bks.cpg/sg11_34_cif.got.tgz:66435.got - 2010.06.03 12:22:45.
