data_PCOD9162457
_publ_section_title
;
Structure prediction by ZEFSAII (Michael W. Deem and Ramdas Pophale) SiO2 
 PCOD9162457
Probable space group: P 21/M
;
_chemical_formula_sum "Si O2"
_cell_formula_units_Z 32
_cell_length_a 14.841775
_cell_length_b 7.629580
_cell_length_c 23.713982
_cell_angle_alpha 90.000000
_cell_angle_beta 147.663110
_cell_angle_gamma 90.000000
_cell_volume 1436.351347
_symmetry_space_group_name_H-M "P 21/M"
_symmetry_group_IT_number 11
_symmetry_cell_setting 'monoclinic'
loop_
_space_group_symop_operation_xyz
x,y,z
-x,1/2+y,-z
-x,-y,-z
x,1/2-y,z
loop_
_atom_site_type_symbol
_atom_site_label
_atom_site_fract_x
_atom_site_fract_y
_atom_site_fract_z
Si Si1 0.730931 0.544409 0.502937
Si Si2 0.412288 0.540128 0.394264
Si Si3 0.942384 0.458376 0.262226
Si Si4 0.582027 0.460641 0.103634
Si Si5 0.873694 0.960299 0.984280
Si Si6 0.510828 0.535474 0.823015
Si Si7 0.810268 0.458751 0.417788
Si Si8 0.969270 0.462379 0.815013
O O1 0.721204 0.750000 0.512889
O O2 0.546355 0.471731 0.419462
O O3 0.776912 0.528826 0.462445
O O4 0.882968 0.467481 0.620774
O O5 0.500000 0.500000 0.500000
O O6 0.394684 0.750000 0.379153
O O7 0.223013 0.471132 0.290861
O O8 0.944712 0.250000 0.274421
O O9 0.774315 0.528102 0.202822
O O10 0.936044 0.485424 0.191967
O O11 0.587802 0.250000 0.110787
O O12 0.489069 0.521123 0.111295
O O13 0.500000 0.500000 0.000000
O O14 0.866508 0.750000 0.983438
O O15 0.679464 0.022251 0.879319
O O16 0.948820 0.023909 0.083559
O O17 0.000000 0.000000 0.000000
O O18 0.510650 0.750000 0.822543
O O19 0.337085 0.477396 0.701954
O O20 0.795086 0.250000 0.412034
O O21 0.000000 0.500000 0.500000
O O22 0.969822 0.250000 0.816263
#
# Coordination Sequence:
#
# PCOD9162457 Si02
#       8
#     4   4   4   4   4   4   4   4
#     4  10  21  37  57  83 116 151 189 233 286 340
#     4  10  20  35  56  84 117 153 189 233 287 341
#     4  10  20  35  57  84 113 149 185 225 281 345
#     4  10  20  36  59  83 109 142 183 228 279 336
#     4  10  22  40  60  83 112 151 195 239 288 338
#     4   9  20  40  61  81 113 155 191 227 282 349
#     4  11  23  40  62  87 115 153 197 239 288 345
#     4  10  21  36  57  84 115 149 190 238 286 333
#
# _framework density 22.278673000000001
#
# number of rings (size 3 to 8) (size 9 to 14) (size 15 to 20)
#    0.000    2.000    1.250    1.875    1.750    5.000 
#    0.000    3.750    0.000    0.000    0.000    0.000 
#    0.000    0.000    0.000    0.000    0.000    0.000 
#
# Total GULP energy -178766.030484 kJ/mol
# GULP energy per Si atom -5586.438453 kJ/mol
# Density = 2.222797 g / cm^3
# Si number density = 22.278673 Si / 1000 Ang^3
#
#
#
# Elastic Constant Matrix: (Units=GPa)
#
#
# Indices 1 2 3 4 5 6 
#
# 1 150.4871 -15.8970 45.4823 0.0000 20.0764 0.0000
# 2 -15.8970 40.1400 -2.2361 0.0000 8.7693 0.0000
# 3 45.4823 -2.2361 111.6705 0.0000 12.8582 0.0000
# 4 0.0000 0.0000 0.0000 13.9958 0.0000 -6.4438
# 5 20.0764 8.7693 12.8582 0.0000 42.5402 0.0000
# 6 0.0000 0.0000 0.0000 -6.4438 0.0000 25.8876
#
#
#
# Elastic Compliance Matrix: (Units=1/GPa)
#
#
# Indices 1 2 3 4 5 6 
#
# 1 0.008485 0.004063 -0.002918 0.000000 -0.003960 0.000000
# 2 0.004063 0.028185 -0.000208 0.000000 -0.007665 0.000000
# 3 -0.002918 -0.000208 0.010336 0.000000 -0.001704 0.000000
# 4 0.000000 0.000000 0.000000 0.080698 0.000000 0.020087
# 5 -0.003960 -0.007665 -0.001704 0.000000 0.027471 0.000000
# 6 0.000000 0.000000 0.000000 0.020087 0.000000 0.043629
#
#
# Mechanical properties :
#
#
# Convention : Reuss Voigt Hill
#
# Bulk Modulus (GPa) = 20.45919 39.66623 30.06271
# Shear Modulus (GPa) = 23.44975 34.81461 29.13218
#
# Velocity S-wave (km/s) = 3.24785 3.95737 3.62003
# Velocity P-wave (km/s) = 4.82368 6.22288 5.56741
#
# Compressibility (1/GPa) = 0.04887779
#
# Stress axis : x y z
#
# Youngs Moduli (GPa) = 117.86141 35.48025 96.75309
#
# Poissons Ratio (x) = -0.14414 0.28236
# Poissons Ratio (y) = -0.47883 0.02010
# Poissons Ratio (z) = 0.34397 0.00737
#
# Static dielectric constant tensor:
#      x y z
#    x 1.787000 0.000000 0.039380 
#    y 0.000000 1.851130 0.000000 
#    z 0.039380 0.000000 1.833040 
# 
# From -- ./inp_files/69066.got.cif
#   From: 2010.05.17/outbox.cif.g08.bks.cpg/sg11_35_cif.got.tgz:69066.got - 2010.06.03 12:22:45.
