data_PCOD9162562
_publ_section_title
;
Structure prediction by ZEFSAII (Michael W. Deem and Ramdas Pophale) SiO2 
 PCOD9162562
Probable space group: P 21/M
;
_chemical_formula_sum "Si O2"
_cell_formula_units_Z 24
_cell_length_a 8.000663
_cell_length_b 8.968909
_cell_length_c 15.870041
_cell_angle_alpha 90.000000
_cell_angle_beta 72.702924
_cell_angle_gamma 90.000000
_cell_volume 1087.289330
_symmetry_space_group_name_H-M "P 21/M"
_symmetry_group_IT_number 11
_symmetry_cell_setting 'monoclinic'
loop_
_space_group_symop_operation_xyz
x,y,z
-x,1/2+y,-z
-x,-y,-z
x,1/2-y,z
loop_
_atom_site_type_symbol
_atom_site_label
_atom_site_fract_x
_atom_site_fract_y
_atom_site_fract_z
Si Si1 0.352172 0.425565 0.795275
Si Si2 0.008542 0.428910 0.404895
Si Si3 0.377484 0.571013 0.090203
Si Si4 0.008993 0.069436 0.093258
Si Si5 0.634800 0.584719 0.669751
Si Si6 0.676947 0.913694 0.466182
O O1 0.314158 0.250000 0.799665
O O2 0.502519 0.453320 0.844603
O O3 0.173357 0.515191 0.837148
O O4 0.466274 0.482639 0.699636
O O5 0.996860 0.250000 0.408258
O O6 0.828387 0.495825 0.397493
O O7 0.000000 0.500000 0.500000
O O8 0.178427 0.475777 0.324914
O O9 0.357290 0.750000 0.082454
O O10 0.186144 0.494368 0.110571
O O11 0.500000 0.500000 0.000000
O O12 0.017143 0.250000 0.088809
O O13 0.000000 0.000000 0.000000
O O14 0.595190 0.750000 0.710296
O O15 0.699662 0.604550 0.564263
O O16 0.663923 0.750000 0.431259
O O17 0.500000 0.000000 0.500000
#
# Coordination Sequence:
#
# PCOD9162562 Si02
#       6
#     4   4   4   4   4   4
#     4  11  24  41  63  91 124 160 203 256 310 364
#     4   9  17  32  55  80 107 144 186 229 277 341
#     4  11  23  40  64  92 122 160 207 253 303 364
#     4  12  24  40  65  92 123 162 205 254 305 364
#     4   9  20  38  58  83 116 153 192 237 297 357
#     4  10  20  35  57  85 115 151 195 241 290 351
#
# _framework density 22.073239999999998
#
# number of rings (size 3 to 8) (size 9 to 14) (size 15 to 20)
#    0.000    1.667    1.667    4.500    0.000    6.000 
#    3.000    0.000    0.000    0.000    0.000    0.000 
#    0.000    0.000    0.000    0.000    0.000    0.000 
#
# Total GULP energy -133688.326204 kJ/mol
# GULP energy per Si atom -5570.346925 kJ/mol
# Density = 2.202300 g / cm^3
# Si number density = 22.073240 Si / 1000 Ang^3
#
#
#
# Elastic Constant Matrix: (Units=GPa)
#
#
# Indices 1 2 3 4 5 6 
#
# 1 147.9823 82.0834 42.7597 0.0000 -50.1353 0.0000
# 2 82.0834 151.0370 34.8769 0.0000 -37.1545 0.0000
# 3 42.7597 34.8769 64.3662 0.0000 -31.7844 0.0000
# 4 0.0000 0.0000 0.0000 24.4077 0.0000 -12.6262
# 5 -50.1353 -37.1545 -31.7844 0.0000 49.7237 0.0000
# 6 0.0000 0.0000 0.0000 -12.6262 0.0000 43.9915
#
#
#
# Elastic Compliance Matrix: (Units=1/GPa)
#
#
# Indices 1 2 3 4 5 6 
#
# 1 0.012462 -0.004336 -0.001935 0.000000 0.008088 0.000000
# 2 -0.004336 0.009810 -0.001424 0.000000 0.002048 0.000000
# 3 -0.001935 -0.001424 0.023532 0.000000 0.012027 0.000000
# 4 0.000000 0.000000 0.000000 0.048114 0.000000 0.013810
# 5 0.008088 0.002048 0.012027 0.000000 0.037485 0.000000
# 6 0.000000 0.000000 0.000000 0.013810 0.000000 0.026695
#
#
# Mechanical properties :
#
#
# Convention : Reuss Voigt Hill
#
# Bulk Modulus (GPa) = 32.87919 75.86951 54.37435
# Shear Modulus (GPa) = 27.22907 37.20226 32.21567
#
# Velocity S-wave (km/s) = 3.51604 4.10982 3.82447
# Velocity P-wave (km/s) = 5.60457 7.54766 6.64750
#
# Compressibility (1/GPa) = 0.03041437
#
# Stress axis : x y z
#
# Youngs Moduli (GPa) = 80.24240 101.93620 42.49482
#
# Poissons Ratio (x) = 0.44202 0.08224
# Poissons Ratio (y) = 0.34795 0.06049
# Poissons Ratio (z) = 0.15529 0.14511
#
# Static dielectric constant tensor:
#      x y z
#    x 2.287930 0.000000 0.181820 
#    y 0.000000 1.833040 0.000000 
#    z 0.181820 0.000000 1.952410 
# 
# From -- ./inp_files/63038.got.cif
#   From: 2010.05.17/outbox.cif.g08.bks.cpg/sg11_32_cif.got.tgz:63038.got - 2010.06.03 12:22:45.
