data_PCOD9162980
_publ_section_title
;
Structure prediction by ZEFSAII (Michael W. Deem and Ramdas Pophale) SiO2 
 PCOD9162980
Probable space group: P 21/M
;
_chemical_formula_sum "Si O2"
_cell_formula_units_Z 32
_cell_length_a 17.021651
_cell_length_b 17.549082
_cell_length_c 5.178858
_cell_angle_alpha 90.000000
_cell_angle_beta 98.309585
_cell_angle_gamma 90.000000
_cell_volume 1530.758221
_symmetry_space_group_name_H-M "P 21/M"
_symmetry_group_IT_number 11
_symmetry_cell_setting 'monoclinic'
loop_
_space_group_symop_operation_xyz
x,y,z
-x,1/2+y,-z
-x,-y,-z
x,1/2-y,z
loop_
_atom_site_type_symbol
_atom_site_label
_atom_site_fract_x
_atom_site_fract_y
_atom_site_fract_z
Si Si1 0.819800 0.433946 0.465926
Si Si2 0.671438 0.338266 0.254059
Si Si3 0.488848 0.162518 0.261169
Si Si4 0.005329 0.592653 0.509889
Si Si5 0.791933 0.967180 0.940705
Si Si6 0.541049 0.931079 0.274194
Si Si7 0.083695 0.341388 0.032056
Si Si8 0.371646 0.524183 0.068486
O O1 0.743796 0.378539 0.435435
O O2 0.900960 0.390087 0.444387
O O3 0.829161 0.478878 0.738357
O O4 0.806745 0.494893 0.228059
O O5 0.688172 0.250000 0.206390
O O6 0.584630 0.341194 0.345966
O O7 0.660177 0.390599 0.993612
O O8 0.466166 0.250000 0.240419
O O9 0.446029 0.120568 0.474412
O O10 0.470222 0.123195 0.980970
O O11 0.000000 0.500000 0.500000
O O12 0.961806 0.626909 0.738050
O O13 0.964508 0.628619 0.239357
O O14 0.831741 0.884946 0.940882
O O15 0.697599 0.972719 0.851821
O O16 0.605802 0.990924 0.204984
O O17 0.454936 0.971864 0.255344
O O18 0.089770 0.250000 0.038530
#
# Coordination Sequence:
#
# PCOD9162980 Si02
#       8
#     4   4   4   4   4   4   4   4
#     4  11  22  37  65  87 118 156 203 239 291 372
#     4   9  20  37  57  87 120 151 190 244 307 360
#     4  10  20  36  57  82 118 155 189 241 303 352
#     4  12  22  42  67  93 122 166 209 245 307 369
#     4  11  21  40  61  88 116 161 202 242 297 360
#     4  10  20  36  58  88 116 150 204 243 289 352
#     4  12  25  41  63  93 126 161 206 260 305 353
#     4   9  21  36  61  86 117 158 199 246 290 359
#
# _framework density 20.904671
#
# number of rings (size 3 to 8) (size 9 to 14) (size 15 to 20)
#    0.000    1.500    2.500    2.625    0.000    8.000 
#    0.000    6.250    0.000    0.750    0.000    0.000 
#    0.000    0.000    0.000    0.000    0.000    0.000 
#
# Total GULP energy -178890.209222 kJ/mol
# GULP energy per Si atom -5590.319038 kJ/mol
# Density = 2.085709 g / cm^3
# Si number density = 20.904671 Si / 1000 Ang^3
#
#
#
# Elastic Constant Matrix: (Units=GPa)
#
#
# Indices 1 2 3 4 5 6 
#
# 1 77.0592 39.5804 17.4143 0.0000 -7.8133 0.0000
# 2 39.5804 185.6919 50.3454 0.0000 -4.2385 0.0000
# 3 17.4143 50.3454 106.2301 0.0000 -11.1943 0.0000
# 4 0.0000 0.0000 0.0000 21.7916 0.0000 -0.0612
# 5 -7.8133 -4.2385 -11.1943 0.0000 25.6264 0.0000
# 6 0.0000 0.0000 0.0000 -0.0612 0.0000 34.6276
#
#
#
# Elastic Compliance Matrix: (Units=1/GPa)
#
#
# Indices 1 2 3 4 5 6 
#
# 1 0.015021 -0.002933 -0.000672 0.000000 0.003801 0.000000
# 2 -0.002933 0.006754 -0.002827 0.000000 -0.001012 0.000000
# 3 -0.000672 -0.002827 0.011313 0.000000 0.004270 0.000000
# 4 0.000000 0.000000 0.000000 0.045890 0.000000 0.000081
# 5 0.003801 -0.001012 0.004270 0.000000 0.041879 0.000000
# 6 0.000000 0.000000 0.000000 0.000081 0.000000 0.028879
#
#
# Mechanical properties :
#
#
# Convention : Reuss Voigt Hill
#
# Bulk Modulus (GPa) = 49.44368 64.85128 57.14748
# Shear Modulus (GPa) = 29.52660 33.85186 31.68923
#
# Velocity S-wave (km/s) = 3.76232 4.02847 3.89767
# Velocity P-wave (km/s) = 6.52509 7.26140 6.90306
#
# Compressibility (1/GPa) = 0.02022503
#
# Stress axis : x y z
#
# Youngs Moduli (GPa) = 66.57508 148.06824 88.39244
#
# Poissons Ratio (x) = 0.43425 0.05939
# Poissons Ratio (y) = 0.19525 0.24985
# Poissons Ratio (z) = 0.04473 0.41853
#
# Static dielectric constant tensor:
#      x y z
#    x 1.775890 0.000000 0.004780 
#    y 0.000000 1.749720 0.000000 
#    z 0.004780 0.000000 1.772220 
# 
# From -- ./inp_files/8097.got.cif
#   From: 2010.05.17/outbox.cif.g08.bks.cpg/sg11_5_cif.got.tgz:8097.got - 2010.06.03 12:22:45.
