data_PCOD9162078
_publ_section_title
;
Structure prediction by ZEFSAII (Michael W. Deem and Ramdas Pophale) SiO2 
 PCOD9162078
Probable space group: P 21/M
;
_chemical_formula_sum "Si O2"
_cell_formula_units_Z 32
_cell_length_a 20.495855
_cell_length_b 8.892517
_cell_length_c 26.452735
_cell_angle_alpha 90.000000
_cell_angle_beta 21.420377
_cell_angle_gamma 90.000000
_cell_volume 1760.765311
_symmetry_space_group_name_H-M "P 21/M"
_symmetry_group_IT_number 11
_symmetry_cell_setting 'monoclinic'
loop_
_space_group_symop_operation_xyz
x,y,z
-x,1/2+y,-z
-x,-y,-z
x,1/2-y,z
loop_
_atom_site_type_symbol
_atom_site_label
_atom_site_fract_x
_atom_site_fract_y
_atom_site_fract_z
Si Si1 0.613153 0.569236 0.098374
Si Si2 0.809368 0.930487 0.151628
Si Si3 0.503281 0.570823 0.918199
Si Si4 0.213394 0.429256 0.202198
Si Si5 0.315209 0.569895 0.652734
Si Si6 0.022298 0.929651 0.777696
Si Si7 0.497289 0.430702 0.708497
Si Si8 0.129454 0.428769 0.593711
O O1 0.597689 0.750000 0.104722
O O2 0.500384 0.491088 0.135667
O O3 0.552985 0.527041 0.197981
O O4 0.821329 0.530362 0.939151
O O5 0.823632 0.750000 0.145050
O O6 0.665607 0.966037 0.211649
O O7 0.740384 0.998035 0.254022
O O8 0.000000 0.000000 0.000000
O O9 0.475119 0.750000 0.939155
O O10 0.682996 0.538394 0.820282
O O11 0.342429 0.492244 0.065031
O O12 0.197454 0.250000 0.207872
O O13 0.022058 0.504781 0.333957
O O14 0.500000 0.500000 0.500000
O O15 0.332551 0.750000 0.645417
O O16 0.161160 0.539727 0.722496
O O17 0.026127 0.750000 0.764817
O O18 0.078819 0.014084 0.686241
O O19 0.523441 0.250000 0.688025
O O20 0.677081 0.509590 0.560688
O O21 0.126200 0.250000 0.594589
#
# Coordination Sequence:
#
# PCOD9162078 Si02
#       8
#     4   4   4   4   4   4   4   4
#     4  10  20  37  61  85 111 152 197 237 289 348
#     4  11  23  41  64  88 116 156 202 247 297 356
#     4  10  20  34  57  90 120 148 191 244 289 334
#     4  10  20  36  58  84 119 159 192 230 288 352
#     4  11  23  39  59  86 119 154 196 244 297 357
#     4  10  21  38  60  84 114 153 192 236 293 357
#     4  10  23  42  61  83 117 161 199 234 291 361
#     4  12  24  37  58  90 120 152 197 247 293 340
#
# _framework density 18.173915999999998
#
# number of rings (size 3 to 8) (size 9 to 14) (size 15 to 20)
#    0.000    1.500    1.250    4.125    0.000    9.000 
#    0.000    1.875    0.000    0.000    0.000    0.000 
#    0.000    0.000    0.000    0.000    0.000    0.000 
#
# Total GULP energy -178888.887583 kJ/mol
# GULP energy per Si atom -5590.277737 kJ/mol
# Density = 1.813255 g / cm^3
# Si number density = 18.173916 Si / 1000 Ang^3
#
#
#
# Elastic Constant Matrix: (Units=GPa)
#
#
# Indices 1 2 3 4 5 6 
#
# 1 157.9542 78.6631 90.0506 0.0000 -3.5444 0.0000
# 2 78.6631 70.2991 67.7664 0.0000 -3.7984 0.0000
# 3 90.0506 67.7664 135.7990 0.0000 7.5124 0.0000
# 4 0.0000 0.0000 0.0000 19.6540 0.0000 -5.5882
# 5 -3.5444 -3.7984 7.5124 0.0000 27.9352 0.0000
# 6 0.0000 0.0000 0.0000 -5.5882 0.0000 32.5260
#
#
#
# Elastic Compliance Matrix: (Units=1/GPa)
#
#
# Indices 1 2 3 4 5 6 
#
# 1 0.014932 -0.013620 -0.003155 0.000000 0.000891 0.000000
# 2 -0.013620 0.041482 -0.012065 0.000000 0.007157 0.000000
# 3 -0.003155 -0.012065 0.015825 0.000000 -0.006296 0.000000
# 4 0.000000 0.000000 0.000000 0.053493 0.000000 0.009191
# 5 0.000891 0.007157 -0.006296 0.000000 0.038577 0.000000
# 6 0.000000 0.000000 0.000000 0.009191 0.000000 0.032324
#
#
# Mechanical properties :
#
#
# Convention : Reuss Voigt Hill
#
# Bulk Modulus (GPa) = 68.67874 93.00138 80.84006
# Shear Modulus (GPa) = 19.29285 24.52785 21.91035
#
# Velocity S-wave (km/s) = 3.26171 3.67770 3.47593
# Velocity P-wave (km/s) = 7.21504 8.32575 7.79021
#
# Compressibility (1/GPa) = 0.01456055
#
# Stress axis : x y z
#
# Youngs Moduli (GPa) = 66.96973 24.10700 63.19312
#
# Poissons Ratio (x) = 0.32833 0.19935
# Poissons Ratio (y) = 0.91210 0.76241
# Poissons Ratio (z) = 0.21126 0.29084
#
# Static dielectric constant tensor:
#      x y z
#    x 1.615320 0.000000 -0.013060 
#    y 0.000000 1.607030 0.000000 
#    z -0.013060 0.000000 1.586880 
# 
# From -- ./inp_files/72025.got.cif
#   From: 2010.05.17/outbox.cif.g08.bks.cpg/sg11_37_cif.got.tgz:72025.got - 2010.06.03 12:22:45.
