data_PCOD9162839
_publ_section_title
;
Structure prediction by ZEFSAII (Michael W. Deem and Ramdas Pophale) SiO2 
 PCOD9162839
Probable space group: P 21/M
;
_chemical_formula_sum "Si O2"
_cell_formula_units_Z 28
_cell_length_a 12.675028
_cell_length_b 12.536128
_cell_length_c 9.559415
_cell_angle_alpha 90.000000
_cell_angle_beta 54.010347
_cell_angle_gamma 90.000000
_cell_volume 1229.018094
_symmetry_space_group_name_H-M "P 21/M"
_symmetry_group_IT_number 11
_symmetry_cell_setting 'monoclinic'
loop_
_space_group_symop_operation_xyz
x,y,z
-x,1/2+y,-z
-x,-y,-z
x,1/2-y,z
loop_
_atom_site_type_symbol
_atom_site_label
_atom_site_fract_x
_atom_site_fract_y
_atom_site_fract_z
Si Si1 0.556609 0.370271 0.501566
Si Si2 0.798739 0.631099 0.894111
Si Si3 0.870734 0.875468 0.545676
Si Si4 0.483110 0.368477 0.027805
Si Si5 0.599515 0.568077 0.625830
Si Si6 0.969541 0.868603 0.185159
Si Si7 0.198361 0.966296 0.855147
O O1 0.577167 0.250000 0.526346
O O2 0.552530 0.446989 0.638452
O O3 0.427966 0.381704 0.505244
O O4 0.675257 0.413823 0.312858
O O5 0.840214 0.750000 0.909527
O O6 0.890092 0.594392 0.692302
O O7 0.658494 0.640228 0.931154
O O8 0.784242 0.549136 0.031066
O O9 0.836213 0.750000 0.580900
O O10 0.745240 0.930777 0.572628
O O11 0.982915 0.882087 0.342117
O O12 0.547036 0.250000 0.938116
O O13 0.481563 0.367352 0.197618
O O14 0.500000 0.500000 0.000000
O O15 0.912089 0.750000 0.208902
O O16 0.879849 0.963838 0.197867
O O17 0.102357 0.878622 0.995639
#
# Coordination Sequence:
#
# PCOD9162839 Si02
#       7
#     4   4   4   4   4   4   4
#     4  11  22  35  54  82 116 149 188 240 291 343
#     4   9  19  34  55  82 112 145 190 242 286 340
#     4   9  17  35  58  80 108 145 186 227 277 342
#     4  10  20  36  58  84 118 158 197 239 292 349
#     4  10  20  36  55  81 112 154 192 230 284 347
#     4  10  21  36  57  79 108 148 189 233 287 349
#     4  11  21  36  55  84 112 144 188 239 291 340
#
# _framework density 22.782416000000001
#
# number of rings (size 3 to 8) (size 9 to 14) (size 15 to 20)
#    0.000    2.000    1.429    3.857    0.000    1.143 
#    0.000    2.857    0.000    1.714    0.000    0.000 
#    0.000    0.000    0.000    0.000    0.000    0.000 
#
# Total GULP energy -155893.931878 kJ/mol
# GULP energy per Si atom -5567.640424 kJ/mol
# Density = 2.273056 g / cm^3
# Si number density = 22.782416 Si / 1000 Ang^3
#
#
#
# Elastic Constant Matrix: (Units=GPa)
#
#
# Indices 1 2 3 4 5 6 
#
# 1 14.3353 12.6938 -0.2566 0.0000 7.5922 0.0000
# 2 12.6938 176.4733 30.3843 0.0000 11.6607 0.0000
# 3 -0.2566 30.3843 68.3979 0.0000 5.4283 0.0000
# 4 0.0000 0.0000 0.0000 64.7972 0.0000 -49.2322
# 5 7.5922 11.6607 5.4283 0.0000 25.8193 0.0000
# 6 0.0000 0.0000 0.0000 -49.2322 0.0000 121.3256
#
#
#
# Elastic Compliance Matrix: (Units=1/GPa)
#
#
# Indices 1 2 3 4 5 6 
#
# 1 0.087558 -0.005505 0.004698 0.000000 -0.024248 0.000000
# 2 -0.005505 0.006612 -0.002898 0.000000 -0.000758 0.000000
# 3 0.004698 -0.002898 0.016201 0.000000 -0.003479 0.000000
# 4 0.000000 0.000000 0.000000 0.022312 0.000000 0.009054
# 5 -0.024248 -0.000758 -0.003479 0.000000 0.046935 0.000000
# 6 0.000000 0.000000 0.000000 0.009054 0.000000 0.011916
#
#
# Mechanical properties :
#
#
# Convention : Reuss Voigt Hill
#
# Bulk Modulus (GPa) = 9.71223 38.31660 24.01441
# Shear Modulus (GPa) = 21.43506 56.81408 39.12457
#
# Velocity S-wave (km/s) = 3.07067 4.99918 4.14854
# Velocity P-wave (km/s) = 4.10418 7.08360 5.78886
#
# Compressibility (1/GPa) = 0.10296298
#
# Stress axis : x y z
#
# Youngs Moduli (GPa) = 11.42096 151.25137 61.72375
#
# Poissons Ratio (x) = 0.83260 -0.28999
# Poissons Ratio (y) = 0.06287 0.17884
# Poissons Ratio (z) = -0.05366 0.43825
#
# Static dielectric constant tensor:
#      x y z
#    x 1.831190 0.000000 -0.021610 
#    y 0.000000 1.934620 0.000000 
#    z -0.021610 0.000000 1.938690 
# 
# From -- ./inp_files/21436.got.cif
#   From: 2010.05.17/outbox.cif.g08.bks.cpg/sg11_11_cif.got.tgz:21436.got - 2010.06.03 12:22:45.
