data_PCOD9162633
_publ_section_title
;
Structure prediction by ZEFSAII (Michael W. Deem and Ramdas Pophale) SiO2 
 PCOD9162633
Probable space group: P 21/M
;
_chemical_formula_sum "Si O2"
_cell_formula_units_Z 32
_cell_length_a 12.422469
_cell_length_b 8.646197
_cell_length_c 32.194100
_cell_angle_alpha 90.000000
_cell_angle_beta 29.836267
_cell_angle_gamma 90.000000
_cell_volume 1720.373009
_symmetry_space_group_name_H-M "P 21/M"
_symmetry_group_IT_number 11
_symmetry_cell_setting 'monoclinic'
loop_
_space_group_symop_operation_xyz
x,y,z
-x,1/2+y,-z
-x,-y,-z
x,1/2-y,z
loop_
_atom_site_type_symbol
_atom_site_label
_atom_site_fract_x
_atom_site_fract_y
_atom_site_fract_z
Si Si1 0.195341 0.935195 0.406852
Si Si2 0.314725 0.064000 0.747952
Si Si3 0.142449 0.564956 0.891875
Si Si4 0.832333 0.563018 0.291546
Si Si5 0.563540 0.934540 0.523850
Si Si6 0.963078 0.565588 0.625505
Si Si7 0.314403 0.063706 0.918763
Si Si8 0.203701 0.563183 0.230877
O O1 0.182254 0.750000 0.411912
O O2 0.433966 0.981920 0.342718
O O3 0.168496 0.994174 0.368764
O O4 0.000000 0.000000 0.500000
O O5 0.311836 0.250000 0.752850
O O6 0.174281 0.021311 0.754676
O O7 0.225393 0.993898 0.820178
O O8 0.150429 0.750000 0.890141
O O9 0.284674 0.500667 0.882301
O O10 0.895515 0.514133 0.984665
O O11 0.807589 0.750000 0.302873
O O12 0.627420 0.484245 0.381716
O O13 0.045022 0.519138 0.246397
O O14 0.586220 0.750000 0.514199
O O15 0.500000 0.000000 0.500000
O O16 0.789776 0.009351 0.461479
O O17 0.952338 0.750000 0.627267
O O18 0.879462 0.507138 0.698039
O O19 0.309534 0.250000 0.918157
O O20 0.546815 0.017178 0.858802
O O21 0.194413 0.750000 0.237843
#
# Coordination Sequence:
#
# PCOD9162633 Si02
#       8
#     4   4   4   4   4   4   4   4
#     4  11  23  39  58  82 114 150 189 236 289 342
#     4  10  22  39  58  81 113 152 190 230 282 344
#     4  10  20  35  58  86 113 146 187 232 282 339
#     4  10  21  38  59  82 111 150 195 237 282 340
#     4  12  23  37  57  82 113 150 191 236 284 333
#     4  12  24  37  56  83 115 148 190 238 285 340
#     4   9  19  36  58  85 115 145 182 231 288 344
#     4  10  20  36  58  82 111 146 185 234 289 340
#
# _framework density 18.600618000000001
#
# number of rings (size 3 to 8) (size 9 to 14) (size 15 to 20)
#    0.000    1.500    1.250    4.500    0.000    6.500 
#    0.000    0.625    0.000    0.000    0.000    0.000 
#    0.000    0.000    0.000    0.000    0.000    0.000 
#
# Total GULP energy -178843.461488 kJ/mol
# GULP energy per Si atom -5588.858172 kJ/mol
# Density = 1.855828 g / cm^3
# Si number density = 18.600618 Si / 1000 Ang^3
#
#
#
# Elastic Constant Matrix: (Units=GPa)
#
#
# Indices 1 2 3 4 5 6 
#
# 1 133.1365 31.9463 62.5561 0.0000 -6.8759 0.0000
# 2 31.9463 32.3327 25.9391 0.0000 -2.5028 0.0000
# 3 62.5561 25.9391 100.0970 0.0000 -2.6835 0.0000
# 4 0.0000 0.0000 0.0000 27.6220 0.0000 3.4821
# 5 -6.8759 -2.5028 -2.6835 0.0000 35.0396 0.0000
# 6 0.0000 0.0000 0.0000 3.4821 0.0000 21.5239
#
#
#
# Elastic Compliance Matrix: (Units=1/GPa)
#
#
# Indices 1 2 3 4 5 6 
#
# 1 0.011920 -0.007225 -0.005540 0.000000 0.001399 0.000000
# 2 -0.007225 0.043568 -0.006743 0.000000 0.001178 0.000000
# 3 -0.005540 -0.006743 0.015189 0.000000 -0.000405 0.000000
# 4 0.000000 0.000000 0.000000 0.036957 0.000000 -0.005979
# 5 0.001399 0.001178 -0.000405 0.000000 0.028867 0.000000
# 6 0.000000 0.000000 0.000000 -0.005979 0.000000 0.047427
#
#
# Mechanical properties :
#
#
# Convention : Reuss Voigt Hill
#
# Bulk Modulus (GPa) = 31.58453 56.27212 43.92832
# Shear Modulus (GPa) = 21.41354 26.51207 23.96281
#
# Velocity S-wave (km/s) = 3.39666 3.77945 3.59316
# Velocity P-wave (km/s) = 5.69212 7.02597 6.39392
#
# Compressibility (1/GPa) = 0.03166107
#
# Stress axis : x y z
#
# Youngs Moduli (GPa) = 83.89403 22.95252 65.83756
#
# Poissons Ratio (x) = 0.16583 0.36471
# Poissons Ratio (y) = 0.60613 0.44397
# Poissons Ratio (z) = 0.46474 0.15478
#
# Static dielectric constant tensor:
#      x y z
#    x 1.620440 0.000000 -0.021300 
#    y 0.000000 1.627960 0.000000 
#    z -0.021300 0.000000 1.634880 
# 
# From -- ./inp_files/45193.got.cif
#   From: 2010.05.17/outbox.cif.g08.bks.cpg/sg11_23_cif.got.tgz:45193.got - 2010.06.03 12:22:45.
