data_PCOD9162824
_publ_section_title
;
Structure prediction by ZEFSAII (Michael W. Deem and Ramdas Pophale) SiO2 
 PCOD9162824
Probable space group: P 21/M
;
_chemical_formula_sum "Si O2"
_cell_formula_units_Z 28
_cell_length_a 12.935700
_cell_length_b 8.077525
_cell_length_c 16.455713
_cell_angle_alpha 90.000000
_cell_angle_beta 124.001377
_cell_angle_gamma 90.000000
_cell_volume 1425.450443
_symmetry_space_group_name_H-M "P 21/M"
_symmetry_group_IT_number 11
_symmetry_cell_setting 'monoclinic'
loop_
_space_group_symop_operation_xyz
x,y,z
-x,1/2+y,-z
-x,-y,-z
x,1/2-y,z
loop_
_atom_site_type_symbol
_atom_site_label
_atom_site_fract_x
_atom_site_fract_y
_atom_site_fract_z
Si Si1 0.046363 0.942721 0.724802
Si Si2 0.743583 0.047882 0.296646
Si Si3 0.204383 0.054602 0.082074
Si Si4 0.161002 0.556080 0.485936
Si Si5 0.523439 0.548672 0.763398
Si Si6 0.981634 0.055419 0.871983
Si Si7 0.574250 0.945650 0.453129
O O1 0.060887 0.750000 0.751729
O O2 0.176617 0.008011 0.745328
O O3 0.945951 0.961420 0.608818
O O4 0.997798 0.031249 0.783771
O O5 0.745909 0.250000 0.297758
O O6 0.811768 0.996233 0.410391
O O7 0.599614 0.996649 0.240644
O O8 0.215327 0.250000 0.070807
O O9 0.344387 0.987010 0.144896
O O10 0.138033 0.029289 0.139967
O O11 0.105016 0.988261 0.972780
O O12 0.128186 0.750000 0.474289
O O13 0.292380 0.534613 0.497228
O O14 0.524603 0.750000 0.762552
O O15 0.502011 0.490133 0.661805
O O16 0.970280 0.250000 0.885311
O O17 0.596624 0.750000 0.465344
O O18 0.500000 0.000000 0.500000
#
# Coordination Sequence:
#
# PCOD9162824 Si02
#       7
#     4   4   4   4   4   4   4
#     4  11  21  34  54  80 110 144 182 221 270 325
#     4   8  17  34  55  79 107 141 179 222 268 321
#     4   9  19  37  60  80 104 139 179 224 276 327
#     4  10  20  36  55  77 106 143 184 225 268 312
#     4   9  18  36  59  79 103 138 180 224 273 320
#     4  10  21  36  54  80 110 140 178 225 272 322
#     4  11  22  35  51  77 111 144 178 218 263 320
#
# _framework density 19.642914999999999
#
# number of rings (size 3 to 8) (size 9 to 14) (size 15 to 20)
#    0.000    2.286    0.000    3.857    2.000    1.143 
#    0.000    7.143    0.000    0.000    0.000    0.000 
#    0.000    0.000    0.000    0.000    0.000    0.000 
#
# Total GULP energy -156279.261161 kJ/mol
# GULP energy per Si atom -5581.402184 kJ/mol
# Density = 1.959821 g / cm^3
# Si number density = 19.642915 Si / 1000 Ang^3
#
#
#
# Elastic Constant Matrix: (Units=GPa)
#
#
# Indices 1 2 3 4 5 6 
#
# 1 62.0155 -17.4936 31.0287 0.0000 8.1619 0.0000
# 2 -17.4936 23.8019 -3.9419 0.0000 0.5468 0.0000
# 3 31.0287 -3.9419 37.1692 0.0000 17.2499 0.0000
# 4 0.0000 0.0000 0.0000 18.7999 0.0000 2.9221
# 5 8.1619 0.5468 17.2499 0.0000 27.4982 0.0000
# 6 0.0000 0.0000 0.0000 2.9221 0.0000 11.6474
#
#
#
# Elastic Compliance Matrix: (Units=1/GPa)
#
#
# Indices 1 2 3 4 5 6 
#
# 1 0.038034 0.022139 -0.033800 0.000000 0.009474 0.000000
# 2 0.022139 0.056187 -0.012632 0.000000 0.000236 0.000000
# 3 -0.033800 -0.012632 0.069135 0.000000 -0.033086 0.000000
# 4 0.000000 0.000000 0.000000 0.055350 0.000000 -0.013886
# 5 0.009474 0.000236 -0.033086 0.000000 0.054305 0.000000
# 6 0.000000 0.000000 0.000000 -0.013886 0.000000 0.089340
#
#
# Mechanical properties :
#
#
# Convention : Reuss Voigt Hill
#
# Bulk Modulus (GPa) = 8.71303 15.79702 12.25503
# Shear Modulus (GPa) = 11.13106 19.14867 15.13986
#
# Velocity S-wave (km/s) = 2.38307 3.12563 2.77926
# Velocity P-wave (km/s) = 3.46660 4.59191 4.06835
#
# Compressibility (1/GPa) = 0.11477061
#
# Stress axis : x y z
#
# Youngs Moduli (GPa) = 26.29194 17.79765 14.46447
#
# Poissons Ratio (x) = -0.39402 0.48890
# Poissons Ratio (y) = -0.58207 0.18272
# Poissons Ratio (z) = 0.88866 0.22482
#
# Static dielectric constant tensor:
#      x y z
#    x 1.698790 0.000000 0.020620 
#    y 0.000000 1.684650 0.000000 
#    z 0.020620 0.000000 1.676420 
# 
# From -- ./inp_files/37458.got.cif
#   From: 2010.05.17/outbox.cif.g08.bks.cpg/sg11_19_cif.got.tgz:37458.got - 2010.06.03 12:22:45.
