data_PCOD9162497
_publ_section_title
;
Structure prediction by ZEFSAII (Michael W. Deem and Ramdas Pophale) SiO2 
 PCOD9162497
Probable space group: P 21/M
;
_chemical_formula_sum "Si O2"
_cell_formula_units_Z 32
_cell_length_a 33.151910
_cell_length_b 8.344488
_cell_length_c 14.052409
_cell_angle_alpha 90.000000
_cell_angle_beta 155.186289
_cell_angle_gamma 90.000000
_cell_volume 1631.421701
_symmetry_space_group_name_H-M "P 21/M"
_symmetry_group_IT_number 11
_symmetry_cell_setting 'monoclinic'
loop_
_space_group_symop_operation_xyz
x,y,z
-x,1/2+y,-z
-x,-y,-z
x,1/2-y,z
loop_
_atom_site_type_symbol
_atom_site_label
_atom_site_fract_x
_atom_site_fract_y
_atom_site_fract_z
Si Si1 0.458475 0.558010 0.125958
Si Si2 0.831476 0.443797 0.996801
Si Si3 0.335058 0.556213 0.504362
Si Si4 0.958961 0.945775 0.625997
Si Si5 0.290592 0.943815 0.623950
Si Si6 0.082953 0.442017 0.248359
Si Si7 0.581807 0.942084 0.747240
Si Si8 0.209122 0.443766 0.876894
O O1 0.458354 0.750000 0.124956
O O2 0.561148 0.499255 0.308421
O O3 0.439702 0.500226 0.192598
O O4 0.373445 0.500873 0.873861
O O5 0.831592 0.250000 0.996218
O O6 0.748076 0.498469 0.746121
O O7 0.810571 0.500015 0.058530
O O8 0.936299 0.497969 0.185659
O O9 0.334074 0.750000 0.502457
O O10 0.313187 0.501647 0.564957
O O11 0.958975 0.750000 0.626150
O O12 0.937970 0.998324 0.688704
O O13 0.875245 0.998197 0.374839
O O14 0.290974 0.750000 0.624331
O O15 0.186486 0.999650 0.434986
O O16 0.082548 0.250000 0.248511
O O17 0.000000 0.500000 0.000000
O O18 0.582382 0.750000 0.748455
O O19 0.500000 0.000000 0.500000
O O20 0.686660 0.998796 0.936690
O O21 0.209276 0.250000 0.876489
#
# Coordination Sequence:
#
# PCOD9162497 Si02
#       8
#     4   4   4   4   4   4   4   4
#     4  11  23  38  59  87 117 149 191 243 291 342
#     4  10  20  35  57  82 109 145 185 227 279 336
#     4  10  21  38  59  82 114 155 193 233 287 350
#     4   9  19  37  58  80 110 148 185 222 275 340
#     4  10  22  40  60  85 117 152 193 240 289 344
#     4  11  22  38  61  86 115 152 193 237 287 345
#     4  11  23  39  59  83 114 152 193 237 290 348
#     4  10  21  37  57  81 109 143 185 231 276 331
#
# _framework density 19.614792999999999
#
# number of rings (size 3 to 8) (size 9 to 14) (size 15 to 20)
#    0.000    1.750    0.000    4.125    0.000    8.000 
#    0.000    3.750    0.000    0.000    0.000    0.000 
#    0.000    0.000    0.000    0.000    0.000    0.000 
#
# Total GULP energy -178903.345605 kJ/mol
# GULP energy per Si atom -5590.729550 kJ/mol
# Density = 1.957015 g / cm^3
# Si number density = 19.614793 Si / 1000 Ang^3
#
#
#
# Elastic Constant Matrix: (Units=GPa)
#
#
# Indices 1 2 3 4 5 6 
#
# 1 248.8346 24.0190 155.5865 0.0000 -0.4395 0.0000
# 2 24.0190 13.1092 27.2824 0.0000 -0.9585 0.0000
# 3 155.5865 27.2824 252.9509 0.0000 -0.7250 0.0000
# 4 0.0000 0.0000 0.0000 26.5605 0.0000 0.6185
# 5 -0.4395 -0.9585 -0.7250 0.0000 47.2073 0.0000
# 6 0.0000 0.0000 0.0000 0.6185 0.0000 33.6160
#
#
#
# Elastic Compliance Matrix: (Units=1/GPa)
#
#
# Indices 1 2 3 4 5 6 
#
# 1 0.006758 -0.004819 -0.003637 0.000000 -0.000091 0.000000
# 2 -0.004819 0.101956 -0.008027 0.000000 0.001902 0.000000
# 3 -0.003637 -0.008027 0.007056 0.000000 -0.000088 0.000000
# 4 0.000000 0.000000 0.000000 0.037666 0.000000 -0.000693
# 5 -0.000091 0.001902 -0.000088 0.000000 0.021220 0.000000
# 6 0.000000 0.000000 0.000000 -0.000693 0.000000 0.029760
#
#
# Mechanical properties :
#
#
# Convention : Reuss Voigt Hill
#
# Bulk Modulus (GPa) = 12.07676 103.18559 57.63118
# Shear Modulus (GPa) = 18.86905 42.01057 30.43981
#
# Velocity S-wave (km/s) = 3.10495 4.63296 3.94366
# Velocity P-wave (km/s) = 4.36172 9.01883 7.08392
#
# Compressibility (1/GPa) = 0.08280367
#
# Stress axis : x y z
#
# Youngs Moduli (GPa) = 147.97416 9.80812 141.72245
#
# Poissons Ratio (x) = 0.04727 0.51547
# Poissons Ratio (y) = 0.71309 1.13762
# Poissons Ratio (z) = 0.53821 0.07873
#
# Static dielectric constant tensor:
#      x y z
#    x 1.641250 0.000000 -0.000510 
#    y 0.000000 1.688050 0.000000 
#    z -0.000510 0.000000 1.660500 
# 
# From -- ./inp_files/45311.got.cif
#   From: 2010.05.17/outbox.cif.g08.bks.cpg/sg11_23_cif.got.tgz:45311.got - 2010.06.03 12:22:45.
