data_PCOD9162644
_publ_section_title
;
Structure prediction by ZEFSAII (Michael W. Deem and Ramdas Pophale) SiO2 
 PCOD9162644
Probable space group: P 21/M
;
_chemical_formula_sum "Si O2"
_cell_formula_units_Z 32
_cell_length_a 13.976311
_cell_length_b 13.900194
_cell_length_c 8.675525
_cell_angle_alpha 90.000000
_cell_angle_beta 89.064938
_cell_angle_gamma 90.000000
_cell_volume 1685.199594
_symmetry_space_group_name_H-M "P 21/M"
_symmetry_group_IT_number 11
_symmetry_cell_setting 'monoclinic'
loop_
_space_group_symop_operation_xyz
x,y,z
-x,1/2+y,-z
-x,-y,-z
x,1/2-y,z
loop_
_atom_site_type_symbol
_atom_site_label
_atom_site_fract_x
_atom_site_fract_y
_atom_site_fract_z
Si Si1 0.661924 0.137894 0.042459
Si Si2 0.796282 0.861700 0.095537
Si Si3 0.637411 0.529092 0.280519
Si Si4 0.447363 0.859306 0.273583
Si Si5 0.829424 0.032167 0.871329
Si Si6 0.069174 0.640346 0.582467
Si Si7 0.974964 0.562105 0.272009
Si Si8 0.264225 0.570766 0.450775
O O1 0.662812 0.250000 0.081783
O O2 0.590357 0.122737 0.899613
O O3 0.765121 0.104062 0.975108
O O4 0.634629 0.070332 0.184927
O O5 0.794126 0.750000 0.059545
O O6 0.696918 0.897109 0.172920
O O7 0.880693 0.886951 0.212860
O O8 0.818732 0.928837 0.949287
O O9 0.532066 0.568765 0.312369
O O10 0.696271 0.508924 0.433883
O O11 0.482224 0.750000 0.281689
O O12 0.355716 0.871509 0.386298
O O13 0.938004 0.066460 0.851048
O O14 0.786532 0.029370 0.700391
O O15 0.047953 0.750000 0.631757
O O16 0.011119 0.613003 0.427934
O O17 0.181830 0.631275 0.538015
O O18 0.045818 0.551088 0.695569
#
# Coordination Sequence:
#
# PCOD9162644 Si02
#       8
#     4   4   4   4   4   4   4   4
#     4   9  20  37  59  85 112 144 190 237 284 334
#     4  11  22  38  56  80 113 154 191 229 285 346
#     4  11  21  37  57  86 114 151 182 237 284 340
#     4  10  20  36  58  83 112 150 188 230 283 343
#     4   9  21  38  58  80 114 148 188 236 284 332
#     4  10  20  35  58  86 116 150 188 236 289 337
#     4  10  20  37  56  84 116 148 191 237 284 336
#     4  10  20  38  58  82 116 145 189 240 286 328
#
# _framework density 18.988848999999998
#
# number of rings (size 3 to 8) (size 9 to 14) (size 15 to 20)
#    0.000    2.000    1.250    2.250    0.000    5.000 
#    0.000    1.250    0.000    0.000    0.000    0.000 
#    0.000    0.000    0.000    0.000    0.000    0.000 
#
# Total GULP energy -178684.615316 kJ/mol
# GULP energy per Si atom -5583.894229 kJ/mol
# Density = 1.894563 g / cm^3
# Si number density = 18.988849 Si / 1000 Ang^3
#
#
#
# Elastic Constant Matrix: (Units=GPa)
#
#
# Indices 1 2 3 4 5 6 
#
# 1 77.6142 23.5911 3.6726 0.0000 0.7939 0.0000
# 2 23.5911 66.1002 -12.9833 0.0000 8.1117 0.0000
# 3 3.6726 -12.9833 10.7779 0.0000 -3.0409 0.0000
# 4 0.0000 0.0000 0.0000 12.1282 0.0000 5.8837
# 5 0.7939 8.1117 -3.0409 0.0000 10.4296 0.0000
# 6 0.0000 0.0000 0.0000 5.8837 0.0000 15.5263
#
#
#
# Elastic Compliance Matrix: (Units=1/GPa)
#
#
# Indices 1 2 3 4 5 6 
#
# 1 0.016457 -0.009238 -0.016413 0.000000 0.001147 0.000000
# 2 -0.009238 0.025850 0.031396 0.000000 -0.010248 0.000000
# 3 -0.016413 0.031396 0.141281 0.000000 0.018023 0.000000
# 4 0.000000 0.000000 0.000000 0.101025 0.000000 -0.038284
# 5 0.001147 -0.010248 0.018023 0.000000 0.109019 0.000000
# 6 0.000000 0.000000 0.000000 -0.038284 0.000000 0.078915
#
#
# Mechanical properties :
#
#
# Convention : Reuss Voigt Hill
#
# Bulk Modulus (GPa) = 5.12613 20.33923 12.73268
# Shear Modulus (GPa) = 9.50424 16.96428 13.23426
#
# Velocity S-wave (km/s) = 2.23965 2.99219 2.64284
# Velocity P-wave (km/s) = 3.06487 4.76151 4.00409
#
# Compressibility (1/GPa) = 0.19507893
#
# Stress axis : x y z
#
# Youngs Moduli (GPa) = 60.76429 38.68488 7.07809
#
# Poissons Ratio (x) = 0.35737 0.11617
# Poissons Ratio (y) = 0.56134 -0.22222
# Poissons Ratio (z) = 0.99730 -1.21455
#
# Static dielectric constant tensor:
#      x y z
#    x 1.654790 0.000000 0.001840 
#    y 0.000000 1.624980 0.000000 
#    z 0.001840 0.000000 1.660970 
# 
# From -- ./inp_files/21526.got.cif
#   From: 2010.05.17/outbox.cif.g08.bks.cpg/sg11_11_cif.got.tgz:21526.got - 2010.06.03 12:22:45.
