data_PCOD9162855
_publ_section_title
;
Structure prediction by ZEFSAII (Michael W. Deem and Ramdas Pophale) SiO2 
 PCOD9162855
Probable space group: P 21/M
;
_chemical_formula_sum "Si O2"
_cell_formula_units_Z 32
_cell_length_a 26.885768
_cell_length_b 8.561372
_cell_length_c 21.326357
_cell_angle_alpha 90.000000
_cell_angle_beta 159.092962
_cell_angle_gamma 90.000000
_cell_volume 1751.747630
_symmetry_space_group_name_H-M "P 21/M"
_symmetry_group_IT_number 11
_symmetry_cell_setting 'monoclinic'
loop_
_space_group_symop_operation_xyz
x,y,z
-x,1/2+y,-z
-x,-y,-z
x,1/2-y,z
loop_
_atom_site_type_symbol
_atom_site_label
_atom_site_fract_x
_atom_site_fract_y
_atom_site_fract_z
Si Si1 0.156446 0.438780 0.185544
Si Si2 0.772919 0.938505 0.480467
Si Si3 0.349133 0.438991 0.155705
Si Si4 0.350117 0.438899 0.530680
Si Si5 0.644821 0.563119 0.196816
Si Si6 0.923588 0.063110 0.470838
Si Si7 0.947285 0.938227 0.244336
Si Si8 0.351966 0.438353 0.303048
O O1 0.153553 0.250000 0.182976
O O2 0.246555 0.489471 0.352411
O O3 0.236257 0.490635 0.216506
O O4 0.000000 0.500000 0.000000
O O5 0.773922 0.750000 0.481571
O O6 0.706619 0.991018 0.468167
O O7 0.685445 0.989911 0.315653
O O8 0.931085 0.996075 0.656982
O O9 0.355932 0.250000 0.161427
O O10 0.493862 0.503122 0.299324
O O11 0.331188 0.487793 0.207021
O O12 0.208796 0.490271 0.955187
O O13 0.352058 0.250000 0.532684
O O14 0.640702 0.750000 0.192568
O O15 0.770257 0.506112 0.300343
O O16 0.500000 0.500000 0.000000
O O17 0.914737 0.250000 0.458012
O O18 0.009491 0.017908 0.634322
O O19 0.000000 0.000000 0.500000
O O20 0.950991 0.750000 0.243632
O O21 0.500000 0.500000 0.500000
O O22 0.353589 0.250000 0.306052
#
# Coordination Sequence:
#
# PCOD9162855 Si02
#       8
#     4   4   4   4   4   4   4   4
#     4  10  22  37  54  79 108 138 176 221 266 316
#     4   9  20  37  56  79 108 142 180 220 264 317
#     4  10  21  36  55  80 107 139 179 220 264 317
#     4  10  21  38  55  77 109 141 177 221 265 314
#     4  10  20  36  57  82 111 144 183 225 270 324
#     4  10  20  36  57  82 112 145 181 224 271 321
#     4   9  20  37  56  80 109 141 179 220 265 318
#     4  10  20  36  56  78 106 139 176 220 266 314
#
# _framework density 18.267471
#
# number of rings (size 3 to 8) (size 9 to 14) (size 15 to 20)
#    0.000    2.250    1.250    0.750    1.750    4.000 
#    0.000    2.500    0.000    0.000    0.000    0.000 
#    0.000    0.000    0.000    0.000    0.000    0.000 
#
# Total GULP energy -178588.933358 kJ/mol
# GULP energy per Si atom -5580.904167 kJ/mol
# Density = 1.822589 g / cm^3
# Si number density = 18.267471 Si / 1000 Ang^3
#
#
#
# Elastic Constant Matrix: (Units=GPa)
#
#
# Indices 1 2 3 4 5 6 
#
# 1 186.0517 29.5641 99.2665 0.0000 24.7484 0.0000
# 2 29.5641 10.1347 27.7175 0.0000 1.6040 0.0000
# 3 99.2665 27.7175 187.9584 0.0000 22.6281 0.0000
# 4 0.0000 0.0000 0.0000 31.9370 0.0000 8.3352
# 5 24.7484 1.6040 22.6281 0.0000 21.5214 0.0000
# 6 0.0000 0.0000 0.0000 8.3352 0.0000 24.2864
#
#
#
# Elastic Compliance Matrix: (Units=1/GPa)
#
#
# Indices 1 2 3 4 5 6 
#
# 1 0.012368 -0.033832 -0.000153 0.000000 -0.011539 0.000000
# 2 -0.033832 0.262398 -0.026512 0.000000 0.047225 0.000000
# 3 -0.000153 -0.026512 0.010364 0.000000 -0.008744 0.000000
# 4 0.000000 0.000000 0.000000 0.034392 0.000000 -0.011804
# 5 -0.011539 0.047225 -0.008744 0.000000 0.065409 0.000000
# 6 0.000000 0.000000 0.000000 -0.011804 0.000000 0.045226
#
#
# Mechanical properties :
#
#
# Convention : Reuss Voigt Hill
#
# Bulk Modulus (GPa) = 6.09260 77.47123 41.78192
# Shear Modulus (GPa) = 8.25268 30.72208 19.48738
#
# Velocity S-wave (km/s) = 2.12779 4.10541 3.26970
# Velocity P-wave (km/s) = 3.06254 8.06065 6.09726
#
# Compressibility (1/GPa) = 0.16413343
#
# Stress axis : x y z
#
# Youngs Moduli (GPa) = 80.85582 3.81101 96.49021
#
# Poissons Ratio (x) = 0.12893 0.01481
# Poissons Ratio (y) = 2.73552 2.55817
# Poissons Ratio (z) = 0.01241 0.10104
#
# Static dielectric constant tensor:
#      x y z
#    x 5.773490 0.000000 -1.506000 
#    y 0.000000 1.629860 0.000000 
#    z -1.506000 0.000000 2.131710 
# 
# From -- ./inp_files/67203.got.cif
#   From: 2010.05.17/outbox.cif.g08.bks.cpg/sg11_34_cif.got.tgz:67203.got - 2010.06.03 12:22:45.
