data_PCOD9162368
_publ_section_title
;
Structure prediction by ZEFSAII (Michael W. Deem and Ramdas Pophale) SiO2 
 PCOD9162368
Probable space group: P 21/M
;
_chemical_formula_sum "Si O2"
_cell_formula_units_Z 32
_cell_length_a 35.449445
_cell_length_b 9.198043
_cell_length_c 14.322829
_cell_angle_alpha 90.000000
_cell_angle_beta 21.678939
_cell_angle_gamma 90.000000
_cell_volume 1725.189019
_symmetry_space_group_name_H-M "P 21/M"
_symmetry_group_IT_number 11
_symmetry_cell_setting 'monoclinic'
loop_
_space_group_symop_operation_xyz
x,y,z
-x,1/2+y,-z
-x,-y,-z
x,1/2-y,z
loop_
_atom_site_type_symbol
_atom_site_label
_atom_site_fract_x
_atom_site_fract_y
_atom_site_fract_z
Si Si1 0.132315 0.577680 0.882885
Si Si2 0.270647 0.082550 0.711741
Si Si3 0.654563 0.418327 0.287226
Si Si4 0.424504 0.080892 0.896871
Si Si5 0.709264 0.422878 0.951494
Si Si6 0.110292 0.079937 0.540205
Si Si7 0.889991 0.922361 0.248604
Si Si8 0.500580 0.580706 0.899586
O O1 0.146002 0.750000 0.840423
O O2 0.011134 0.551215 0.178201
O O3 0.196386 0.514771 0.820484
O O4 0.164793 0.496319 0.712757
O O5 0.237428 0.250000 0.788033
O O6 0.383563 0.076007 0.406231
O O7 0.281649 0.019561 0.790280
O O8 0.688176 0.250000 0.219064
O O9 0.537872 0.424489 0.590652
O O10 0.665284 0.460354 0.154605
O O11 0.396131 0.250000 0.975012
O O12 0.432354 0.999990 0.978320
O O13 0.352834 0.002604 0.987098
O O14 0.702539 0.250000 0.954722
O O15 0.825261 0.478079 0.675164
O O16 0.124653 0.250000 0.483906
O O17 0.151560 0.057888 0.551415
O O18 0.901514 0.750000 0.206366
O O19 0.000000 0.000000 0.000000
O O20 0.470898 0.750000 0.977730
O O21 0.500000 0.500000 0.000000
#
# Coordination Sequence:
#
# PCOD9162368 Si02
#       8
#     4   4   4   4   4   4   4   4
#     4  10  20  35  56  79 106 142 181 220 263 316
#     4  10  21  36  57  82 106 138 180 222 264 315
#     4   9  20  38  57  79 106 137 176 220 267 319
#     4  10  20  36  58  80 107 143 178 216 264 318
#     4  11  22  35  55  82 109 138 175 222 271 317
#     4   9  20  36  52  76 109 142 177 219 265 314
#     4   9  17  31  51  74 102 135 173 215 258 307
#     4  10  21  37  56  82 115 145 177 218 262 312
#
# _framework density 18.548691999999999
#
# number of rings (size 3 to 8) (size 9 to 14) (size 15 to 20)
#    0.000    2.250    0.000    3.375    0.000    7.000 
#    0.000    1.875    0.000    0.000    0.000    0.000 
#    0.000    0.000    0.000    0.000    0.000    0.000 
#
# Total GULP energy -178613.275590 kJ/mol
# GULP energy per Si atom -5581.664862 kJ/mol
# Density = 1.850647 g / cm^3
# Si number density = 18.548692 Si / 1000 Ang^3
#
#
#
# Elastic Constant Matrix: (Units=GPa)
#
#
# Indices 1 2 3 4 5 6 
#
# 1 114.8486 63.2719 22.3395 0.0000 11.8653 0.0000
# 2 63.2719 103.1963 33.1562 0.0000 13.7215 0.0000
# 3 22.3395 33.1562 24.6342 0.0000 13.7548 0.0000
# 4 0.0000 0.0000 0.0000 26.8817 0.0000 -0.2635
# 5 11.8653 13.7215 13.7548 0.0000 25.0296 0.0000
# 6 0.0000 0.0000 0.0000 -0.2635 0.0000 38.4418
#
#
#
# Elastic Compliance Matrix: (Units=1/GPa)
#
#
# Indices 1 2 3 4 5 6 
#
# 1 0.013244 -0.007643 -0.000804 0.000000 -0.001647 0.000000
# 2 -0.007643 0.021879 -0.025741 0.000000 0.005775 0.000000
# 3 -0.000804 -0.025741 0.097925 0.000000 -0.039321 0.000000
# 4 0.000000 0.000000 0.000000 0.037203 0.000000 0.000255
# 5 -0.001647 0.005775 -0.039321 0.000000 0.059176 0.000000
# 6 0.000000 0.000000 0.000000 0.000255 0.000000 0.026015
#
#
# Mechanical properties :
#
#
# Convention : Reuss Voigt Hill
#
# Bulk Modulus (GPa) = 15.46272 53.35715 34.40994
# Shear Modulus (GPa) = 14.47694 26.33137 20.40415
#
# Velocity S-wave (km/s) = 2.79674 3.77182 3.32027
# Velocity P-wave (km/s) = 4.33398 6.91356 5.76978
#
# Compressibility (1/GPa) = 0.06467166
#
# Stress axis : x y z
#
# Youngs Moduli (GPa) = 75.50399 45.70572 10.21187
#
# Poissons Ratio (x) = 0.34933 0.00821
# Poissons Ratio (y) = 0.57709 0.26287
# Poissons Ratio (z) = 0.06071 1.17653
#
# Static dielectric constant tensor:
#      x y z
#    x 1.628610 0.000000 -0.004560 
#    y 0.000000 1.621260 0.000000 
#    z -0.004560 0.000000 1.653040 
# 
# From -- ./inp_files/45235.got.cif
#   From: 2010.05.17/outbox.cif.g08.bks.cpg/sg11_23_cif.got.tgz:45235.got - 2010.06.03 12:22:45.
