data_PCOD9162985
_publ_section_title
;
Structure prediction by ZEFSAII (Michael W. Deem and Ramdas Pophale) SiO2 
 PCOD9162985
Probable space group: P 21/M
;
_chemical_formula_sum "Si O2"
_cell_formula_units_Z 28
_cell_length_a 18.209424
_cell_length_b 7.474243
_cell_length_c 14.724975
_cell_angle_alpha 90.000000
_cell_angle_beta 146.027608
_cell_angle_gamma 90.000000
_cell_volume 1119.874175
_symmetry_space_group_name_H-M "P 21/M"
_symmetry_group_IT_number 11
_symmetry_cell_setting 'monoclinic'
loop_
_space_group_symop_operation_xyz
x,y,z
-x,1/2+y,-z
-x,-y,-z
x,1/2-y,z
loop_
_atom_site_type_symbol
_atom_site_label
_atom_site_fract_x
_atom_site_fract_y
_atom_site_fract_z
Si Si1 0.975854 0.469936 0.796487
Si Si2 0.893251 0.454980 0.523728
Si Si3 0.819542 0.468709 0.254218
Si Si4 0.533774 0.461097 0.930431
Si Si5 0.543560 0.460340 0.336784
Si Si6 0.267118 0.043159 0.115334
Si Si7 0.243168 0.967055 0.299196
O O1 0.977689 0.250000 0.795643
O O2 0.899228 0.521487 0.808608
O O3 0.893076 0.532458 0.624087
O O4 0.125181 0.535505 0.944754
O O5 0.849264 0.250000 0.485925
O O6 0.048147 0.460515 0.655368
O O7 0.821444 0.530605 0.361678
O O8 0.827043 0.250000 0.261142
O O9 0.683613 0.527995 0.070191
O O10 0.536840 0.250000 0.924381
O O11 0.438099 0.525998 0.752715
O O12 0.500000 0.500000 0.000000
O O13 0.537332 0.250000 0.351114
O O14 0.399833 0.539087 0.211637
O O15 0.652543 0.529010 0.517808
O O16 0.262537 0.250000 0.081208
O O17 0.274769 0.036938 0.232295
O O18 0.245301 0.750000 0.296439
#
# Coordination Sequence:
#
# PCOD9162985 Si02
#       7
#     4   4   4   4   4   4   4
#     4   9  18  32  54  80 108 145 185 224 277 335
#     4   9  17  32  56  79 105 144 184 225 272 332
#     4   9  19  34  53  79 109 142 183 229 275 326
#     4  11  24  39  58  84 115 150 189 233 281 334
#     4  10  22  39  60  83 110 149 192 232 282 341
#     4  10  20  36  57  83 113 146 187 233 281 336
#     4  10  21  36  57  83 111 148 189 231 283 338
#
# _framework density 25.002811000000001
#
# number of rings (size 3 to 8) (size 9 to 14) (size 15 to 20)
#    0.000    2.286    0.000    2.143    2.000    3.429 
#    0.000    1.429    0.000    0.000    0.000    0.000 
#    0.000    0.000    0.000    0.000    0.000    0.000 
#
# Total GULP energy -156567.027279 kJ/mol
# GULP energy per Si atom -5591.679546 kJ/mol
# Density = 2.494590 g / cm^3
# Si number density = 25.002811 Si / 1000 Ang^3
#
#
#
# Elastic Constant Matrix: (Units=GPa)
#
#
# Indices 1 2 3 4 5 6 
#
# 1 78.8853 -5.3142 10.5120 0.0000 -18.2866 0.0000
# 2 -5.3142 82.9072 -1.7071 0.0000 9.3644 0.0000
# 3 10.5120 -1.7071 121.1304 0.0000 -19.3929 0.0000
# 4 0.0000 0.0000 0.0000 9.1290 0.0000 -7.8753
# 5 -18.2866 9.3644 -19.3929 0.0000 43.1325 0.0000
# 6 0.0000 0.0000 0.0000 -7.8753 0.0000 13.0361
#
#
#
# Elastic Compliance Matrix: (Units=1/GPa)
#
#
# Indices 1 2 3 4 5 6 
#
# 1 0.014072 0.000243 -0.000292 0.000000 0.005782 0.000000
# 2 0.000243 0.012378 -0.000281 0.000000 -0.002710 0.000000
# 3 -0.000292 -0.000281 0.008908 0.000000 0.003942 0.000000
# 4 0.000000 0.000000 0.000000 0.228758 0.000000 0.138196
# 5 0.005782 -0.002710 0.003942 0.000000 0.027997 0.000000
# 6 0.000000 0.000000 0.000000 0.138196 0.000000 0.160196
#
#
# Mechanical properties :
#
#
# Convention : Reuss Voigt Hill
#
# Bulk Modulus (GPa) = 28.81973 32.21159 30.51566
# Shear Modulus (GPa) = 10.76345 31.68834 21.22590
#
# Velocity S-wave (km/s) = 2.07708 3.56391 2.91682
# Velocity P-wave (km/s) = 4.15980 5.46319 4.85543
#
# Compressibility (1/GPa) = 0.03469845
#
# Stress axis : x y z
#
# Youngs Moduli (GPa) = 71.06175 80.79095 112.25714
#
# Poissons Ratio (x) = -0.01962 0.03279
# Poissons Ratio (y) = -0.01726 0.03150
# Poissons Ratio (z) = 0.02076 0.02267
#
# Static dielectric constant tensor:
#      x y z
#    x 1.995480 0.000000 -0.030410 
#    y 0.000000 2.113300 0.000000 
#    z -0.030410 0.000000 2.026080 
# 
# From -- ./inp_files/54482.got.cif
#   From: 2010.05.17/outbox.cif.g08.bks.cpg/sg11_28_cif.got.tgz:54482.got - 2010.06.03 12:22:45.
