data_PCOD9162052
_publ_section_title
;
Structure prediction by ZEFSAII (Michael W. Deem and Ramdas Pophale) SiO2 
 PCOD9162052
Probable space group: P 21/M
;
_chemical_formula_sum "Si O2"
_cell_formula_units_Z 32
_cell_length_a 11.536773
_cell_length_b 9.025953
_cell_length_c 21.798854
_cell_angle_alpha 90.000000
_cell_angle_beta 128.649524
_cell_angle_gamma 90.000000
_cell_volume 1772.766372
_symmetry_space_group_name_H-M "P 21/M"
_symmetry_group_IT_number 11
_symmetry_cell_setting 'monoclinic'
loop_
_space_group_symop_operation_xyz
x,y,z
-x,1/2+y,-z
-x,-y,-z
x,1/2-y,z
loop_
_atom_site_type_symbol
_atom_site_label
_atom_site_fract_x
_atom_site_fract_y
_atom_site_fract_z
Si Si1 0.603754 0.069885 0.764572
Si Si2 0.413701 0.572390 0.381987
Si Si3 0.670192 0.080177 0.123942
Si Si4 0.312513 0.080596 0.993760
Si Si5 0.999579 0.074042 0.566428
Si Si6 0.307070 0.426526 0.738841
Si Si7 0.269754 0.073636 0.450216
Si Si8 0.160298 0.927076 0.056898
O O1 0.600303 0.250000 0.762254
O O2 0.607898 0.022029 0.695216
O O3 0.453082 0.023308 0.749634
O O4 0.744557 0.025102 0.852051
O O5 0.388760 0.750000 0.377224
O O6 0.583475 0.545808 0.459629
O O7 0.309017 0.491869 0.396484
O O8 0.721080 0.250000 0.136683
O O9 0.491023 0.080281 0.058431
O O10 0.706258 0.009550 0.201188
O O11 0.728385 0.984545 0.086119
O O12 0.260517 0.250000 0.983345
O O13 0.249777 0.979090 0.026713
O O14 0.975355 0.250000 0.552895
O O15 0.159824 0.050738 0.650408
O O16 0.871102 0.003281 0.565561
O O17 0.000000 0.000000 0.500000
O O18 0.323388 0.250000 0.755959
O O19 0.247830 0.250000 0.439699
O O20 0.148045 0.750000 0.054087
O O21 0.000000 0.000000 0.000000
#
# Coordination Sequence:
#
# PCOD9162052 Si02
#       8
#     4   4   4   4   4   4   4   4
#     4   9  18  35  60  83 106 142 190 236 279 335
#     4   9  18  36  61  85 110 149 197 236 277 334
#     4  10  20  34  57  87 114 144 185 237 286 333
#     4  10  20  36  58  83 113 147 186 230 284 347
#     4  11  23  38  59  86 119 156 191 234 283 340
#     4  10  20  37  59  84 113 150 194 236 284 341
#     4  10  20  36  58  85 119 151 188 237 283 336
#     4  11  22  38  59  82 112 149 190 239 290 342
#
# _framework density 18.050882999999999
#
# number of rings (size 3 to 8) (size 9 to 14) (size 15 to 20)
#    0.000    2.000    1.250    2.625    0.000    4.500 
#    2.250    1.875    0.000    0.000    0.000    0.000 
#    0.000    0.000    0.000    0.000    0.000    0.000 
#
# Total GULP energy -178666.353987 kJ/mol
# GULP energy per Si atom -5583.323562 kJ/mol
# Density = 1.800980 g / cm^3
# Si number density = 18.050883 Si / 1000 Ang^3
#
#
#
# Elastic Constant Matrix: (Units=GPa)
#
#
# Indices 1 2 3 4 5 6 
#
# 1 80.1447 36.3695 63.5987 0.0000 -6.4266 0.0000
# 2 36.3695 71.7512 64.5294 0.0000 -0.7481 0.0000
# 3 63.5987 64.5294 129.7984 0.0000 -27.0601 0.0000
# 4 0.0000 0.0000 0.0000 28.8607 0.0000 -3.4582
# 5 -6.4266 -0.7481 -27.0601 0.0000 31.2348 0.0000
# 6 0.0000 0.0000 0.0000 -3.4582 0.0000 34.0190
#
#
#
# Elastic Compliance Matrix: (Units=1/GPa)
#
#
# Indices 1 2 3 4 5 6 
#
# 1 0.021230 -0.000865 -0.011064 0.000000 -0.005238 0.000000
# 2 -0.000865 0.030008 -0.017552 0.000000 -0.014665 0.000000
# 3 -0.011064 -0.017552 0.025982 0.000000 0.019813 0.000000
# 4 0.000000 0.000000 0.000000 0.035076 0.000000 0.003566
# 5 -0.005238 -0.014665 0.019813 0.000000 0.047751 0.000000
# 6 0.000000 0.000000 0.000000 0.003566 0.000000 0.029758
#
#
# Mechanical properties :
#
#
# Convention : Reuss Voigt Hill
#
# Bulk Modulus (GPa) = 54.77277 67.85438 61.31358
# Shear Modulus (GPa) = 19.61907 26.63599 23.12753
#
# Velocity S-wave (km/s) = 3.30036 3.84553 3.58333
# Velocity P-wave (km/s) = 6.70317 7.57560 7.15270
#
# Compressibility (1/GPa) = 0.01825725
#
# Stress axis : x y z
#
# Youngs Moduli (GPa) = 47.10318 33.32430 38.48824
#
# Poissons Ratio (x) = 0.02883 0.42584
# Poissons Ratio (y) = 0.04075 0.67555
# Poissons Ratio (z) = 0.52116 0.58491
#
# Static dielectric constant tensor:
#      x y z
#    x 1.599870 0.000000 0.007510 
#    y 0.000000 1.608920 0.000000 
#    z 0.007510 0.000000 1.604030 
# 
# From -- ./inp_files/64430.got.cif
#   From: 2010.05.17/outbox.cif.g08.bks.cpg/sg11_33_cif.got.tgz:64430.got - 2010.06.03 12:22:45.
