data_PCOD9162994
_publ_section_title
;
Structure prediction by ZEFSAII (Michael W. Deem and Ramdas Pophale) SiO2 
 PCOD9162994
Probable space group: P 21/M
;
_chemical_formula_sum "Si O2"
_cell_formula_units_Z 28
_cell_length_a 15.302351
_cell_length_b 8.149323
_cell_length_c 11.471204
_cell_angle_alpha 90.000000
_cell_angle_beta 113.350542
_cell_angle_gamma 90.000000
_cell_volume 1313.340423
_symmetry_space_group_name_H-M "P 21/M"
_symmetry_group_IT_number 11
_symmetry_cell_setting 'monoclinic'
loop_
_space_group_symop_operation_xyz
x,y,z
-x,1/2+y,-z
-x,-y,-z
x,1/2-y,z
loop_
_atom_site_type_symbol
_atom_site_label
_atom_site_fract_x
_atom_site_fract_y
_atom_site_fract_z
Si Si1 0.249736 0.941309 0.837326
Si Si2 0.641513 0.941297 0.901102
Si Si3 0.738414 0.549272 0.719841
Si Si4 0.047018 0.947634 0.648283
Si Si5 0.043645 0.448494 0.148631
Si Si6 0.586529 0.552907 0.465238
Si Si7 0.563233 0.945027 0.189835
O O1 0.235828 0.750000 0.857420
O O2 0.158269 0.997738 0.716149
O O3 0.348855 0.966904 0.823997
O O4 0.267951 0.034889 0.967527
O O5 0.619593 0.750000 0.879765
O O6 0.672451 0.007842 0.791957
O O7 0.546219 0.022460 0.901602
O O8 0.739046 0.750000 0.724451
O O9 0.846458 0.495614 0.789606
O O10 0.685758 0.497577 0.574135
O O11 0.041226 0.750000 0.645087
O O12 0.002893 0.002218 0.751197
O O13 0.000000 0.000000 0.500000
O O14 0.040415 0.250000 0.148353
O O15 0.000000 0.500000 0.000000
O O16 0.500000 0.500000 0.500000
O O17 0.588242 0.750000 0.463008
O O18 0.568599 0.496473 0.325950
O O19 0.580208 0.750000 0.187589
#
# Coordination Sequence:
#
# PCOD9162994 Si02
#       7
#     4   4   4   4   4   4   4
#     4  11  24  41  59  84 120 157 199 247 294 349
#     4  11  21  37  61  88 120 157 194 240 294 355
#     4   9  19  35  59  87 117 152 189 234 294 353
#     4  10  24  43  65  91 124 163 205 257 310 361
#     4  10  21  40  65  92 122 157 201 254 305 361
#     4  10  20  36  57  84 116 152 192 238 290 349
#     4  11  23  37  59  88 117 156 199 241 293 354
#
# _framework density 21.319683999999999
#
# number of rings (size 3 to 8) (size 9 to 14) (size 15 to 20)
#    0.000    1.714    1.429    2.571    2.000    2.286 
#    0.000    1.429    0.000    0.000    0.000    0.000 
#    0.000    0.000    0.000    0.000    0.000    0.000 
#
# Total GULP energy -156268.039193 kJ/mol
# GULP energy per Si atom -5581.001400 kJ/mol
# Density = 2.127116 g / cm^3
# Si number density = 21.319684 Si / 1000 Ang^3
#
#
#
# Elastic Constant Matrix: (Units=GPa)
#
#
# Indices 1 2 3 4 5 6 
#
# 1 111.5901 5.8858 66.8581 0.0000 13.7407 0.0000
# 2 5.8858 18.2614 1.3164 0.0000 0.5491 0.0000
# 3 66.8581 1.3164 169.5658 0.0000 20.0903 0.0000
# 4 0.0000 0.0000 0.0000 30.5185 0.0000 1.8313
# 5 13.7407 0.5491 20.0903 0.0000 41.9506 0.0000
# 6 0.0000 0.0000 0.0000 1.8313 0.0000 14.4325
#
#
#
# Elastic Compliance Matrix: (Units=1/GPa)
#
#
# Indices 1 2 3 4 5 6 
#
# 1 0.012073 -0.003513 -0.004527 0.000000 -0.001741 0.000000
# 2 -0.003513 0.055825 0.000956 0.000000 -0.000038 0.000000
# 3 -0.004527 0.000956 0.007952 0.000000 -0.002338 0.000000
# 4 0.000000 0.000000 0.000000 0.033018 0.000000 -0.004190
# 5 -0.001741 -0.000038 -0.002338 0.000000 0.025528 0.000000
# 6 0.000000 0.000000 0.000000 -0.004190 0.000000 0.069820
#
#
# Mechanical properties :
#
#
# Convention : Reuss Voigt Hill
#
# Bulk Modulus (GPa) = 16.21193 49.72645 32.96919
# Shear Modulus (GPa) = 20.92548 32.40412 26.66480
#
# Velocity S-wave (km/s) = 3.13630 3.90284 3.54038
# Velocity P-wave (km/s) = 4.55367 6.60941 5.67540
#
# Compressibility (1/GPa) = 0.06168298
#
# Stress axis : x y z
#
# Youngs Moduli (GPa) = 82.82816 17.91324 125.75638
#
# Poissons Ratio (x) = 0.06292 0.56928
# Poissons Ratio (y) = 0.29094 -0.12024
# Poissons Ratio (z) = 0.37495 -0.01713
#
# Static dielectric constant tensor:
#      x y z
#    x 1.763300 0.000000 -0.016930 
#    y 0.000000 1.758900 0.000000 
#    z -0.016930 0.000000 1.719980 
# 
# From -- ./inp_files/38394.got.cif
#   From: 2010.05.17/outbox.cif.g08.bks.cpg/sg11_20_cif.got.tgz:38394.got - 2010.06.03 12:22:45.
