data_PCOD9162799
_publ_section_title
;
Structure prediction by ZEFSAII (Michael W. Deem and Ramdas Pophale) SiO2 
 PCOD9162799
Probable space group: P 21/M
;
_chemical_formula_sum "Si O2"
_cell_formula_units_Z 28
_cell_length_a 8.464844
_cell_length_b 30.406305
_cell_length_c 5.104817
_cell_angle_alpha 90.000000
_cell_angle_beta 76.914169
_cell_angle_gamma 90.000000
_cell_volume 1279.782018
_symmetry_space_group_name_H-M "P 21/M"
_symmetry_group_IT_number 11
_symmetry_cell_setting 'monoclinic'
loop_
_space_group_symop_operation_xyz
x,y,z
-x,1/2+y,-z
-x,-y,-z
x,1/2-y,z
loop_
_atom_site_type_symbol
_atom_site_label
_atom_site_fract_x
_atom_site_fract_y
_atom_site_fract_z
Si Si1 0.651636 0.341713 0.053503
Si Si2 0.736839 0.083348 0.616004
Si Si3 0.858132 0.833481 0.271657
Si Si4 0.348886 0.250000 0.474758
Si Si5 0.612927 0.992316 0.710403
Si Si6 0.065549 0.848875 0.686585
Si Si7 0.402996 0.396467 0.425404
Si Si8 0.551937 0.250000 0.881211
O O1 0.726682 0.383302 0.866689
O O2 0.638893 0.296141 0.906553
O O3 0.763840 0.331993 0.262798
O O4 0.474326 0.359674 0.201505
O O5 0.743112 0.031631 0.670133
O O6 0.886477 0.100203 0.385233
O O7 0.563882 0.091910 0.534981
O O8 0.750232 0.791730 0.384467
O O9 0.741728 0.875162 0.359590
O O10 0.999740 0.832128 0.435827
O O11 0.935017 0.837276 0.956567
O O12 0.508208 0.250000 0.593427
O O13 0.400671 0.250000 0.150126
O O14 0.500000 0.000000 0.500000
O O15 0.659159 0.941165 0.684723
O O16 0.500000 0.000000 0.000000
#
# Coordination Sequence:
#
# PCOD9162799 Si02
#       8
#     4   4   4   2   4   4   4   2
#     4  11  22  43  67  94 129 166 215 265 315 376
#     4  10  21  43  67  95 131 167 217 272 318 376
#     4  12  25  44  65  92 133 171 214 258 324 385
#     4  12  26  44  65  99 128 161 214 274 317 370
#     4  10  20  35  64 100 124 160 217 269 322 377
#     4  11  26  43  64  92 133 177 206 257 324 386
#     4  10  22  38  69  96 124 169 217 268 321 378
#     4  12  26  40  69 103 122 159 218 274 313 368
#
# _framework density 21.878723999999998
#
# number of rings (size 3 to 8) (size 9 to 14) (size 15 to 20)
#    0.000    1.143    4.286    1.714    4.000    1.143 
#    0.000    2.143    0.000    0.000    0.000    0.000 
#    0.000    0.000    0.000    0.000    0.000    0.000 
#
# Total GULP energy -156290.575785 kJ/mol
# GULP energy per Si atom -5581.806278 kJ/mol
# Density = 2.182893 g / cm^3
# Si number density = 21.878724 Si / 1000 Ang^3
#
#
#
# Elastic Constant Matrix: (Units=GPa)
#
#
# Indices 1 2 3 4 5 6 
#
# 1 31.5218 7.7056 -8.3525 0.0000 5.6223 0.0000
# 2 7.7056 100.3294 -9.4695 0.0000 -8.5747 0.0000
# 3 -8.3525 -9.4695 84.4255 0.0000 -10.0973 0.0000
# 4 0.0000 0.0000 0.0000 19.4434 0.0000 6.1484
# 5 5.6223 -8.5747 -10.0973 0.0000 34.5634 0.0000
# 6 0.0000 0.0000 0.0000 6.1484 0.0000 9.7686
#
#
#
# Elastic Compliance Matrix: (Units=1/GPa)
#
#
# Indices 1 2 3 4 5 6 
#
# 1 0.034046 -0.002865 0.002383 0.000000 -0.005553 0.000000
# 2 -0.002865 0.010610 0.001323 0.000000 0.003485 0.000000
# 3 0.002383 0.001323 0.012664 0.000000 0.003640 0.000000
# 4 0.000000 0.000000 0.000000 0.064211 0.000000 -0.040415
# 5 -0.005553 0.003485 0.003640 0.000000 0.031764 0.000000
# 6 0.000000 0.000000 0.000000 -0.040415 0.000000 0.127806
#
#
# Mechanical properties :
#
#
# Convention : Reuss Voigt Hill
#
# Bulk Modulus (GPa) = 16.94800 21.78267 19.36533
# Shear Modulus (GPa) = 16.71763 27.84798 22.28281
#
# Velocity S-wave (km/s) = 2.76724 3.57155 3.19481
# Velocity P-wave (km/s) = 4.23950 5.19477 4.74126
#
# Compressibility (1/GPa) = 0.05900403
#
# Stress axis : x y z
#
# Youngs Moduli (GPa) = 29.37193 94.25157 78.96182
#
# Poissons Ratio (x) = 0.26998 -0.18816
# Poissons Ratio (y) = 0.08414 -0.10450
# Poissons Ratio (z) = -0.06999 -0.12474
#
# Static dielectric constant tensor:
#      x y z
#    x 1.805940 0.000000 0.001940 
#    y 0.000000 1.839760 0.000000 
#    z 0.001940 0.000000 1.830690 
# 
# From -- ./inp_files/3224.got.cif
#   From: 2010.05.17/outbox.cif.g08.bks.cpg/sg11_2_cif.got.tgz:3224.got - 2010.06.03 12:22:45.
