data_PCOD9162495
_publ_section_title
;
Structure prediction by ZEFSAII (Michael W. Deem and Ramdas Pophale) SiO2 
 PCOD9162495
Probable space group: P 21/M
;
_chemical_formula_sum "Si O2"
_cell_formula_units_Z 20
_cell_length_a 13.664076
_cell_length_b 8.824272
_cell_length_c 22.552917
_cell_angle_alpha 90.000000
_cell_angle_beta 155.341147
_cell_angle_gamma 90.000000
_cell_volume 1134.543865
_symmetry_space_group_name_H-M "P 21/M"
_symmetry_group_IT_number 11
_symmetry_cell_setting 'monoclinic'
loop_
_space_group_symop_operation_xyz
x,y,z
-x,1/2+y,-z
-x,-y,-z
x,1/2-y,z
loop_
_atom_site_type_symbol
_atom_site_label
_atom_site_fract_x
_atom_site_fract_y
_atom_site_fract_z
Si Si1 0.765430 0.069206 0.214413
Si Si2 0.108771 0.569032 0.499997
Si Si3 0.748313 0.069494 0.066744
Si Si4 0.048099 0.430506 0.933268
Si Si5 0.622184 0.069207 0.785584
O O1 0.768022 0.250000 0.225500
O O2 0.812039 0.039599 0.170384
O O3 0.952661 0.989922 0.359543
O O4 0.505789 0.005399 0.084263
O O5 0.103353 0.750000 0.499993
O O6 0.374028 0.510085 0.640452
O O7 0.000000 0.500000 0.500000
O O8 0.730304 0.250000 0.048925
O O9 0.927155 0.999996 0.118102
O O10 0.083555 0.250000 0.951094
O O11 0.800905 0.460399 0.829631
O O12 0.247022 0.505407 0.084272
O O13 0.591499 0.250000 0.774486
#
# Coordination Sequence:
#
# PCOD9162495 Si02
#       5
#     4   4   4   4   4
#     4  10  21  37  56  80 110 142 180 222 265 316
#     4  12  24  38  57  80 109 142 177 220 270 320
#     4  10  20  35  57  82 109 142 179 221 266 315
#     4  10  20  35  57  82 109 142 179 221 266 315
#     4  10  21  37  56  80 110 142 180 222 265 316
#
# _framework density 17.628229000000001
#
# number of rings (size 3 to 8) (size 9 to 14) (size 15 to 20)
#    0.000    1.600    0.000    5.400    0.000    4.800 
#    0.000    1.000    0.000    0.000    0.000    0.000 
#    0.000    0.000    0.000    0.000    0.000    0.000 
#
# Total GULP energy -111786.151725 kJ/mol
# GULP energy per Si atom -5589.307586 kJ/mol
# Density = 1.758811 g / cm^3
# Si number density = 17.628229 Si / 1000 Ang^3
#
#
#
# Elastic Constant Matrix: (Units=GPa)
#
#
# Indices 1 2 3 4 5 6 
#
# 1 122.8855 80.2193 60.0788 0.0000 0.1162 0.0000
# 2 80.2193 130.5570 81.9485 0.0000 -0.0155 0.0000
# 3 60.0788 81.9485 136.1154 0.0000 -0.1800 0.0000
# 4 0.0000 0.0000 0.0000 34.6147 0.0000 0.0010
# 5 0.1162 -0.0155 -0.1800 0.0000 8.7173 0.0000
# 6 0.0000 0.0000 0.0000 0.0010 0.0000 35.0458
#
#
#
# Elastic Compliance Matrix: (Units=1/GPa)
#
#
# Indices 1 2 3 4 5 6 
#
# 1 0.013798 -0.007483 -0.001585 0.000000 -0.000230 0.000000
# 2 -0.007483 0.016371 -0.006553 0.000000 -0.000007 0.000000
# 3 -0.001585 -0.006553 0.011992 0.000000 0.000257 0.000000
# 4 0.000000 0.000000 0.000000 0.028889 0.000000 -0.000001
# 5 -0.000230 -0.000007 0.000257 0.000000 0.114723 0.000000
# 6 0.000000 0.000000 0.000000 -0.000001 0.000000 0.028534
#
#
# Mechanical properties :
#
#
# Convention : Reuss Voigt Hill
#
# Bulk Modulus (GPa) = 91.59350 92.67236 92.13293
# Shear Modulus (GPa) = 20.06516 26.82966 23.44741
#
# Velocity S-wave (km/s) = 3.37744 3.90548 3.65102
# Velocity P-wave (km/s) = 8.20248 8.54527 8.37563
#
# Compressibility (1/GPa) = 0.01091781
#
# Stress axis : x y z
#
# Youngs Moduli (GPa) = 72.47595 61.08549 83.38824
#
# Poissons Ratio (x) = 0.45709 0.13220
# Poissons Ratio (y) = 0.54232 0.54645
# Poissons Ratio (z) = 0.11490 0.40030
#
# Static dielectric constant tensor:
#      x y z
#    x 1.600310 0.000000 0.000120 
#    y 0.000000 1.584860 0.000000 
#    z 0.000120 0.000000 1.559650 
# 
# From -- ./inp_files/48682.got.cif
#   From: 2010.05.17/outbox.cif.g08.bks.cpg/sg11_25_cif.got.tgz:48682.got - 2010.06.03 12:22:45.
