data_PCOD9162382
_publ_section_title
;
Structure prediction by ZEFSAII (Michael W. Deem and Ramdas Pophale) SiO2 
 PCOD9162382
Probable space group: P 21/M
;
_chemical_formula_sum "Si O2"
_cell_formula_units_Z 28
_cell_length_a 9.761382
_cell_length_b 8.687777
_cell_length_c 18.663588
_cell_angle_alpha 90.000000
_cell_angle_beta 97.984580
_cell_angle_gamma 90.000000
_cell_volume 1567.416082
_symmetry_space_group_name_H-M "P 21/M"
_symmetry_group_IT_number 11
_symmetry_cell_setting 'monoclinic'
loop_
_space_group_symop_operation_xyz
x,y,z
-x,1/2+y,-z
-x,-y,-z
x,1/2-y,z
loop_
_atom_site_type_symbol
_atom_site_label
_atom_site_fract_x
_atom_site_fract_y
_atom_site_fract_z
Si Si1 0.204824 0.929373 0.061303
Si Si2 0.059848 0.935218 0.429635
Si Si3 0.510726 0.930295 0.921141
Si Si4 0.932367 0.431802 0.103060
Si Si5 0.208954 0.934664 0.648002
Si Si6 0.278608 0.433192 0.802708
Si Si7 0.348408 0.935278 0.506217
O O1 0.240995 0.750000 0.073202
O O2 0.332066 0.037424 0.089731
O O3 0.163064 0.952652 0.974818
O O4 0.071021 0.974827 0.096998
O O5 0.052608 0.750000 0.428726
O O6 0.222697 0.979181 0.442484
O O7 0.000000 0.000000 0.500000
O O8 0.948792 0.001771 0.365869
O O9 0.477209 0.750000 0.920687
O O10 0.409026 0.014960 0.859425
O O11 0.500000 0.000000 0.000000
O O12 0.960609 0.250000 0.111112
O O13 0.852190 0.494410 0.165518
O O14 0.203844 0.750000 0.649229
O O15 0.291121 0.980252 0.581178
O O16 0.282909 0.000222 0.723248
O O17 0.268089 0.250000 0.800561
O O18 0.357275 0.750000 0.505836
O O19 0.500000 0.000000 0.500000
#
# Coordination Sequence:
#
# PCOD9162382 Si02
#       7
#     4   4   4   4   4   4   4
#     4  10  20  35  56  81 109 140 182 233 284 337
#     4   9  17  32  54  82 111 144 185 225 269 324
#     4  12  23  37  57  82 112 149 193 241 291 347
#     4  10  20  35  56  80 109 143 180 229 285 339
#     4  10  21  38  57  82 114 149 190 235 284 340
#     4  12  24  38  58  83 113 150 192 240 293 347
#     4   9  19  34  57  87 118 149 184 227 273 328
#
# _framework density 17.863795
#
# number of rings (size 3 to 8) (size 9 to 14) (size 15 to 20)
#    0.000    1.714    1.429    5.143    0.000    4.571 
#    0.000    1.429    0.000    3.429    0.000    0.000 
#    0.000    0.000    0.000    0.000    0.000    0.000 
#
# Total GULP energy -156264.721965 kJ/mol
# GULP energy per Si atom -5580.882927 kJ/mol
# Density = 1.782314 g / cm^3
# Si number density = 17.863795 Si / 1000 Ang^3
#
#
#
# Elastic Constant Matrix: (Units=GPa)
#
#
# Indices 1 2 3 4 5 6 
#
# 1 97.1860 11.2039 33.5061 0.0000 5.5464 0.0000
# 2 11.2039 58.3453 22.7658 0.0000 0.6975 0.0000
# 3 33.5061 22.7658 84.4049 0.0000 11.0905 0.0000
# 4 0.0000 0.0000 0.0000 28.2766 0.0000 1.4680
# 5 5.5464 0.6975 11.0905 0.0000 23.8479 0.0000
# 6 0.0000 0.0000 0.0000 1.4680 0.0000 35.9105
#
#
#
# Elastic Compliance Matrix: (Units=1/GPa)
#
#
# Indices 1 2 3 4 5 6 
#
# 1 0.011944 -0.000525 -0.004512 0.000000 -0.000664 0.000000
# 2 -0.000525 0.019265 -0.005251 0.000000 0.002000 0.000000
# 3 -0.004512 -0.005251 0.015867 0.000000 -0.006176 0.000000
# 4 0.000000 0.000000 0.000000 0.035440 0.000000 -0.001449
# 5 -0.000664 0.002000 -0.006176 0.000000 0.044900 0.000000
# 6 0.000000 0.000000 0.000000 -0.001449 0.000000 0.027906
#
#
# Mechanical properties :
#
#
# Convention : Reuss Voigt Hill
#
# Bulk Modulus (GPa) = 37.73682 41.65418 39.69550
# Shear Modulus (GPa) = 27.06636 29.10437 28.08537
#
# Velocity S-wave (km/s) = 3.89672 4.04076 3.96939
# Velocity P-wave (km/s) = 6.43556 6.71853 6.57857
#
# Compressibility (1/GPa) = 0.02649932
#
# Stress axis : x y z
#
# Youngs Moduli (GPa) = 83.72639 51.90770 63.02530
#
# Poissons Ratio (x) = 0.02724 0.28440
# Poissons Ratio (y) = 0.04394 0.33093
# Poissons Ratio (z) = 0.37781 0.27255
#
# Static dielectric constant tensor:
#      x y z
#    x 1.627270 0.000000 0.012280 
#    y 0.000000 1.590880 0.000000 
#    z 0.012280 0.000000 1.571370 
# 
# From -- ./inp_files/57544.got.cif
#   From: 2010.05.17/outbox.cif.g08.bks.cpg/sg11_29_cif.got.tgz:57544.got - 2010.06.03 12:22:45.
