data_PCOD9162470
_publ_section_title
;
Structure prediction by ZEFSAII (Michael W. Deem and Ramdas Pophale) SiO2 
 PCOD9162470
Probable space group: P 21/M
;
_chemical_formula_sum "Si O2"
_cell_formula_units_Z 32
_cell_length_a 8.964424
_cell_length_b 20.182895
_cell_length_c 14.862635
_cell_angle_alpha 90.000000
_cell_angle_beta 138.689326
_cell_angle_gamma 90.000000
_cell_volume 1775.165193
_symmetry_space_group_name_H-M "P 21/M"
_symmetry_group_IT_number 11
_symmetry_cell_setting 'monoclinic'
loop_
_space_group_symop_operation_xyz
x,y,z
-x,1/2+y,-z
-x,-y,-z
x,1/2-y,z
loop_
_atom_site_type_symbol
_atom_site_label
_atom_site_fract_x
_atom_site_fract_y
_atom_site_fract_z
Si Si1 0.354702 0.054189 0.176898
Si Si2 0.569311 0.829734 0.081763
Si Si3 0.708945 0.422108 0.175277
Si Si4 0.757401 0.445624 0.481149
Si Si5 0.933348 0.559174 0.214375
Si Si6 0.090886 0.404651 0.484462
Si Si7 0.509974 0.173512 0.740776
Si Si8 0.896567 0.078208 0.904428
O O1 0.517185 0.069466 0.165856
O O2 0.502710 0.066942 0.333276
O O3 0.270758 0.978110 0.133367
O O4 0.116532 0.092131 0.064318
O O5 0.580125 0.750000 0.066521
O O6 0.795431 0.872453 0.163836
O O7 0.522091 0.837061 0.166589
O O8 0.382531 0.870643 0.939834
O O9 0.778134 0.495851 0.172090
O O10 0.932342 0.395026 0.326460
O O11 0.808712 0.521246 0.475605
O O12 0.844537 0.439311 0.621846
O O13 0.926376 0.402245 0.496376
O O14 0.005709 0.551141 0.144758
O O15 0.300374 0.357685 0.593585
O O16 0.514931 0.250000 0.725238
O O17 0.743801 0.140925 0.818486
#
# Coordination Sequence:
#
# PCOD9162470 Si02
#       8
#     4   4   4   4   4   4   4   4
#     4  10  20  35  56  85 118 144 181 235 289 331
#     4  11  23  38  57  82 114 149 196 240 281 341
#     4  10  21  37  62  88 112 148 189 250 287 326
#     4   9  17  33  59  84 114 135 180 242 280 323
#     4  11  21  35  61  88 114 147 193 243 283 334
#     4   9  17  34  59  85 106 143 183 232 283 329
#     4  11  23  40  58  77 115 157 191 226 282 359
#     4  11  23  34  54  87 118 150 186 228 287 347
#
# _framework density 18.026492000000001
#
# number of rings (size 3 to 8) (size 9 to 14) (size 15 to 20)
#    0.000    1.750    3.750    1.875    3.500    1.500 
#    0.000    0.000    0.000    0.750    0.000    0.000 
#    0.000    0.000    0.000    0.000    0.000    0.000 
#
# Total GULP energy -178460.378486 kJ/mol
# GULP energy per Si atom -5576.886828 kJ/mol
# Density = 1.798546 g / cm^3
# Si number density = 18.026492 Si / 1000 Ang^3
#
#
#
# Elastic Constant Matrix: (Units=GPa)
#
#
# Indices 1 2 3 4 5 6 
#
# 1 19.5953 24.9770 28.8139 0.0000 7.9356 0.0000
# 2 24.9770 88.3954 51.4588 0.0000 7.1995 0.0000
# 3 28.8139 51.4588 162.5708 0.0000 24.5754 0.0000
# 4 0.0000 0.0000 0.0000 15.7506 0.0000 -5.6404
# 5 7.9356 7.1995 24.5754 0.0000 26.3488 0.0000
# 6 0.0000 0.0000 0.0000 -5.6404 0.0000 13.9518
#
#
#
# Elastic Compliance Matrix: (Units=1/GPa)
#
#
# Indices 1 2 3 4 5 6 
#
# 1 0.096208 -0.021283 -0.007932 0.000000 -0.015762 0.000000
# 2 -0.021283 0.018579 -0.002690 0.000000 0.003842 0.000000
# 3 -0.007932 -0.002690 0.009239 0.000000 -0.005493 0.000000
# 4 0.000000 0.000000 0.000000 0.074238 0.000000 0.030013
# 5 -0.015762 0.003842 -0.005493 0.000000 0.046773 0.000000
# 6 0.000000 0.000000 0.000000 0.030013 0.000000 0.083809
#
#
# Mechanical properties :
#
#
# Convention : Reuss Voigt Hill
#
# Bulk Modulus (GPa) = 16.60679 53.45121 35.02900
# Shear Modulus (GPa) = 12.11453 22.23102 17.17277
#
# Velocity S-wave (km/s) = 2.59519 3.51556 3.08984
# Velocity P-wave (km/s) = 4.26760 6.79667 5.67482
#
# Compressibility (1/GPa) = 0.06021634
#
# Stress axis : x y z
#
# Youngs Moduli (GPa) = 10.39412 53.82332 108.23913
#
# Poissons Ratio (x) = 1.14552 0.85860
# Poissons Ratio (y) = 0.22122 0.29111
# Poissons Ratio (z) = 0.08245 0.14476
#
# Static dielectric constant tensor:
#      x y z
#    x 1.619130 0.000000 -0.001140 
#    y 0.000000 1.593410 0.000000 
#    z -0.001140 0.000000 1.662700 
# 
# From -- ./inp_files/48272.got.cif
#   From: 2010.05.17/outbox.cif.g08.bks.cpg/sg11_25_cif.got.tgz:48272.got - 2010.06.03 12:22:45.
