data_PCOD9162087
_publ_section_title
;
Structure prediction by ZEFSAII (Michael W. Deem and Ramdas Pophale) SiO2 
 PCOD9162087
Probable space group: P 21/M
;
_chemical_formula_sum "Si O2"
_cell_formula_units_Z 28
_cell_length_a 11.139113
_cell_length_b 8.983765
_cell_length_c 14.360457
_cell_angle_alpha 90.000000
_cell_angle_beta 94.425072
_cell_angle_gamma 90.000000
_cell_volume 1432.784008
_symmetry_space_group_name_H-M "P 21/M"
_symmetry_group_IT_number 11
_symmetry_cell_setting 'monoclinic'
loop_
_space_group_symop_operation_xyz
x,y,z
-x,1/2+y,-z
-x,-y,-z
x,1/2-y,z
loop_
_atom_site_type_symbol
_atom_site_label
_atom_site_fract_x
_atom_site_fract_y
_atom_site_fract_z
Si Si1 0.814534 0.575710 0.191124
Si Si2 0.030073 0.079020 0.309746
Si Si3 0.867752 0.426891 0.002717
Si Si4 0.187710 0.925164 0.467026
Si Si5 0.678038 0.926233 0.363262
Si Si6 0.408082 0.926724 0.337186
Si Si7 0.253131 0.420792 0.177775
O O1 0.824727 0.750000 0.168181
O O2 0.813927 0.480776 0.097547
O O3 0.704154 0.554302 0.255379
O O4 0.929340 0.524262 0.258392
O O5 0.989115 0.250000 0.317177
O O6 0.140339 0.077616 0.242628
O O7 0.082638 0.015250 0.409006
O O8 0.880725 0.250000 0.001618
O O9 0.785642 0.483704 0.913239
O O10 0.000000 0.500000 0.000000
O O11 0.160044 0.750000 0.466356
O O12 0.307549 0.948718 0.410524
O O13 0.225852 0.985058 0.569664
O O14 0.691208 0.750000 0.385315
O O15 0.541394 0.973849 0.375660
O O16 0.413090 0.750000 0.317840
O O17 0.362755 0.011747 0.243053
O O18 0.275122 0.250000 0.152043
#
# Coordination Sequence:
#
# PCOD9162087 Si02
#       7
#     4   4   4   4   4   4   4
#     4  11  23  38  57  82 115 151 189 232 281 339
#     4  10  20  35  56  82 114 148 185 233 285 337
#     4  12  23  37  60  87 115 147 184 229 280 337
#     4  10  20  34  58  86 112 146 190 238 284 335
#     4  10  22  39  57  80 114 154 191 233 283 335
#     4   9  19  37  59  84 114 148 190 236 282 331
#     4  10  20  35  58  88 115 143 185 235 283 330
#
# _framework density 19.542373999999999
#
# number of rings (size 3 to 8) (size 9 to 14) (size 15 to 20)
#    0.000    1.714    1.429    3.429    0.000    4.000 
#    0.000    0.714    0.000    0.000    0.000    0.000 
#    0.000    0.000    0.000    0.000    0.000    0.000 
#
# Total GULP energy -156501.594293 kJ/mol
# GULP energy per Si atom -5589.342653 kJ/mol
# Density = 1.949789 g / cm^3
# Si number density = 19.542374 Si / 1000 Ang^3
#
#
#
# Elastic Constant Matrix: (Units=GPa)
#
#
# Indices 1 2 3 4 5 6 
#
# 1 15.6861 6.3419 1.5982 0.0000 1.9102 0.0000
# 2 6.3419 96.5086 51.6221 0.0000 -5.6049 0.0000
# 3 1.5982 51.6221 111.4568 0.0000 1.3247 0.0000
# 4 0.0000 0.0000 0.0000 38.3489 0.0000 3.6041
# 5 1.9102 -5.6049 1.3247 0.0000 19.7756 0.0000
# 6 0.0000 0.0000 0.0000 3.6041 0.0000 18.2834
#
#
#
# Elastic Compliance Matrix: (Units=1/GPa)
#
#
# Indices 1 2 3 4 5 6 
#
# 1 0.066941 -0.005872 0.001858 0.000000 -0.008255 0.000000
# 2 -0.005872 0.014671 -0.006772 0.000000 0.005179 0.000000
# 3 0.001858 -0.006772 0.012117 0.000000 -0.002911 0.000000
# 4 0.000000 0.000000 0.000000 0.026569 0.000000 -0.005237
# 5 -0.008255 0.005179 -0.002911 0.000000 0.053027 0.000000
# 6 0.000000 0.000000 0.000000 -0.005237 0.000000 0.055727
#
#
# Mechanical properties :
#
#
# Convention : Reuss Voigt Hill
#
# Bulk Modulus (GPa) = 13.85896 38.08619 25.97258
# Shear Modulus (GPa) = 18.20325 26.22087 22.21206
#
# Velocity S-wave (km/s) = 3.05532 3.66696 3.37502
# Velocity P-wave (km/s) = 4.42197 6.12047 5.33919
#
# Compressibility (1/GPa) = 0.07215549
#
# Stress axis : x y z
#
# Youngs Moduli (GPa) = 14.93857 68.16207 82.53079
#
# Poissons Ratio (x) = 0.40026 -0.15334
# Poissons Ratio (y) = 0.08772 0.55892
# Poissons Ratio (z) = -0.02776 0.46161
#
# Static dielectric constant tensor:
#      x y z
#    x 1.703180 0.000000 -0.032000 
#    y 0.000000 1.654740 0.000000 
#    z -0.032000 0.000000 1.664280 
# 
# From -- ./inp_files/44601.got.cif
#   From: 2010.05.17/outbox.cif.g08.bks.cpg/sg11_23_cif.got.tgz:44601.got - 2010.06.03 12:22:45.
