data_PCOD9162478
_publ_section_title
;
Structure prediction by ZEFSAII (Michael W. Deem and Ramdas Pophale) SiO2 
 PCOD9162478
Probable space group: P 21/M
;
_chemical_formula_sum "Si O2"
_cell_formula_units_Z 24
_cell_length_a 14.601585
_cell_length_b 8.696827
_cell_length_c 15.323722
_cell_angle_alpha 90.000000
_cell_angle_beta 144.190331
_cell_angle_gamma 90.000000
_cell_volume 1138.547465
_symmetry_space_group_name_H-M "P 21/M"
_symmetry_group_IT_number 11
_symmetry_cell_setting 'monoclinic'
loop_
_space_group_symop_operation_xyz
x,y,z
-x,1/2+y,-z
-x,-y,-z
x,1/2-y,z
loop_
_atom_site_type_symbol
_atom_site_label
_atom_site_fract_x
_atom_site_fract_y
_atom_site_fract_z
Si Si1 0.421419 0.750000 0.092973
Si Si2 0.735585 0.750000 0.219058
Si Si3 0.351371 0.250000 0.571241
Si Si4 0.959835 0.750000 0.553375
Si Si5 0.983751 0.432845 0.845815
Si Si6 0.781269 0.572123 0.824952
Si Si7 0.834760 0.473843 0.181094
Si Si8 0.564143 0.064913 0.457465
O O1 0.574775 0.750000 0.149146
O O2 0.496488 0.750000 0.247369
O O3 0.303829 0.887709 0.977541
O O4 0.886144 0.750000 0.400427
O O5 0.750088 0.609227 0.165214
O O6 0.193735 0.250000 0.505159
O O7 0.351940 0.414765 0.520457
O O8 0.071767 0.888279 0.669418
O O9 0.991861 0.250000 0.849513
O O10 0.033311 0.489778 0.789557
O O11 0.822151 0.481429 0.767347
O O12 0.111153 0.491059 0.014483
O O13 0.823437 0.750000 0.838984
O O14 0.604643 0.572602 0.721246
O O15 0.618354 0.250000 0.500833
O O16 0.500000 0.000000 0.500000
#
# Coordination Sequence:
#
# PCOD9162478 Si02
#       8
#     2   2   2   2   4   4   4   4
#     4  10  24  42  70  96 127 165 212 268 348 388
#     4  11  22  46  67  98 127 163 210 275 331 411
#     4  11  24  46  63  93 140 176 221 287 323 393
#     4  10  26  42  66  91 136 168 211 268 344 390
#     4  10  20  35  56  90 118 159 207 262 314 378
#     4   9  21  36  55  83 126 160 208 263 319 371
#     4  11  22  41  69  96 125 168 213 265 329 407
#     4  11  23  39  61  87 125 181 228 268 323 385
#
# _framework density 21.079488999999999
#
# number of rings (size 3 to 8) (size 9 to 14) (size 15 to 20)
#    0.000    1.667    1.667    2.000    5.833    0.000 
#    3.000    0.000    7.333    0.000    0.000    0.000 
#    0.000    0.000    0.000    0.000    0.000    0.000 
#
# Total GULP energy -133630.552667 kJ/mol
# GULP energy per Si atom -5567.939694 kJ/mol
# Density = 2.103151 g / cm^3
# Si number density = 21.079489 Si / 1000 Ang^3
#
#
#
# Elastic Constant Matrix: (Units=GPa)
#
#
# Indices 1 2 3 4 5 6 
#
# 1 63.4196 33.7114 2.7151 0.0000 -7.7507 0.0000
# 2 33.7114 121.8825 23.5281 0.0000 -11.3937 0.0000
# 3 2.7151 23.5281 84.6372 0.0000 -1.7029 0.0000
# 4 0.0000 0.0000 0.0000 -11.6296 0.0000 15.4163
# 5 -7.7507 -11.3937 -1.7029 0.0000 35.2218 0.0000
# 6 0.0000 0.0000 0.0000 15.4163 0.0000 -14.2538
#
#
#
# Elastic Compliance Matrix: (Units=1/GPa)
#
#
# Indices 1 2 3 4 5 6 
#
# 1 0.018761 -0.005123 0.000873 0.000000 0.002514 0.000000
# 2 -0.005123 0.010331 -0.002666 0.000000 0.002086 0.000000
# 3 0.000873 -0.002666 0.012527 0.000000 -0.000065 0.000000
# 4 0.000000 0.000000 0.000000 0.198258 0.000000 0.214426
# 5 0.002514 0.002086 -0.000065 0.000000 0.029616 0.000000
# 6 0.000000 0.000000 0.000000 0.214426 0.000000 0.161757
#
#
# Mechanical properties :
#
#
# Convention : Reuss Voigt Hill
#
# Bulk Modulus (GPa) = 35.98697 43.31650 39.65173
# Shear Modulus (GPa) = 11.00491 15.86667 13.43579
#
# Velocity S-wave (km/s) = 2.28736 2.74653 2.52739
# Velocity P-wave (km/s) = 4.90766 5.53639 5.23148
#
# Compressibility (1/GPa) = 0.02778784
#
# Stress axis : x y z
#
# Youngs Moduli (GPa) = 53.30273 96.79602 79.82861
#
# Poissons Ratio (x) = 0.49584 -0.06967
# Poissons Ratio (y) = 0.27304 0.21279
# Poissons Ratio (z) = -0.04652 0.25802
#
# Static dielectric constant tensor:
#      x y z
#    x 1.713690 0.000000 0.022800 
#    y 0.000000 1.704690 0.000000 
#    z 0.022800 0.000000 1.868600 
# 
# From -- ./inp_files/51864.got.cif
#   From: 2010.05.17/outbox.cif.g08.bks.cpg/sg11_26_cif.got.tgz:51864.got - 2010.06.03 12:22:45.
