data_PCOD9162811
_publ_section_title
;
Structure prediction by ZEFSAII (Michael W. Deem and Ramdas Pophale) SiO2 
 PCOD9162811
Probable space group: P 21/M
;
_chemical_formula_sum "Si O2"
_cell_formula_units_Z 28
_cell_length_a 14.817978
_cell_length_b 8.452442
_cell_length_c 14.817981
_cell_angle_alpha 90.000000
_cell_angle_beta 60.000097
_cell_angle_gamma 90.000000
_cell_volume 1607.278868
_symmetry_space_group_name_H-M "P 21/M"
_symmetry_group_IT_number 11
_symmetry_cell_setting 'monoclinic'
loop_
_space_group_symop_operation_xyz
x,y,z
-x,1/2+y,-z
-x,-y,-z
x,1/2-y,z
loop_
_atom_site_type_symbol
_atom_site_label
_atom_site_fract_x
_atom_site_fract_y
_atom_site_fract_z
Si Si1 0.095291 0.061245 0.389281
Si Si2 0.697129 0.058511 0.237445
Si Si3 0.737446 0.441489 0.565425
Si Si4 0.065426 0.441489 0.197129
Si Si5 0.515428 0.438755 0.595292
Si Si6 0.166667 0.558466 0.666667
Si Si7 0.110720 0.938755 0.984572
O O1 0.085081 0.250000 0.393495
O O2 0.090567 0.008101 0.286922
O O3 0.206020 0.011285 0.375985
O O4 0.000000 0.000000 0.500000
O O5 0.689770 0.250000 0.237886
O O6 0.742774 0.009004 0.311945
O O7 0.786922 0.008100 0.122511
O O8 0.582004 0.988716 0.293980
O O9 0.737887 0.250000 0.572343
O O10 0.622512 0.491899 0.590566
O O11 0.811946 0.490997 0.445280
O O12 0.072344 0.250000 0.189769
O O13 0.945280 0.490996 0.242774
O O14 0.124016 0.511286 0.082004
O O15 0.500000 0.500000 0.500000
O O16 0.521423 0.250000 0.585082
O O17 0.166667 0.750000 0.666666
O O18 0.106506 0.750000 0.978575
O O19 0.000000 0.000000 0.000000
#
# Coordination Sequence:
#
# PCOD9162811 Si02
#       7
#     4   4   4   4   4   4   4
#     4  11  22  35  55  82 111 146 184 225 275 327
#     4  10  20  36  54  76 111 148 180 221 273 325
#     4  10  20  36  54  76 111 148 180 221 273 325
#     4  10  20  36  54  76 111 148 180 221 273 325
#     4  11  22  35  55  82 111 146 184 225 275 327
#     4   9  15  30  52  74 109 147 172 212 271 321
#     4  11  22  35  55  82 111 146 184 225 275 327
#
# _framework density 17.420746999999999
#
# number of rings (size 3 to 8) (size 9 to 14) (size 15 to 20)
#    0.000    1.714    4.286    1.286    0.000    3.429 
#    0.000    0.000    0.000    0.857    0.000    0.000 
#    0.000    0.000    0.000    0.000    0.000    0.000 
#
# Total GULP energy -156097.573933 kJ/mol
# GULP energy per Si atom -5574.913355 kJ/mol
# Density = 1.738110 g / cm^3
# Si number density = 17.420747 Si / 1000 Ang^3
#
#
#
# Elastic Constant Matrix: (Units=GPa)
#
#
# Indices 1 2 3 4 5 6 
#
# 1 100.1211 18.3502 42.8404 0.0000 -0.0001 0.0000
# 2 18.3502 23.7502 18.3503 0.0000 -0.0001 0.0000
# 3 42.8404 18.3503 100.1219 0.0000 -0.0005 0.0000
# 4 0.0000 0.0000 0.0000 26.0817 0.0000 -0.0001
# 5 -0.0001 -0.0001 -0.0005 0.0000 28.6404 0.0000
# 6 0.0000 0.0000 0.0000 -0.0001 0.0000 26.0817
#
#
#
# Elastic Compliance Matrix: (Units=1/GPa)
#
#
# Indices 1 2 3 4 5 6 
#
# 1 0.013092 -0.006742 -0.004366 0.000000 0.000000 0.000000
# 2 -0.006742 0.052523 -0.006742 0.000000 0.000000 0.000000
# 3 -0.004366 -0.006742 0.013092 0.000000 0.000000 0.000000
# 4 0.000000 0.000000 0.000000 0.038341 0.000000 0.000000
# 5 0.000000 0.000000 0.000000 0.000000 0.034916 0.000000
# 6 0.000000 0.000000 0.000000 0.000000 0.000000 0.038341
#
#
# Mechanical properties :
#
#
# Convention : Reuss Voigt Hill
#
# Bulk Modulus (GPa) = 23.25201 42.56390 32.90796
# Shear Modulus (GPa) = 20.80398 25.79089 23.29744
#
# Velocity S-wave (km/s) = 3.45948 3.85186 3.66093
# Velocity P-wave (km/s) = 5.41605 6.65345 6.06638
#
# Compressibility (1/GPa) = 0.04300704
#
# Stress axis : x y z
#
# Youngs Moduli (GPa) = 76.38423 19.03939 76.38477
#
# Poissons Ratio (x) = 0.12836 0.33350
# Poissons Ratio (y) = 0.51496 0.51496
# Poissons Ratio (z) = 0.33350 0.12836
#
# Static dielectric constant tensor:
#      x y z
#    x 1.595400 0.000000 0.000000 
#    y 0.000000 1.603400 0.000000 
#    z 0.000000 0.000000 1.595400 
# 
# From -- ./inp_files/51123.got.cif
#   From: 2010.05.17/outbox.cif.g08.bks.cpg/sg11_26_cif.got.tgz:51123.got - 2010.06.03 12:22:45.
