data_PCOD9162329
_publ_section_title
;
Structure prediction by ZEFSAII (Michael W. Deem and Ramdas Pophale) SiO2 
 PCOD9162329
Probable space group: P 21/M
;
_chemical_formula_sum "Si O2"
_cell_formula_units_Z 32
_cell_length_a 25.547747
_cell_length_b 8.653711
_cell_length_c 25.546669
_cell_angle_alpha 90.000000
_cell_angle_beta 17.532224
_cell_angle_gamma 90.000000
_cell_volume 1701.394381
_symmetry_space_group_name_H-M "P 21/M"
_symmetry_group_IT_number 11
_symmetry_cell_setting 'monoclinic'
loop_
_space_group_symop_operation_xyz
x,y,z
-x,1/2+y,-z
-x,-y,-z
x,1/2-y,z
loop_
_atom_site_type_symbol
_atom_site_label
_atom_site_fract_x
_atom_site_fract_y
_atom_site_fract_z
Si Si1 0.131927 0.064634 0.122311
Si Si2 0.089083 0.934261 0.466611
Si Si3 0.533665 0.064315 0.138535
Si Si4 0.467981 0.434483 0.087971
Si Si5 0.330603 0.936328 0.726834
Si Si6 0.275400 0.436310 0.666308
Si Si7 0.067248 0.562809 0.068761
Si Si8 0.855880 0.436760 0.472542
O O1 0.137767 0.250000 0.117970
O O2 0.973106 0.014269 0.311764
O O3 0.099014 0.006381 0.095250
O O4 0.314139 0.001058 0.970574
O O5 0.083664 0.750000 0.467927
O O6 0.039391 0.977473 0.573546
O O7 0.280989 0.000401 0.280321
O O8 0.000000 0.000000 0.500000
O O9 0.530093 0.250000 0.144840
O O10 0.574789 0.020689 0.038288
O O11 0.339975 0.004576 0.338602
O O12 0.470539 0.250000 0.081812
O O13 0.500000 0.500000 0.000000
O O14 0.325897 0.750000 0.728942
O O15 0.533060 0.984601 0.536169
O O16 0.255657 0.000197 0.743846
O O17 0.216460 0.984616 0.885206
O O18 0.273115 0.250000 0.671068
O O19 0.118079 0.484798 0.779069
O O20 0.069509 0.750000 0.070261
O O21 0.838139 0.250000 0.488928
#
# Coordination Sequence:
#
# PCOD9162329 Si02
#       8
#     4   4   4   4   4   4   4   4
#     4  11  24  40  60  85 114 154 198 241 292 347
#     4  10  20  35  55  82 111 143 181 227 284 346
#     4  10  22  40  61  85 112 147 190 237 288 345
#     4  10  21  36  55  83 112 143 180 225 283 345
#     4   9  18  33  54  81 113 147 184 228 282 337
#     4   9  18  33  54  80 111 147 185 229 283 334
#     4  10  21  36  53  79 113 148 190 237 282 334
#     4   9  21  41  60  81 112 150 189 235 290 343
#
# _framework density 18.808102999999999
#
# number of rings (size 3 to 8) (size 9 to 14) (size 15 to 20)
#    0.000    2.250    0.000    1.875    1.750    5.000 
#    0.000    1.250    0.000    0.000    0.000    0.000 
#    0.000    0.000    0.000    0.000    0.000    0.000 
#
# Total GULP energy -178427.468898 kJ/mol
# GULP energy per Si atom -5575.858403 kJ/mol
# Density = 1.876529 g / cm^3
# Si number density = 18.808103 Si / 1000 Ang^3
#
#
#
# Elastic Constant Matrix: (Units=GPa)
#
#
# Indices 1 2 3 4 5 6 
#
# 1 212.5866 48.9298 109.8846 0.0000 5.7270 0.0000
# 2 48.9298 28.7191 31.6225 0.0000 1.5476 0.0000
# 3 109.8846 31.6225 111.0220 0.0000 1.5450 0.0000
# 4 0.0000 0.0000 0.0000 17.5785 0.0000 0.6238
# 5 5.7270 1.5476 1.5450 0.0000 17.3006 0.0000
# 6 0.0000 0.0000 0.0000 0.6238 0.0000 32.5695
#
#
#
# Elastic Compliance Matrix: (Units=1/GPa)
#
#
# Indices 1 2 3 4 5 6 
#
# 1 0.011434 -0.010107 -0.008408 0.000000 -0.002130 0.000000
# 2 -0.010107 0.059848 -0.007024 0.000000 -0.001381 0.000000
# 3 -0.008408 -0.007024 0.019306 0.000000 0.001687 0.000000
# 4 0.000000 0.000000 0.000000 0.056926 0.000000 -0.001090
# 5 -0.002130 -0.001381 0.001687 0.000000 0.058479 0.000000
# 6 0.000000 0.000000 0.000000 -0.001090 0.000000 0.030724
#
#
# Mechanical properties :
#
#
# Convention : Reuss Voigt Hill
#
# Bulk Modulus (GPa) = 25.31001 81.46682 53.38842
# Shear Modulus (GPa) = 16.61314 24.28245 20.44780
#
# Velocity S-wave (km/s) = 2.97526 3.59703 3.30082
# Velocity P-wave (km/s) = 5.02882 7.78847 6.55551
#
# Compressibility (1/GPa) = 0.03951005
#
# Stress axis : x y z
#
# Youngs Moduli (GPa) = 87.46028 16.70896 51.79638
#
# Poissons Ratio (x) = 0.16888 0.43551
# Poissons Ratio (y) = 0.88397 0.36381
# Poissons Ratio (z) = 0.73538 0.11736
#
# Static dielectric constant tensor:
#      x y z
#    x 1.678000 0.000000 0.014350 
#    y 0.000000 1.633950 0.000000 
#    z 0.014350 0.000000 1.646740 
# 
# From -- ./inp_files/69968.got.cif
#   From: 2010.05.17/outbox.cif.g08.bks.cpg/sg11_35_cif.got.tgz:69968.got - 2010.06.03 12:22:45.
