data_PCOD9162981
_publ_section_title
;
Structure prediction by ZEFSAII (Michael W. Deem and Ramdas Pophale) SiO2 
 PCOD9162981
Probable space group: P 21/M
;
_chemical_formula_sum "Si O2"
_cell_formula_units_Z 28
_cell_length_a 12.039271
_cell_length_b 19.623831
_cell_length_c 6.387198
_cell_angle_alpha 90.000000
_cell_angle_beta 115.196167
_cell_angle_gamma 90.000000
_cell_volume 1365.443115
_symmetry_space_group_name_H-M "P 21/M"
_symmetry_group_IT_number 11
_symmetry_cell_setting 'monoclinic'
loop_
_space_group_symop_operation_xyz
x,y,z
-x,1/2+y,-z
-x,-y,-z
x,1/2-y,z
loop_
_atom_site_type_symbol
_atom_site_label
_atom_site_fract_x
_atom_site_fract_y
_atom_site_fract_z
Si Si1 0.920265 0.422665 0.797703
Si Si2 0.859674 0.579481 0.323047
Si Si3 0.267180 0.017388 0.128085
Si Si4 0.776567 0.172972 0.378379
Si Si5 0.994546 0.670856 0.753179
Si Si6 0.579324 0.086263 0.034393
Si Si7 0.632333 0.532122 0.361413
O O1 0.854250 0.483375 0.867951
O O2 0.816961 0.377360 0.596964
O O3 0.013948 0.443398 0.686676
O O4 0.987883 0.374843 0.025041
O O5 0.895456 0.640156 0.508910
O O6 0.773002 0.531334 0.392905
O O7 0.771767 0.580953 0.047446
O O8 0.357071 0.038059 0.384965
O O9 0.330456 0.956891 0.046232
O O10 0.776778 0.250000 0.457259
O O11 0.879068 0.167453 0.278317
O O12 0.648652 0.152144 0.170693
O O13 0.969769 0.750000 0.783927
O O14 0.449685 0.090270 0.813495
O O15 0.569496 0.036596 0.227479
#
# Coordination Sequence:
#
# PCOD9162981 Si02
#       7
#     4   4   4   4   4   4   4
#     4  11  20  34  57  86 114 144 181 233 289 338
#     4  10  23  35  55  86 114 148 185 227 282 342
#     4  11  20  34  57  87 115 145 186 235 283 334
#     4  10  20  36  57  83 111 144 191 236 279 333
#     4  10  21  38  57  79 112 150 188 235 285 336
#     4  10  20  37  57  82 112 150 191 228 284 329
#     4  10  21  37  56  82 117 151 183 231 279 342
#
# _framework density 20.506163000000001
#
# number of rings (size 3 to 8) (size 9 to 14) (size 15 to 20)
#    0.000    1.714    2.857    2.143    0.000    1.714 
#    0.000    0.714    0.000    0.857    0.000    0.000 
#    0.000    0.000    0.000    0.000    0.000    0.000 
#
# Total GULP energy -156088.961423 kJ/mol
# GULP energy per Si atom -5574.605765 kJ/mol
# Density = 2.045949 g / cm^3
# Si number density = 20.506163 Si / 1000 Ang^3
#
#
#
# Elastic Constant Matrix: (Units=GPa)
#
#
# Indices 1 2 3 4 5 6 
#
# 1 70.1270 17.0487 24.7108 0.0000 -4.3018 0.0000
# 2 17.0487 67.1673 50.4302 0.0000 8.5135 0.0000
# 3 24.7108 50.4302 155.7569 0.0000 12.9170 0.0000
# 4 0.0000 0.0000 0.0000 31.6881 0.0000 2.4839
# 5 -4.3018 8.5135 12.9170 0.0000 28.6619 0.0000
# 6 0.0000 0.0000 0.0000 2.4839 0.0000 18.2488
#
#
#
# Elastic Compliance Matrix: (Units=1/GPa)
#
#
# Indices 1 2 3 4 5 6 
#
# 1 0.015941 -0.003192 -0.001841 0.000000 0.004170 0.000000
# 2 -0.003192 0.020576 -0.005827 0.000000 -0.003965 0.000000
# 3 -0.001841 -0.005827 0.008807 0.000000 -0.002515 0.000000
# 4 0.000000 0.000000 0.000000 0.031898 0.000000 -0.004342
# 5 0.004170 -0.003965 -0.002515 0.000000 0.037827 0.000000
# 6 0.000000 0.000000 0.000000 -0.004342 0.000000 0.055389
#
#
# Mechanical properties :
#
#
# Convention : Reuss Voigt Hill
#
# Bulk Modulus (GPa) = 42.36670 53.04782 47.70726
# Shear Modulus (GPa) = 24.99682 29.11054 27.05368
#
# Velocity S-wave (km/s) = 3.49519 3.77184 3.63615
# Velocity P-wave (km/s) = 6.08225 6.70033 6.39876
#
# Compressibility (1/GPa) = 0.02360344
#
# Stress axis : x y z
#
# Youngs Moduli (GPa) = 62.73306 48.60089 113.54019
#
# Poissons Ratio (x) = 0.15515 0.20906
# Poissons Ratio (y) = 0.20026 0.66156
# Poissons Ratio (z) = 0.11551 0.28318
#
# Static dielectric constant tensor:
#      x y z
#    x 1.804440 0.000000 0.014600 
#    y 0.000000 1.702600 0.000000 
#    z 0.014600 0.000000 1.781300 
# 
# From -- ./inp_files/5020.got.cif
#   From: 2010.05.17/outbox.cif.g08.bks.cpg/sg11_3_cif.got.tgz:5020.got - 2010.06.03 12:22:45.
