data_PCOD9162787
_publ_section_title
;
Structure prediction by ZEFSAII (Michael W. Deem and Ramdas Pophale) SiO2 
 PCOD9162787
Probable space group: P 21/M
;
_chemical_formula_sum "Si O2"
_cell_formula_units_Z 32
_cell_length_a 21.794479
_cell_length_b 13.591834
_cell_length_c 9.534991
_cell_angle_alpha 90.000000
_cell_angle_beta 33.342946
_cell_angle_gamma 90.000000
_cell_volume 1552.495663
_symmetry_space_group_name_H-M "P 21/M"
_symmetry_group_IT_number 11
_symmetry_cell_setting 'monoclinic'
loop_
_space_group_symop_operation_xyz
x,y,z
-x,1/2+y,-z
-x,-y,-z
x,1/2-y,z
loop_
_atom_site_type_symbol
_atom_site_label
_atom_site_fract_x
_atom_site_fract_y
_atom_site_fract_z
Si Si1 0.309929 0.866489 0.676627
Si Si2 0.323831 0.037772 0.277801
Si Si3 0.713448 0.637902 0.930117
Si Si4 0.551390 0.529043 0.711445
Si Si5 0.939646 0.365077 0.942320
Si Si6 0.494329 0.635551 0.535324
Si Si7 0.084214 0.498127 0.468491
Si Si8 0.143212 0.865622 0.593527
O O1 0.317169 0.750000 0.641413
O O2 0.182018 0.894299 0.890441
O O3 0.371701 0.887948 0.706713
O O4 0.389732 0.923475 0.418039
O O5 0.295720 0.120680 0.218672
O O6 0.360668 0.082956 0.355487
O O7 0.233244 0.951041 0.454302
O O8 0.433010 0.983058 0.009372
O O9 0.748657 0.750000 0.895540
O O10 0.802367 0.554122 0.801552
O O11 0.592193 0.622753 0.232585
O O12 0.530705 0.576124 0.601069
O O13 0.955466 0.250000 0.879410
O O14 0.937210 0.374117 0.116299
O O15 0.031970 0.428653 0.689010
O O16 0.491993 0.750000 0.576756
O O17 0.100885 0.601079 0.519938
O O18 0.000000 0.500000 0.500000
O O19 0.179572 0.750000 0.522660
#
# Coordination Sequence:
#
# PCOD9162787 Si02
#       8
#     4   4   4   4   4   4   4   4
#     4  10  20  35  62  89 118 161 201 241 292 351
#     4  10  22  35  58  92 118 159 194 246 301 349
#     4  10  22  41  60  81 117 157 196 242 298 359
#     4  11  21  35  58  87 126 156 200 244 291 352
#     4  10  21  40  65  89 118 160 206 249 296 359
#     4  10  22  38  58  86 120 163 202 238 294 356
#     4  11  25  40  64  91 120 153 198 251 310 357
#     4  10  22  42  64  88 119 157 203 252 302 358
#
# _framework density 20.611972999999999
#
# number of rings (size 3 to 8) (size 9 to 14) (size 15 to 20)
#    0.000    1.750    2.500    1.125    1.750    3.000 
#    0.000    3.750    0.000    0.000    0.000    0.000 
#    0.000    0.000    0.000    0.000    0.000    0.000 
#
# Total GULP energy -178419.057190 kJ/mol
# GULP energy per Si atom -5575.595537 kJ/mol
# Density = 2.056506 g / cm^3
# Si number density = 20.611973 Si / 1000 Ang^3
#
#
#
# Elastic Constant Matrix: (Units=GPa)
#
#
# Indices 1 2 3 4 5 6 
#
# 1 102.9777 9.1656 -5.3627 0.0000 6.4384 0.0000
# 2 9.1656 62.0115 21.1937 0.0000 4.1146 0.0000
# 3 -5.3627 21.1937 47.6379 0.0000 -3.1700 0.0000
# 4 0.0000 0.0000 0.0000 23.5327 0.0000 2.7505
# 5 6.4384 4.1146 -3.1700 0.0000 24.9951 0.0000
# 6 0.0000 0.0000 0.0000 2.7505 0.0000 23.0944
#
#
#
# Elastic Compliance Matrix: (Units=1/GPa)
#
#
# Indices 1 2 3 4 5 6 
#
# 1 0.010116 -0.002008 0.001897 0.000000 -0.002034 0.000000
# 2 -0.002008 0.019873 -0.009329 0.000000 -0.003937 0.000000
# 3 0.001897 -0.009329 0.025642 0.000000 0.004299 0.000000
# 4 0.000000 0.000000 0.000000 0.043094 0.000000 -0.005132
# 5 -0.002034 -0.003937 0.004299 0.000000 0.041725 0.000000
# 6 0.000000 0.000000 0.000000 -0.005132 0.000000 0.043912
#
#
# Mechanical properties :
#
#
# Convention : Reuss Voigt Hill
#
# Bulk Modulus (GPa) = 27.21207 29.18005 28.19606
# Shear Modulus (GPa) = 23.20270 26.83314 25.01792
#
# Velocity S-wave (km/s) = 3.35877 3.61199 3.48768
# Velocity P-wave (km/s) = 5.31719 5.61987 5.47062
#
# Compressibility (1/GPa) = 0.03674839
#
# Stress axis : x y z
#
# Youngs Moduli (GPa) = 98.85731 50.32056 38.99878
#
# Poissons Ratio (x) = 0.10107 -0.07398
# Poissons Ratio (y) = 0.19855 0.36383
# Poissons Ratio (z) = -0.18752 0.46945
#
# Static dielectric constant tensor:
#      x y z
#    x 1.827210 0.000000 0.007380 
#    y 0.000000 1.757290 0.000000 
#    z 0.007380 0.000000 1.726360 
# 
# From -- ./inp_files/26801.got.cif
#   From: 2010.05.17/outbox.cif.g08.bks.cpg/sg11_14_cif.got.tgz:26801.got - 2010.06.03 12:22:45.
