data_PCOD9162342
_publ_section_title
;
Structure prediction by ZEFSAII (Michael W. Deem and Ramdas Pophale) SiO2 
 PCOD9162342
Probable space group: P 21/M
;
_chemical_formula_sum "Si O2"
_cell_formula_units_Z 28
_cell_length_a 7.294445
_cell_length_b 18.646800
_cell_length_c 14.396991
_cell_angle_alpha 90.000000
_cell_angle_beta 140.898965
_cell_angle_gamma 90.000000
_cell_volume 1235.048820
_symmetry_space_group_name_H-M "P 21/M"
_symmetry_group_IT_number 11
_symmetry_cell_setting 'monoclinic'
loop_
_space_group_symop_operation_xyz
x,y,z
-x,1/2+y,-z
-x,-y,-z
x,1/2-y,z
loop_
_atom_site_type_symbol
_atom_site_label
_atom_site_fract_x
_atom_site_fract_y
_atom_site_fract_z
Si Si1 0.963565 0.333630 0.071521
Si Si2 0.182374 0.833626 0.201355
Si Si3 0.576633 0.662678 0.012146
Si Si4 0.131637 0.537389 0.400665
Si Si5 0.769310 0.919514 0.407958
Si Si6 0.720246 0.598747 0.650822
Si Si7 0.160482 0.832866 0.688973
O O1 0.018372 0.250000 0.115694
O O2 0.933098 0.337895 0.949940
O O3 0.658639 0.354509 0.001453
O O4 0.211980 0.380823 0.217172
O O5 0.235727 0.750000 0.245259
O O6 0.482192 0.875325 0.316451
O O7 0.908587 0.862556 0.153393
O O8 0.592999 0.750000 0.015191
O O9 0.432326 0.640082 0.857020
O O10 0.245798 0.489927 0.534407
O O11 0.384926 0.595395 0.489965
O O12 0.141639 0.478593 0.323311
O O13 0.829714 0.564735 0.323792
O O14 0.049579 0.876166 0.556912
O O15 0.894230 0.656210 0.657043
O O16 0.206284 0.750000 0.684314
#
# Coordination Sequence:
#
# PCOD9162342 Si02
#       7
#     4   4   4   4   4   4   4
#     4   9  18  34  57  83 108 138 178 225 276 332
#     4  10  20  35  55  83 113 141 170 220 286 333
#     4   8  16  32  53  77 108 138 169 213 270 325
#     4   9  20  36  55  73 105 149 185 222 267 302
#     4  10  20  36  54  75 111 142 180 225 265 324
#     4   9  17  35  57  76 104 139 184 228 264 313
#     4   9  17  32  57  83 103 135 178 225 276 325
#
# _framework density 22.67117
#
# number of rings (size 3 to 8) (size 9 to 14) (size 15 to 20)
#    0.000    2.857    0.000    1.714    2.000    0.000 
#    7.714    3.571    0.000    0.000    0.000    0.000 
#    0.000    0.000    0.000    0.000    0.000    0.000 
#
# Total GULP energy -156257.698065 kJ/mol
# GULP energy per Si atom -5580.632074 kJ/mol
# Density = 2.261957 g / cm^3
# Si number density = 22.671170 Si / 1000 Ang^3
#
#
#
# Elastic Constant Matrix: (Units=GPa)
#
#
# Indices 1 2 3 4 5 6 
#
# 1 64.2209 5.4800 7.4167 0.0000 16.2686 0.0000
# 2 5.4800 28.6178 17.5654 0.0000 7.6760 0.0000
# 3 7.4167 17.5654 68.2704 0.0000 24.5040 0.0000
# 4 0.0000 0.0000 0.0000 8.1632 0.0000 3.5286
# 5 16.2686 7.6760 24.5040 0.0000 36.2523 0.0000
# 6 0.0000 0.0000 0.0000 3.5286 0.0000 24.4161
#
#
#
# Elastic Compliance Matrix: (Units=1/GPa)
#
#
# Indices 1 2 3 4 5 6 
#
# 1 0.017754 -0.002137 0.001741 0.000000 -0.008692 0.000000
# 2 -0.002137 0.041872 -0.010171 0.000000 -0.001032 0.000000
# 3 0.001741 -0.010171 0.021895 0.000000 -0.013427 0.000000
# 4 0.000000 0.000000 0.000000 0.130663 0.000000 -0.018883
# 5 -0.008692 -0.001032 -0.013427 0.000000 0.040779 0.000000
# 6 0.000000 0.000000 0.000000 -0.018883 0.000000 0.043686
#
#
# Mechanical properties :
#
#
# Convention : Reuss Voigt Hill
#
# Bulk Modulus (GPa) = 16.55981 24.67037 20.61509
# Shear Modulus (GPa) = 14.79677 22.47613 18.63645
#
# Velocity S-wave (km/s) = 2.55751 3.15206 2.87022
# Velocity P-wave (km/s) = 4.00517 4.91455 4.48297
#
# Compressibility (1/GPa) = 0.06038715
#
# Stress axis : x y z
#
# Youngs Moduli (GPa) = 56.32432 23.88230 45.67335
#
# Poissons Ratio (x) = 0.05103 -0.07950
# Poissons Ratio (y) = 0.12036 0.46453
# Poissons Ratio (z) = -0.09804 0.24290
#
# Static dielectric constant tensor:
#      x y z
#    x 1.929480 0.000000 -0.002300 
#    y 0.000000 1.835180 0.000000 
#    z -0.002300 0.000000 1.882060 
# 
# From -- ./inp_files/58388.got.cif
#   From: 2010.05.17/outbox.cif.g08.bks.cpg/sg11_30_cif.got.tgz:58388.got - 2010.06.03 12:22:45.
