data_PCOD9162871
_publ_section_title
;
Structure prediction by ZEFSAII (Michael W. Deem and Ramdas Pophale) SiO2 
 PCOD9162871
Probable space group: P 21/M
;
_chemical_formula_sum "Si O2"
_cell_formula_units_Z 28
_cell_length_a 26.398309
_cell_length_b 9.301778
_cell_length_c 7.375880
_cell_angle_alpha 90.000000
_cell_angle_beta 47.104307
_cell_angle_gamma 90.000000
_cell_volume 1326.842330
_symmetry_space_group_name_H-M "P 21/M"
_symmetry_group_IT_number 11
_symmetry_cell_setting 'monoclinic'
loop_
_space_group_symop_operation_xyz
x,y,z
-x,1/2+y,-z
-x,-y,-z
x,1/2-y,z
loop_
_atom_site_type_symbol
_atom_site_label
_atom_site_fract_x
_atom_site_fract_y
_atom_site_fract_z
Si Si1 0.282332 0.584123 0.446334
Si Si2 0.056706 0.577480 0.241347
Si Si3 0.547114 0.585270 0.625117
Si Si4 0.171835 0.576501 0.239721
Si Si5 0.126434 0.924877 0.726774
Si Si6 0.320008 0.582951 0.782968
Si Si7 0.585509 0.914552 0.963947
O O1 0.287385 0.750000 0.373680
O O2 0.203938 0.536445 0.603264
O O3 0.298852 0.581755 0.620712
O O4 0.341137 0.493380 0.203701
O O5 0.045189 0.750000 0.273755
O O6 0.130381 0.547757 0.158413
O O7 0.000000 0.500000 0.500000
O O8 0.067815 0.525473 0.008489
O O9 0.537854 0.750000 0.592857
O O10 0.611273 0.510412 0.368902
O O11 0.566382 0.584464 0.794331
O O12 0.476313 0.497022 0.785843
O O13 0.177280 0.750000 0.238381
O O14 0.125748 0.526482 0.521007
O O15 0.250895 0.525922 0.049256
O O16 0.122997 0.750000 0.740187
O O17 0.333225 0.750000 0.799282
O O18 0.589456 0.750000 0.012397
#
# Coordination Sequence:
#
# PCOD9162871 Si02
#       7
#     4   4   4   4   4   4   4
#     4   9  15  26  46  69  93 125 166 210 253 298
#     4  10  20  36  56  80 107 136 169 206 249 300
#     4   9  16  25  39  64  97 132 169 210 255 301
#     4   9  17  31  53  78 103 134 172 210 250 301
#     4   9  17  31  53  78 103 134 172 210 250 301
#     4   9  15  26  46  69  93 125 166 210 253 298
#     4   9  16  25  39  64  97 132 169 210 255 301
#
# _framework density 21.102733000000001
#
# number of rings (size 3 to 8) (size 9 to 14) (size 15 to 20)
#    0.000    2.857    1.429    0.857    0.000    4.000 
#    0.000    1.429    0.000    3.429    0.000    0.000 
#    0.000    0.000    0.000    0.000    0.000    0.000 
#
# Total GULP energy -156294.635644 kJ/mol
# GULP energy per Si atom -5581.951273 kJ/mol
# Density = 2.105470 g / cm^3
# Si number density = 21.102733 Si / 1000 Ang^3
#
#
#
# Elastic Constant Matrix: (Units=GPa)
#
#
# Indices 1 2 3 4 5 6 
#
# 1 27.5747 0.9015 3.8758 0.0000 7.5714 0.0000
# 2 0.9015 59.5605 37.8804 0.0000 -9.5571 0.0000
# 3 3.8758 37.8804 155.1246 0.0000 -2.8270 0.0000
# 4 0.0000 0.0000 0.0000 28.1353 0.0000 -8.4916
# 5 7.5714 -9.5571 -2.8270 0.0000 25.7842 0.0000
# 6 0.0000 0.0000 0.0000 -8.4916 0.0000 6.4976
#
#
#
# Elastic Compliance Matrix: (Units=1/GPa)
#
#
# Indices 1 2 3 4 5 6 
#
# 1 0.039894 -0.002185 -0.000693 0.000000 -0.012600 0.000000
# 2 -0.002185 0.021281 -0.004997 0.000000 0.007982 0.000000
# 3 -0.000693 -0.004997 0.007669 0.000000 -0.000808 0.000000
# 4 0.000000 0.000000 0.000000 0.058693 0.000000 0.076705
# 5 -0.012600 0.007982 -0.000808 0.000000 0.045354 0.000000
# 6 0.000000 0.000000 0.000000 0.076705 0.000000 0.254148
#
#
# Mechanical properties :
#
#
# Convention : Reuss Voigt Hill
#
# Bulk Modulus (GPa) = 18.83410 36.39726 27.61568
# Shear Modulus (GPa) = 10.85807 25.39021 18.12414
#
# Velocity S-wave (km/s) = 2.27080 3.47244 2.93380
# Velocity P-wave (km/s) = 3.97740 5.77600 4.95893
#
# Compressibility (1/GPa) = 0.05309518
#
# Stress axis : x y z
#
# Youngs Moduli (GPa) = 25.06656 46.98936 130.39192
#
# Poissons Ratio (x) = 0.10268 0.09034
# Poissons Ratio (y) = 0.05477 0.65153
# Poissons Ratio (z) = 0.01737 0.23479
#
# Static dielectric constant tensor:
#      x y z
#    x 1.785720 0.000000 0.047650 
#    y 0.000000 1.705410 0.000000 
#    z 0.047650 0.000000 1.779680 
# 
# From -- ./inp_files/29035.got.cif
#   From: 2010.05.17/outbox.cif.g08.bks.cpg/sg11_15_cif.got.tgz:29035.got - 2010.06.03 12:22:45.
