data_PCOD9162185
_publ_section_title
;
Structure prediction by ZEFSAII (Michael W. Deem and Ramdas Pophale) SiO2 
 PCOD9162185
Probable space group: P 21/M
;
_chemical_formula_sum "Si O2"
_cell_formula_units_Z 32
_cell_length_a 14.612937
_cell_length_b 8.744603
_cell_length_c 14.525830
_cell_angle_alpha 90.000000
_cell_angle_beta 72.977571
_cell_angle_gamma 90.000000
_cell_volume 1774.854962
_symmetry_space_group_name_H-M "P 21/M"
_symmetry_group_IT_number 11
_symmetry_cell_setting 'monoclinic'
loop_
_space_group_symop_operation_xyz
x,y,z
-x,1/2+y,-z
-x,-y,-z
x,1/2-y,z
loop_
_atom_site_type_symbol
_atom_site_label
_atom_site_fract_x
_atom_site_fract_y
_atom_site_fract_z
Si Si1 0.764547 0.568591 0.311626
Si Si2 0.913588 0.067192 0.401992
Si Si3 0.563263 0.926455 0.680724
Si Si4 0.603868 0.070458 0.489540
Si Si5 0.396825 0.065572 0.999361
Si Si6 0.353323 0.932693 0.812102
Si Si7 0.878896 0.432580 0.618801
Si Si8 0.714575 0.928091 0.792050
O O1 0.766381 0.750000 0.302821
O O2 0.860763 0.508037 0.331168
O O3 0.682450 0.515597 0.407042
O O4 0.733666 0.495954 0.223315
O O5 0.908363 0.250000 0.394851
O O6 0.864559 0.024411 0.514985
O O7 0.022657 0.012415 0.379103
O O8 0.570296 0.750000 0.645471
O O9 0.452236 0.965086 0.727622
O O10 0.616908 0.934019 0.761682
O O11 0.615119 0.037295 0.594262
O O12 0.607658 0.250000 0.467991
O O13 0.500000 0.000000 0.500000
O O14 0.403026 0.250000 0.998897
O O15 0.366974 0.007602 0.907633
O O16 0.316235 0.018322 0.097806
O O17 0.500000 0.000000 0.000000
O O18 0.346618 0.750000 0.823241
O O19 0.891153 0.250000 0.617783
O O20 0.794242 0.482520 0.711334
O O21 0.744398 0.750000 0.787844
#
# Coordination Sequence:
#
# PCOD9162185 Si02
#       8
#     4   4   4   4   4   4   4   4
#     4  12  24  38  57  82 113 154 195 237 287 346
#     4  10  21  39  62  88 119 154 190 235 288 345
#     4  10  20  35  53  76 110 150 190 233 281 339
#     4  12  23  34  49  74 109 149 190 231 276 334
#     4  11  22  38  58  83 115 154 200 246 295 346
#     4  11  22  38  57  80 112 151 194 240 288 343
#     4  10  21  37  60  91 119 149 191 238 287 343
#     4  10  21  37  57  82 114 151 189 237 292 342
#
# _framework density 18.029641000000002
#
# number of rings (size 3 to 8) (size 9 to 14) (size 15 to 20)
#    0.000    1.250    2.500    4.500    0.000    5.500 
#    0.000    0.000    0.000    0.750    0.000    0.000 
#    0.000    0.000    0.000    0.000    0.000    0.000 
#
# Total GULP energy -178784.121655 kJ/mol
# GULP energy per Si atom -5587.003802 kJ/mol
# Density = 1.798860 g / cm^3
# Si number density = 18.029641 Si / 1000 Ang^3
#
#
#
# Elastic Constant Matrix: (Units=GPa)
#
#
# Indices 1 2 3 4 5 6 
#
# 1 90.4776 31.5686 39.2420 0.0000 19.0379 0.0000
# 2 31.5686 71.0859 37.8774 0.0000 8.2518 0.0000
# 3 39.2420 37.8774 97.2063 0.0000 16.0336 0.0000
# 4 0.0000 0.0000 0.0000 29.5709 0.0000 2.3242
# 5 19.0379 8.2518 16.0336 0.0000 29.2260 0.0000
# 6 0.0000 0.0000 0.0000 2.3242 0.0000 31.0410
#
#
#
# Elastic Compliance Matrix: (Units=1/GPa)
#
#
# Indices 1 2 3 4 5 6 
#
# 1 0.015501 -0.004230 -0.003453 0.000000 -0.007008 0.000000
# 2 -0.004230 0.018956 -0.005773 0.000000 0.000570 0.000000
# 3 -0.003453 -0.005773 0.014613 0.000000 -0.004138 0.000000
# 4 0.000000 0.000000 0.000000 0.034017 0.000000 -0.002547
# 5 -0.007008 0.000570 -0.004138 0.000000 0.040890 0.000000
# 6 0.000000 0.000000 0.000000 -0.002547 0.000000 0.032406
#
#
# Mechanical properties :
#
#
# Convention : Reuss Voigt Hill
#
# Bulk Modulus (GPa) = 45.13123 52.90509 49.01816
# Shear Modulus (GPa) = 26.22166 27.97302 27.09734
#
# Velocity S-wave (km/s) = 3.81775 3.94318 3.88097
# Velocity P-wave (km/s) = 6.67230 7.08087 6.87962
#
# Compressibility (1/GPa) = 0.02215760
#
# Stress axis : x y z
#
# Youngs Moduli (GPa) = 64.51248 52.75435 68.43049
#
# Poissons Ratio (x) = 0.22316 0.23631
# Poissons Ratio (y) = 0.27290 0.39503
# Poissons Ratio (z) = 0.22278 0.30453
#
# Static dielectric constant tensor:
#      x y z
#    x 1.639530 0.000000 0.029350 
#    y 0.000000 1.613860 0.000000 
#    z 0.029350 0.000000 1.624120 
# 
# From -- ./inp_files/51612.got.cif
#   From: 2010.05.17/outbox.cif.g08.bks.cpg/sg11_26_cif.got.tgz:51612.got - 2010.06.03 12:22:45.
