data_PCOD9162425
_publ_section_title
;
Structure prediction by ZEFSAII (Michael W. Deem and Ramdas Pophale) SiO2 
 PCOD9162425
Probable space group: P 21/M
;
_chemical_formula_sum "Si O2"
_cell_formula_units_Z 32
_cell_length_a 24.591942
_cell_length_b 7.576535
_cell_length_c 15.087528
_cell_angle_alpha 90.000000
_cell_angle_beta 150.913360
_cell_angle_gamma 90.000000
_cell_volume 1366.581141
_symmetry_space_group_name_H-M "P 21/M"
_symmetry_group_IT_number 11
_symmetry_cell_setting 'monoclinic'
loop_
_space_group_symop_operation_xyz
x,y,z
-x,1/2+y,-z
-x,-y,-z
x,1/2-y,z
loop_
_atom_site_type_symbol
_atom_site_label
_atom_site_fract_x
_atom_site_fract_y
_atom_site_fract_z
Si Si1 0.407951 0.949921 0.255267
Si Si2 0.999716 0.043032 0.221610
Si Si3 0.761258 0.967040 0.488512
Si Si4 0.307642 0.451987 0.945353
Si Si5 0.752413 0.464551 0.822620
Si Si6 0.628868 0.957687 0.472006
Si Si7 0.920440 0.041446 0.468633
Si Si8 0.384917 0.039243 0.882181
O O1 0.440533 0.750000 0.325592
O O2 0.347818 0.030108 0.255365
O O3 0.515149 0.030424 0.356515
O O4 0.311743 0.946998 0.042821
O O5 0.993339 0.250000 0.190730
O O6 0.109181 0.973961 0.325020
O O7 0.030058 0.026030 0.368640
O O8 0.875915 0.970606 0.026100
O O9 0.760878 0.750000 0.488759
O O10 0.681005 0.027613 0.454330
O O11 0.710080 0.024496 0.320981
O O12 0.331161 0.250000 0.002213
O O13 0.195364 0.458594 0.728196
O O14 0.391254 0.530655 0.991394
O O15 0.751215 0.250000 0.828000
O O16 0.722443 0.517804 0.680629
O O17 0.607703 0.750000 0.426914
O O18 0.904970 0.250000 0.454958
O O19 0.000000 0.000000 0.500000
O O20 0.370887 0.250000 0.871178
O O21 0.500000 0.000000 0.000000
#
# Coordination Sequence:
#
# PCOD9162425 Si02
#       8
#     4   4   4   4   4   4   4   4
#     4  10  21  38  58  85 119 154 196 246 304 362
#     4  10  20  39  61  82 116 156 197 244 298 357
#     4   9  18  36  58  80 113 156 194 236 295 354
#     4  11  22  37  59  88 119 156 195 238 293 351
#     4  10  22  38  59  84 112 150 193 248 309 357
#     4  10  21  37  60  84 113 155 198 246 300 359
#     4  12  24  38  59  87 120 157 197 243 291 351
#     4  10  20  35  56  82 116 155 194 236 286 349
#
# _framework density 23.416098000000002
#
# number of rings (size 3 to 8) (size 9 to 14) (size 15 to 20)
#    0.000    1.750    1.250    3.375    0.000    5.000 
#    0.000    1.250    0.000    0.000    0.000    0.000 
#    0.000    0.000    0.000    0.000    0.000    0.000 
#
# Total GULP energy -178717.802641 kJ/mol
# GULP energy per Si atom -5584.931333 kJ/mol
# Density = 2.336280 g / cm^3
# Si number density = 23.416098 Si / 1000 Ang^3
#
#
#
# Elastic Constant Matrix: (Units=GPa)
#
#
# Indices 1 2 3 4 5 6 
#
# 1 111.4389 1.9698 9.1328 0.0000 2.5656 0.0000
# 2 1.9698 66.5062 3.4506 0.0000 8.9543 0.0000
# 3 9.1328 3.4506 91.2552 0.0000 3.0476 0.0000
# 4 0.0000 0.0000 0.0000 21.3103 0.0000 -5.9048
# 5 2.5656 8.9543 3.0476 0.0000 43.7668 0.0000
# 6 0.0000 0.0000 0.0000 -5.9048 0.0000 12.1206
#
#
#
# Elastic Compliance Matrix: (Units=1/GPa)
#
#
# Indices 1 2 3 4 5 6 
#
# 1 0.009059 -0.000164 -0.000886 0.000000 -0.000436 0.000000
# 2 -0.000164 0.015486 -0.000465 0.000000 -0.003126 0.000000
# 3 -0.000886 -0.000465 0.011085 0.000000 -0.000625 0.000000
# 4 0.000000 0.000000 0.000000 0.054249 0.000000 0.026428
# 5 -0.000436 -0.003126 -0.000625 0.000000 0.023557 0.000000
# 6 0.000000 0.000000 0.000000 0.026428 0.000000 0.095379
#
#
# Mechanical properties :
#
#
# Convention : Reuss Voigt Hill
#
# Bulk Modulus (GPa) = 30.67310 33.14520 31.90915
# Shear Modulus (GPa) = 22.45059 32.41602 27.43330
#
# Velocity S-wave (km/s) = 3.09976 3.72472 3.42652
# Velocity P-wave (km/s) = 5.09302 5.71696 5.41399
#
# Compressibility (1/GPa) = 0.03260185
#
# Stress axis : x y z
#
# Youngs Moduli (GPa) = 110.38681 64.57410 90.20890
#
# Poissons Ratio (x) = 0.01057 0.07991
# Poissons Ratio (y) = 0.01807 0.04193
# Poissons Ratio (z) = 0.09779 0.03001
#
# Static dielectric constant tensor:
#      x y z
#    x 2.228600 0.000000 0.117770 
#    y 0.000000 1.857780 0.000000 
#    z 0.117770 0.000000 1.942100 
# 
# From -- ./inp_files/55587.got.cif
#   From: 2010.05.17/outbox.cif.g08.bks.cpg/sg11_28_cif.got.tgz:55587.got - 2010.06.03 12:22:45.
