data_PCOD9162349
_publ_section_title
;
Structure prediction by ZEFSAII (Michael W. Deem and Ramdas Pophale) SiO2 
 PCOD9162349
Probable space group: P 21/M
;
_chemical_formula_sum "Si O2"
_cell_formula_units_Z 32
_cell_length_a 20.262686
_cell_length_b 14.601107
_cell_length_c 13.583087
_cell_angle_alpha 90.000000
_cell_angle_beta 156.285799
_cell_angle_gamma 90.000000
_cell_volume 1616.203501
_symmetry_space_group_name_H-M "P 21/M"
_symmetry_group_IT_number 11
_symmetry_cell_setting 'monoclinic'
loop_
_space_group_symop_operation_xyz
x,y,z
-x,1/2+y,-z
-x,-y,-z
x,1/2-y,z
loop_
_atom_site_type_symbol
_atom_site_label
_atom_site_fract_x
_atom_site_fract_y
_atom_site_fract_z
Si Si1 0.487021 0.001644 0.648687
Si Si2 0.131716 0.997637 0.266777
Si Si3 0.443529 0.850678 0.924135
Si Si4 0.928263 0.352606 0.649454
Si Si5 0.575954 0.357553 0.602608
Si Si6 0.607871 0.515392 0.017535
Si Si7 0.027762 0.486704 0.423393
Si Si8 0.959283 0.356256 0.166593
O O1 0.312312 0.004182 0.466773
O O2 0.513248 0.089270 0.614297
O O3 0.490717 0.913902 0.581905
O O4 0.620239 0.995193 0.917868
O O5 0.083881 0.080688 0.274809
O O6 0.104375 0.905020 0.292768
O O7 0.000000 0.000000 0.000000
O O8 0.511679 0.750000 0.035792
O O9 0.248079 0.843559 0.644503
O O10 0.478579 0.924617 0.056681
O O11 0.507191 0.895107 0.910167
O O12 0.996851 0.250000 0.754288
O O13 0.024147 0.424544 0.711368
O O14 0.533967 0.250000 0.545275
O O15 0.774570 0.365557 0.872415
O O16 0.775001 0.523804 0.307130
O O17 0.000000 0.500000 0.500000
O O18 0.955730 0.398181 0.271558
O O19 0.004646 0.250000 0.227715
#
# Coordination Sequence:
#
# PCOD9162349 Si02
#       8
#     4   4   4   4   4   4   4   4
#     4  11  22  39  63  86 119 155 201 244 296 352
#     4  11  21  37  61  89 117 153 194 249 302 342
#     4   9  18  33  54  81 109 140 182 229 279 337
#     4   9  19  36  58  83 111 147 193 237 282 347
#     4  10  23  42  62  84 115 159 203 242 289 355
#     4  10  20  35  55  84 113 148 185 232 285 345
#     4  10  21  37  58  83 118 155 192 234 291 344
#     4  10  22  40  61  87 119 156 199 243 294 354
#
# _framework density 19.799486999999999
#
# number of rings (size 3 to 8) (size 9 to 14) (size 15 to 20)
#    0.000    2.000    2.500    0.750    1.750    3.500 
#    0.000    2.500    0.000    0.000    0.000    0.000 
#    0.000    0.000    0.000    0.000    0.000    0.000 
#
# Total GULP energy -178482.046468 kJ/mol
# GULP energy per Si atom -5577.563952 kJ/mol
# Density = 1.975442 g / cm^3
# Si number density = 19.799487 Si / 1000 Ang^3
#
#
#
# Elastic Constant Matrix: (Units=GPa)
#
#
# Indices 1 2 3 4 5 6 
#
# 1 79.5703 33.7610 2.1880 0.0000 -15.5634 0.0000
# 2 33.7610 148.3407 19.0125 0.0000 -11.9599 0.0000
# 3 2.1880 19.0125 43.8252 0.0000 -19.8627 0.0000
# 4 0.0000 0.0000 0.0000 18.0918 0.0000 2.3747
# 5 -15.5634 -11.9599 -19.8627 0.0000 30.3042 0.0000
# 6 0.0000 0.0000 0.0000 2.3747 0.0000 9.8106
#
#
#
# Elastic Compliance Matrix: (Units=1/GPa)
#
#
# Indices 1 2 3 4 5 6 
#
# 1 0.015919 -0.003482 0.005403 0.000000 0.010343 0.000000
# 2 -0.003482 0.007926 -0.003781 0.000000 -0.001138 0.000000
# 3 0.005403 -0.003781 0.035237 0.000000 0.024379 0.000000
# 4 0.000000 0.000000 0.000000 0.057087 0.000000 -0.013818
# 5 0.010343 -0.001138 0.024379 0.000000 0.053841 0.000000
# 6 0.000000 0.000000 0.000000 -0.013818 0.000000 0.105275
#
#
# Mechanical properties :
#
#
# Convention : Reuss Voigt Hill
#
# Bulk Modulus (GPa) = 18.06176 42.40660 30.23418
# Shear Modulus (GPa) = 16.80903 26.09297 21.45100
#
# Velocity S-wave (km/s) = 2.91686 3.63417 3.29509
# Velocity P-wave (km/s) = 4.52617 6.25093 5.45712
#
# Compressibility (1/GPa) = 0.05536560
#
# Stress axis : x y z
#
# Youngs Moduli (GPa) = 62.81711 126.15981 28.37891
#
# Poissons Ratio (x) = 0.43925 -0.15334
# Poissons Ratio (y) = 0.21871 0.10729
# Poissons Ratio (z) = -0.33943 0.47695
#
# Static dielectric constant tensor:
#      x y z
#    x 1.718110 0.000000 0.040330 
#    y 0.000000 1.717530 0.000000 
#    z 0.040330 0.000000 1.746660 
# 
# From -- ./inp_files/41730.got.cif
#   From: 2010.05.17/outbox.cif.g08.bks.cpg/sg11_21_cif.got.tgz:41730.got - 2010.06.03 12:22:45.
