data_PCOD9162556
_publ_section_title
;
Structure prediction by ZEFSAII (Michael W. Deem and Ramdas Pophale) SiO2 
 PCOD9162556
Probable space group: P 21/M
;
_chemical_formula_sum "Si O2"
_cell_formula_units_Z 28
_cell_length_a 12.631381
_cell_length_b 9.428394
_cell_length_c 15.683981
_cell_angle_alpha 90.000000
_cell_angle_beta 128.879481
_cell_angle_gamma 90.000000
_cell_volume 1454.071034
_symmetry_space_group_name_H-M "P 21/M"
_symmetry_group_IT_number 11
_symmetry_cell_setting 'monoclinic'
loop_
_space_group_symop_operation_xyz
x,y,z
-x,1/2+y,-z
-x,-y,-z
x,1/2-y,z
loop_
_atom_site_type_symbol
_atom_site_label
_atom_site_fract_x
_atom_site_fract_y
_atom_site_fract_z
Si Si1 0.350370 0.409558 0.649406
Si Si2 0.588915 0.415230 0.477782
Si Si3 0.690078 0.915751 0.033726
Si Si4 0.627804 0.415965 0.169761
Si Si5 0.093385 0.586006 0.309464
Si Si6 0.042617 0.080674 0.936100
Si Si7 0.959357 0.907641 0.560333
O O1 0.406901 0.250000 0.689004
O O2 0.428929 0.508596 0.622405
O O3 0.332602 0.490829 0.729002
O O4 0.202589 0.394671 0.532396
O O5 0.500000 0.500000 0.500000
O O6 0.551450 0.250000 0.453721
O O7 0.746182 0.421597 0.588636
O O8 0.711974 0.750000 0.069391
O O9 0.806006 0.952430 0.023499
O O10 0.691624 0.015934 0.117092
O O11 0.536645 0.926516 0.920883
O O12 0.661657 0.250000 0.195639
O O13 0.051277 0.750000 0.301019
O O14 0.056474 0.547416 0.194070
O O15 0.016932 0.488053 0.339188
O O16 0.036418 0.250000 0.948184
O O17 0.000000 0.000000 0.000000
O O18 0.019538 0.750000 0.588424
O O19 0.000000 0.000000 0.500000
#
# Coordination Sequence:
#
# PCOD9162556 Si02
#       7
#     4   4   4   4   4   4   4
#     4  10  21  36  54  79 111 146 183 224 276 336
#     4  10  20  36  57  81 111 146 186 230 279 334
#     4   9  20  38  57  80 113 150 187 234 292 345
#     4  10  20  35  57  85 114 146 188 237 287 341
#     4   9  20  38  57  80 111 146 185 230 276 330
#     4  10  22  40  60  82 112 150 193 237 286 341
#     4  10  21  35  54  81 112 145 180 221 275 336
#
# _framework density 19.25628
#
# number of rings (size 3 to 8) (size 9 to 14) (size 15 to 20)
#    0.000    2.286    0.000    1.714    2.000    5.143 
#    0.000    2.857    0.000    0.000    0.000    0.000 
#    0.000    0.000    0.000    0.000    0.000    0.000 
#
# Total GULP energy -156257.000024 kJ/mol
# GULP energy per Si atom -5580.607144 kJ/mol
# Density = 1.921245 g / cm^3
# Si number density = 19.256280 Si / 1000 Ang^3
#
#
#
# Elastic Constant Matrix: (Units=GPa)
#
#
# Indices 1 2 3 4 5 6 
#
# 1 100.9854 68.7048 37.6565 0.0000 -31.6011 0.0000
# 2 68.7048 152.4690 63.0215 0.0000 -34.2180 0.0000
# 3 37.6565 63.0215 97.7028 0.0000 -28.9791 0.0000
# 4 0.0000 0.0000 0.0000 28.6770 0.0000 -11.2322
# 5 -31.6011 -34.2180 -28.9791 0.0000 40.2759 0.0000
# 6 0.0000 0.0000 0.0000 -11.2322 0.0000 34.3885
#
#
#
# Elastic Compliance Matrix: (Units=1/GPa)
#
#
# Indices 1 2 3 4 5 6 
#
# 1 0.016145 -0.005330 -0.000471 0.000000 0.007801 0.000000
# 2 -0.005330 0.011356 -0.004639 0.000000 0.002128 0.000000
# 3 -0.000471 -0.004639 0.015422 0.000000 0.006785 0.000000
# 4 0.000000 0.000000 0.000000 0.039987 0.000000 0.013061
# 5 0.007801 0.002128 0.006785 0.000000 0.037639 0.000000
# 6 0.000000 0.000000 0.000000 0.013061 0.000000 0.033345
#
#
# Mechanical properties :
#
#
# Convention : Reuss Voigt Hill
#
# Bulk Modulus (GPa) = 45.36830 76.65809 61.01319
# Shear Modulus (GPa) = 27.45419 32.78657 30.12038
#
# Velocity S-wave (km/s) = 3.77998 4.13079 3.95927
# Velocity P-wave (km/s) = 6.53164 7.91499 7.25635
#
# Compressibility (1/GPa) = 0.02204182
#
# Stress axis : x y z
#
# Youngs Moduli (GPa) = 61.93756 88.06230 64.84368
#
# Poissons Ratio (x) = 0.46937 0.03054
# Poissons Ratio (y) = 0.33012 0.30084
# Poissons Ratio (z) = 0.02917 0.40856
#
# Static dielectric constant tensor:
#      x y z
#    x 1.671100 0.000000 0.039000 
#    y 0.000000 1.671790 0.000000 
#    z 0.039000 0.000000 1.673680 
# 
# From -- ./inp_files/49465.got.cif
#   From: 2010.05.17/outbox.cif.g08.bks.cpg/sg11_25_cif.got.tgz:49465.got - 2010.06.03 12:22:45.
