data_PCOD9162178
_publ_section_title
;
Structure prediction by ZEFSAII (Michael W. Deem and Ramdas Pophale) SiO2 
 PCOD9162178
Probable space group: P 21/M
;
_chemical_formula_sum "Si O2"
_cell_formula_units_Z 32
_cell_length_a 22.337643
_cell_length_b 8.995307
_cell_length_c 22.396508
_cell_angle_alpha 90.000000
_cell_angle_beta 23.585888
_cell_angle_gamma 90.000000
_cell_volume 1800.642550
_symmetry_space_group_name_H-M "P 21/M"
_symmetry_group_IT_number 11
_symmetry_cell_setting 'monoclinic'
loop_
_space_group_symop_operation_xyz
x,y,z
-x,1/2+y,-z
-x,-y,-z
x,1/2-y,z
loop_
_atom_site_type_symbol
_atom_site_label
_atom_site_fract_x
_atom_site_fract_y
_atom_site_fract_z
Si Si1 0.511609 0.570189 0.668773
Si Si2 0.709000 0.922908 0.850610
Si Si3 0.170121 0.570681 0.013441
Si Si4 0.608852 0.570270 0.449190
Si Si5 0.050341 0.428529 0.892163
Si Si6 0.354330 0.577896 0.209275
Si Si7 0.570031 0.571608 0.743488
Si Si8 0.242949 0.429086 0.064156
O O1 0.516312 0.750000 0.662825
O O2 0.337628 0.530023 0.838065
O O3 0.569205 0.517388 0.552337
O O4 0.603666 0.526853 0.644181
O O5 0.737946 0.750000 0.811610
O O6 0.796301 0.966803 0.831231
O O7 0.730755 0.015030 0.770622
O O8 0.532058 0.934656 0.030078
O O9 0.165939 0.750000 0.025421
O O10 0.143300 0.491843 0.101484
O O11 0.054550 0.528061 0.067532
O O12 0.500000 0.500000 0.500000
O O13 0.593731 0.750000 0.461542
O O14 0.778960 0.532455 0.278019
O O15 0.039279 0.250000 0.907651
O O16 0.000000 0.500000 0.000000
O O17 0.321420 0.750000 0.248414
O O18 0.332760 0.491108 0.290960
O O19 0.564700 0.750000 0.752037
O O20 0.403854 0.505852 0.905837
O O21 0.257276 0.250000 0.047668
#
# Coordination Sequence:
#
# PCOD9162178 Si02
#       8
#     4   4   4   4   4   4   4   4
#     4   8  15  28  46  64  87 120 155 189 227 275
#     4   8  14  22  31  47  75 110 146 182 223 271
#     4   9  17  30  46  65  90 122 155 188 231 281
#     4  10  20  35  53  74  98 125 158 195 235 280
#     4  10  21  35  53  75  99 127 159 195 236 283
#     4   9  15  21  31  50  77 110 148 188 225 266
#     4   9  15  24  38  55  79 115 151 185 229 276
#     4   9  16  25  38  58  82 111 149 191 229 269
#
# _framework density 17.771432999999998
#
# number of rings (size 3 to 8) (size 9 to 14) (size 15 to 20)
#    0.000    3.000    0.000    3.375    0.000    5.500 
#    0.000    4.375    0.000    0.000    0.000    0.000 
#    0.000    1.000    0.000    2.000    0.000    5.375 
#
# Total GULP energy -178159.950697 kJ/mol
# GULP energy per Si atom -5567.498459 kJ/mol
# Density = 1.773098 g / cm^3
# Si number density = 17.771433 Si / 1000 Ang^3
#
#
#
# Elastic Constant Matrix: (Units=GPa)
#
#
# Indices 1 2 3 4 5 6 
#
# 1 215.6763 65.5040 64.7570 0.0000 35.4858 0.0000
# 2 65.5040 43.7057 25.4990 0.0000 12.5258 0.0000
# 3 64.7570 25.4990 46.7972 0.0000 13.8621 0.0000
# 4 0.0000 0.0000 0.0000 10.6008 0.0000 6.2133
# 5 35.4858 12.5258 13.8621 0.0000 20.7563 0.0000
# 6 0.0000 0.0000 0.0000 6.2133 0.0000 35.8915
#
#
#
# Elastic Compliance Matrix: (Units=1/GPa)
#
#
# Indices 1 2 3 4 5 6 
#
# 1 0.011440 -0.010237 -0.007839 0.000000 -0.008144 0.000000
# 2 -0.010237 0.044464 -0.009097 0.000000 -0.003255 0.000000
# 3 -0.007839 -0.009097 0.039365 0.000000 -0.007398 0.000000
# 4 0.000000 0.000000 0.000000 0.104984 0.000000 -0.018174
# 5 -0.008144 -0.003255 -0.007398 0.000000 0.069006 0.000000
# 6 0.000000 0.000000 0.000000 -0.018174 0.000000 0.031008
#
#
# Mechanical properties :
#
#
# Convention : Reuss Voigt Hill
#
# Bulk Modulus (GPa) = 24.43757 68.63325 46.53541
# Shear Modulus (GPa) = 13.57755 23.47766 18.52761
#
# Velocity S-wave (km/s) = 2.76707 3.63862 3.23236
# Velocity P-wave (km/s) = 4.89794 7.50710 6.33823
#
# Compressibility (1/GPa) = 0.04092061
#
# Stress axis : x y z
#
# Youngs Moduli (GPa) = 87.41636 22.49011 25.40340
#
# Poissons Ratio (x) = 0.23024 0.19914
# Poissons Ratio (y) = 0.89491 0.23110
# Poissons Ratio (z) = 0.68527 0.20460
#
# Static dielectric constant tensor:
#      x y z
#    x 1.652990 0.000000 0.005530 
#    y 0.000000 1.601100 0.000000 
#    z 0.005530 0.000000 1.601400 
# 
# From -- ./inp_files/66446.got.cif
#   From: 2010.05.17/outbox.cif.g08.bks.cpg/sg11_34_cif.got.tgz:66446.got - 2010.06.03 12:22:45.
