data_PCOD9162303
_publ_section_title
;
Structure prediction by ZEFSAII (Michael W. Deem and Ramdas Pophale) SiO2 
 PCOD9162303
Probable space group: P 21/M
;
_chemical_formula_sum "Si O2"
_cell_formula_units_Z 28
_cell_length_a 16.641559
_cell_length_b 7.556629
_cell_length_c 20.633499
_cell_angle_alpha 90.000000
_cell_angle_beta 149.790133
_cell_angle_gamma 90.000000
_cell_volume 1305.595593
_symmetry_space_group_name_H-M "P 21/M"
_symmetry_group_IT_number 11
_symmetry_cell_setting 'monoclinic'
loop_
_space_group_symop_operation_xyz
x,y,z
-x,1/2+y,-z
-x,-y,-z
x,1/2-y,z
loop_
_atom_site_type_symbol
_atom_site_label
_atom_site_fract_x
_atom_site_fract_y
_atom_site_fract_z
Si Si1 0.506697 0.964200 0.193197
Si Si2 0.451379 0.462496 0.392658
Si Si3 0.052155 0.459594 0.710457
Si Si4 0.855773 0.035796 0.077827
Si Si5 0.305061 0.540726 0.544978
Si Si6 0.091551 0.037765 0.130207
Si Si7 0.359846 0.037370 0.851071
O O1 0.504728 0.750000 0.190618
O O2 0.589067 0.027580 0.184172
O O3 0.603459 0.019702 0.323744
O O4 0.322258 0.023806 0.065475
O O5 0.500000 0.500000 0.500000
O O6 0.445948 0.250000 0.380286
O O7 0.583120 0.532987 0.434304
O O8 0.272561 0.530984 0.255127
O O9 0.044607 0.250000 0.691268
O O10 0.874181 0.534050 0.577488
O O11 0.104032 0.481896 0.821123
O O12 0.192690 0.532790 0.762743
O O13 0.855549 0.250000 0.076117
O O14 0.987770 0.971495 0.118706
O O15 0.287042 0.750000 0.519028
O O16 0.100847 0.250000 0.143807
O O17 0.000000 0.000000 0.000000
O O18 0.347521 0.250000 0.837932
O O19 0.500000 0.000000 0.000000
#
# Coordination Sequence:
#
# PCOD9162303 Si02
#       7
#     4   4   4   4   4   4   4
#     4  10  21  36  55  80 110 142 178 223 271 322
#     4  10  21  37  56  79 109 144 183 225 268 320
#     4  10  21  36  56  81 108 140 180 222 265 321
#     4  10  20  35  55  80 108 139 180 227 271 318
#     4  10  22  38  54  79 113 145 180 222 269 321
#     4  10  21  35  53  79 108 140 181 226 270 319
#     4  10  20  36  57  82 110 139 178 223 268 321
#
# _framework density 21.446149999999999
#
# number of rings (size 3 to 8) (size 9 to 14) (size 15 to 20)
#    0.000    2.000    1.429    1.714    0.000    4.000 
#    0.000    0.000    0.000    0.000    0.000    0.000 
#    0.000    0.000    0.000    0.000    0.000    0.000 
#
# Total GULP energy -156499.684336 kJ/mol
# GULP energy per Si atom -5589.274441 kJ/mol
# Density = 2.139734 g / cm^3
# Si number density = 21.446150 Si / 1000 Ang^3
#
#
#
# Elastic Constant Matrix: (Units=GPa)
#
#
# Indices 1 2 3 4 5 6 
#
# 1 161.3260 2.2753 80.0137 0.0000 32.8072 0.0000
# 2 2.2753 50.3313 -2.3189 0.0000 16.3743 0.0000
# 3 80.0137 -2.3189 189.1220 0.0000 31.5650 0.0000
# 4 0.0000 0.0000 0.0000 18.4742 0.0000 -14.7060
# 5 32.8072 16.3743 31.5650 0.0000 44.5494 0.0000
# 6 0.0000 0.0000 0.0000 -14.7060 0.0000 19.0417
#
#
#
# Elastic Compliance Matrix: (Units=1/GPa)
#
#
# Indices 1 2 3 4 5 6 
#
# 1 0.008529 0.000997 -0.002820 0.000000 -0.004649 0.000000
# 2 0.000997 0.023291 0.001605 0.000000 -0.010432 0.000000
# 3 -0.002820 0.001605 0.007091 0.000000 -0.003537 0.000000
# 4 0.000000 0.000000 0.000000 0.140516 0.000000 0.108521
# 5 -0.004649 -0.010432 -0.003537 0.000000 0.032211 0.000000
# 6 0.000000 0.000000 0.000000 0.108521 0.000000 0.136328
#
#
# Mechanical properties :
#
#
# Convention : Reuss Voigt Hill
#
# Bulk Modulus (GPa) = 25.99157 62.30217 44.14687
# Shear Modulus (GPa) = 13.84171 37.80032 25.82102
#
# Velocity S-wave (km/s) = 2.54326 4.20285 3.47362
# Velocity P-wave (km/s) = 4.55741 7.25710 6.05952
#
# Compressibility (1/GPa) = 0.03847402
#
# Stress axis : x y z
#
# Youngs Moduli (GPa) = 117.25084 42.93487 141.02789
#
# Poissons Ratio (x) = -0.04280 0.39772
# Poissons Ratio (y) = -0.11689 -0.22634
# Poissons Ratio (z) = 0.33067 -0.06891
#
# Static dielectric constant tensor:
#      x y z
#    x 1.752500 0.000000 0.057400 
#    y 0.000000 1.874770 0.000000 
#    z 0.057400 0.000000 1.742540 
# 
# From -- ./inp_files/28383.got.cif
#   From: 2010.05.17/outbox.cif.g08.bks.cpg/sg11_15_cif.got.tgz:28383.got - 2010.06.03 12:22:45.
