data_PCOD9162614
_publ_section_title
;
Structure prediction by ZEFSAII (Michael W. Deem and Ramdas Pophale) SiO2 
 PCOD9162614
Probable space group: P 21/M
;
_chemical_formula_sum "Si O2"
_cell_formula_units_Z 32
_cell_length_a 13.105148
_cell_length_b 8.222784
_cell_length_c 16.043561
_cell_angle_alpha 90.000000
_cell_angle_beta 75.876323
_cell_angle_gamma 90.000000
_cell_volume 1676.605519
_symmetry_space_group_name_H-M "P 21/M"
_symmetry_group_IT_number 11
_symmetry_cell_setting 'monoclinic'
loop_
_space_group_symop_operation_xyz
x,y,z
-x,1/2+y,-z
-x,-y,-z
x,1/2-y,z
loop_
_atom_site_type_symbol
_atom_site_label
_atom_site_fract_x
_atom_site_fract_y
_atom_site_fract_z
Si Si1 0.123595 0.446612 0.984469
Si Si2 0.241242 0.433970 0.798142
Si Si3 0.375988 0.057338 0.621360
Si Si4 0.165331 0.945608 0.157962
Si Si5 0.254241 0.936957 0.307580
Si Si6 0.059773 0.569206 0.741355
Si Si7 0.386711 0.442838 0.435611
Si Si8 0.991370 0.435726 0.593615
O O1 0.121908 0.250000 0.983741
O O2 0.197772 0.505868 0.893436
O O3 0.175802 0.509298 0.059457
O O4 0.000000 0.500000 0.000000
O O5 0.277345 0.250000 0.809767
O O6 0.322763 0.512878 0.716043
O O7 0.134867 0.436117 0.765348
O O8 0.352740 0.250000 0.628858
O O9 0.341525 0.999825 0.535139
O O10 0.500691 0.027752 0.598899
O O11 0.152075 0.750000 0.168854
O O12 0.251583 0.993883 0.211146
O O13 0.057286 0.034937 0.203823
O O14 0.291285 0.750000 0.301503
O O15 0.131027 0.939615 0.356285
O O16 0.316022 0.027216 0.368425
O O17 0.093538 0.750000 0.758855
O O18 0.055853 0.546982 0.643640
O O19 0.405068 0.250000 0.440274
O O20 0.028218 0.250000 0.593447
O O21 0.000000 0.500000 0.500000
#
# Coordination Sequence:
#
# PCOD9162614 Si02
#       8
#     4   4   4   4   4   4   4   4
#     4  11  21  33  54  80 110 147 184 226 274 322
#     4  10  21  36  54  77 108 146 182 222 272 326
#     4   9  20  38  57  79 108 143 178 219 273 329
#     4  10  20  36  54  75 107 145 185 225 266 320
#     4   9  20  36  54  75 103 142 179 219 270 323
#     4  11  21  32  49  74 105 143 183 222 266 314
#     4  10  20  35  58  85 107 136 177 226 274 323
#     4  10  21  35  49  71 105 143 182 222 266 318
#
# _framework density 19.086183999999999
#
# number of rings (size 3 to 8) (size 9 to 14) (size 15 to 20)
#    0.000    2.000    1.250    3.375    1.750    4.500 
#    0.000    0.000    0.000    0.750    0.000    0.000 
#    0.000    0.000    0.000    0.000    0.000    0.000 
#
# Total GULP energy -178256.109265 kJ/mol
# GULP energy per Si atom -5570.503415 kJ/mol
# Density = 1.904274 g / cm^3
# Si number density = 19.086184 Si / 1000 Ang^3
#
#
#
# Elastic Constant Matrix: (Units=GPa)
#
#
# Indices 1 2 3 4 5 6 
#
# 1 26.1065 6.8280 35.9159 0.0000 4.5444 0.0000
# 2 6.8280 43.1001 15.9195 0.0000 2.4090 0.0000
# 3 35.9159 15.9195 188.1090 0.0000 2.5044 0.0000
# 4 0.0000 0.0000 0.0000 16.9227 0.0000 3.2308
# 5 4.5444 2.4090 2.5044 0.0000 29.6421 0.0000
# 6 0.0000 0.0000 0.0000 3.2308 0.0000 21.0079
#
#
#
# Elastic Compliance Matrix: (Units=1/GPa)
#
#
# Indices 1 2 3 4 5 6 
#
# 1 0.054353 -0.004557 -0.009897 0.000000 -0.007126 0.000000
# 2 -0.004557 0.024426 -0.001181 0.000000 -0.001187 0.000000
# 3 -0.009897 -0.001181 0.007292 0.000000 0.000997 0.000000
# 4 0.000000 0.000000 0.000000 0.060880 0.000000 -0.009363
# 5 -0.007126 -0.001187 0.000997 0.000000 0.034841 0.000000
# 6 0.000000 0.000000 0.000000 -0.009363 0.000000 0.049041
#
#
# Mechanical properties :
#
#
# Convention : Reuss Voigt Hill
#
# Bulk Modulus (GPa) = 18.24780 41.62694 29.93737
# Shear Modulus (GPa) = 17.83352 26.75801 22.29577
#
# Velocity S-wave (km/s) = 3.06006 3.74833 3.42155
# Velocity P-wave (km/s) = 4.69753 6.37108 5.59721
#
# Compressibility (1/GPa) = 0.05480114
#
# Stress axis : x y z
#
# Youngs Moduli (GPa) = 18.39826 40.93938 137.12830
#
# Poissons Ratio (x) = 0.18655 1.35718
# Poissons Ratio (y) = 0.08384 0.16200
# Poissons Ratio (z) = 0.18209 0.04836
#
# Static dielectric constant tensor:
#      x y z
#    x 1.631530 0.000000 -0.007350 
#    y 0.000000 0.644810 0.000000 
#    z -0.007350 0.000000 1.747160 
# 
# From -- ./inp_files/51234.got.cif
#   From: 2010.05.17/outbox.cif.g08.bks.cpg/sg11_26_cif.got.tgz:51234.got - 2010.06.03 12:22:45.
