data_PCOD9162505
_publ_section_title
;
Structure prediction by ZEFSAII (Michael W. Deem and Ramdas Pophale) SiO2 
 PCOD9162505
Probable space group: P 21/M
;
_chemical_formula_sum "Si O2"
_cell_formula_units_Z 32
_cell_length_a 15.538630
_cell_length_b 8.573461
_cell_length_c 15.160459
_cell_angle_alpha 90.000000
_cell_angle_beta 120.967060
_cell_angle_gamma 90.000000
_cell_volume 1731.796164
_symmetry_space_group_name_H-M "P 21/M"
_symmetry_group_IT_number 11
_symmetry_cell_setting 'monoclinic'
loop_
_space_group_symop_operation_xyz
x,y,z
-x,1/2+y,-z
-x,-y,-z
x,1/2-y,z
loop_
_atom_site_type_symbol
_atom_site_label
_atom_site_fract_x
_atom_site_fract_y
_atom_site_fract_z
Si Si1 0.205650 0.940029 0.937617
Si Si2 0.725110 0.061330 0.217535
Si Si3 0.228209 0.436780 0.284283
Si Si4 0.888911 0.437067 0.447562
Si Si5 0.273168 0.937093 0.499055
Si Si6 0.008465 0.438773 0.104433
Si Si7 0.657702 0.061237 0.825249
Si Si8 0.573387 0.936869 0.276567
O O1 0.205382 0.750000 0.935393
O O2 0.253618 0.991889 0.870611
O O3 0.090601 0.988904 0.893841
O O4 0.272939 0.988428 0.056153
O O5 0.718125 0.250000 0.214618
O O6 0.820185 0.016098 0.328338
O O7 0.628381 0.996157 0.217132
O O8 0.228369 0.250000 0.287829
O O9 0.268398 0.501566 0.397735
O O10 0.113546 0.489225 0.203381
O O11 0.296698 0.493634 0.240003
O O12 0.892829 0.250000 0.450083
O O13 0.827964 0.487441 0.502357
O O14 0.000000 0.500000 0.500000
O O15 0.277457 0.750000 0.501397
O O16 0.364353 0.998752 0.607084
O O17 0.008369 0.250000 0.101134
O O18 0.000000 0.500000 0.000000
O O19 0.661325 0.250000 0.822445
O O20 0.542484 0.014476 0.779199
O O21 0.577898 0.750000 0.280459
#
# Coordination Sequence:
#
# PCOD9162505 Si02
#       8
#     4   4   4   4   4   4   4   4
#     4   9  18  35  58  82 112 151 188 221 270 339
#     4   9  19  36  57  80 110 150 188 224 277 338
#     4  11  23  36  57  89 116 145 188 236 280 328
#     4   9  19  33  52  78 107 142 183 223 271 327
#     4  10  22  40  59  80 110 151 188 226 283 343
#     4  10  20  35  57  82 114 152 186 226 277 329
#     4  10  21  38  60  82 111 152 190 229 284 338
#     4  10  21  38  59  84 112 144 187 240 285 327
#
# _framework density 18.477926
#
# number of rings (size 3 to 8) (size 9 to 14) (size 15 to 20)
#    0.000    2.250    1.250    1.875    1.750    5.000 
#    0.000    1.250    0.000    0.000    0.000    0.000 
#    0.000    0.000    0.000    0.000    0.000    0.000 
#
# Total GULP energy -178617.279671 kJ/mol
# GULP energy per Si atom -5581.789990 kJ/mol
# Density = 1.843587 g / cm^3
# Si number density = 18.477926 Si / 1000 Ang^3
#
#
#
# Elastic Constant Matrix: (Units=GPa)
#
#
# Indices 1 2 3 4 5 6 
#
# 1 180.1292 32.4931 90.2731 0.0000 -2.6595 0.0000
# 2 32.4931 18.2886 19.1609 0.0000 -2.1627 0.0000
# 3 90.2731 19.1609 77.3229 0.0000 -30.4769 0.0000
# 4 0.0000 0.0000 0.0000 21.1790 0.0000 -1.3166
# 5 -2.6595 -2.1627 -30.4769 0.0000 37.2186 0.0000
# 6 0.0000 0.0000 0.0000 -1.3166 0.0000 26.4916
#
#
#
# Elastic Compliance Matrix: (Units=1/GPa)
#
#
# Indices 1 2 3 4 5 6 
#
# 1 0.032289 -0.008038 -0.051650 0.000000 -0.040454 0.000000
# 2 -0.008038 0.082723 -0.013949 0.000000 -0.007190 0.000000
# 3 -0.051650 -0.013949 0.110618 0.000000 0.086080 0.000000
# 4 0.000000 0.000000 0.000000 0.047363 0.000000 0.002354
# 5 -0.040454 -0.007190 0.086080 0.000000 0.094047 0.000000
# 6 0.000000 0.000000 0.000000 0.002354 0.000000 0.037865
#
#
# Mechanical properties :
#
#
# Convention : Reuss Voigt Hill
#
# Bulk Modulus (GPa) = 12.76214 62.17719 37.46967
# Shear Modulus (GPa) = 8.64605 25.89876 17.27240
#
# Velocity S-wave (km/s) = 2.16548 3.74786 3.06070
# Velocity P-wave (km/s) = 3.62961 7.24232 5.72823
#
# Compressibility (1/GPa) = 0.07835678
#
# Stress axis : x y z
#
# Youngs Moduli (GPa) = 30.97037 12.08847 9.04009
#
# Poissons Ratio (x) = 0.09716 0.46692
# Poissons Ratio (y) = 0.24893 0.12610
# Poissons Ratio (z) = 1.59962 0.16863
#
# Static dielectric constant tensor:
#      x y z
#    x 1.628510 0.000000 0.002570 
#    y 0.000000 1.629700 0.000000 
#    z 0.002570 0.000000 1.614020 
# 
# From -- ./inp_files/51784.got.cif
#   From: 2010.05.17/outbox.cif.g08.bks.cpg/sg11_26_cif.got.tgz:51784.got - 2010.06.03 12:22:45.
