data_PCOD9162254
_publ_section_title
;
Structure prediction by ZEFSAII (Michael W. Deem and Ramdas Pophale) SiO2 
 PCOD9162254
Probable space group: P 21/M
;
_chemical_formula_sum "Si O2"
_cell_formula_units_Z 28
_cell_length_a 23.372923
_cell_length_b 8.424347
_cell_length_c 20.703581
_cell_angle_alpha 90.000000
_cell_angle_beta 160.192164
_cell_angle_gamma 90.000000
_cell_volume 1381.412893
_symmetry_space_group_name_H-M "P 21/M"
_symmetry_group_IT_number 11
_symmetry_cell_setting 'monoclinic'
loop_
_space_group_symop_operation_xyz
x,y,z
-x,1/2+y,-z
-x,-y,-z
x,1/2-y,z
loop_
_atom_site_type_symbol
_atom_site_label
_atom_site_fract_x
_atom_site_fract_y
_atom_site_fract_z
Si Si1 0.956259 0.559226 0.255823
Si Si2 0.413573 0.558004 0.562517
Si Si3 0.419642 0.565854 0.849620
Si Si4 0.938672 0.938101 0.865803
Si Si5 0.655581 0.056716 0.365990
Si Si6 0.945794 0.561970 0.511997
Si Si7 0.785290 0.558228 0.942411
O O1 0.949148 0.750000 0.257373
O O2 0.146058 0.517343 0.432781
O O3 0.928896 0.476669 0.295699
O O4 0.831302 0.516052 0.065233
O O5 0.411967 0.750000 0.561685
O O6 0.246473 0.502449 0.348795
O O7 0.403364 0.503255 0.626465
O O8 0.593465 0.507578 0.724349
O O9 0.464199 0.750000 0.894992
O O10 0.447653 0.498919 0.806838
O O11 0.220873 0.537576 0.647824
O O12 0.500000 0.500000 0.000000
O O13 0.930872 0.750000 0.858940
O O14 0.000000 0.000000 0.000000
O O15 0.074129 0.991242 0.955921
O O16 0.646177 0.250000 0.355140
O O17 0.911118 0.750000 0.473140
O O18 0.000000 0.500000 0.500000
O O19 0.794628 0.750000 0.948255
#
# Coordination Sequence:
#
# PCOD9162254 Si02
#       7
#     4   4   4   4   4   4   4
#     4   9  17  34  58  84 118 158 201 249 307 376
#     4  10  20  39  67  97 125 161 209 257 308 373
#     4  10  20  35  54  81 115 157 203 252 308 369
#     4  12  26  44  67  93 129 170 208 258 313 373
#     4   8  15  31  56  82 115 156 200 245 299 369
#     4  11  22  36  54  79 114 157 205 258 312 367
#     4  10  21  39  67  98 129 165 207 255 310 377
#
# _framework density 20.269103000000001
#
# number of rings (size 3 to 8) (size 9 to 14) (size 15 to 20)
#    0.000    2.000    1.429    3.857    0.000    2.857 
#    0.000    3.571    0.000    0.000    0.000    0.000 
#    0.000    0.000    0.000    0.000    0.000    0.000 
#
# Total GULP energy -156253.267193 kJ/mol
# GULP energy per Si atom -5580.473828 kJ/mol
# Density = 2.022297 g / cm^3
# Si number density = 20.269103 Si / 1000 Ang^3
#
#
#
# Elastic Constant Matrix: (Units=GPa)
#
#
# Indices 1 2 3 4 5 6 
#
# 1 69.2955 15.3170 51.2422 0.0000 -22.0400 0.0000
# 2 15.3170 30.0835 25.3305 0.0000 -7.5858 0.0000
# 3 51.2422 25.3305 137.8747 0.0000 -16.4977 0.0000
# 4 0.0000 0.0000 0.0000 24.4100 0.0000 -9.6639
# 5 -22.0400 -7.5858 -16.4977 0.0000 33.0013 0.0000
# 6 0.0000 0.0000 0.0000 -9.6639 0.0000 23.6122
#
#
#
# Elastic Compliance Matrix: (Units=1/GPa)
#
#
# Indices 1 2 3 4 5 6 
#
# 1 0.024050 -0.003465 -0.006887 0.000000 0.011822 0.000000
# 2 -0.003465 0.040885 -0.005718 0.000000 0.004225 0.000000
# 3 -0.006887 -0.005718 0.010802 0.000000 -0.000514 0.000000
# 4 0.000000 0.000000 0.000000 0.048888 0.000000 0.020009
# 5 0.011822 0.004225 -0.000514 0.000000 0.038912 0.000000
# 6 0.000000 0.000000 0.000000 0.020009 0.000000 0.050540
#
#
# Mechanical properties :
#
#
# Convention : Reuss Voigt Hill
#
# Bulk Modulus (GPa) = 22.93768 46.78147 34.85958
# Shear Modulus (GPa) = 19.17553 25.89563 22.53558
#
# Velocity S-wave (km/s) = 3.07913 3.57822 3.33801
# Velocity P-wave (km/s) = 4.89719 6.34049 5.66499
#
# Compressibility (1/GPa) = 0.04359639
#
# Stress axis : x y z
#
# Youngs Moduli (GPa) = 41.58021 24.45879 92.57866
#
# Poissons Ratio (x) = 0.08475 0.63760
# Poissons Ratio (y) = 0.14407 0.52937
# Poissons Ratio (z) = 0.28637 0.13986
#
# Static dielectric constant tensor:
#      x y z
#    x 1.675650 0.000000 0.095150 
#    y 0.000000 1.708610 0.000000 
#    z 0.095150 0.000000 1.510320 
# 
# From -- ./inp_files/66729.got.cif
#   From: 2010.05.17/outbox.cif.g08.bks.cpg/sg11_34_cif.got.tgz:66729.got - 2010.06.03 12:22:45.
