data_PCOD9162920
_publ_section_title
;
Structure prediction by ZEFSAII (Michael W. Deem and Ramdas Pophale) SiO2 
 PCOD9162920
Probable space group: P 21/M
;
_chemical_formula_sum "Si O2"
_cell_formula_units_Z 32
_cell_length_a 10.637358
_cell_length_b 22.887549
_cell_length_c 15.590697
_cell_angle_alpha 90.000000
_cell_angle_beta 24.724685
_cell_angle_gamma 90.000000
_cell_volume 1587.608149
_symmetry_space_group_name_H-M "P 21/M"
_symmetry_group_IT_number 11
_symmetry_cell_setting 'monoclinic'
loop_
_space_group_symop_operation_xyz
x,y,z
-x,1/2+y,-z
-x,-y,-z
x,1/2-y,z
loop_
_atom_site_type_symbol
_atom_site_label
_atom_site_fract_x
_atom_site_fract_y
_atom_site_fract_z
Si Si1 0.643441 0.816322 0.429191
Si Si2 0.111906 0.599679 0.814025
Si Si3 0.521038 0.933518 0.090318
Si Si4 0.389645 0.478508 0.417257
Si Si5 0.271624 0.317139 0.822085
Si Si6 0.410263 0.063479 0.208359
Si Si7 0.775569 0.398112 0.547714
Si Si8 0.108011 0.898378 0.197117
O O1 0.560717 0.750000 0.499690
O O2 0.360339 0.858521 0.617905
O O3 0.768984 0.819609 0.254820
O O4 0.906880 0.840900 0.326185
O O5 0.294259 0.545047 0.741741
O O6 0.868160 0.578543 0.895694
O O7 0.935672 0.637773 0.995746
O O8 0.349274 0.910866 0.280362
O O9 0.372654 0.902159 0.102122
O O10 0.448233 0.002170 0.134768
O O11 0.356016 0.452180 0.341476
O O12 0.348106 0.547878 0.433361
O O13 0.124493 0.450773 0.638616
O O14 0.227799 0.250000 0.877818
O O15 0.617009 0.338561 0.619032
O O16 0.131051 0.097160 0.339598
O O17 0.724606 0.095283 0.997224
#
# Coordination Sequence:
#
# PCOD9162920 Si02
#       8
#     4   4   4   4   4   4   4   4
#     4  10  23  42  59  81 111 149 194 244 283 329
#     4  10  22  37  64  86 115 147 187 237 294 335
#     4  10  20  36  56  89 117 147 185 228 281 354
#     4  10  20  37  56  89 118 146 187 231 282 351
#     4  10  22  40  59  81 111 150 196 236 278 337
#     4  11  20  34  58  82 123 155 176 228 289 330
#     4  10  20  36  59  83 120 155 183 235 288 327
#     4  11  21  35  59  82 113 153 190 223 282 349
#
# _framework density 20.156108
#
# number of rings (size 3 to 8) (size 9 to 14) (size 15 to 20)
#    0.000    1.750    2.500    2.250    1.750    5.500 
#    0.000    6.250    0.000    0.000    0.000    0.000 
#    0.000    0.000    0.000    0.000    0.000    0.000 
#
# Total GULP energy -178671.980531 kJ/mol
# GULP energy per Si atom -5583.499392 kJ/mol
# Density = 2.011023 g / cm^3
# Si number density = 20.156108 Si / 1000 Ang^3
#
#
#
# Elastic Constant Matrix: (Units=GPa)
#
#
# Indices 1 2 3 4 5 6 
#
# 1 53.9603 10.1654 25.3753 0.0000 -21.5033 0.0000
# 2 10.1654 23.8912 18.5853 0.0000 1.4076 0.0000
# 3 25.3753 18.5853 107.0347 0.0000 -11.7095 0.0000
# 4 0.0000 0.0000 0.0000 21.0675 0.0000 3.6647
# 5 -21.5033 1.4076 -11.7095 0.0000 32.9905 0.0000
# 6 0.0000 0.0000 0.0000 3.6647 0.0000 12.1219
#
#
#
# Elastic Compliance Matrix: (Units=1/GPa)
#
#
# Indices 1 2 3 4 5 6 
#
# 1 0.029505 -0.011330 -0.002987 0.000000 0.018655 0.000000
# 2 -0.011330 0.053634 -0.007996 0.000000 -0.012511 0.000000
# 3 -0.002987 -0.007996 0.011719 0.000000 0.002554 0.000000
# 4 0.000000 0.000000 0.000000 0.050101 0.000000 -0.015147
# 5 0.018655 -0.012511 0.002554 0.000000 0.043911 0.000000
# 6 0.000000 0.000000 0.000000 -0.015147 0.000000 0.087074
#
#
# Mechanical properties :
#
#
# Convention : Reuss Voigt Hill
#
# Bulk Modulus (GPa) = 19.90705 32.57092 26.23898
# Shear Modulus (GPa) = 14.82300 21.95332 18.38816
#
# Velocity S-wave (km/s) = 2.71479 3.30383 3.02369
# Velocity P-wave (km/s) = 4.44124 5.54510 5.02358
#
# Compressibility (1/GPa) = 0.05023347
#
# Stress axis : x y z
#
# Youngs Moduli (GPa) = 33.89250 18.64484 85.33449
#
# Poissons Ratio (x) = 0.21124 0.25488
# Poissons Ratio (y) = 0.38399 0.68231
# Poissons Ratio (z) = 0.10123 0.14908
#
# Static dielectric constant tensor:
#      x y z
#    x 1.745470 0.000000 0.015040 
#    y 0.000000 1.708670 0.000000 
#    z 0.015040 0.000000 1.746820 
# 
# From -- ./inp_files/23109.got.cif
#   From: 2010.05.17/outbox.cif.g08.bks.cpg/sg11_12_cif.got.tgz:23109.got - 2010.06.03 12:22:45.
