data_PCOD9162687
_publ_section_title
;
Structure prediction by ZEFSAII (Michael W. Deem and Ramdas Pophale) SiO2 
 PCOD9162687
Probable space group: P 21/M
;
_chemical_formula_sum "Si O2"
_cell_formula_units_Z 28
_cell_length_a 14.233565
_cell_length_b 13.171226
_cell_length_c 8.595454
_cell_angle_alpha 90.000000
_cell_angle_beta 47.926648
_cell_angle_gamma 90.000000
_cell_volume 1196.136935
_symmetry_space_group_name_H-M "P 21/M"
_symmetry_group_IT_number 11
_symmetry_cell_setting 'monoclinic'
loop_
_space_group_symop_operation_xyz
x,y,z
-x,1/2+y,-z
-x,-y,-z
x,1/2-y,z
loop_
_atom_site_type_symbol
_atom_site_label
_atom_site_fract_x
_atom_site_fract_y
_atom_site_fract_z
Si Si1 0.905214 0.022729 0.966888
Si Si2 0.216960 0.639476 0.351918
Si Si3 0.435999 0.432186 0.397860
Si Si4 0.319692 0.418146 0.193991
Si Si5 0.719135 0.139356 0.370982
Si Si6 0.650930 0.575470 0.178041
Si Si7 0.033656 0.138570 0.564314
O O1 0.993099 0.053982 0.729455
O O2 0.816180 0.114106 0.126437
O O3 0.801469 0.938952 0.033367
O O4 0.000000 0.000000 0.000000
O O5 0.271050 0.750000 0.241599
O O6 0.299776 0.541273 0.213339
O O7 0.206656 0.642102 0.548533
O O8 0.076043 0.632977 0.441290
O O9 0.389959 0.393309 0.280001
O O10 0.369411 0.542571 0.497235
O O11 0.582010 0.464523 0.240628
O O12 0.396955 0.377997 0.603798
O O13 0.177338 0.376474 0.356136
O O14 0.376839 0.382165 0.964770
O O15 0.658457 0.250000 0.416396
O O16 0.024673 0.250000 0.648508
#
# Coordination Sequence:
#
# PCOD9162687 Si02
#       7
#     4   4   4   4   4   4   4
#     4  11  21  34  57  84 110 147 191 238 295 344
#     4   9  18  32  52  82 113 143 186 234 279 340
#     4   9  20  37  56  86 107 140 199 237 281 338
#     4  11  20  36  60  81 112 157 186 231 294 339
#     4   9  18  33  54  78 110 146 183 233 286 339
#     4  10  20  35  59  81 109 145 189 243 282 342
#     4  11  22  35  53  83 120 151 189 236 287 352
#
# _framework density 23.40869
#
# number of rings (size 3 to 8) (size 9 to 14) (size 15 to 20)
#    0.000    2.000    1.429    3.857    2.000    0.000 
#    0.000    0.714    0.000   18.000    0.000    0.000 
#    0.000    0.000    0.000    0.000    0.000    0.000 
#
# Total GULP energy -156103.061912 kJ/mol
# GULP energy per Si atom -5575.109354 kJ/mol
# Density = 2.335541 g / cm^3
# Si number density = 23.408690 Si / 1000 Ang^3
#
#
#
# Elastic Constant Matrix: (Units=GPa)
#
#
# Indices 1 2 3 4 5 6 
#
# 1 138.0263 -8.5637 32.2270 0.0000 29.9058 0.0000
# 2 -8.5637 61.5266 -7.3868 0.0000 4.6583 0.0000
# 3 32.2270 -7.3868 104.7729 0.0000 23.8857 0.0000
# 4 0.0000 0.0000 0.0000 8.9706 0.0000 -1.0802
# 5 29.9058 4.6583 23.8857 0.0000 37.9421 0.0000
# 6 0.0000 0.0000 0.0000 -1.0802 0.0000 14.1768
#
#
#
# Elastic Compliance Matrix: (Units=1/GPa)
#
#
# Indices 1 2 3 4 5 6 
#
# 1 0.009046 0.001619 -0.001165 0.000000 -0.006596 0.000000
# 2 0.001619 0.017021 0.001716 0.000000 -0.004446 0.000000
# 3 -0.001165 0.001716 0.011515 0.000000 -0.006542 0.000000
# 4 0.000000 0.000000 0.000000 0.112507 0.000000 0.008573
# 5 -0.006596 -0.004446 -0.006542 0.000000 0.036219 0.000000
# 6 0.000000 0.000000 0.000000 0.008573 0.000000 0.071191
#
#
# Mechanical properties :
#
#
# Convention : Reuss Voigt Hill
#
# Bulk Modulus (GPa) = 23.85404 37.43097 30.64250
# Shear Modulus (GPa) = 18.71719 31.42119 25.06919
#
# Velocity S-wave (km/s) = 2.83076 3.66770 3.27606
# Velocity P-wave (km/s) = 4.57128 5.82760 5.23725
#
# Compressibility (1/GPa) = 0.04192163
#
# Stress axis : x y z
#
# Youngs Moduli (GPa) = 110.54007 58.75095 86.84311
#
# Poissons Ratio (x) = -0.09510 0.10115
# Poissons Ratio (y) = -0.17893 -0.14899
# Poissons Ratio (z) = 0.12875 -0.10080
#
# Static dielectric constant tensor:
#      x y z
#    x 1.759400 0.000000 0.009970 
#    y 0.000000 1.923950 0.000000 
#    z 0.009970 0.000000 1.898030 
# 
# From -- ./inp_files/22111.got.cif
#   From: 2010.05.17/outbox.cif.g08.bks.cpg/sg11_12_cif.got.tgz:22111.got - 2010.06.03 12:22:45.
