data_PCOD9162189
_publ_section_title
;
Structure prediction by ZEFSAII (Michael W. Deem and Ramdas Pophale) SiO2 
 PCOD9162189
Probable space group: P 21/M
;
_chemical_formula_sum "Si O2"
_cell_formula_units_Z 24
_cell_length_a 15.319359
_cell_length_b 15.156716
_cell_length_c 8.837193
_cell_angle_alpha 90.000000
_cell_angle_beta 26.140506
_cell_angle_gamma 90.000000
_cell_volume 904.021676
_symmetry_space_group_name_H-M "P 21/M"
_symmetry_group_IT_number 11
_symmetry_cell_setting 'monoclinic'
loop_
_space_group_symop_operation_xyz
x,y,z
-x,1/2+y,-z
-x,-y,-z
x,1/2-y,z
loop_
_atom_site_type_symbol
_atom_site_label
_atom_site_fract_x
_atom_site_fract_y
_atom_site_fract_z
Si Si1 0.454305 0.104829 0.562766
Si Si2 0.909002 0.972625 0.488429
Si Si3 0.488660 0.900102 0.189318
Si Si4 0.452488 0.386775 0.230867
Si Si5 0.981360 0.349282 0.256942
Si Si6 0.995230 0.155553 0.892345
O O1 0.534720 0.136160 0.271376
O O2 0.500000 0.000000 0.500000
O O3 0.538350 0.137075 0.596667
O O4 0.216476 0.126070 0.918279
O O5 0.859922 0.069326 0.508882
O O6 0.728439 0.909994 0.806794
O O7 0.046428 0.924696 0.153173
O O8 0.000000 0.000000 0.500000
O O9 0.460534 0.856003 0.067188
O O10 0.428212 0.005071 0.273102
O O11 0.228540 0.350763 0.569694
O O12 0.956385 0.250000 0.353875
O O13 0.910309 0.350756 0.191980
O O14 0.951408 0.250000 0.890523
#
# Coordination Sequence:
#
# PCOD9162189 Si02
#       6
#     4   4   4   4   4   4
#     4   9  16  30  52  74  99 136 175 224 271 319
#     4  11  20  32  51  79 114 147 183 219 280 334
#     4   9  16  30  48  75 105 134 178 219 267 327
#     4   8  16  29  50  74  99 131 175 224 274 314
#     4  10  20  35  53  78 108 145 189 228 272 332
#     4   9  19  35  55  76 102 140 188 235 276 326
#
# _framework density 26.548036
#
# number of rings (size 3 to 8) (size 9 to 14) (size 15 to 20)
#    0.000    2.667    1.667    0.500    0.000    0.667 
#    0.000    0.833    0.000    2.000    0.000   22.167 
#    0.000    0.000    0.000    0.000    0.000    0.000 
#
# Total GULP energy -133790.887469 kJ/mol
# GULP energy per Si atom -5574.620311 kJ/mol
# Density = 2.648761 g / cm^3
# Si number density = 26.548036 Si / 1000 Ang^3
#
#
#
# Elastic Constant Matrix: (Units=GPa)
#
#
# Indices 1 2 3 4 5 6 
#
# 1 195.6601 51.8535 51.3024 0.0000 52.2566 0.0000
# 2 51.8535 87.8646 -4.6299 0.0000 26.8785 0.0000
# 3 51.3024 -4.6299 60.9836 0.0000 37.3401 0.0000
# 4 0.0000 0.0000 0.0000 395.8331 0.0000 734.1664
# 5 52.2566 26.8785 37.3401 0.0000 47.7253 0.0000
# 6 0.0000 0.0000 0.0000 734.1664 0.0000 1437.9602
#
#
#
# Elastic Compliance Matrix: (Units=1/GPa)
#
#
# Indices 1 2 3 4 5 6 
#
# 1 0.008566 -0.005080 -0.006912 0.000000 -0.001111 0.000000
# 2 -0.005080 0.022242 0.019631 0.000000 -0.022324 0.000000
# 3 -0.006912 0.019631 0.049599 0.000000 -0.042294 0.000000
# 4 0.000000 0.000000 0.000000 0.047627 0.000000 -0.024317
# 5 -0.001111 -0.022324 -0.042294 0.000000 0.067833 0.000000
# 6 0.000000 0.000000 0.000000 -0.024317 0.000000 0.013111
#
#
# Mechanical properties :
#
#
# Convention : Reuss Voigt Hill
#
# Bulk Modulus (GPa) = 10.45084 60.17337 35.31210
# Shear Modulus (GPa) = 22.16362 392.70254 207.43308
#
# Velocity S-wave (km/s) = 2.89251 12.17549 8.84899
# Velocity P-wave (km/s) = 3.88595 14.84493 10.85063
#
# Compressibility (1/GPa) = 0.09568610
#
# Stress axis : x y z
#
# Youngs Moduli (GPa) = 116.74010 44.95945 20.16164
#
# Poissons Ratio (x) = 0.22838 0.13935
# Poissons Ratio (y) = 0.59299 -0.39578
# Poissons Ratio (z) = 0.80686 -0.88258
#
# Static dielectric constant tensor:
#      x y z
#    x 2.052140 0.000000 -0.074070 
#    y 0.000000 1.539870 0.000000 
#    z -0.074070 0.000000 2.291000 
# 
# From -- ./inp_files/17263.got.cif
#   From: 2010.05.17/outbox.cif.g08.bks.cpg/sg11_9_cif.got.tgz:17263.got - 2010.06.03 12:22:45.
