data_PCOD9162477
_publ_section_title
;
Structure prediction by ZEFSAII (Michael W. Deem and Ramdas Pophale) SiO2 
 PCOD9162477
Probable space group: P 21/M
;
_chemical_formula_sum "Si O2"
_cell_formula_units_Z 28
_cell_length_a 7.656175
_cell_length_b 15.653330
_cell_length_c 19.351660
_cell_angle_alpha 90.000000
_cell_angle_beta 145.328409
_cell_angle_gamma 90.000000
_cell_volume 1319.323294
_symmetry_space_group_name_H-M "P 21/M"
_symmetry_group_IT_number 11
_symmetry_cell_setting 'monoclinic'
loop_
_space_group_symop_operation_xyz
x,y,z
-x,1/2+y,-z
-x,-y,-z
x,1/2-y,z
loop_
_atom_site_type_symbol
_atom_site_label
_atom_site_fract_x
_atom_site_fract_y
_atom_site_fract_z
Si Si1 0.720519 0.654710 0.097075
Si Si2 0.235182 0.653597 0.816175
Si Si3 0.347389 0.847125 0.119166
Si Si4 0.852675 0.018733 0.701709
Si Si5 0.272959 0.151346 0.143278
Si Si6 0.073766 0.429306 0.625721
Si Si7 0.356554 0.935429 0.622215
O O1 0.859853 0.750000 0.135655
O O2 0.520519 0.654098 0.101896
O O3 0.962895 0.579297 0.185173
O O4 0.486212 0.642528 0.958350
O O5 0.103763 0.750000 0.779814
O O6 0.432105 0.649627 0.810099
O O7 0.005726 0.574742 0.744667
O O8 0.299542 0.750000 0.128173
O O9 0.589909 0.891826 0.248149
O O10 0.015294 0.886518 0.993212
O O11 0.894059 0.060759 0.639552
O O12 0.517888 0.003364 0.623413
O O13 0.187838 0.250000 0.129211
O O14 0.370944 0.109430 0.246835
O O15 0.152242 0.518319 0.613592
O O16 0.862879 0.381739 0.500288
#
# Coordination Sequence:
#
# PCOD9162477 Si02
#       7
#     4   4   4   4   4   4   4
#     4   9  19  35  55  85 123 155 197 252 306 364
#     4  10  20  35  56  88 128 158 196 256 308 362
#     4   9  19  37  60  85 115 154 197 248 303 356
#     4  11  21  38  62  87 115 165 204 250 304 364
#     4  10  21  37  60  90 121 155 202 254 302 360
#     4  10  23  41  57  86 122 153 201 249 295 365
#     4  11  23  39  61  85 118 161 198 246 304 359
#
# _framework density 21.222999999999999
#
# number of rings (size 3 to 8) (size 9 to 14) (size 15 to 20)
#    0.000    2.000    1.429    1.714    2.000    4.000 
#    0.000    0.000    0.000    3.429    0.000    0.000 
#    0.000    0.000    0.000    0.000    0.000    0.000 
#
# Total GULP energy -156211.558419 kJ/mol
# GULP energy per Si atom -5578.984229 kJ/mol
# Density = 2.117470 g / cm^3
# Si number density = 21.223000 Si / 1000 Ang^3
#
#
#
# Elastic Constant Matrix: (Units=GPa)
#
#
# Indices 1 2 3 4 5 6 
#
# 1 56.0977 6.3159 15.9108 0.0000 2.2653 0.0000
# 2 6.3159 48.3917 29.7856 0.0000 2.1383 0.0000
# 3 15.9108 29.7856 102.9521 0.0000 -9.9367 0.0000
# 4 0.0000 0.0000 0.0000 37.7410 0.0000 -50.7888
# 5 2.2653 2.1383 -9.9367 0.0000 36.2419 0.0000
# 6 0.0000 0.0000 0.0000 -50.7888 0.0000 39.0259
#
#
#
# Elastic Compliance Matrix: (Units=1/GPa)
#
#
# Indices 1 2 3 4 5 6 
#
# 1 0.018799 -0.000564 -0.002930 0.000000 -0.001945 0.000000
# 2 -0.000564 0.025617 -0.007670 0.000000 -0.003579 0.000000
# 3 -0.002930 -0.007670 0.012785 0.000000 0.004141 0.000000
# 4 0.000000 0.000000 0.000000 -0.035266 0.000000 -0.045895
# 5 -0.001945 -0.003579 0.004141 0.000000 0.029061 0.000000
# 6 0.000000 0.000000 0.000000 -0.045895 0.000000 -0.034105
#
#
# Mechanical properties :
#
#
# Convention : Reuss Voigt Hill
#
# Bulk Modulus (GPa) = 28.67515 34.60735 31.64125
# Shear Modulus (GPa) = 98.34219 32.96371 65.65295
#
# Velocity S-wave (km/s) = 6.81455 3.94535 5.56794
# Velocity P-wave (km/s) = 8.68667 6.09067 7.50182
#
# Compressibility (1/GPa) = 0.03487340
#
# Stress axis : x y z
#
# Youngs Moduli (GPa) = 53.19410 39.03620 78.21870
#
# Poissons Ratio (x) = 0.02203 0.22916
# Poissons Ratio (y) = 0.03002 0.59991
# Poissons Ratio (z) = 0.15585 0.29940
#
# Static dielectric constant tensor:
#      x y z
#    x 1.769250 0.000000 0.006120 
#    y 0.000000 1.788020 0.000000 
#    z 0.006120 0.000000 1.837640 
# 
# From -- ./inp_files/27039.got.cif
#   From: 2010.05.17/outbox.cif.g08.bks.cpg/sg11_14_cif.got.tgz:27039.got - 2010.06.03 12:22:45.
