data_PCOD9162954
_publ_section_title
;
Structure prediction by ZEFSAII (Michael W. Deem and Ramdas Pophale) SiO2 
 PCOD9162954
Probable space group: P 21/M
;
_chemical_formula_sum "Si O2"
_cell_formula_units_Z 28
_cell_length_a 9.211216
_cell_length_b 12.482656
_cell_length_c 14.817898
_cell_angle_alpha 90.000000
_cell_angle_beta 117.279440
_cell_angle_gamma 90.000000
_cell_volume 1514.278309
_symmetry_space_group_name_H-M "P 21/M"
_symmetry_group_IT_number 11
_symmetry_cell_setting 'monoclinic'
loop_
_space_group_symop_operation_xyz
x,y,z
-x,1/2+y,-z
-x,-y,-z
x,1/2-y,z
loop_
_atom_site_type_symbol
_atom_site_label
_atom_site_fract_x
_atom_site_fract_y
_atom_site_fract_z
Si Si1 0.914991 0.979156 0.072355
Si Si2 0.154811 0.623705 0.474005
Si Si3 0.817264 0.373867 0.721706
Si Si4 0.220911 0.629308 0.816202
Si Si5 0.573768 0.557265 0.934006
Si Si6 0.462020 0.629594 0.215810
Si Si7 0.802958 0.529676 0.354498
O O1 0.048172 0.931546 0.178610
O O2 0.840425 0.082048 0.104994
O O3 0.755417 0.903829 0.009939
O O4 0.000000 0.000000 0.000000
O O5 0.188151 0.750000 0.496177
O O6 0.202252 0.588340 0.386384
O O7 0.234297 0.550554 0.573561
O O8 0.960969 0.599490 0.423478
O O9 0.869984 0.250000 0.729483
O O10 0.646901 0.377545 0.725914
O O11 0.160415 0.750000 0.785922
O O12 0.419558 0.629895 0.863661
O O13 0.164444 0.545820 0.723207
O O14 0.596821 0.464264 0.866712
O O15 0.500000 0.500000 0.000000
O O16 0.442066 0.750000 0.172255
O O17 0.650198 0.604530 0.288941
#
# Coordination Sequence:
#
# PCOD9162954 Si02
#       7
#     4   4   4   4   4   4   4
#     4  11  20  36  57  81 114 146 189 233 276 324
#     4  10  20  36  59  85 109 141 182 228 281 329
#     4  10  21  36  56  83 112 145 184 226 276 331
#     4  10  21  37  55  79 112 150 185 226 280 332
#     4   9  20  34  52  79 109 146 184 230 270 320
#     4  10  20  36  57  81 111 147 184 224 275 333
#     4  10  20  36  59  83 110 143 181 232 272 330
#
# _framework density 18.490655
#
# number of rings (size 3 to 8) (size 9 to 14) (size 15 to 20)
#    0.000    2.000    2.857    0.857    0.000    4.000 
#    0.000    0.000    0.000    0.000    0.000    0.000 
#    0.000    0.000    0.000    0.000    0.000    0.000 
#
# Total GULP energy -155989.640942 kJ/mol
# GULP energy per Si atom -5571.058605 kJ/mol
# Density = 1.844857 g / cm^3
# Si number density = 18.490655 Si / 1000 Ang^3
#
#
#
# Elastic Constant Matrix: (Units=GPa)
#
#
# Indices 1 2 3 4 5 6 
#
# 1 59.3960 9.6262 6.7641 0.0000 -16.5531 0.0000
# 2 9.6262 55.1042 7.1669 0.0000 -13.0634 0.0000
# 3 6.7641 7.1669 58.5859 0.0000 -28.4787 0.0000
# 4 0.0000 0.0000 0.0000 3.3426 0.0000 -8.9371
# 5 -16.5531 -13.0634 -28.4787 0.0000 35.1886 0.0000
# 6 0.0000 0.0000 0.0000 -8.9371 0.0000 16.8310
#
#
#
# Elastic Compliance Matrix: (Units=1/GPa)
#
#
# Indices 1 2 3 4 5 6 
#
# 1 0.019917 -0.001135 0.003608 0.000000 0.011868 0.000000
# 2 -0.001135 0.020093 0.001714 0.000000 0.008313 0.000000
# 3 0.003608 0.001714 0.028977 0.000000 0.025785 0.000000
# 4 0.000000 0.000000 0.000000 -0.712794 0.000000 -0.378486
# 5 0.011868 0.008313 0.025785 0.000000 0.057955 0.000000
# 6 0.000000 0.000000 0.000000 -0.378486 0.000000 -0.141558
#
#
# Mechanical properties :
#
#
# Convention : Reuss Voigt Hill
#
# Bulk Modulus (GPa) = 12.92640 24.46671 18.69656
# Shear Modulus (GPa) = -7.04228 21.04104 6.99938
#
# Velocity S-wave (km/s) = -1.95367 3.37698 1.94771
# Velocity P-wave (km/s) = 1.38450 5.33535 3.89762
#
# Compressibility (1/GPa) = 0.07736105
#
# Stress axis : x y z
#
# Youngs Moduli (GPa) = 50.20918 49.76742 34.51034
#
# Poissons Ratio (x) = 0.05649 -0.12453
# Poissons Ratio (y) = 0.05699 -0.05914
# Poissons Ratio (z) = -0.18117 -0.08529
#
# Static dielectric constant tensor:
#      x y z
#    x 1.633640 0.000000 0.029330 
#    y 0.000000 1.643070 0.000000 
#    z 0.029330 0.000000 1.624440 
# 
# From -- ./inp_files/21169.got.cif
#   From: 2010.05.17/outbox.cif.g08.bks.cpg/sg11_11_cif.got.tgz:21169.got - 2010.06.03 12:22:45.
