data_PCOD9162749
_publ_section_title
;
Structure prediction by ZEFSAII (Michael W. Deem and Ramdas Pophale) SiO2 
 PCOD9162749
Probable space group: P 21/M
;
_chemical_formula_sum "Si O2"
_cell_formula_units_Z 28
_cell_length_a 5.559513
_cell_length_b 13.345134
_cell_length_c 18.634196
_cell_angle_alpha 90.000000
_cell_angle_beta 117.124922
_cell_angle_gamma 90.000000
_cell_volume 1230.459901
_symmetry_space_group_name_H-M "P 21/M"
_symmetry_group_IT_number 11
_symmetry_cell_setting 'monoclinic'
loop_
_space_group_symop_operation_xyz
x,y,z
-x,1/2+y,-z
-x,-y,-z
x,1/2-y,z
loop_
_atom_site_type_symbol
_atom_site_label
_atom_site_fract_x
_atom_site_fract_y
_atom_site_fract_z
Si Si1 0.357573 0.131295 0.246913
Si Si2 0.213141 0.547020 0.476625
Si Si3 0.139547 0.635792 0.077018
Si Si4 0.193054 0.555211 0.309419
Si Si5 0.632280 0.991015 0.181685
Si Si6 0.147607 0.565041 0.921510
Si Si7 0.182682 0.750000 0.466396
Si Si8 0.527645 0.750000 0.366345
O O1 0.387732 0.250000 0.264060
O O2 0.102936 0.112725 0.157558
O O3 0.303869 0.055495 0.305912
O O4 0.601489 0.076005 0.238115
O O5 0.500000 0.500000 0.500000
O O6 0.106791 0.563327 0.381121
O O7 0.256714 0.652969 0.519328
O O8 0.000000 0.500000 0.500000
O O9 0.072706 0.750000 0.087266
O O10 0.402890 0.592540 0.153036
O O11 0.924119 0.548695 0.064320
O O12 0.196754 0.627986 0.999431
O O13 0.403263 0.644890 0.320737
O O14 0.919973 0.562858 0.226904
O O15 0.616815 0.050835 0.104463
O O16 0.389933 0.750000 0.427115
O O17 0.854865 0.750000 0.409018
#
# Coordination Sequence:
#
# PCOD9162749 Si02
#       8
#     4   4   4   4   4   4   2   2
#     4  10  22  41  63  88 128 174 225 274 344 409
#     4  11  24  44  72 100 140 175 228 282 337 409
#     4  10  20  35  60  88 124 162 220 279 335 402
#     4  10  24  42  64  96 132 174 217 280 337 411
#     4  10  22  38  59  90 129 165 223 271 345 402
#     4   9  20  40  56  86 123 170 215 274 340 408
#     4  10  22  44  70 104 130 184 220 262 347 410
#     4  10  22  40  74  94 138 178 224 270 339 416
#
# _framework density 22.755717000000001
#
# number of rings (size 3 to 8) (size 9 to 14) (size 15 to 20)
#    0.000    2.000    0.000    2.571    7.000    3.429 
#   12.857    0.000    0.000    0.000    0.000    0.000 
#    0.000    0.000    0.000    0.000    0.000    0.000 
#
# Total GULP energy -156150.957234 kJ/mol
# GULP energy per Si atom -5576.819901 kJ/mol
# Density = 2.270392 g / cm^3
# Si number density = 22.755717 Si / 1000 Ang^3
#
#
#
# Elastic Constant Matrix: (Units=GPa)
#
#
# Indices 1 2 3 4 5 6 
#
# 1 107.5763 40.5339 12.5864 0.0000 -2.9328 0.0000
# 2 40.5339 190.0074 3.5790 0.0000 2.8461 0.0000
# 3 12.5864 3.5790 44.0346 0.0000 -3.8364 0.0000
# 4 0.0000 0.0000 0.0000 27.8403 0.0000 -2.4591
# 5 -2.9328 2.8461 -3.8364 0.0000 44.3658 0.0000
# 6 0.0000 0.0000 0.0000 -2.4591 0.0000 29.9162
#
#
#
# Elastic Compliance Matrix: (Units=1/GPa)
#
#
# Indices 1 2 3 4 5 6 
#
# 1 0.010459 -0.002188 -0.002760 0.000000 0.000593 0.000000
# 2 -0.002188 0.005735 0.000116 0.000000 -0.000503 0.000000
# 3 -0.002760 0.000116 0.023651 0.000000 0.001855 0.000000
# 4 0.000000 0.000000 0.000000 0.036182 0.000000 0.002974
# 5 0.000593 -0.000503 0.001855 0.000000 0.022772 0.000000
# 6 0.000000 0.000000 0.000000 0.002974 0.000000 0.033671
#
#
# Mechanical properties :
#
#
# Convention : Reuss Voigt Hill
#
# Bulk Modulus (GPa) = 33.13498 50.55744 41.84621
# Shear Modulus (GPa) = 32.85258 39.41906 36.13582
#
# Velocity S-wave (km/s) = 3.80374 4.16657 3.98928
# Velocity P-wave (km/s) = 5.82100 6.73890 6.29670
#
# Compressibility (1/GPa) = 0.03017959
#
# Stress axis : x y z
#
# Youngs Moduli (GPa) = 95.60862 174.36488 42.28229
#
# Poissons Ratio (x) = 0.38154 0.11670
# Poissons Ratio (y) = 0.20921 -0.00488
# Poissons Ratio (z) = 0.26389 -0.02014
#
# Static dielectric constant tensor:
#      x y z
#    x 1.865160 0.000000 -0.017610 
#    y 0.000000 1.843820 0.000000 
#    z -0.017610 0.000000 1.936540 
# 
# From -- ./inp_files/62737.got.cif
#   From: 2010.05.17/outbox.cif.g08.bks.cpg/sg11_32_cif.got.tgz:62737.got - 2010.06.03 12:22:45.
