data_PCOD9162332
_publ_section_title
;
Structure prediction by ZEFSAII (Michael W. Deem and Ramdas Pophale) SiO2 
 PCOD9162332
Probable space group: P 21/M
;
_chemical_formula_sum "Si O2"
_cell_formula_units_Z 32
_cell_length_a 13.032268
_cell_length_b 9.256780
_cell_length_c 32.482633
_cell_angle_alpha 90.000000
_cell_angle_beta 153.293790
_cell_angle_gamma 90.000000
_cell_volume 1761.081804
_symmetry_space_group_name_H-M "P 21/M"
_symmetry_group_IT_number 11
_symmetry_cell_setting 'monoclinic'
loop_
_space_group_symop_operation_xyz
x,y,z
-x,1/2+y,-z
-x,-y,-z
x,1/2-y,z
loop_
_atom_site_type_symbol
_atom_site_label
_atom_site_fract_x
_atom_site_fract_y
_atom_site_fract_z
Si Si1 0.558770 0.084933 0.649466
Si Si2 0.441177 0.423809 0.216700
Si Si3 0.764542 0.421805 0.405764
Si Si4 0.840996 0.925972 0.209754
Si Si5 0.051313 0.577108 0.925354
Si Si6 0.896589 0.917470 0.138955
Si Si7 0.643304 0.422003 0.586261
Si Si8 0.439937 0.576245 0.128520
O O1 0.482886 0.250000 0.630926
O O2 0.828890 0.078961 0.755536
O O3 0.533592 0.056118 0.591950
O O4 0.419882 0.974088 0.626974
O O5 0.433513 0.250000 0.208920
O O6 0.656203 0.460336 0.322601
O O7 0.450274 0.499255 0.175960
O O8 0.208356 0.466457 0.157220
O O9 0.792676 0.250000 0.417367
O O10 0.000000 0.500000 0.500000
O O11 0.846574 0.750000 0.209392
O O12 0.648325 0.966597 0.173203
O O13 0.797127 0.973746 0.146823
O O14 0.092787 0.971574 0.315069
O O15 0.056596 0.750000 0.921840
O O16 0.144955 0.505461 0.917357
O O17 0.209592 0.540814 0.021006
O O18 0.829343 0.750000 0.109277
O O19 0.500000 0.500000 0.500000
O O20 0.647027 0.250000 0.579877
O O21 0.448656 0.750000 0.137207
#
# Coordination Sequence:
#
# PCOD9162332 Si02
#       8
#     4   4   4   4   4   4   4   4
#     4   9  18  34  54  77 105 139 180 225 269 322
#     4  10  22  39  55  76 112 146 179 231 280 317
#     4  11  23  38  57  81 110 143 179 228 282 329
#     4   8  17  35  53  76 110 142 176 223 275 320
#     4  10  20  35  55  82 112 142 182 230 276 323
#     4   9  17  32  57  80 104 142 182 221 266 325
#     4   9  18  33  54  78 106 139 179 224 270 326
#     4  10  21  36  57  81 110 149 186 222 270 334
#
# _framework density 18.170649000000001
#
# number of rings (size 3 to 8) (size 9 to 14) (size 15 to 20)
#    0.000    2.500    1.250    2.250    0.000    4.000 
#    0.000    5.625    0.000    0.000    0.000    0.000 
#    0.000    0.000    0.000    0.000    0.000    0.000 
#
# Total GULP energy -178514.419529 kJ/mol
# GULP energy per Si atom -5578.575610 kJ/mol
# Density = 1.812929 g / cm^3
# Si number density = 18.170649 Si / 1000 Ang^3
#
#
#
# Elastic Constant Matrix: (Units=GPa)
#
#
# Indices 1 2 3 4 5 6 
#
# 1 91.7973 35.7836 49.6381 0.0000 -20.5451 0.0000
# 2 35.7836 28.9635 38.1514 0.0000 -16.9724 0.0000
# 3 49.6381 38.1514 96.9206 0.0000 -24.0916 0.0000
# 4 0.0000 0.0000 0.0000 24.6540 0.0000 -10.2526
# 5 -20.5451 -16.9724 -24.0916 0.0000 30.9751 0.0000
# 6 0.0000 0.0000 0.0000 -10.2526 0.0000 28.9569
#
#
#
# Elastic Compliance Matrix: (Units=1/GPa)
#
#
# Indices 1 2 3 4 5 6 
#
# 1 0.021079 -0.024832 -0.001150 0.000000 -0.000520 0.000000
# 2 -0.024832 0.114716 -0.025919 0.000000 0.026227 0.000000
# 3 -0.001150 -0.025919 0.021557 0.000000 0.001802 0.000000
# 4 0.000000 0.000000 0.000000 0.047565 0.000000 0.016841
# 5 -0.000520 0.026227 0.001802 0.000000 0.047712 0.000000
# 6 0.000000 0.000000 0.000000 0.016841 0.000000 0.040497
#
#
# Mechanical properties :
#
#
# Convention : Reuss Voigt Hill
#
# Bulk Modulus (GPa) = 18.67428 51.64750 35.16089
# Shear Modulus (GPa) = 12.05466 23.19111 17.62288
#
# Velocity S-wave (km/s) = 2.57848 3.57640 3.11763
# Velocity P-wave (km/s) = 4.37769 6.74830 5.68787
#
# Compressibility (1/GPa) = 0.05354958
#
# Stress axis : x y z
#
# Youngs Moduli (GPa) = 47.44080 8.71719 46.38808
#
# Poissons Ratio (x) = 0.21647 0.05334
# Poissons Ratio (y) = 1.17806 1.20234
# Poissons Ratio (z) = 0.05455 0.22594
#
# Static dielectric constant tensor:
#      x y z
#    x 1.610980 0.000000 0.010810 
#    y 0.000000 1.609860 0.000000 
#    z 0.010810 0.000000 1.625380 
# 
# From -- ./inp_files/45151.got.cif
#   From: 2010.05.17/outbox.cif.g08.bks.cpg/sg11_23_cif.got.tgz:45151.got - 2010.06.03 12:22:45.
