data_PCOD9162121
_publ_section_title
;
Structure prediction by ZEFSAII (Michael W. Deem and Ramdas Pophale) SiO2 
 PCOD9162121
Probable space group: P 21/M
;
_chemical_formula_sum "Si O2"
_cell_formula_units_Z 32
_cell_length_a 12.063919
_cell_length_b 14.222019
_cell_length_c 18.624710
_cell_angle_alpha 90.000000
_cell_angle_beta 149.256297
_cell_angle_gamma 90.000000
_cell_volume 1633.536597
_symmetry_space_group_name_H-M "P 21/M"
_symmetry_group_IT_number 11
_symmetry_cell_setting 'monoclinic'
loop_
_space_group_symop_operation_xyz
x,y,z
-x,1/2+y,-z
-x,-y,-z
x,1/2-y,z
loop_
_atom_site_type_symbol
_atom_site_label
_atom_site_fract_x
_atom_site_fract_y
_atom_site_fract_z
Si Si1 0.999899 0.015400 0.208777
Si Si2 0.113650 0.474989 0.427927
Si Si3 0.622565 0.902472 0.049886
Si Si4 0.398996 0.644850 0.060954
Si Si5 0.205086 0.998268 0.168049
Si Si6 0.604814 0.360882 0.360598
Si Si7 0.469428 0.138500 0.710542
Si Si8 0.720366 0.355259 0.257224
O O1 0.864932 0.924227 0.160456
O O2 0.132056 0.002444 0.209861
O O3 0.809142 0.088935 0.083068
O O4 0.131715 0.044919 0.352901
O O5 0.201617 0.579747 0.493539
O O6 0.264211 0.409091 0.560169
O O7 0.874412 0.440749 0.317758
O O8 0.582495 0.850863 0.102233
O O9 0.489087 0.858602 0.910390
O O10 0.500000 0.000000 0.000000
O O11 0.324091 0.750000 0.035723
O O12 0.494034 0.604022 0.187360
O O13 0.327244 0.900932 0.220047
O O14 0.381062 0.081593 0.251031
O O15 0.000000 0.000000 0.000000
O O16 0.592962 0.250000 0.373984
O O17 0.654720 0.365325 0.303342
O O18 0.449678 0.250000 0.699015
O O19 0.820839 0.250000 0.303685
#
# Coordination Sequence:
#
# PCOD9162121 Si02
#       8
#     4   4   4   4   4   4   4   4
#     4  11  23  39  63  91 120 168 212 248 314 373
#     4  11  23  40  66  89 128 165 207 255 316 375
#     4  10  20  34  60  89 126 153 202 262 311 363
#     4  10  20  37  61  89 123 159 203 257 309 366
#     4  11  22  41  67  88 122 166 211 256 309 363
#     4  10  25  42  61  91 128 167 210 257 312 375
#     4  10  23  40  62  94 126 160 210 264 310 366
#     4  11  21  38  64  95 126 165 211 256 316 375
#
# _framework density 19.589397999999999
#
# number of rings (size 3 to 8) (size 9 to 14) (size 15 to 20)
#    0.000    1.500    3.750    1.875    5.250    4.500 
#    0.000    5.625    0.000    0.000    0.000    0.000 
#    0.000    0.000    0.000    0.000    0.000    0.000 
#
# Total GULP energy -178480.457776 kJ/mol
# GULP energy per Si atom -5577.514306 kJ/mol
# Density = 1.954481 g / cm^3
# Si number density = 19.589398 Si / 1000 Ang^3
#
#
#
# Elastic Constant Matrix: (Units=GPa)
#
#
# Indices 1 2 3 4 5 6 
#
# 1 110.3725 17.8036 22.7535 0.0000 -27.0198 0.0000
# 2 17.8036 92.1979 31.5033 0.0000 -8.2786 0.0000
# 3 22.7535 31.5033 88.6390 0.0000 -28.0845 0.0000
# 4 0.0000 0.0000 0.0000 6.2250 0.0000 10.9243
# 5 -27.0198 -8.2786 -28.0845 0.0000 38.8861 0.0000
# 6 0.0000 0.0000 0.0000 10.9243 0.0000 11.8474
#
#
#
# Elastic Compliance Matrix: (Units=1/GPa)
#
#
# Indices 1 2 3 4 5 6 
#
# 1 0.011112 -0.001489 0.000029 0.000000 0.007425 0.000000
# 2 -0.001489 0.012560 -0.004619 0.000000 -0.001697 0.000000
# 3 0.000029 -0.004619 0.016353 0.000000 0.010847 0.000000
# 4 0.000000 0.000000 0.000000 -0.259868 0.000000 0.239619
# 5 0.007425 -0.001697 0.010847 0.000000 0.038349 0.000000
# 6 0.000000 0.000000 0.000000 0.239619 0.000000 -0.136542
#
#
# Mechanical properties :
#
#
# Convention : Reuss Voigt Hill
#
# Bulk Modulus (GPa) = 35.88485 48.37001 42.12743
# Shear Modulus (GPa) = -16.85833 26.00164 4.57166
#
# Velocity S-wave (km/s) = -2.93675 3.64721 1.52932
# Velocity P-wave (km/s) = 2.61895 6.51780 4.96692
#
# Compressibility (1/GPa) = 0.02786691
#
# Stress axis : x y z
#
# Youngs Moduli (GPa) = 89.99155 79.61911 61.15149
#
# Poissons Ratio (x) = 0.11856 -0.00180
# Poissons Ratio (y) = 0.13401 0.28248
# Poissons Ratio (z) = -0.00265 0.36779
#
# Static dielectric constant tensor:
#      x y z
#    x 1.695980 0.000000 -0.004810 
#    y 0.000000 1.731920 0.000000 
#    z -0.004810 0.000000 1.761030 
# 
# From -- ./inp_files/59483.got.cif
#   From: 2010.05.17/outbox.cif.g08.bks.cpg/sg11_30_cif.got.tgz:59483.got - 2010.06.03 12:22:45.
