data_PCOD9162609
_publ_section_title
;
Structure prediction by ZEFSAII (Michael W. Deem and Ramdas Pophale) SiO2 
 PCOD9162609
Probable space group: P 21/M
;
_chemical_formula_sum "Si O2"
_cell_formula_units_Z 28
_cell_length_a 18.075164
_cell_length_b 9.405432
_cell_length_c 14.618965
_cell_angle_alpha 90.000000
_cell_angle_beta 33.456377
_cell_angle_gamma 90.000000
_cell_volume 1370.146913
_symmetry_space_group_name_H-M "P 21/M"
_symmetry_group_IT_number 11
_symmetry_cell_setting 'monoclinic'
loop_
_space_group_symop_operation_xyz
x,y,z
-x,1/2+y,-z
-x,-y,-z
x,1/2-y,z
loop_
_atom_site_type_symbol
_atom_site_label
_atom_site_fract_x
_atom_site_fract_y
_atom_site_fract_z
Si Si1 0.517731 0.416160 0.575454
Si Si2 0.251940 0.580632 0.390222
Si Si3 0.243391 0.917566 0.183883
Si Si4 0.810417 0.410554 0.230088
Si Si5 0.012396 0.582166 0.287474
Si Si6 0.549110 0.579182 0.158580
Si Si7 0.900480 0.585671 0.972295
O O1 0.500000 0.500000 0.500000
O O2 0.485253 0.250000 0.594905
O O3 0.678351 0.424993 0.427460
O O4 0.441927 0.467169 0.744379
O O5 0.226470 0.750000 0.428322
O O6 0.252886 0.547919 0.280882
O O7 0.398185 0.548841 0.279751
O O8 0.131209 0.492999 0.559002
O O9 0.274446 0.750000 0.141503
O O10 0.094926 0.939655 0.296025
O O11 0.346428 0.005988 0.016357
O O12 0.808683 0.250000 0.192795
O O13 0.946722 0.423671 0.146647
O O14 0.812600 0.521843 0.145062
O O15 0.998859 0.750000 0.284356
O O16 0.099199 0.508763 0.118229
O O17 0.566628 0.750000 0.138525
O O18 0.868469 0.750000 0.986821
#
# Coordination Sequence:
#
# PCOD9162609 Si02
#       7
#     4   4   4   4   4   4   4
#     4  10  22  38  56  81 114 150 190 236 286 341
#     4  10  21  41  65  88 117 155 200 248 297 354
#     4  10  23  40  60  89 123 157 196 244 299 354
#     4   9  19  37  57  79 112 149 191 243 292 338
#     4  11  23  37  57  88 124 156 194 242 294 352
#     4  10  22  40  63  89 118 154 199 246 295 355
#     4  10  20  35  58  84 112 150 194 239 289 348
#
# _framework density 20.435763999999999
#
# number of rings (size 3 to 8) (size 9 to 14) (size 15 to 20)
#    0.000    2.000    0.000    2.571    2.000    6.286 
#    0.000    1.429    0.000    0.000    0.000    0.000 
#    0.000    0.000    0.000    0.000    0.000    0.000 
#
# Total GULP energy -156503.188911 kJ/mol
# GULP energy per Si atom -5589.399604 kJ/mol
# Density = 2.038925 g / cm^3
# Si number density = 20.435764 Si / 1000 Ang^3
#
#
#
# Elastic Constant Matrix: (Units=GPa)
#
#
# Indices 1 2 3 4 5 6 
#
# 1 56.4551 29.1786 10.4149 0.0000 8.6980 0.0000
# 2 29.1786 58.9167 38.4170 0.0000 8.1539 0.0000
# 3 10.4149 38.4170 83.7359 0.0000 3.1117 0.0000
# 4 0.0000 0.0000 0.0000 39.6593 0.0000 2.4291
# 5 8.6980 8.1539 3.1117 0.0000 31.2857 0.0000
# 6 0.0000 0.0000 0.0000 2.4291 0.0000 27.0013
#
#
#
# Elastic Compliance Matrix: (Units=1/GPa)
#
#
# Indices 1 2 3 4 5 6 
#
# 1 0.024928 -0.014145 0.003523 0.000000 -0.003594 0.000000
# 2 -0.014145 0.033127 -0.013313 0.000000 -0.003377 0.000000
# 3 0.003523 -0.013313 0.017585 0.000000 0.000741 0.000000
# 4 0.000000 0.000000 0.000000 0.025354 0.000000 -0.002281
# 5 -0.003594 -0.003377 0.000741 0.000000 0.033769 0.000000
# 6 0.000000 0.000000 0.000000 -0.002281 0.000000 0.037240
#
#
# Mechanical properties :
#
#
# Convention : Reuss Voigt Hill
#
# Bulk Modulus (GPa) = 36.01294 39.45876 37.73585
# Shear Modulus (GPa) = 21.82153 27.66239 24.74196
#
# Velocity S-wave (km/s) = 3.27128 3.68316 3.48331
# Velocity P-wave (km/s) = 5.65059 6.11867 5.88928
#
# Compressibility (1/GPa) = 0.02776779
#
# Stress axis : x y z
#
# Youngs Moduli (GPa) = 40.11565 30.18684 56.86773
#
# Poissons Ratio (x) = 0.42700 -0.20033
# Poissons Ratio (y) = 0.56744 0.75711
# Poissons Ratio (z) = -0.14132 0.40189
#
# Static dielectric constant tensor:
#      x y z
#    x 1.758760 0.000000 -0.018440 
#    y 0.000000 1.687900 0.000000 
#    z -0.018440 0.000000 1.700870 
# 
# From -- ./inp_files/54481.got.cif
#   From: 2010.05.17/outbox.cif.g08.bks.cpg/sg11_28_cif.got.tgz:54481.got - 2010.06.03 12:22:45.
