data_PCOD9162080
_publ_section_title
;
Structure prediction by ZEFSAII (Michael W. Deem and Ramdas Pophale) SiO2 
 PCOD9162080
Probable space group: P 21/M
;
_chemical_formula_sum "Si O2"
_cell_formula_units_Z 28
_cell_length_a 12.105087
_cell_length_b 22.917331
_cell_length_c 5.376407
_cell_angle_alpha 90.000000
_cell_angle_beta 112.126879
_cell_angle_gamma 90.000000
_cell_volume 1381.656705
_symmetry_space_group_name_H-M "P 21/M"
_symmetry_group_IT_number 11
_symmetry_cell_setting 'monoclinic'
loop_
_space_group_symop_operation_xyz
x,y,z
-x,1/2+y,-z
-x,-y,-z
x,1/2-y,z
loop_
_atom_site_type_symbol
_atom_site_label
_atom_site_fract_x
_atom_site_fract_y
_atom_site_fract_z
Si Si1 0.750063 0.687471 0.984477
Si Si2 0.321605 0.639479 0.562437
Si Si3 0.421117 0.509106 0.682697
Si Si4 0.697450 0.893535 0.332367
Si Si5 0.533437 0.811675 0.440075
Si Si6 0.191571 0.820242 0.956279
Si Si7 0.081941 0.318060 0.270650
O O1 0.734278 0.750000 0.111442
O O2 0.711015 0.625896 0.060813
O O3 0.660042 0.694206 0.681016
O O4 0.883099 0.683536 0.992210
O O5 0.362975 0.572851 0.626197
O O6 0.437940 0.674776 0.569163
O O7 0.236521 0.649792 0.249608
O O8 0.266658 0.661707 0.775577
O O9 0.500000 0.500000 0.500000
O O10 0.318133 0.459825 0.608403
O O11 0.500000 0.500000 0.000000
O O12 0.568068 0.864443 0.290937
O O13 0.818641 0.861397 0.531764
O O14 0.502121 0.750000 0.288720
O O15 0.198951 0.750000 0.995415
O O16 0.052961 0.835776 0.797144
O O17 0.093836 0.250000 0.360440
#
# Coordination Sequence:
#
# PCOD9162080 Si02
#       7
#     4   4   4   4   4   4   4
#     4   9  18  33  59  93 125 159 210 277 336 391
#     4  12  25  44  64  99 134 178 225 269 330 413
#     4  12  26  46  68  96 137 183 225 274 330 403
#     4  11  21  37  65  91 126 171 221 272 335 380
#     4  10  20  34  57  94 127 156 209 277 337 393
#     4  11  25  45  69  96 135 179 219 273 339 402
#     4   9  21  40  64  97 129 169 224 280 337 396
#
# _framework density 20.265528
#
# number of rings (size 3 to 8) (size 9 to 14) (size 15 to 20)
#    0.000    1.429    1.429    5.143    6.000    0.000 
#    0.000    1.429    0.000    0.000    0.000    0.000 
#    0.000    0.000    0.000    0.000    0.000    0.000 
#
# Total GULP energy -155908.767158 kJ/mol
# GULP energy per Si atom -5568.170256 kJ/mol
# Density = 2.021940 g / cm^3
# Si number density = 20.265528 Si / 1000 Ang^3
#
#
#
# Elastic Constant Matrix: (Units=GPa)
#
#
# Indices 1 2 3 4 5 6 
#
# 1 107.3025 27.4385 18.7382 0.0000 5.3888 0.0000
# 2 27.4385 106.9787 12.1446 0.0000 8.7254 0.0000
# 3 18.7382 12.1446 74.2687 0.0000 5.3120 0.0000
# 4 0.0000 0.0000 0.0000 31.5710 0.0000 -8.6001
# 5 5.3888 8.7254 5.3120 0.0000 24.9872 0.0000
# 6 0.0000 0.0000 0.0000 -8.6001 0.0000 49.7247
#
#
#
# Elastic Compliance Matrix: (Units=1/GPa)
#
#
# Indices 1 2 3 4 5 6 
#
# 1 0.010340 -0.002329 -0.002160 0.000000 -0.000958 0.000000
# 2 -0.002329 0.010282 -0.000886 0.000000 -0.002900 0.000000
# 3 -0.002160 -0.000886 0.014317 0.000000 -0.002268 0.000000
# 4 0.000000 0.000000 0.000000 0.033241 0.000000 0.005749
# 5 -0.000958 -0.002900 -0.002268 0.000000 0.041722 0.000000
# 6 0.000000 0.000000 0.000000 0.005749 0.000000 0.021105
#
#
# Mechanical properties :
#
#
# Convention : Reuss Voigt Hill
#
# Bulk Modulus (GPa) = 41.34039 45.02138 43.18088
# Shear Modulus (GPa) = 33.37358 36.60517 34.98938
#
# Velocity S-wave (km/s) = 4.06250 4.25464 4.15968
# Velocity P-wave (km/s) = 6.51528 6.81175 6.66516
#
# Compressibility (1/GPa) = 0.02418942
#
# Stress axis : x y z
#
# Youngs Moduli (GPa) = 96.71024 97.25638 69.84875
#
# Poissons Ratio (x) = 0.22649 0.15084
# Poissons Ratio (y) = 0.22522 0.06191
# Poissons Ratio (z) = 0.20885 0.08621
#
# Static dielectric constant tensor:
#      x y z
#    x 1.721750 0.000000 -0.028290 
#    y 0.000000 1.536280 0.000000 
#    z -0.028290 0.000000 1.862170 
# 
# From -- ./inp_files/5097.got.cif
#   From: 2010.05.17/outbox.cif.g08.bks.cpg/sg11_3_cif.got.tgz:5097.got - 2010.06.03 12:22:45.
