data_PCOD9162626
_publ_section_title
;
Structure prediction by ZEFSAII (Michael W. Deem and Ramdas Pophale) SiO2 
 PCOD9162626
Probable space group: P 21/M
;
_chemical_formula_sum "Si O2"
_cell_formula_units_Z 28
_cell_length_a 6.996904
_cell_length_b 19.220774
_cell_length_c 9.695678
_cell_angle_alpha 90.000000
_cell_angle_beta 72.788816
_cell_angle_gamma 90.000000
_cell_volume 1245.542816
_symmetry_space_group_name_H-M "P 21/M"
_symmetry_group_IT_number 11
_symmetry_cell_setting 'monoclinic'
loop_
_space_group_symop_operation_xyz
x,y,z
-x,1/2+y,-z
-x,-y,-z
x,1/2-y,z
loop_
_atom_site_type_symbol
_atom_site_label
_atom_site_fract_x
_atom_site_fract_y
_atom_site_fract_z
Si Si1 0.903903 0.415702 0.227146
Si Si2 0.102667 0.572934 0.460573
Si Si3 0.273937 0.330277 0.142885
Si Si4 0.475946 0.830395 0.656232
Si Si5 0.934749 0.583031 0.210516
Si Si6 0.495190 0.628579 0.332542
Si Si7 0.304800 0.672304 0.097009
O O1 0.101257 0.380210 0.125039
O O2 0.913904 0.393512 0.387334
O O3 0.688866 0.382460 0.243769
O O4 0.920796 0.498944 0.204301
O O5 0.339741 0.563872 0.379122
O O6 0.000000 0.500000 0.500000
O O7 0.985799 0.604903 0.357864
O O8 0.214682 0.250000 0.133740
O O9 0.326720 0.340171 0.293449
O O10 0.486348 0.341516 0.023642
O O11 0.410903 0.750000 0.689660
O O12 0.508026 0.842382 0.485705
O O13 0.714583 0.612107 0.230059
O O14 0.131534 0.616533 0.099059
O O15 0.372880 0.671544 0.244039
O O16 0.233134 0.750000 0.077091
#
# Coordination Sequence:
#
# PCOD9162626 Si02
#       7
#     4   4   4   4   4   4   4
#     4  10  20  35  58  85 115 148 185 234 285 336
#     4   8  17  32  53  84 117 148 181 224 280 338
#     4  10  22  40  59  80 113 154 189 230 283 336
#     4  10  21  36  58  87 113 145 191 234 276 333
#     4  10  21  36  58  86 115 150 188 234 286 339
#     4  10  20  36  59  86 113 144 188 235 284 332
#     4  10  23  41  58  80 113 152 193 233 280 341
#
# _framework density 22.480156999999998
#
# number of rings (size 3 to 8) (size 9 to 14) (size 15 to 20)
#    0.000    2.286    0.000    1.714    0.000   11.429 
#    0.000    7.857    0.000    0.000    0.000    0.000 
#    0.000    0.000    0.000    0.000    0.000    0.000 
#
# Total GULP energy -156043.680507 kJ/mol
# GULP energy per Si atom -5572.988590 kJ/mol
# Density = 2.242899 g / cm^3
# Si number density = 22.480157 Si / 1000 Ang^3
#
#
#
# Elastic Constant Matrix: (Units=GPa)
#
#
# Indices 1 2 3 4 5 6 
#
# 1 113.5883 67.0376 15.6968 0.0000 -19.2643 0.0000
# 2 67.0376 100.4869 14.6889 0.0000 -27.0525 0.0000
# 3 15.6968 14.6889 64.0159 0.0000 -0.3168 0.0000
# 4 0.0000 0.0000 0.0000 18.6147 0.0000 -13.6580
# 5 -19.2643 -27.0525 -0.3168 0.0000 41.6673 0.0000
# 6 0.0000 0.0000 0.0000 -13.6580 0.0000 1.4814
#
#
#
# Elastic Compliance Matrix: (Units=1/GPa)
#
#
# Indices 1 2 3 4 5 6 
#
# 1 0.014656 -0.009387 -0.001436 0.000000 0.000671 0.000000
# 2 -0.009387 0.018568 -0.001921 0.000000 0.007701 0.000000
# 3 -0.001436 -0.001921 0.016405 0.000000 -0.001786 0.000000
# 4 0.000000 0.000000 0.000000 -0.009319 0.000000 -0.085918
# 5 0.000671 0.007701 -0.001786 0.000000 0.029296 0.000000
# 6 0.000000 0.000000 0.000000 -0.085918 0.000000 -0.117099
#
#
# Mechanical properties :
#
#
# Convention : Reuss Voigt Hill
#
# Bulk Modulus (GPa) = 41.42370 52.54864 46.98617
# Shear Modulus (GPa) = -358.21309 24.39721 -166.90794
#
# Velocity S-wave (km/s) = -12.63694 3.29793 -8.62601
# Velocity P-wave (km/s) = 13.94476 6.15858 8.84670
#
# Compressibility (1/GPa) = 0.02414077
#
# Stress axis : x y z
#
# Youngs Moduli (GPa) = 68.23203 53.85724 60.95623
#
# Poissons Ratio (x) = 0.50555 0.08756
# Poissons Ratio (y) = 0.64048 0.11708
# Poissons Ratio (z) = 0.09801 0.10344
#
# Static dielectric constant tensor:
#      x y z
#    x 1.867390 0.000000 0.062860 
#    y 0.000000 1.809340 0.000000 
#    z 0.062860 0.000000 2.015590 
# 
# From -- ./inp_files/29968.got.cif
#   From: 2010.05.17/outbox.cif.g08.bks.cpg/sg11_15_cif.got.tgz:29968.got - 2010.06.03 12:22:45.
