data_PCOD9162838
_publ_section_title
;
Structure prediction by ZEFSAII (Michael W. Deem and Ramdas Pophale) SiO2 
 PCOD9162838
Probable space group: P 21/M
;
_chemical_formula_sum "Si O2"
_cell_formula_units_Z 28
_cell_length_a 12.567463
_cell_length_b 19.748277
_cell_length_c 11.934462
_cell_angle_alpha 90.000000
_cell_angle_beta 146.267876
_cell_angle_gamma 90.000000
_cell_volume 1644.810179
_symmetry_space_group_name_H-M "P 21/M"
_symmetry_group_IT_number 11
_symmetry_cell_setting 'monoclinic'
loop_
_space_group_symop_operation_xyz
x,y,z
-x,1/2+y,-z
-x,-y,-z
x,1/2-y,z
loop_
_atom_site_type_symbol
_atom_site_label
_atom_site_fract_x
_atom_site_fract_y
_atom_site_fract_z
Si Si1 0.403430 0.433217 0.091323
Si Si2 0.161853 0.590122 0.588594
Si Si3 0.936779 0.827544 0.223296
Si Si4 0.920513 0.029607 0.259538
Si Si5 0.791185 0.169120 0.753225
Si Si6 0.444643 0.429037 0.393052
Si Si7 0.975422 0.567827 0.901377
O O1 0.610565 0.417792 0.222240
O O2 0.428569 0.442054 0.246501
O O3 0.251908 0.373010 0.940349
O O4 0.290596 0.497009 0.941050
O O5 0.095655 0.586185 0.659130
O O6 0.077131 0.653720 0.448341
O O7 0.062980 0.527088 0.435677
O O8 0.881455 0.750000 0.177696
O O9 0.057527 0.840427 0.215871
O O10 0.992849 0.049758 0.200313
O O11 0.766997 0.250000 0.750193
O O12 0.598670 0.129733 0.549852
O O13 0.878977 0.126172 0.932384
O O14 0.500000 0.500000 0.500000
O O15 0.239454 0.408231 0.262164
O O16 0.000000 0.500000 0.000000
#
# Coordination Sequence:
#
# PCOD9162838 Si02
#       7
#     4   4   4   4   4   4   4
#     4  11  19  33  55  83 110 138 183 230 281 328
#     4  10  20  36  55  81 111 142 180 231 281 330
#     4  10  21  36  55  80 111 145 186 232 277 335
#     4  10  21  35  56  82 112 142 182 231 280 329
#     4  11  23  38  55  85 120 149 188 240 288 339
#     4  12  21  32  59  86 114 148 191 232 284 342
#     4  12  20  37  59  84 114 149 190 234 283 337
#
# _framework density 17.023240000000001
#
# number of rings (size 3 to 8) (size 9 to 14) (size 15 to 20)
#    0.000    1.143    5.714    2.143    0.000    1.714 
#    0.000    0.714    0.000    1.714    0.000    0.000 
#    0.000    0.000    0.000    0.000    0.000    0.000 
#
# Total GULP energy -156275.273630 kJ/mol
# GULP energy per Si atom -5581.259773 kJ/mol
# Density = 1.698449 g / cm^3
# Si number density = 17.023240 Si / 1000 Ang^3
#
#
#
# Elastic Constant Matrix: (Units=GPa)
#
#
# Indices 1 2 3 4 5 6 
#
# 1 92.9668 17.9087 22.8105 0.0000 -16.7629 0.0000
# 2 17.9087 58.6527 24.5974 0.0000 -8.5018 0.0000
# 3 22.8105 24.5974 87.2955 0.0000 8.0594 0.0000
# 4 0.0000 0.0000 0.0000 18.6059 0.0000 -1.6166
# 5 -16.7629 -8.5018 8.0594 0.0000 32.6181 0.0000
# 6 0.0000 0.0000 0.0000 -1.6166 0.0000 18.7041
#
#
#
# Elastic Compliance Matrix: (Units=1/GPa)
#
#
# Indices 1 2 3 4 5 6 
#
# 1 0.013281 -0.001410 -0.003755 0.000000 0.007386 0.000000
# 2 -0.001410 0.020948 -0.006111 0.000000 0.006245 0.000000
# 3 -0.003755 -0.006111 0.014822 0.000000 -0.007185 0.000000
# 4 0.000000 0.000000 0.000000 0.054153 0.000000 0.004681
# 5 0.007386 0.006245 -0.007185 0.000000 0.037856 0.000000
# 6 0.000000 0.000000 0.000000 0.004681 0.000000 0.053869
#
#
# Mechanical properties :
#
#
# Convention : Reuss Voigt Hill
#
# Bulk Modulus (GPa) = 37.73646 41.06092 39.39869
# Shear Modulus (GPa) = 22.09324 25.55884 23.82604
#
# Velocity S-wave (km/s) = 3.60645 3.87900 3.74521
# Velocity P-wave (km/s) = 6.28949 6.65095 6.47274
#
# Compressibility (1/GPa) = 0.02649957
#
# Stress axis : x y z
#
# Youngs Moduli (GPa) = 75.29452 47.73739 67.46879
#
# Poissons Ratio (x) = 0.06730 0.25335
# Poissons Ratio (y) = 0.10616 0.41228
# Poissons Ratio (z) = 0.28273 0.29171
#
# Static dielectric constant tensor:
#      x y z
#    x 1.567190 0.000000 -0.002840 
#    y 0.000000 1.573340 0.000000 
#    z -0.002840 0.000000 1.590790 
# 
# From -- ./inp_files/29972.got.cif
#   From: 2010.05.17/outbox.cif.g08.bks.cpg/sg11_15_cif.got.tgz:29972.got - 2010.06.03 12:22:45.
