data_PCOD9162127
_publ_section_title
;
Structure prediction by ZEFSAII (Michael W. Deem and Ramdas Pophale) SiO2 
 PCOD9162127
Probable space group: P 21/M
;
_chemical_formula_sum "Si O2"
_cell_formula_units_Z 28
_cell_length_a 19.130817
_cell_length_b 9.412564
_cell_length_c 13.513631
_cell_angle_alpha 90.000000
_cell_angle_beta 143.236983
_cell_angle_gamma 90.000000
_cell_volume 1456.406053
_symmetry_space_group_name_H-M "P 21/M"
_symmetry_group_IT_number 11
_symmetry_cell_setting 'monoclinic'
loop_
_space_group_symop_operation_xyz
x,y,z
-x,1/2+y,-z
-x,-y,-z
x,1/2-y,z
loop_
_atom_site_type_symbol
_atom_site_label
_atom_site_fract_x
_atom_site_fract_y
_atom_site_fract_z
Si Si1 0.066604 0.498320 0.229652
Si Si2 0.816095 0.086196 0.297786
Si Si3 0.390351 0.580844 0.423566
Si Si4 0.986264 0.906140 0.618121
Si Si5 0.615910 0.919759 0.164827
Si Si6 0.319720 0.590303 0.567480
Si Si7 0.165003 0.094841 0.133989
O O1 0.180703 0.588614 0.388514
O O2 0.110756 0.415600 0.182810
O O3 0.035041 0.409399 0.290293
O O4 0.947025 0.575016 0.063036
O O5 0.781835 0.250000 0.277629
O O6 0.880191 0.078067 0.264915
O O7 0.712902 0.977071 0.198580
O O8 0.914372 0.033344 0.486786
O O9 0.500000 0.500000 0.500000
O O10 0.398426 0.750000 0.417070
O O11 0.381113 0.556390 0.532160
O O12 0.267344 0.520850 0.241695
O O13 0.947845 0.750000 0.535667
O O14 0.605992 0.750000 0.154056
O O15 0.652524 0.978874 0.314736
O O16 0.500000 0.000000 0.000000
O O17 0.354047 0.750000 0.637462
O O18 0.218060 0.250000 0.179305
#
# Coordination Sequence:
#
# PCOD9162127 Si02
#       7
#     4   4   4   4   4   4   4
#     4  10  20  34  61  91 123 159 197 245 295 353
#     4  10  21  37  58  86 119 153 194 244 297 352
#     4  10  22  41  64  89 122 161 201 248 300 356
#     4  10  20  35  58  87 119 156 195 239 294 354
#     4  12  25  42  64  88 117 156 203 253 302 358
#     4  10  21  39  64  91 118 154 200 249 302 359
#     4  10  21  36  58  91 125 160 202 246 295 352
#
# _framework density 19.225407000000001
#
# number of rings (size 3 to 8) (size 9 to 14) (size 15 to 20)
#    0.000    1.714    1.429    3.000    0.000    8.000 
#    2.571    0.000    0.000    0.000    0.000    0.000 
#    0.000    0.000    0.000    0.000    0.000    0.000 
#
# Total GULP energy -156158.461975 kJ/mol
# GULP energy per Si atom -5577.087928 kJ/mol
# Density = 1.918165 g / cm^3
# Si number density = 19.225407 Si / 1000 Ang^3
#
#
#
# Elastic Constant Matrix: (Units=GPa)
#
#
# Indices 1 2 3 4 5 6 
#
# 1 119.1623 48.4885 38.0679 0.0000 20.8236 0.0000
# 2 48.4885 144.7045 45.1220 0.0000 12.3918 0.0000
# 3 38.0679 45.1220 87.8424 0.0000 14.5703 0.0000
# 4 0.0000 0.0000 0.0000 16.6526 0.0000 7.6279
# 5 20.8236 12.3918 14.5703 0.0000 22.5442 0.0000
# 6 0.0000 0.0000 0.0000 7.6279 0.0000 22.0322
#
#
#
# Elastic Compliance Matrix: (Units=1/GPa)
#
#
# Indices 1 2 3 4 5 6 
#
# 1 0.011515 -0.002430 -0.002463 0.000000 -0.007708 0.000000
# 2 -0.002430 0.008823 -0.003413 0.000000 -0.000399 0.000000
# 3 -0.002463 -0.003413 0.015139 0.000000 -0.005633 0.000000
# 4 0.000000 0.000000 0.000000 0.071369 0.000000 -0.024709
# 5 -0.007708 -0.000399 -0.005633 0.000000 0.055337 0.000000
# 6 0.000000 0.000000 0.000000 -0.024709 0.000000 0.053943
#
#
# Mechanical properties :
#
#
# Convention : Reuss Voigt Hill
#
# Bulk Modulus (GPa) = 53.00994 68.34067 60.67530
# Shear Modulus (GPa) = 20.91820 26.91453 23.91637
#
# Velocity S-wave (km/s) = 3.30214 3.74564 3.53086
# Velocity P-wave (km/s) = 6.49396 7.37094 6.94630
#
# Compressibility (1/GPa) = 0.01886439
#
# Stress axis : x y z
#
# Youngs Moduli (GPa) = 86.84553 113.33514 66.05484
#
# Poissons Ratio (x) = 0.27543 0.16271
# Poissons Ratio (y) = 0.21106 0.22544
# Poissons Ratio (z) = 0.21392 0.38680
#
# Static dielectric constant tensor:
#      x y z
#    x 1.702460 0.000000 0.034090 
#    y 0.000000 1.694250 0.000000 
#    z 0.034090 0.000000 1.710650 
# 
# From -- ./inp_files/54589.got.cif
#   From: 2010.05.17/outbox.cif.g08.bks.cpg/sg11_28_cif.got.tgz:54589.got - 2010.06.03 12:22:45.
