data_PCOD9162006
_publ_section_title
;
Structure prediction by ZEFSAII (Michael W. Deem and Ramdas Pophale) SiO2 
 PCOD9162006
Probable space group: P 21/M
;
_chemical_formula_sum "Si O2"
_cell_formula_units_Z 32
_cell_length_a 15.429788
_cell_length_b 8.699204
_cell_length_c 24.520863
_cell_angle_alpha 90.000000
_cell_angle_beta 29.939152
_cell_angle_gamma 90.000000
_cell_volume 1642.651341
_symmetry_space_group_name_H-M "P 21/M"
_symmetry_group_IT_number 11
_symmetry_cell_setting 'monoclinic'
loop_
_space_group_symop_operation_xyz
x,y,z
-x,1/2+y,-z
-x,-y,-z
x,1/2-y,z
loop_
_atom_site_type_symbol
_atom_site_label
_atom_site_fract_x
_atom_site_fract_y
_atom_site_fract_z
Si Si1 0.679862 0.423932 0.382472
Si Si2 0.307937 0.432024 0.095377
Si Si3 0.807729 0.434965 0.616597
Si Si4 0.950841 0.574688 0.083593
Si Si5 0.406884 0.077330 0.673864
Si Si6 0.035805 0.934544 0.161233
Si Si7 0.872272 0.068026 0.701631
Si Si8 0.726298 0.568836 0.551158
O O1 0.500000 0.500000 0.500000
O O2 0.694368 0.250000 0.393762
O O3 0.649505 0.440561 0.334754
O O4 0.863767 0.510196 0.288676
O O5 0.319859 0.250000 0.082005
O O6 0.204490 0.502277 0.100153
O O7 0.196442 0.473772 0.210020
O O8 0.500000 0.500000 0.000000
O O9 0.805591 0.250000 0.610332
O O10 0.771662 0.466828 0.699774
O O11 0.701082 0.520072 0.627977
O O12 0.000000 0.500000 0.500000
O O13 0.012748 0.750000 0.048379
O O14 0.740961 0.575505 0.200108
O O15 0.015862 0.515474 0.108104
O O16 0.000000 0.500000 0.000000
O O17 0.394044 0.250000 0.655682
O O18 0.598760 0.040372 0.587665
O O19 0.035816 0.750000 0.161846
O O20 0.851019 0.250000 0.724860
O O21 0.075756 0.043563 0.576632
O O22 0.689033 0.750000 0.564564
#
# Coordination Sequence:
#
# PCOD9162006 Si02
#       8
#     4   4   4   4   4   4   4   4
#     4  11  22  37  59  89 124 162 201 244 299 364
#     4  12  26  44  66  91 120 160 209 262 314 369
#     4   9  17  32  54  80 113 151 191 238 291 349
#     4   9  20  39  64  90 119 158 198 246 302 356
#     4  10  21  37  55  84 122 157 197 246 296 353
#     4  10  22  43  66  91 125 162 203 255 309 366
#     4   9  20  38  59  83 116 156 198 247 306 364
#     4  10  20  34  56  87 121 158 197 242 300 361
#
# _framework density 19.480701
#
# number of rings (size 3 to 8) (size 9 to 14) (size 15 to 20)
#    0.000    2.000    0.000    5.250    1.750    6.000 
#    2.250    0.000    0.000    0.000    0.000    0.000 
#    0.000    0.000    0.000    0.000    0.000    0.000 
#
# Total GULP energy -178274.966036 kJ/mol
# GULP energy per Si atom -5571.092689 kJ/mol
# Density = 1.943636 g / cm^3
# Si number density = 19.480701 Si / 1000 Ang^3
#
#
#
# Elastic Constant Matrix: (Units=GPa)
#
#
# Indices 1 2 3 4 5 6 
#
# 1 76.7080 37.3060 49.3796 0.0000 -9.9087 0.0000
# 2 37.3060 92.0273 48.6528 0.0000 0.8798 0.0000
# 3 49.3796 48.6528 83.2491 0.0000 4.5798 0.0000
# 4 0.0000 0.0000 0.0000 34.0722 0.0000 1.2914
# 5 -9.9087 0.8798 4.5798 0.0000 31.8028 0.0000
# 6 0.0000 0.0000 0.0000 1.2914 0.0000 34.0765
#
#
#
# Elastic Compliance Matrix: (Units=1/GPa)
#
#
# Indices 1 2 3 4 5 6 
#
# 1 0.024140 -0.002938 -0.013124 0.000000 0.009492 0.000000
# 2 -0.002938 0.016108 -0.007657 0.000000 -0.000259 0.000000
# 3 -0.013124 -0.007657 0.024680 0.000000 -0.007431 0.000000
# 4 0.000000 0.000000 0.000000 0.029392 0.000000 -0.001114
# 5 0.009492 -0.000259 -0.007431 0.000000 0.035479 0.000000
# 6 0.000000 0.000000 0.000000 -0.001114 0.000000 0.029388
#
#
# Mechanical properties :
#
#
# Convention : Reuss Voigt Hill
#
# Bulk Modulus (GPa) = 57.17426 58.07345 57.62386
# Shear Modulus (GPa) = 23.53461 27.76671 25.65066
#
# Velocity S-wave (km/s) = 3.47954 3.77947 3.63260
# Velocity P-wave (km/s) = 6.74951 6.99438 6.87303
#
# Compressibility (1/GPa) = 0.01749039
#
# Stress axis : x y z
#
# Youngs Moduli (GPa) = 41.42548 62.08137 40.51870
#
# Poissons Ratio (x) = 0.18242 0.53175
# Poissons Ratio (y) = 0.12172 0.31024
# Poissons Ratio (z) = 0.54365 0.47534
#
# Static dielectric constant tensor:
#      x y z
#    x 1.718140 0.000000 0.022490 
#    y 0.000000 1.686740 0.000000 
#    z 0.022490 0.000000 1.717660 
# 
# From -- ./inp_files/68991.got.cif
#   From: 2010.05.17/outbox.cif.g08.bks.cpg/sg11_35_cif.got.tgz:68991.got - 2010.06.03 12:22:45.
