data_PCOD9162907
_publ_section_title
;
Structure prediction by ZEFSAII (Michael W. Deem and Ramdas Pophale) SiO2 
 PCOD9162907
Probable space group: P 21/M
;
_chemical_formula_sum "Si O2"
_cell_formula_units_Z 32
_cell_length_a 30.763528
_cell_length_b 8.366436
_cell_length_c 12.867323
_cell_angle_alpha 90.000000
_cell_angle_beta 151.503708
_cell_angle_gamma 90.000000
_cell_volume 1580.068692
_symmetry_space_group_name_H-M "P 21/M"
_symmetry_group_IT_number 11
_symmetry_cell_setting 'monoclinic'
loop_
_space_group_symop_operation_xyz
x,y,z
-x,1/2+y,-z
-x,-y,-z
x,1/2-y,z
loop_
_atom_site_type_symbol
_atom_site_label
_atom_site_fract_x
_atom_site_fract_y
_atom_site_fract_z
Si Si1 0.867916 0.056757 0.973702
Si Si2 0.755616 0.557826 0.135312
Si Si3 0.734614 0.443575 0.320474
Si Si4 0.602289 0.440927 0.227270
Si Si5 0.101379 0.942382 0.195826
Si Si6 0.406591 0.056531 0.355707
Si Si7 0.673389 0.940690 0.598486
Si Si8 0.037611 0.443291 0.468501
O O1 0.863952 0.250000 0.968331
O O2 0.962710 0.005686 0.225622
O O3 0.865510 0.004515 0.848373
O O4 0.777809 0.990539 0.839077
O O5 0.758935 0.750000 0.135080
O O6 0.723336 0.510591 0.182275
O O7 0.859197 0.498500 0.334488
O O8 0.681006 0.501601 0.895243
O O9 0.732595 0.250000 0.310713
O O10 0.661071 0.496428 0.251590
O O11 0.831504 0.495906 0.572066
O O12 0.604864 0.250000 0.231095
O O13 0.643414 0.494403 0.423686
O O14 0.500000 0.500000 0.000000
O O15 0.103168 0.750000 0.198564
O O16 0.000000 0.000000 0.000000
O O17 0.407080 0.250000 0.356257
O O18 0.390564 0.003405 0.441018
O O19 0.500000 0.000000 0.500000
O O20 0.668688 0.750000 0.584658
O O21 0.039715 0.250000 0.471544
O O22 0.000000 0.500000 0.500000
#
# Coordination Sequence:
#
# PCOD9162907 Si02
#       8
#     4   4   4   4   4   4   4   4
#     4  10  20  37  59  85 119 160 198 243 305 364
#     4  10  22  41  62  88 122 160 203 252 302 361
#     4  10  22  40  61  87 124 161 197 248 301 358
#     4  11  24  43  65  92 126 162 203 254 309 366
#     4  10  20  36  56  83 118 157 198 241 292 350
#     4  10  24  43  63  89 120 157 202 253 306 359
#     4  11  23  41  65  93 123 158 205 256 305 365
#     4  10  21  37  60  87 120 159 203 253 306 362
#
# _framework density 20.252285000000001
#
# number of rings (size 3 to 8) (size 9 to 14) (size 15 to 20)
#    0.000    1.750    1.250    2.250    1.750    6.500 
#    0.000    0.000    0.000    0.000    0.000    0.000 
#    0.000    0.000    0.000    0.000    0.000    0.000 
#
# Total GULP energy -178805.503533 kJ/mol
# GULP energy per Si atom -5587.671985 kJ/mol
# Density = 2.020619 g / cm^3
# Si number density = 20.252285 Si / 1000 Ang^3
#
#
#
# Elastic Constant Matrix: (Units=GPa)
#
#
# Indices 1 2 3 4 5 6 
#
# 1 145.3646 11.2970 48.5568 0.0000 8.5319 0.0000
# 2 11.2970 7.9273 12.6901 0.0000 1.1328 0.0000
# 3 48.5568 12.6901 109.2532 0.0000 9.7736 0.0000
# 4 0.0000 0.0000 0.0000 28.8163 0.0000 2.4158
# 5 8.5319 1.1328 9.7736 0.0000 40.6161 0.0000
# 6 0.0000 0.0000 0.0000 2.4158 0.0000 32.7389
#
#
#
# Elastic Compliance Matrix: (Units=1/GPa)
#
#
# Indices 1 2 3 4 5 6 
#
# 1 0.008447 -0.007405 -0.002814 0.000000 -0.000891 0.000000
# 2 -0.007405 0.161450 -0.015533 0.000000 0.000790 0.000000
# 3 -0.002814 -0.015533 0.012383 0.000000 -0.001955 0.000000
# 4 0.000000 0.000000 0.000000 0.034919 0.000000 -0.002577
# 5 -0.000891 0.000790 -0.001955 0.000000 0.025256 0.000000
# 6 0.000000 0.000000 0.000000 -0.002577 0.000000 0.030735
#
#
# Mechanical properties :
#
#
# Convention : Reuss Voigt Hill
#
# Bulk Modulus (GPa) = 7.64666 45.29258 26.46962
# Shear Modulus (GPa) = 13.57640 33.10100 23.33870
#
# Velocity S-wave (km/s) = 2.59195 4.04720 3.39838
# Velocity P-wave (km/s) = 3.56952 6.65225 5.33826
#
# Compressibility (1/GPa) = 0.13077600
#
# Stress axis : x y z
#
# Youngs Moduli (GPa) = 118.38315 6.19386 80.75580
#
# Poissons Ratio (x) = 0.04587 0.22729
# Poissons Ratio (y) = 0.87664 1.25434
# Poissons Ratio (z) = 0.33319 0.09621
#
# Static dielectric constant tensor:
#      x y z
#    x 1.707140 0.000000 0.002900 
#    y 0.000000 1.710570 0.000000 
#    z 0.002900 0.000000 1.703120 
# 
# From -- ./inp_files/45241.got.cif
#   From: 2010.05.17/outbox.cif.g08.bks.cpg/sg11_23_cif.got.tgz:45241.got - 2010.06.03 12:22:45.
