data_PCOD9162938
_publ_section_title
;
Structure prediction by ZEFSAII (Michael W. Deem and Ramdas Pophale) SiO2 
 PCOD9162938
Probable space group: P 21/M
;
_chemical_formula_sum "Si O2"
_cell_formula_units_Z 32
_cell_length_a 25.322719
_cell_length_b 7.499403
_cell_length_c 16.468024
_cell_angle_alpha 90.000000
_cell_angle_beta 153.234686
_cell_angle_gamma 90.000000
_cell_volume 1408.368316
_symmetry_space_group_name_H-M "P 21/M"
_symmetry_group_IT_number 11
_symmetry_cell_setting 'monoclinic'
loop_
_space_group_symop_operation_xyz
x,y,z
-x,1/2+y,-z
-x,-y,-z
x,1/2-y,z
loop_
_atom_site_type_symbol
_atom_site_label
_atom_site_fract_x
_atom_site_fract_y
_atom_site_fract_z
Si Si1 0.335813 0.045579 0.489035
Si Si2 0.766776 0.464254 0.382912
Si Si3 0.985132 0.531448 0.214906
Si Si4 0.299724 0.462561 0.883815
Si Si5 0.461816 0.461826 0.356081
Si Si6 0.217674 0.467495 0.946189
Si Si7 0.556397 0.046727 0.196183
Si Si8 0.105680 0.036793 0.083912
O O1 0.308571 0.250000 0.473807
O O2 0.225324 0.968045 0.288520
O O3 0.446438 0.042696 0.580928
O O4 0.370844 0.951202 0.620128
O O5 0.763084 0.250000 0.387341
O O6 0.775278 0.504998 0.299520
O O7 0.643822 0.535297 0.249898
O O8 0.881505 0.527993 0.588146
O O9 0.986799 0.750000 0.215776
O O10 0.901385 0.475018 0.173828
O O11 0.929381 0.470580 0.053373
O O12 0.313573 0.250000 0.914837
O O13 0.243137 0.529810 0.889562
O O14 0.430227 0.536198 0.043739
O O15 0.500000 0.500000 0.500000
O O16 0.465770 0.250000 0.348326
O O17 0.329965 0.520227 0.154601
O O18 0.213946 0.250000 0.940210
O O19 0.532879 0.250000 0.137793
O O20 0.121603 0.250000 0.097240
O O21 0.000000 0.000000 0.000000
#
# Coordination Sequence:
#
# PCOD9162938 Si02
#       8
#     4   4   4   4   4   4   4   4
#     4  11  22  35  56  87 116 145 187 237 287 337
#     4  10  21  35  56  83 109 143 187 237 284 333
#     4   9  18  35  56  78 108 147 188 225 274 338
#     4  10  20  36  57  80 108 147 189 230 283 342
#     4  11  21  36  57  82 113 150 191 232 280 339
#     4   9  18  35  57  78 108 149 186 224 276 340
#     4  10  20  37  57  81 114 150 188 227 285 349
#     4  10  21  37  57  82 113 151 191 232 278 339
#
# _framework density 22.721329000000001
#
# number of rings (size 3 to 8) (size 9 to 14) (size 15 to 20)
#    0.000    2.000    1.250    2.625    0.000    5.500 
#    0.000    0.625    0.000    2.250    0.000    0.000 
#    0.000    0.000    0.000    0.000    0.000    0.000 
#
# Total GULP energy -178883.417587 kJ/mol
# GULP energy per Si atom -5590.106800 kJ/mol
# Density = 2.266961 g / cm^3
# Si number density = 22.721329 Si / 1000 Ang^3
#
#
#
# Elastic Constant Matrix: (Units=GPa)
#
#
# Indices 1 2 3 4 5 6 
#
# 1 111.0350 -5.0208 14.3924 0.0000 -4.9091 0.0000
# 2 -5.0208 65.2781 1.9608 0.0000 3.3200 0.0000
# 3 14.3924 1.9608 78.4481 0.0000 -7.3884 0.0000
# 4 0.0000 0.0000 0.0000 16.7553 0.0000 -8.7279
# 5 -4.9091 3.3200 -7.3884 0.0000 43.9107 0.0000
# 6 0.0000 0.0000 0.0000 -8.7279 0.0000 13.7639
#
#
#
# Elastic Compliance Matrix: (Units=1/GPa)
#
#
# Indices 1 2 3 4 5 6 
#
# 1 0.009285 0.000728 -0.001655 0.000000 0.000704 0.000000
# 2 0.000728 0.015455 -0.000632 0.000000 -0.001194 0.000000
# 3 -0.001655 -0.000632 0.013264 0.000000 0.002095 0.000000
# 4 0.000000 0.000000 0.000000 0.089121 0.000000 0.056513
# 5 0.000704 -0.001194 0.002095 0.000000 0.023295 0.000000
# 6 0.000000 0.000000 0.000000 0.056513 0.000000 0.108490
#
#
# Mechanical properties :
#
#
# Convention : Reuss Voigt Hill
#
# Bulk Modulus (GPa) = 28.66595 30.82509 29.74552
# Shear Modulus (GPa) = 18.27106 31.11456 24.69281
#
# Velocity S-wave (km/s) = 2.83881 3.70455 3.30019
# Velocity P-wave (km/s) = 4.83620 5.64751 5.25753
#
# Compressibility (1/GPa) = 0.03488459
#
# Stress axis : x y z
#
# Youngs Moduli (GPa) = 107.70304 64.70493 75.39187
#
# Poissons Ratio (x) = -0.04711 0.12479
# Poissons Ratio (y) = -0.07841 0.04767
# Poissons Ratio (z) = 0.17828 0.04091
#
# Static dielectric constant tensor:
#      x y z
#    x 1.731310 0.000000 -0.008300 
#    y 0.000000 1.830410 0.000000 
#    z -0.008300 0.000000 1.814040 
# 
# From -- ./inp_files/55727.got.cif
#   From: 2010.05.17/outbox.cif.g08.bks.cpg/sg11_28_cif.got.tgz:55727.got - 2010.06.03 12:22:45.
