data_PCOD9162685
_publ_section_title
;
Structure prediction by ZEFSAII (Michael W. Deem and Ramdas Pophale) SiO2 
 PCOD9162685
Probable space group: P 21/M
;
_chemical_formula_sum "Si O2"
_cell_formula_units_Z 32
_cell_length_a 12.378067
_cell_length_b 22.927164
_cell_length_c 11.101639
_cell_angle_alpha 90.000000
_cell_angle_beta 26.846691
_cell_angle_gamma 90.000000
_cell_volume 1422.816155
_symmetry_space_group_name_H-M "P 21/M"
_symmetry_group_IT_number 11
_symmetry_cell_setting 'monoclinic'
loop_
_space_group_symop_operation_xyz
x,y,z
-x,1/2+y,-z
-x,-y,-z
x,1/2-y,z
loop_
_atom_site_type_symbol
_atom_site_label
_atom_site_fract_x
_atom_site_fract_y
_atom_site_fract_z
Si Si1 0.071195 0.809781 0.966456
Si Si2 0.278734 0.316645 0.457655
Si Si3 0.545979 0.388395 0.379722
Si Si4 0.318108 0.184949 0.825050
Si Si5 0.833235 0.011716 0.050177
Si Si6 0.960575 0.929247 0.388931
Si Si7 0.751772 0.048669 0.678580
Si Si8 0.748266 0.913679 0.941606
O O1 0.223442 0.750000 0.829872
O O2 0.894492 0.808642 0.254969
O O3 0.947069 0.807018 0.961989
O O4 0.185163 0.871993 0.856225
O O5 0.332512 0.250000 0.361069
O O6 0.490246 0.353040 0.312448
O O7 0.150863 0.364321 0.498990
O O8 0.421129 0.356956 0.616674
O O9 0.576074 0.456514 0.330447
O O10 0.426254 0.250000 0.722381
O O11 0.307899 0.151648 0.959750
O O12 0.774846 0.952948 0.035192
O O13 0.979442 0.050334 0.805900
O O14 0.000000 0.000000 0.000000
O O15 0.201752 0.935908 0.228013
O O16 0.790946 0.979963 0.612106
O O17 0.491972 0.066526 0.889355
O O18 0.991115 0.078562 0.380364
#
# Coordination Sequence:
#
# PCOD9162685 Si02
#       8
#     4   4   4   4   4   4   4   4
#     4   9  17  32  51  82 125 166 207 252 324 416
#     4  10  20  35  58  93 128 168 220 275 339 413
#     4  11  20  34  59  90 133 175 214 262 342 434
#     4  10  23  38  59  90 131 179 222 273 339 413
#     4  11  24  38  67 105 138 175 220 292 364 411
#     4  10  22  44  67  95 131 177 225 283 343 412
#     4  10  25  46  73  92 130 184 238 279 342 402
#     4  11  25  45  67  98 132 175 233 287 331 411
#
# _framework density 22.490608999999999
#
# number of rings (size 3 to 8) (size 9 to 14) (size 15 to 20)
#    0.000    1.750    1.250    3.375    7.000    6.000 
#    0.000    1.250    0.000    0.000    0.000    0.000 
#    0.000    0.000    0.000    0.000    0.000    0.000 
#
# Total GULP energy -178177.430883 kJ/mol
# GULP energy per Si atom -5568.044715 kJ/mol
# Density = 2.243942 g / cm^3
# Si number density = 22.490609 Si / 1000 Ang^3
#
#
#
# Elastic Constant Matrix: (Units=GPa)
#
#
# Indices 1 2 3 4 5 6 
#
# 1 132.2155 40.7367 36.3623 0.0000 -12.3849 0.0000
# 2 40.7367 104.9615 31.0645 0.0000 8.7644 0.0000
# 3 36.3623 31.0645 62.5700 0.0000 -3.7867 0.0000
# 4 0.0000 0.0000 0.0000 27.3875 0.0000 -46.6448
# 5 -12.3849 8.7644 -3.7867 0.0000 25.9761 0.0000
# 6 0.0000 0.0000 0.0000 -46.6448 0.0000 183.7803
#
#
#
# Elastic Compliance Matrix: (Units=1/GPa)
#
#
# Indices 1 2 3 4 5 6 
#
# 1 0.010146 -0.003205 -0.003982 0.000000 0.005338 0.000000
# 2 -0.003205 0.012758 -0.004867 0.000000 -0.006542 0.000000
# 3 -0.003982 -0.004867 0.020882 0.000000 0.002788 0.000000
# 4 0.000000 0.000000 0.000000 0.064314 0.000000 0.016323
# 5 0.005338 -0.006542 0.002788 0.000000 0.043656 0.000000
# 6 0.000000 0.000000 0.000000 0.016323 0.000000 0.009584
#
#
# Mechanical properties :
#
#
# Convention : Reuss Voigt Hill
#
# Bulk Modulus (GPa) = 50.82162 57.34155 54.08159
# Shear Modulus (GPa) = 26.04060 60.20101 43.12080
#
# Velocity S-wave (km/s) = 3.40640 5.17931 4.38343
# Velocity P-wave (km/s) = 6.17392 7.83059 7.05108
#
# Compressibility (1/GPa) = 0.01967666
#
# Stress axis : x y z
#
# Youngs Moduli (GPa) = 98.55969 78.38180 47.88925
#
# Poissons Ratio (x) = 0.25122 0.19070
# Poissons Ratio (y) = 0.31589 0.23310
# Poissons Ratio (z) = 0.39247 0.38152
#
# Static dielectric constant tensor:
#      x y z
#    x 1.833730 0.000000 -0.003980 
#    y 0.000000 2.030810 0.000000 
#    z -0.003980 0.000000 1.955130 
# 
# From -- ./inp_files/36567.got.cif
#   From: 2010.05.17/outbox.cif.g08.bks.cpg/sg11_19_cif.got.tgz:36567.got - 2010.06.03 12:22:45.
