data_PCOD9162081
_publ_section_title
;
Structure prediction by ZEFSAII (Michael W. Deem and Ramdas Pophale) SiO2 
 PCOD9162081
Probable space group: P 21/M
;
_chemical_formula_sum "Si O2"
_cell_formula_units_Z 28
_cell_length_a 11.200488
_cell_length_b 19.911634
_cell_length_c 16.710539
_cell_angle_alpha 90.000000
_cell_angle_beta 159.520107
_cell_angle_gamma 90.000000
_cell_volume 1303.922401
_symmetry_space_group_name_H-M "P 21/M"
_symmetry_group_IT_number 11
_symmetry_cell_setting 'monoclinic'
loop_
_space_group_symop_operation_xyz
x,y,z
-x,1/2+y,-z
-x,-y,-z
x,1/2-y,z
loop_
_atom_site_type_symbol
_atom_site_label
_atom_site_fract_x
_atom_site_fract_y
_atom_site_fract_z
Si Si1 0.175651 0.324248 0.735402
Si Si2 0.637075 0.567902 0.923808
Si Si3 0.886949 0.574868 0.910832
Si Si4 0.612172 0.408693 0.900663
Si Si5 0.179939 0.171616 0.353198
Si Si6 0.218660 0.674976 0.751184
Si Si7 0.712486 0.112631 0.573745
O O1 0.135838 0.250000 0.677913
O O2 0.281421 0.372942 0.729646
O O3 0.859253 0.344013 0.592308
O O4 0.487090 0.323487 0.995045
O O5 0.968787 0.573077 0.189540
O O6 0.743625 0.599385 0.905274
O O7 0.555528 0.488844 0.866326
O O8 0.336694 0.613328 0.771244
O O9 0.587533 0.571088 0.656918
O O10 0.000000 0.500000 0.000000
O O11 0.215011 0.609610 0.076112
O O12 0.912775 0.381350 0.147794
O O13 0.093946 0.250000 0.279900
O O14 0.536981 0.154503 0.535141
O O15 0.127552 0.165139 0.415512
O O16 0.221228 0.750000 0.716425
#
# Coordination Sequence:
#
# PCOD9162081 Si02
#       7
#     4   4   4   4   4   4   4
#     4   9  17  32  55  82 110 140 181 226 265 317
#     4  10  20  36  56  80 109 140 181 224 262 322
#     4   9  20  37  53  78 112 141 175 223 270 315
#     4   9  18  33  54  79 108 144 178 216 274 322
#     4   9  17  31  52  78 107 140 179 221 267 319
#     4   8  16  31  51  76 109 143 174 219 273 318
#     4  10  20  34  58  81 102 143 185 217 267 319
#
# _framework density 21.473669000000001
#
# number of rings (size 3 to 8) (size 9 to 14) (size 15 to 20)
#    0.000    2.857    0.000    1.714    0.000   10.857 
#    0.000    8.571    0.000    1.714    0.000    0.000 
#    0.000    0.000    0.000    0.000    0.000    0.000 
#
# Total GULP energy -155948.520879 kJ/mol
# GULP energy per Si atom -5569.590031 kJ/mol
# Density = 2.142479 g / cm^3
# Si number density = 21.473669 Si / 1000 Ang^3
#
#
#
# Elastic Constant Matrix: (Units=GPa)
#
#
# Indices 1 2 3 4 5 6 
#
# 1 166.0164 73.4706 23.5833 0.0000 40.7128 0.0000
# 2 73.4706 96.2566 14.6714 0.0000 23.3020 0.0000
# 3 23.5833 14.6714 71.8618 0.0000 -0.0249 0.0000
# 4 0.0000 0.0000 0.0000 -23.1349 0.0000 23.3845
# 5 40.7128 23.3020 -0.0249 0.0000 41.7278 0.0000
# 6 0.0000 0.0000 0.0000 23.3845 0.0000 12.4510
#
#
#
# Elastic Compliance Matrix: (Units=1/GPa)
#
#
# Indices 1 2 3 4 5 6 
#
# 1 0.010838 -0.006201 -0.002293 0.000000 -0.007113 0.000000
# 2 -0.006201 0.016010 -0.001235 0.000000 -0.002891 0.000000
# 3 -0.002293 -0.001235 0.014921 0.000000 0.002936 0.000000
# 4 0.000000 0.000000 0.000000 -0.014913 0.000000 0.028009
# 5 -0.007113 -0.002891 0.002936 0.000000 0.032521 0.000000
# 6 0.000000 0.000000 0.000000 0.028009 0.000000 0.027710
#
#
# Mechanical properties :
#
#
# Convention : Reuss Voigt Hill
#
# Bulk Modulus (GPa) = 44.81969 61.95393 53.38681
# Shear Modulus (GPa) = 43.86698 21.03609 32.45154
#
# Velocity S-wave (km/s) = 4.52467 3.13329 3.89166
# Velocity P-wave (km/s) = 6.94363 6.48103 6.71632
#
# Compressibility (1/GPa) = 0.02231162
#
# Stress axis : x y z
#
# Youngs Moduli (GPa) = 92.27048 62.46134 67.01854
#
# Poissons Ratio (x) = 0.38731 0.15369
# Poissons Ratio (y) = 0.57215 0.08274
# Poissons Ratio (z) = 0.21159 0.07712
#
# Static dielectric constant tensor:
#      x y z
#    x 1.855710 0.000000 0.029730 
#    y 0.000000 1.739290 0.000000 
#    z 0.029730 0.000000 1.834300 
# 
# From -- ./inp_files/59723.got.cif
#   From: 2010.05.17/outbox.cif.g08.bks.cpg/sg11_30_cif.got.tgz:59723.got - 2010.06.03 12:22:45.
