data_PCOD9162205
_publ_section_title
;
Structure prediction by ZEFSAII (Michael W. Deem and Ramdas Pophale) SiO2 
 PCOD9162205
Probable space group: P 21/M
;
_chemical_formula_sum "Si O2"
_cell_formula_units_Z 32
_cell_length_a 19.972352
_cell_length_b 12.858418
_cell_length_c 8.821231
_cell_angle_alpha 90.000000
_cell_angle_beta 128.231615
_cell_angle_gamma 90.000000
_cell_volume 1779.511217
_symmetry_space_group_name_H-M "P 21/M"
_symmetry_group_IT_number 11
_symmetry_cell_setting 'monoclinic'
loop_
_space_group_symop_operation_xyz
x,y,z
-x,1/2+y,-z
-x,-y,-z
x,1/2-y,z
loop_
_atom_site_type_symbol
_atom_site_label
_atom_site_fract_x
_atom_site_fract_y
_atom_site_fract_z
Si Si1 0.980210 0.131214 0.123352
Si Si2 0.601985 0.626817 0.656281
Si Si3 0.135776 0.490130 0.247224
Si Si4 0.802071 0.626833 0.965084
Si Si5 0.478382 0.989303 0.714778
Si Si6 0.907773 0.465117 0.311454
Si Si7 0.787405 0.128755 0.399371
Si Si8 0.590734 0.371183 0.094049
O O1 0.990593 0.250000 0.099001
O O2 0.928124 0.114204 0.203931
O O3 0.926498 0.073501 0.919003
O O4 0.073069 0.078821 0.262677
O O5 0.588451 0.750000 0.609447
O O6 0.700462 0.613047 0.842833
O O7 0.581197 0.557751 0.478898
O O8 0.537776 0.584360 0.694488
O O9 0.174025 0.419758 0.166739
O O10 0.201605 0.553921 0.440505
O O11 0.821545 0.750000 0.999242
O O12 0.855900 0.560999 0.163075
O O13 0.428639 0.921609 0.769442
O O14 0.538004 0.067139 0.894130
O O15 0.853249 0.411147 0.365737
O O16 0.000000 0.500000 0.500000
O O17 0.803600 0.250000 0.460368
O O18 0.691282 0.120805 0.204704
O O19 0.566605 0.250000 0.061469
#
# Coordination Sequence:
#
# PCOD9162205 Si02
#       8
#     4   4   4   4   4   4   4   4
#     4  10  20  35  54  75 102 139 183 227 269 320
#     4  10  20  36  58  85 112 145 187 228 278 332
#     4  10  20  36  54  79 107 140 185 227 273 327
#     4  10  22  38  58  82 113 147 184 233 280 328
#     4  10  20  36  59  83 114 150 181 232 273 334
#     4  11  22  39  54  79 109 145 186 227 273 335
#     4  11  22  37  57  82 114 147 185 233 280 328
#     4  10  21  36  56  84 114 148 185 225 279 335
#
# _framework density 17.982465999999999
#
# number of rings (size 3 to 8) (size 9 to 14) (size 15 to 20)
#    0.000    1.750    1.250    3.375    0.000    1.000 
#    0.000    0.000    0.000   17.250    0.000    0.000 
#    0.000    0.000    0.000    0.000    0.000    0.000 
#
# Total GULP energy -178621.444004 kJ/mol
# GULP energy per Si atom -5581.920125 kJ/mol
# Density = 1.794154 g / cm^3
# Si number density = 17.982466 Si / 1000 Ang^3
#
#
#
# Elastic Constant Matrix: (Units=GPa)
#
#
# Indices 1 2 3 4 5 6 
#
# 1 54.4455 19.2579 7.0253 0.0000 11.0268 0.0000
# 2 19.2579 83.1335 4.6136 0.0000 15.9708 0.0000
# 3 7.0253 4.6136 40.9386 0.0000 11.6127 0.0000
# 4 0.0000 0.0000 0.0000 20.6598 0.0000 6.2714
# 5 11.0268 15.9708 11.6127 0.0000 24.6752 0.0000
# 6 0.0000 0.0000 0.0000 6.2714 0.0000 20.5922
#
#
#
# Elastic Compliance Matrix: (Units=1/GPa)
#
#
# Indices 1 2 3 4 5 6 
#
# 1 0.021120 -0.003572 -0.001385 0.000000 -0.006474 0.000000
# 2 -0.003572 0.014386 0.001362 0.000000 -0.008356 0.000000
# 3 -0.001385 0.001362 0.028373 0.000000 -0.013616 0.000000
# 4 0.000000 0.000000 0.000000 0.053334 0.000000 -0.016243
# 5 -0.006474 -0.008356 -0.013616 0.000000 0.055236 0.000000
# 6 0.000000 0.000000 0.000000 -0.016243 0.000000 0.053509
#
#
# Mechanical properties :
#
#
# Convention : Reuss Voigt Hill
#
# Bulk Modulus (GPa) = 17.64000 26.70124 22.17062
# Shear Modulus (GPa) = 19.83773 23.02684 21.43229
#
# Velocity S-wave (km/s) = 3.32500 3.58231 3.45605
# Velocity P-wave (km/s) = 4.95699 5.65609 5.31804
#
# Compressibility (1/GPa) = 0.05668934
#
# Stress axis : x y z
#
# Youngs Moduli (GPa) = 47.34758 69.51225 35.24441
#
# Poissons Ratio (x) = 0.24829 0.04882
# Poissons Ratio (y) = 0.16912 -0.04800
# Poissons Ratio (z) = 0.06559 -0.09468
#
# Static dielectric constant tensor:
#      x y z
#    x 1.605760 0.000000 -0.006990 
#    y 0.000000 1.593380 0.000000 
#    z -0.006990 0.000000 1.601450 
# 
# From -- ./inp_files/26597.got.cif
#   From: 2010.05.17/outbox.cif.g08.bks.cpg/sg11_14_cif.got.tgz:26597.got - 2010.06.03 12:22:45.
