data_PCOD9162594
_publ_section_title
;
Structure prediction by ZEFSAII (Michael W. Deem and Ramdas Pophale) SiO2 
 PCOD9162594
Probable space group: P 21/M
;
_chemical_formula_sum "Si O2"
_cell_formula_units_Z 32
_cell_length_a 16.615371
_cell_length_b 15.702657
_cell_length_c 10.665634
_cell_angle_alpha 90.000000
_cell_angle_beta 148.385470
_cell_angle_gamma 90.000000
_cell_volume 1458.708257
_symmetry_space_group_name_H-M "P 21/M"
_symmetry_group_IT_number 11
_symmetry_cell_setting 'monoclinic'
loop_
_space_group_symop_operation_xyz
x,y,z
-x,1/2+y,-z
-x,-y,-z
x,1/2-y,z
loop_
_atom_site_type_symbol
_atom_site_label
_atom_site_fract_x
_atom_site_fract_y
_atom_site_fract_z
Si Si1 0.611221 0.156387 0.876410
Si Si2 0.969366 0.650797 0.428022
Si Si3 0.767705 0.979574 0.009227
Si Si4 0.306466 0.846949 0.747768
Si Si5 0.334771 0.406096 0.367004
Si Si6 0.008809 0.844223 0.034979
Si Si7 0.262214 0.528505 0.481696
Si Si8 0.968817 0.906295 0.713893
O O1 0.690708 0.250000 0.966698
O O2 0.698401 0.068305 0.965201
O O3 0.465727 0.154506 0.593128
O O4 0.579433 0.150468 0.982535
O O5 0.933126 0.750000 0.356206
O O6 0.977579 0.634228 0.588178
O O7 0.134928 0.633852 0.579102
O O8 0.841751 0.585959 0.205591
O O9 0.655067 0.933183 0.763450
O O10 0.913597 0.014823 0.126242
O O11 0.302173 0.750000 0.695920
O O12 0.348340 0.911955 0.694413
O O13 0.344051 0.488189 0.470642
O O14 0.165700 0.366327 0.159839
O O15 0.047308 0.750000 0.131790
O O16 0.125455 0.912875 0.245275
O O17 0.013682 0.847999 0.890373
O O18 0.193572 0.448915 0.468257
#
# Coordination Sequence:
#
# PCOD9162594 Si02
#       8
#     4   4   4   4   4   4   4   4
#     4  11  25  41  61  86 117 163 209 245 297 365
#     4  11  22  36  62  95 124 157 199 254 311 358
#     4  12  21  40  64  88 122 158 198 260 302 356
#     4  10  20  35  57  88 119 152 199 247 298 358
#     4  11  23  41  58  83 121 162 204 237 301 365
#     4  11  21  35  60  89 120 153 195 251 302 357
#     4  11  20  37  60  86 118 151 197 249 305 358
#     4  11  19  35  57  90 121 151 193 247 308 354
#
# _framework density 21.937218000000001
#
# number of rings (size 3 to 8) (size 9 to 14) (size 15 to 20)
#    0.000    1.000    5.000    3.375    0.000    3.000 
#    0.000    0.000    0.000    4.500    0.000    0.000 
#    0.000    0.000    0.000    0.000    0.000    0.000 
#
# Total GULP energy -178702.440956 kJ/mol
# GULP energy per Si atom -5584.451280 kJ/mol
# Density = 2.188729 g / cm^3
# Si number density = 21.937218 Si / 1000 Ang^3
#
#
#
# Elastic Constant Matrix: (Units=GPa)
#
#
# Indices 1 2 3 4 5 6 
#
# 1 22.9408 20.1056 1.4994 0.0000 -9.9975 0.0000
# 2 20.1056 117.2632 35.7613 0.0000 -12.3776 0.0000
# 3 1.4994 35.7613 67.0755 0.0000 -15.2616 0.0000
# 4 0.0000 0.0000 0.0000 34.6831 0.0000 -11.8490
# 5 -9.9975 -12.3776 -15.2616 0.0000 25.5476 0.0000
# 6 0.0000 0.0000 0.0000 -11.8490 0.0000 2.3704
#
#
#
# Elastic Compliance Matrix: (Units=1/GPa)
#
#
# Indices 1 2 3 4 5 6 
#
# 1 0.064284 -0.011520 0.010599 0.000000 0.025907 0.000000
# 2 -0.011520 0.012333 -0.006925 0.000000 -0.002670 0.000000
# 3 0.010599 -0.006925 0.021461 0.000000 0.013613 0.000000
# 4 0.000000 0.000000 0.000000 -0.040736 0.000000 -0.203633
# 5 0.025907 -0.002670 0.013613 0.000000 0.056119 0.000000
# 6 0.000000 0.000000 0.000000 -0.203633 0.000000 -0.596050
#
#
# Mechanical properties :
#
#
# Convention : Reuss Voigt Hill
#
# Bulk Modulus (GPa) = 12.13791 35.77911 23.95851
# Shear Modulus (GPa) = -11.37824 22.51442 5.56809
#
# Velocity S-wave (km/s) = -2.27991 3.20708 1.59490
# Velocity P-wave (km/s) = 1.17712 5.48261 3.78639
#
# Compressibility (1/GPa) = 0.08238649
#
# Stress axis : x y z
#
# Youngs Moduli (GPa) = 15.55603 81.08222 46.59567
#
# Poissons Ratio (x) = 0.93405 -0.49388
# Poissons Ratio (y) = 0.17920 0.32269
# Poissons Ratio (z) = -0.16488 0.56152
#
# Static dielectric constant tensor:
#      x y z
#    x 1.820140 0.000000 0.028810 
#    y 0.000000 1.798640 0.000000 
#    z 0.028810 0.000000 1.843340 
# 
# From -- ./inp_files/41738.got.cif
#   From: 2010.05.17/outbox.cif.g08.bks.cpg/sg11_21_cif.got.tgz:41738.got - 2010.06.03 12:22:45.
