data_PCOD9162399
_publ_section_title
;
Structure prediction by ZEFSAII (Michael W. Deem and Ramdas Pophale) SiO2 
 PCOD9162399
Probable space group: P 21/M
;
_chemical_formula_sum "Si O2"
_cell_formula_units_Z 24
_cell_length_a 12.042004
_cell_length_b 13.567208
_cell_length_c 22.028625
_cell_angle_alpha 90.000000
_cell_angle_beta 19.441306
_cell_angle_gamma 90.000000
_cell_volume 1197.880539
_symmetry_space_group_name_H-M "P 21/M"
_symmetry_group_IT_number 11
_symmetry_cell_setting 'monoclinic'
loop_
_space_group_symop_operation_xyz
x,y,z
-x,1/2+y,-z
-x,-y,-z
x,1/2-y,z
loop_
_atom_site_type_symbol
_atom_site_label
_atom_site_fract_x
_atom_site_fract_y
_atom_site_fract_z
Si Si1 0.242342 0.364631 0.582396
Si Si2 0.164262 0.138374 0.419026
Si Si3 0.325597 0.051815 0.669978
Si Si4 0.201217 0.977403 0.956928
Si Si5 0.983936 0.357762 0.379881
Si Si6 0.752476 0.061396 0.741287
O O1 0.343947 0.250000 0.533468
O O2 0.523328 0.439827 0.410063
O O3 0.185800 0.412737 0.677573
O O4 0.907103 0.372234 0.714339
O O5 0.208429 0.250000 0.418299
O O6 0.506699 0.095381 0.216282
O O7 0.927057 0.141187 0.482086
O O8 0.011958 0.075686 0.551840
O O9 0.643884 0.119551 0.520945
O O10 0.054558 0.063254 0.861884
O O11 0.396043 0.066509 0.891756
O O12 0.000000 0.000000 0.000000
O O13 0.119725 0.250000 0.294490
O O14 0.222621 0.450391 0.245232
#
# Coordination Sequence:
#
# PCOD9162399 Si02
#       6
#     4   4   4   4   4   4
#     4  10  21  39  59  80 113 155 193 230 278 342
#     4  10  20  35  56  81 111 148 185 227 286 349
#     4  10  21  36  60  87 112 146 189 238 285 335
#     4  11  21  36  57  84 116 146 185 243 294 334
#     4   9  17  32  54  78 105 140 183 227 278 339
#     4  10  20  36  56  78 112 153 188 227 285 349
#
# _framework density 20.035388000000001
#
# number of rings (size 3 to 8) (size 9 to 14) (size 15 to 20)
#    0.000    2.000    0.000    6.000    0.000    2.000 
#    0.000    3.333    0.000    1.000    0.000    0.000 
#    0.000    0.000    0.000    0.000    0.000    0.000 
#
# Total GULP energy -133684.967095 kJ/mol
# GULP energy per Si atom -5570.206962 kJ/mol
# Density = 1.998979 g / cm^3
# Si number density = 20.035388 Si / 1000 Ang^3
#
#
#
# Elastic Constant Matrix: (Units=GPa)
#
#
# Indices 1 2 3 4 5 6 
#
# 1 132.1611 5.6514 20.5710 0.0000 -17.2671 0.0000
# 2 5.6514 116.1039 -5.9468 0.0000 -6.5869 0.0000
# 3 20.5710 -5.9468 27.4654 0.0000 -5.2534 0.0000
# 4 0.0000 0.0000 0.0000 9.0900 0.0000 -1.3693
# 5 -17.2671 -6.5869 -5.2534 0.0000 22.0897 0.0000
# 6 0.0000 0.0000 0.0000 -1.3693 0.0000 25.1882
#
#
#
# Elastic Compliance Matrix: (Units=1/GPa)
#
#
# Indices 1 2 3 4 5 6 
#
# 1 0.009252 -0.000431 -0.005934 0.000000 0.005692 0.000000
# 2 -0.000431 0.008950 0.002836 0.000000 0.003006 0.000000
# 3 -0.005934 0.002836 0.042684 0.000000 0.006358 0.000000
# 4 0.000000 0.000000 0.000000 0.110919 0.000000 0.006030
# 5 0.005692 0.003006 0.006358 0.000000 0.052128 0.000000
# 6 0.000000 0.000000 0.000000 0.006030 0.000000 0.040029
#
#
# Mechanical properties :
#
#
# Convention : Reuss Voigt Hill
#
# Bulk Modulus (GPa) = 18.57822 35.14240 26.86031
# Shear Modulus (GPa) = 17.30318 28.30392 22.80355
#
# Velocity S-wave (km/s) = 2.94195 3.76266 3.37733
# Velocity P-wave (km/s) = 4.56431 6.03781 5.35201
#
# Compressibility (1/GPa) = 0.05382648
#
# Stress axis : x y z
#
# Youngs Moduli (GPa) = 108.08010 111.73493 23.42784
#
# Poissons Ratio (x) = 0.04820 0.13903
# Poissons Ratio (y) = 0.04662 -0.06644
# Poissons Ratio (z) = 0.64139 -0.31686
#
# Static dielectric constant tensor:
#      x y z
#    x 1.770810 0.000000 -0.041530 
#    y 0.000000 1.776170 0.000000 
#    z -0.041530 0.000000 1.682090 
# 
# From -- ./inp_files/64810.got.cif
#   From: 2010.05.17/outbox.cif.g08.bks.cpg/sg11_33_cif.got.tgz:64810.got - 2010.06.03 12:22:45.
