data_PCOD9162246
_publ_section_title
;
Structure prediction by ZEFSAII (Michael W. Deem and Ramdas Pophale) SiO2 
 PCOD9162246
Probable space group: P 21/M
;
_chemical_formula_sum "Si O2"
_cell_formula_units_Z 28
_cell_length_a 15.448268
_cell_length_b 9.365455
_cell_length_c 13.012780
_cell_angle_alpha 90.000000
_cell_angle_beta 127.275265
_cell_angle_gamma 90.000000
_cell_volume 1498.122179
_symmetry_space_group_name_H-M "P 21/M"
_symmetry_group_IT_number 11
_symmetry_cell_setting 'monoclinic'
loop_
_space_group_symop_operation_xyz
x,y,z
-x,1/2+y,-z
-x,-y,-z
x,1/2-y,z
loop_
_atom_site_type_symbol
_atom_site_label
_atom_site_fract_x
_atom_site_fract_y
_atom_site_fract_z
Si Si1 0.481434 0.582835 0.181494
Si Si2 0.272761 0.920036 0.906068
Si Si3 0.477327 0.915284 0.588054
Si Si4 0.779171 0.084355 0.540530
Si Si5 0.879565 0.914167 0.799648
Si Si6 0.264872 0.082192 0.693007
Si Si7 0.860022 0.413621 0.983840
O O1 0.463877 0.750000 0.194785
O O2 0.467194 0.489808 0.273711
O O3 0.604766 0.567169 0.231223
O O4 0.395012 0.545101 0.031568
O O5 0.267155 0.750000 0.879446
O O6 0.239650 0.009546 0.783328
O O7 0.198806 0.949453 0.952297
O O8 0.509893 0.750000 0.601758
O O9 0.348130 0.920618 0.518825
O O10 0.500000 0.000000 0.500000
O O11 0.810222 0.250000 0.552416
O O12 0.844540 0.006197 0.677099
O O13 0.789740 0.000656 0.440955
O O14 0.845034 0.750000 0.762932
O O15 0.832545 0.983441 0.869816
O O16 0.010278 0.917991 0.905199
O O17 0.238697 0.250000 0.672627
O O18 0.830367 0.250000 0.935115
#
# Coordination Sequence:
#
# PCOD9162246 Si02
#       7
#     4   4   4   4   4   4   4
#     4   9  19  34  52  76 108 145 179 215 261 314
#     4  10  20  35  56  79 108 144 181 218 264 321
#     4  10  21  34  50  75 108 141 177 220 263 316
#     4  10  21  37  57  77 104 145 182 216 269 327
#     4  10  20  36  58  82 109 139 177 226 274 319
#     4  10  20  35  54  80 111 141 180 225 264 311
#     4   9  20  37  56  81 111 142 177 220 271 326
#
# _framework density 18.690064
#
# number of rings (size 3 to 8) (size 9 to 14) (size 15 to 20)
#    0.000    2.286    0.000    2.143    2.000    4.000 
#    0.000    0.714    0.000    0.000    0.000    0.000 
#    0.000    0.000    0.000    0.000    0.000    0.000 
#
# Total GULP energy -156359.208150 kJ/mol
# GULP energy per Si atom -5584.257434 kJ/mol
# Density = 1.864752 g / cm^3
# Si number density = 18.690064 Si / 1000 Ang^3
#
#
#
# Elastic Constant Matrix: (Units=GPa)
#
#
# Indices 1 2 3 4 5 6 
#
# 1 28.4159 32.7077 16.1993 0.0000 -16.2806 0.0000
# 2 32.7077 122.2575 74.6433 0.0000 -26.8162 0.0000
# 3 16.1993 74.6433 104.5868 0.0000 -30.8368 0.0000
# 4 0.0000 0.0000 0.0000 40.4052 0.0000 -9.3272
# 5 -16.2806 -26.8162 -30.8368 0.0000 21.1911 0.0000
# 6 0.0000 0.0000 0.0000 -9.3272 0.0000 23.0187
#
#
#
# Elastic Compliance Matrix: (Units=1/GPa)
#
#
# Indices 1 2 3 4 5 6 
#
# 1 0.091978 -0.022729 0.025098 0.000000 0.078425 0.000000
# 2 -0.022729 0.020525 -0.015096 0.000000 -0.013455 0.000000
# 3 0.025098 -0.015096 0.028900 0.000000 0.042235 0.000000
# 4 0.000000 0.000000 0.000000 0.027303 0.000000 0.011063
# 5 0.078425 -0.013455 0.042235 0.000000 0.151875 0.000000
# 6 0.000000 0.000000 0.000000 0.011063 0.000000 0.047926
#
#
# Mechanical properties :
#
#
# Convention : Reuss Voigt Hill
#
# Bulk Modulus (GPa) = 8.62427 55.81786 32.22106
# Shear Modulus (GPa) = 11.55775 25.70364 18.63069
#
# Velocity S-wave (km/s) = 2.48944 3.71247 3.16068
# Velocity P-wave (km/s) = 3.58991 6.95028 5.53145
#
# Compressibility (1/GPa) = 0.11595184
#
# Stress axis : x y z
#
# Youngs Moduli (GPa) = 10.87217 48.72032 34.60153
#
# Poissons Ratio (x) = 1.10734 -0.86844
# Poissons Ratio (y) = 0.24711 0.52233
# Poissons Ratio (z) = -0.27287 0.73546
#
# Static dielectric constant tensor:
#      x y z
#    x 1.643760 0.000000 0.020810 
#    y 0.000000 1.632940 0.000000 
#    z 0.020810 0.000000 1.619120 
# 
# From -- ./inp_files/38432.got.cif
#   From: 2010.05.17/outbox.cif.g08.bks.cpg/sg11_20_cif.got.tgz:38432.got - 2010.06.03 12:22:45.
