data_PCOD9162089
_publ_section_title
;
Structure prediction by ZEFSAII (Michael W. Deem and Ramdas Pophale) SiO2 
 PCOD9162089
Probable space group: P 21/M
;
_chemical_formula_sum "Si O2"
_cell_formula_units_Z 24
_cell_length_a 15.766372
_cell_length_b 18.196195
_cell_length_c 9.736236
_cell_angle_alpha 90.000000
_cell_angle_beta 149.177803
_cell_angle_gamma 90.000000
_cell_volume 1431.172165
_symmetry_space_group_name_H-M "P 21/M"
_symmetry_group_IT_number 11
_symmetry_cell_setting 'monoclinic'
loop_
_space_group_symop_operation_xyz
x,y,z
-x,1/2+y,-z
-x,-y,-z
x,1/2-y,z
loop_
_atom_site_type_symbol
_atom_site_label
_atom_site_fract_x
_atom_site_fract_y
_atom_site_fract_z
Si Si1 0.151983 0.474447 0.303673
Si Si2 0.636843 0.835322 0.397678
Si Si3 0.538045 0.435103 0.367110
Si Si4 0.641900 0.413377 0.817934
Si Si5 0.676694 0.663986 0.129264
Si Si6 0.015625 0.062815 0.408020
O O1 0.219237 0.392775 0.360347
O O2 0.305725 0.528366 0.491669
O O3 0.093028 0.472238 0.378117
O O4 0.000000 0.500000 0.000000
O O5 0.675099 0.750000 0.478279
O O6 0.472914 0.861052 0.249410
O O7 0.619140 0.844454 0.208262
O O8 0.599303 0.403392 0.598094
O O9 0.412714 0.502632 0.223936
O O10 0.447615 0.376781 0.145736
O O11 0.835033 0.405981 0.119259
O O12 0.687120 0.750000 0.113673
O O13 0.855405 0.625242 0.367063
O O14 0.000000 0.000000 0.500000
#
# Coordination Sequence:
#
# PCOD9162089 Si02
#       6
#     4   4   4   4   4   4
#     4  10  20  36  58  82 113 147 185 231 279 333
#     4   9  21  37  56  80 113 148 185 229 282 335
#     4  10  20  36  56  83 114 145 185 229 276 338
#     4  10  20  34  58  87 110 142 186 230 278 332
#     4  10  22  39  56  79 114 152 186 227 283 337
#     4  11  21  34  58  88 112 143 187 237 279 327
#
# _framework density 16.769470999999999
#
# number of rings (size 3 to 8) (size 9 to 14) (size 15 to 20)
#    0.000    2.000    3.333    0.000    2.333    3.333 
#    0.000    0.833    0.000    0.000    0.000    0.000 
#    0.000    0.000    0.000    0.000    0.000    0.000 
#
# Total GULP energy -133903.025067 kJ/mol
# GULP energy per Si atom -5579.292711 kJ/mol
# Density = 1.673130 g / cm^3
# Si number density = 16.769471 Si / 1000 Ang^3
#
#
#
# Elastic Constant Matrix: (Units=GPa)
#
#
# Indices 1 2 3 4 5 6 
#
# 1 107.3376 68.4464 61.4761 0.0000 15.6362 0.0000
# 2 68.4464 133.5233 92.9885 0.0000 -7.2705 0.0000
# 3 61.4761 92.9885 152.1900 0.0000 8.7500 0.0000
# 4 0.0000 0.0000 0.0000 18.8205 0.0000 -3.7348
# 5 15.6362 -7.2705 8.7500 0.0000 20.6481 0.0000
# 6 0.0000 0.0000 0.0000 -3.7348 0.0000 22.9487
#
#
#
# Elastic Compliance Matrix: (Units=1/GPa)
#
#
# Indices 1 2 3 4 5 6 
#
# 1 0.018611 -0.010404 -0.000144 0.000000 -0.017696 0.000000
# 2 -0.010404 0.020350 -0.009323 0.000000 0.018995 0.000000
# 3 -0.000144 -0.009323 0.012820 0.000000 -0.008607 0.000000
# 4 0.000000 0.000000 0.000000 0.054907 0.000000 0.008936
# 5 -0.017696 0.018995 -0.008607 0.000000 0.072167 0.000000
# 6 0.000000 0.000000 0.000000 0.008936 0.000000 0.045030
#
#
# Mechanical properties :
#
#
# Convention : Reuss Voigt Hill
#
# Bulk Modulus (GPa) = 83.06114 93.20811 88.13462
# Shear Modulus (GPa) = 18.68196 23.82611 21.25403
#
# Velocity S-wave (km/s) = 3.34135 3.77344 3.56395
# Velocity P-wave (km/s) = 8.03274 8.64221 8.34304
#
# Compressibility (1/GPa) = 0.01203932
#
# Stress axis : x y z
#
# Youngs Moduli (GPa) = 53.73292 49.14077 78.00236
#
# Poissons Ratio (x) = 0.51125 0.01119
# Poissons Ratio (y) = 0.55902 0.72724
# Poissons Ratio (z) = 0.00771 0.45815
#
# Static dielectric constant tensor:
#      x y z
#    x 1.567920 0.000000 -0.004260 
#    y 0.000000 1.545160 0.000000 
#    z -0.004260 0.000000 1.544020 
# 
# From -- ./inp_files/13127.got.cif
#   From: 2010.05.17/outbox.cif.g08.bks.cpg/sg11_7_cif.got.tgz:13127.got - 2010.06.03 12:22:45.
