data_PCOD9162444
_publ_section_title
;
Structure prediction by ZEFSAII (Michael W. Deem and Ramdas Pophale) SiO2 
 PCOD9162444
Probable space group: P 21/M
;
_chemical_formula_sum "Si O2"
_cell_formula_units_Z 32
_cell_length_a 12.844380
_cell_length_b 9.420731
_cell_length_c 29.254952
_cell_angle_alpha 90.000000
_cell_angle_beta 27.376593
_cell_angle_gamma 90.000000
_cell_volume 1627.800198
_symmetry_space_group_name_H-M "P 21/M"
_symmetry_group_IT_number 11
_symmetry_cell_setting 'monoclinic'
loop_
_space_group_symop_operation_xyz
x,y,z
-x,1/2+y,-z
-x,-y,-z
x,1/2-y,z
loop_
_atom_site_type_symbol
_atom_site_label
_atom_site_fract_x
_atom_site_fract_y
_atom_site_fract_z
Si Si1 0.359243 0.408675 0.519334
Si Si2 0.780663 0.092646 0.289291
Si Si3 0.818453 0.418401 0.849429
Si Si4 0.660204 0.579729 0.002668
Si Si5 0.628277 0.414750 0.720170
Si Si6 0.920461 0.417750 0.438484
Si Si7 0.516749 0.912506 0.327012
Si Si8 0.197447 0.079893 0.950728
O O1 0.500000 0.500000 0.500000
O O2 0.296366 0.250000 0.559686
O O3 0.542865 0.394093 0.407427
O O4 0.156304 0.497653 0.576770
O O5 0.875352 0.250000 0.245780
O O6 0.711690 0.014719 0.269600
O O7 0.948656 0.996047 0.253383
O O8 0.846479 0.250000 0.843514
O O9 0.611579 0.444411 0.895245
O O10 0.756606 0.491334 0.922281
O O11 0.690429 0.750000 0.984554
O O12 0.768729 0.540248 0.009075
O O13 0.701812 0.250000 0.697602
O O14 0.518270 0.426094 0.713031
O O15 0.436362 0.447036 0.832202
O O16 0.842697 0.516914 0.638618
O O17 0.935192 0.250000 0.424180
O O18 0.724011 0.438286 0.553524
O O19 0.580216 0.750000 0.313641
O O20 0.156569 0.250000 0.964681
O O21 0.000000 0.000000 0.000000
#
# Coordination Sequence:
#
# PCOD9162444 Si02
#       8
#     4   4   4   4   4   4   4   4
#     4  10  21  37  56  80 113 151 187 228 279 335
#     4  10  21  35  54  83 115 146 185 230 281 338
#     4  10  20  35  59  85 110 146 190 237 289 341
#     4   9  20  39  58  80 111 145 186 238 292 344
#     4  10  21  37  57  82 112 150 191 233 286 343
#     4  10  20  35  56  83 114 148 189 235 281 336
#     4   9  19  35  55  82 116 150 190 235 279 335
#     4  10  23  41  59  83 116 151 191 238 292 350
#
# _framework density 19.658432000000001
#
# number of rings (size 3 to 8) (size 9 to 14) (size 15 to 20)
#    0.000    2.250    0.000    1.875    1.750    5.000 
#    0.000    1.250    0.000    0.000    0.000    0.000 
#    0.000    0.000    0.000    0.000    0.000    0.000 
#
# Total GULP energy -178529.740925 kJ/mol
# GULP energy per Si atom -5579.054404 kJ/mol
# Density = 1.961369 g / cm^3
# Si number density = 19.658432 Si / 1000 Ang^3
#
#
#
# Elastic Constant Matrix: (Units=GPa)
#
#
# Indices 1 2 3 4 5 6 
#
# 1 94.7915 37.7114 9.5762 0.0000 -7.2505 0.0000
# 2 37.7114 83.5414 21.7935 0.0000 -11.6670 0.0000
# 3 9.5762 21.7935 29.4791 0.0000 -13.8375 0.0000
# 4 0.0000 0.0000 0.0000 30.6791 0.0000 -9.2126
# 5 -7.2505 -11.6670 -13.8375 0.0000 25.3396 0.0000
# 6 0.0000 0.0000 0.0000 -9.2126 0.0000 32.0641
#
#
#
# Elastic Compliance Matrix: (Units=1/GPa)
#
#
# Indices 1 2 3 4 5 6 
#
# 1 0.012898 -0.005829 0.000796 0.000000 0.001442 0.000000
# 2 -0.005829 0.017488 -0.010810 0.000000 0.000481 0.000000
# 3 0.000796 -0.010810 0.053015 0.000000 0.024202 0.000000
# 4 0.000000 0.000000 0.000000 0.035673 0.000000 0.010250
# 5 0.001442 0.000481 0.024202 0.000000 0.053314 0.000000
# 6 0.000000 0.000000 0.000000 0.010250 0.000000 0.034132
#
#
# Mechanical properties :
#
#
# Convention : Reuss Voigt Hill
#
# Bulk Modulus (GPa) = 19.33596 38.44157 28.88877
# Shear Modulus (GPa) = 19.57365 26.86528 23.21947
#
# Velocity S-wave (km/s) = 3.15887 3.70077 3.44051
# Velocity P-wave (km/s) = 4.81269 6.15290 5.52359
#
# Compressibility (1/GPa) = 0.05171710
#
# Stress axis : x y z
#
# Youngs Moduli (GPa) = 77.53029 57.18093 18.86245
#
# Poissons Ratio (x) = 0.33329 -0.01501
# Poissons Ratio (y) = 0.45190 0.20389
# Poissons Ratio (z) = -0.06170 0.61810
#
# Static dielectric constant tensor:
#      x y z
#    x 1.673170 0.000000 0.017700 
#    y 0.000000 1.694770 0.000000 
#    z 0.017700 0.000000 1.725910 
# 
# From -- ./inp_files/49398.got.cif
#   From: 2010.05.17/outbox.cif.g08.bks.cpg/sg11_25_cif.got.tgz:49398.got - 2010.06.03 12:22:45.
