data_PCOD9162814
_publ_section_title
;
Structure prediction by ZEFSAII (Michael W. Deem and Ramdas Pophale) SiO2 
 PCOD9162814
Probable space group: P 21/M
;
_chemical_formula_sum "Si O2"
_cell_formula_units_Z 28
_cell_length_a 5.403756
_cell_length_b 16.919343
_cell_length_c 13.270253
_cell_angle_alpha 90.000000
_cell_angle_beta 99.636160
_cell_angle_gamma 90.000000
_cell_volume 1196.154147
_symmetry_space_group_name_H-M "P 21/M"
_symmetry_group_IT_number 11
_symmetry_cell_setting 'monoclinic'
loop_
_space_group_symop_operation_xyz
x,y,z
-x,1/2+y,-z
-x,-y,-z
x,1/2-y,z
loop_
_atom_site_type_symbol
_atom_site_label
_atom_site_fract_x
_atom_site_fract_y
_atom_site_fract_z
Si Si1 0.676115 0.930065 0.468783
Si Si2 0.982819 0.969969 0.660642
Si Si3 0.306768 0.750000 0.807313
Si Si4 0.194418 0.250000 0.192008
Si Si5 0.334921 0.893934 0.280802
Si Si6 0.791735 0.657864 0.171342
Si Si7 0.305931 0.578089 0.869758
Si Si8 0.836492 0.907861 0.950347
O O1 0.486582 0.873799 0.394802
O O2 0.846913 0.908351 0.576608
O O3 0.500000 0.000000 0.500000
O O4 0.868396 0.967796 0.400185
O O5 0.183626 0.937693 0.753067
O O6 0.768350 0.016752 0.708391
O O7 0.030460 0.750000 0.745897
O O8 0.530298 0.750000 0.744326
O O9 0.336376 0.672976 0.878202
O O10 0.166436 0.328254 0.121388
O O11 0.552575 0.880767 0.212547
O O12 0.069471 0.850957 0.240905
O O13 0.733489 0.750000 0.158758
O O14 0.821355 0.619965 0.063648
O O15 0.583003 0.546295 0.904381
O O16 0.098399 0.553007 0.936052
#
# Coordination Sequence:
#
# PCOD9162814 Si02
#       8
#     4   4   2   2   4   4   4   4
#     4   9  20  40  71  91 120 162 213 260 311 402
#     4  10  21  41  67  98 123 168 207 264 327 385
#     4   8  16  30  50  82 112 151 194 247 290 352
#     4   8  14  30  50  70 108 143 208 241 266 338
#     4  11  23  41  64  96 126 159 220 271 306 385
#     4  12  24  41  66  91 125 174 218 260 314 368
#     4  10  21  34  63  89 128 161 211 257 310 367
#     4  10  20  36  54  90 118 169 209 253 292 377
#
# _framework density 23.408353999999999
#
# number of rings (size 3 to 8) (size 9 to 14) (size 15 to 20)
#    0.000    2.000    2.143    1.286    4.000    0.000 
#    0.000    4.286    3.143    0.000    0.000    0.000 
#    0.000    0.000    0.000    0.000    0.000    0.000 
#
# Total GULP energy -156188.354542 kJ/mol
# GULP energy per Si atom -5578.155519 kJ/mol
# Density = 2.335508 g / cm^3
# Si number density = 23.408354 Si / 1000 Ang^3
#
#
#
# Elastic Constant Matrix: (Units=GPa)
#
#
# Indices 1 2 3 4 5 6 
#
# 1 234.3012 18.4658 68.0050 0.0000 15.4347 0.0000
# 2 18.4658 63.1446 38.6417 0.0000 6.7772 0.0000
# 3 68.0050 38.6417 118.9288 0.0000 12.8438 0.0000
# 4 0.0000 0.0000 0.0000 12.7746 0.0000 4.3086
# 5 15.4347 6.7772 12.8438 0.0000 39.6862 0.0000
# 6 0.0000 0.0000 0.0000 4.3086 0.0000 25.0067
#
#
#
# Elastic Compliance Matrix: (Units=1/GPa)
#
#
# Indices 1 2 3 4 5 6 
#
# 1 0.005172 0.000429 -0.002975 0.000000 -0.001122 0.000000
# 2 0.000429 0.019872 -0.006546 0.000000 -0.001442 0.000000
# 3 -0.002975 -0.006546 0.012425 0.000000 -0.001746 0.000000
# 4 0.000000 0.000000 0.000000 0.083110 0.000000 -0.014320
# 5 -0.001122 -0.001442 -0.001746 0.000000 0.026445 0.000000
# 6 0.000000 0.000000 0.000000 -0.014320 0.000000 0.042456
#
#
# Mechanical properties :
#
#
# Convention : Reuss Voigt Hill
#
# Bulk Modulus (GPa) = 51.85814 74.06662 62.96238
# Shear Modulus (GPa) = 23.35419 34.91099 29.13259
#
# Velocity S-wave (km/s) = 3.16204 3.86604 3.53163
# Velocity P-wave (km/s) = 5.96097 7.18597 6.60194
#
# Compressibility (1/GPa) = 0.01928337
#
# Stress axis : x y z
#
# Youngs Moduli (GPa) = 193.35942 50.32205 80.48071
#
# Poissons Ratio (x) = -0.02158 0.23947
# Poissons Ratio (y) = -0.08292 0.52684
# Poissons Ratio (z) = 0.57533 0.32942
#
# Static dielectric constant tensor:
#      x y z
#    x 1.971090 0.000000 0.013920 
#    y 0.000000 1.941290 0.000000 
#    z 0.013920 0.000000 1.977440 
# 
# From -- ./inp_files/30027.got.cif
#   From: 2010.05.17/outbox.cif.g08.bks.cpg/sg11_16_cif.got.tgz:30027.got - 2010.06.03 12:22:45.
