data_PCOD9162906
_publ_section_title
;
Structure prediction by ZEFSAII (Michael W. Deem and Ramdas Pophale) SiO2 
 PCOD9162906
Probable space group: P 21/M
;
_chemical_formula_sum "Si O2"
_cell_formula_units_Z 28
_cell_length_a 15.525838
_cell_length_b 8.379542
_cell_length_c 22.431514
_cell_angle_alpha 90.000000
_cell_angle_beta 25.293421
_cell_angle_gamma 90.000000
_cell_volume 1246.866930
_symmetry_space_group_name_H-M "P 21/M"
_symmetry_group_IT_number 11
_symmetry_cell_setting 'monoclinic'
loop_
_space_group_symop_operation_xyz
x,y,z
-x,1/2+y,-z
-x,-y,-z
x,1/2-y,z
loop_
_atom_site_type_symbol
_atom_site_label
_atom_site_fract_x
_atom_site_fract_y
_atom_site_fract_z
Si Si1 0.904702 0.926483 0.501310
Si Si2 0.895726 0.938915 0.794501
Si Si3 0.714832 0.562464 0.787978
Si Si4 0.701629 0.059233 0.521992
Si Si5 0.959777 0.058019 0.957458
Si Si6 0.340552 0.057094 0.946355
Si Si7 0.371474 0.057027 0.638259
O O1 0.835756 0.750000 0.556254
O O2 0.734579 0.013754 0.569910
O O3 0.000000 0.000000 0.500000
O O4 0.103455 0.940524 0.336822
O O5 0.929063 0.750000 0.782201
O O6 0.712136 0.950395 0.861748
O O7 0.106565 0.001593 0.636805
O O8 0.823325 0.003384 0.902384
O O9 0.772297 0.750000 0.742086
O O10 0.542913 0.517078 0.848505
O O11 0.706782 0.250000 0.516684
O O12 0.502256 0.005036 0.613936
O O13 0.956654 0.250000 0.959813
O O14 0.144505 0.004808 0.797587
O O15 0.000000 0.000000 0.000000
O O16 0.750747 0.994467 0.059729
O O17 0.360814 0.250000 0.935156
O O18 0.368758 0.250000 0.636341
O O19 0.500000 0.000000 0.500000
#
# Coordination Sequence:
#
# PCOD9162906 Si02
#       7
#     4   4   4   4   4   4   4
#     4  11  22  37  56  81 112 149 191 238 290 354
#     4   8  16  31  55  85 117 149 185 230 290 355
#     4  10  20  36  56  83 117 152 190 237 288 348
#     4   9  18  36  58  83 115 151 191 245 301 352
#     4  11  25  44  62  87 122 164 211 262 313 368
#     4  11  21  36  59  86 116 157 199 240 294 358
#     4  10  22  40  66  95 123 156 203 258 314 369
#
# _framework density 22.456285000000001
#
# number of rings (size 3 to 8) (size 9 to 14) (size 15 to 20)
#    0.000    2.000    0.000    4.714    0.000    4.000 
#    0.000   12.143    0.000    0.000    0.000    0.000 
#    0.000    0.000    0.000    0.000    0.000    0.000 
#
# Total GULP energy -155981.943484 kJ/mol
# GULP energy per Si atom -5570.783696 kJ/mol
# Density = 2.240517 g / cm^3
# Si number density = 22.456285 Si / 1000 Ang^3
#
#
#
# Elastic Constant Matrix: (Units=GPa)
#
#
# Indices 1 2 3 4 5 6 
#
# 1 150.7690 12.9789 9.2706 0.0000 -11.6531 0.0000
# 2 12.9789 39.1488 2.4130 0.0000 -2.2063 0.0000
# 3 9.2706 2.4130 40.8259 0.0000 -11.7591 0.0000
# 4 0.0000 0.0000 0.0000 18.3043 0.0000 0.8362
# 5 -11.6531 -2.2063 -11.7591 0.0000 37.7069 0.0000
# 6 0.0000 0.0000 0.0000 0.8362 0.0000 28.7815
#
#
#
# Elastic Compliance Matrix: (Units=1/GPa)
#
#
# Indices 1 2 3 4 5 6 
#
# 1 0.007013 -0.002168 -0.000963 0.000000 0.001740 0.000000
# 2 -0.002168 0.026351 -0.000894 0.000000 0.000593 0.000000
# 3 -0.000963 -0.000894 0.027099 0.000000 0.008101 0.000000
# 4 0.000000 0.000000 0.000000 0.054704 0.000000 -0.001589
# 5 0.001740 0.000593 0.008101 0.000000 0.029619 0.000000
# 6 0.000000 0.000000 0.000000 -0.001589 0.000000 0.034791
#
#
# Mechanical properties :
#
#
# Convention : Reuss Voigt Hill
#
# Bulk Modulus (GPa) = 19.07940 31.11875 25.09907
# Shear Modulus (GPa) = 24.37855 30.69729 27.53792
#
# Velocity S-wave (km/s) = 3.29842 3.70128 3.50564
# Velocity P-wave (km/s) = 4.79800 5.67041 5.25235
#
# Compressibility (1/GPa) = 0.05241255
#
# Stress axis : x y z
#
# Youngs Moduli (GPa) = 142.59273 37.94960 36.90151
#
# Poissons Ratio (x) = 0.08226 0.03554
# Poissons Ratio (y) = 0.30908 0.03301
# Poissons Ratio (z) = 0.13734 0.03394
#
# Static dielectric constant tensor:
#      x y z
#    x 1.881590 0.000000 0.110480 
#    y 0.000000 1.803040 0.000000 
#    z 0.110480 0.000000 1.913530 
# 
# From -- ./inp_files/65354.got.cif
#   From: 2010.05.17/outbox.cif.g08.bks.cpg/sg11_33_cif.got.tgz:65354.got - 2010.06.03 12:22:45.
