data_PCOD9162770
_publ_section_title
;
Structure prediction by ZEFSAII (Michael W. Deem and Ramdas Pophale) SiO2 
 PCOD9162770
Probable space group: P 21/M
;
_chemical_formula_sum "Si O2"
_cell_formula_units_Z 24
_cell_length_a 11.530728
_cell_length_b 14.797781
_cell_length_c 15.102933
_cell_angle_alpha 90.000000
_cell_angle_beta 151.319215
_cell_angle_gamma 90.000000
_cell_volume 1236.778393
_symmetry_space_group_name_H-M "P 21/M"
_symmetry_group_IT_number 11
_symmetry_cell_setting 'monoclinic'
loop_
_space_group_symop_operation_xyz
x,y,z
-x,1/2+y,-z
-x,-y,-z
x,1/2-y,z
loop_
_atom_site_type_symbol
_atom_site_label
_atom_site_fract_x
_atom_site_fract_y
_atom_site_fract_z
Si Si1 0.493161 0.645122 0.801917
Si Si2 0.125760 0.850777 0.875578
Si Si3 0.251029 0.982290 0.119809
Si Si4 0.437743 0.104837 0.954358
Si Si5 0.940973 0.858205 0.450368
Si Si6 0.669276 0.857910 0.448507
O O1 0.493659 0.750000 0.772912
O O2 0.628350 0.576804 0.827721
O O3 0.216768 0.610915 0.628775
O O4 0.603812 0.640105 0.974767
O O5 0.123157 0.750000 0.913843
O O6 0.867497 0.869280 0.658032
O O7 0.200835 0.924480 0.997287
O O8 0.327816 0.850400 0.933893
O O9 0.435474 0.920618 0.299980
O O10 0.000000 0.000000 0.000000
O O11 0.212858 0.118398 0.738856
O O12 0.500000 0.000000 0.000000
O O13 0.953423 0.750000 0.465652
O O14 0.799964 0.887137 0.444191
O O15 0.612576 0.750000 0.404881
#
# Coordination Sequence:
#
# PCOD9162770 Si02
#       6
#     4   4   4   4   4   4
#     4  11  24  40  60  93 131 162 200 258 319 371
#     4  11  22  40  66  95 125 160 205 259 314 372
#     4  12  27  43  63  87 123 175 221 257 295 361
#     4  12  21  34  63  98 129 159 194 251 323 386
#     4  10  20  35  60  94 127 158 194 246 316 382
#     4  10  21  39  66  95 124 157 203 259 313 371
#
# _framework density 19.405253999999999
#
# number of rings (size 3 to 8) (size 9 to 14) (size 15 to 20)
#    0.000    1.000    5.000    2.000    2.333    3.333 
#    0.000    0.000    0.000    2.000    0.000    0.000 
#    0.000    0.000    0.000    0.000    0.000    0.000 
#
# Total GULP energy -134186.536884 kJ/mol
# GULP energy per Si atom -5591.105704 kJ/mol
# Density = 1.936109 g / cm^3
# Si number density = 19.405254 Si / 1000 Ang^3
#
#
#
# Elastic Constant Matrix: (Units=GPa)
#
#
# Indices 1 2 3 4 5 6 
#
# 1 31.9620 20.0039 -1.5795 0.0000 22.8979 0.0000
# 2 20.0039 101.3247 22.9559 0.0000 20.4683 0.0000
# 3 -1.5795 22.9559 84.8906 0.0000 9.9725 0.0000
# 4 0.0000 0.0000 0.0000 30.6403 0.0000 2.6377
# 5 22.8979 20.4683 9.9725 0.0000 21.7844 0.0000
# 6 0.0000 0.0000 0.0000 2.6377 0.0000 -34.4307
#
#
#
# Elastic Compliance Matrix: (Units=1/GPa)
#
#
# Indices 1 2 3 4 5 6 
#
# 1 0.164502 -0.001091 0.024886 0.000000 -0.183278 0.000000
# 2 -0.001091 0.012539 -0.002285 0.000000 -0.009589 0.000000
# 3 0.024886 -0.002285 0.016573 0.000000 -0.031598 0.000000
# 4 0.000000 0.000000 0.000000 0.032423 0.000000 0.002484
# 5 -0.183278 -0.009589 -0.031598 0.000000 0.262025 0.000000
# 6 0.000000 0.000000 0.000000 0.002484 0.000000 -0.028854
#
#
# Mechanical properties :
#
#
# Convention : Reuss Voigt Hill
#
# Bulk Modulus (GPa) = 4.22592 33.43755 18.83173
# Shear Modulus (GPa) = 10.09964 15.38525 12.74245
#
# Velocity S-wave (km/s) = 2.28383 2.81879 2.56530
# Velocity P-wave (km/s) = 3.02274 5.27852 4.30115
#
# Compressibility (1/GPa) = 0.23663481
#
# Stress axis : x y z
#
# Youngs Moduli (GPa) = 6.07894 79.74906 60.34001
#
# Poissons Ratio (x) = 0.08704 -1.50164
# Poissons Ratio (y) = 0.00663 0.13786
# Poissons Ratio (z) = -0.15128 0.18221
#
# Static dielectric constant tensor:
#      x y z
#    x 1.648600 0.000000 0.001400 
#    y 0.000000 1.669530 0.000000 
#    z 0.001400 0.000000 1.675710 
# 
# From -- ./inp_files/39543.got.cif
#   From: 2010.05.17/outbox.cif.g08.bks.cpg/sg11_20_cif.got.tgz:39543.got - 2010.06.03 12:22:45.
