data_PCOD9162976
_publ_section_title
;
Structure prediction by ZEFSAII (Michael W. Deem and Ramdas Pophale) SiO2 
 PCOD9162976
Probable space group: P 21/M
;
_chemical_formula_sum "Si O2"
_cell_formula_units_Z 28
_cell_length_a 11.618711
_cell_length_b 7.448971
_cell_length_c 15.520226
_cell_angle_alpha 90.000000
_cell_angle_beta 124.864824
_cell_angle_gamma 90.000000
_cell_volume 1102.129020
_symmetry_space_group_name_H-M "P 21/M"
_symmetry_group_IT_number 11
_symmetry_cell_setting 'monoclinic'
loop_
_space_group_symop_operation_xyz
x,y,z
-x,1/2+y,-z
-x,-y,-z
x,1/2-y,z
loop_
_atom_site_type_symbol
_atom_site_label
_atom_site_fract_x
_atom_site_fract_y
_atom_site_fract_z
Si Si1 0.901713 0.535426 0.795069
Si Si2 0.539873 0.540532 0.335320
Si Si3 0.694995 0.048635 0.228940
Si Si4 0.271861 0.535398 0.124483
Si Si5 0.004179 0.536683 0.401364
Si Si6 0.289077 0.045909 0.432587
Si Si7 0.221167 0.970721 0.910259
O O1 0.902776 0.750000 0.782713
O O2 0.866667 0.499161 0.879223
O O3 0.772393 0.461213 0.681539
O O4 0.056849 0.471058 0.835687
O O5 0.517479 0.750000 0.344837
O O6 0.643220 0.535063 0.296334
O O7 0.398733 0.459590 0.235960
O O8 0.601423 0.464339 0.451457
O O9 0.638140 0.250000 0.204865
O O10 0.680472 0.967103 0.126937
O O11 0.863384 0.049380 0.305557
O O12 0.290942 0.750000 0.127183
O O13 0.271249 0.471415 0.026283
O O14 0.004959 0.750000 0.385374
O O15 0.144598 0.452391 0.424659
O O16 0.000000 0.500000 0.500000
O O17 0.333809 0.250000 0.432761
O O18 0.222138 0.750000 0.908023
#
# Coordination Sequence:
#
# PCOD9162976 Si02
#       7
#     4   4   4   4   4   4   4
#     4  10  20  37  60  84 110 147 194 243 292 338
#     4  10  22  38  56  82 118 156 190 231 285 345
#     4  11  21  36  59  86 115 151 191 234 287 345
#     4  10  22  40  58  80 114 154 196 240 286 340
#     4  12  22  33  54  86 119 151 186 233 287 340
#     4  10  20  36  57  82 115 152 187 231 288 343
#     4   9  19  37  60  84 113 149 188 240 299 338
#
# _framework density 25.405373999999998
#
# number of rings (size 3 to 8) (size 9 to 14) (size 15 to 20)
#    0.000    1.714    2.857    2.143    0.000    2.286 
#    0.000    1.429    0.000    0.000    0.000    0.000 
#    0.000    0.000    0.000    0.000    0.000    0.000 
#
# Total GULP energy -156414.077214 kJ/mol
# GULP energy per Si atom -5586.217043 kJ/mol
# Density = 2.534755 g / cm^3
# Si number density = 25.405374 Si / 1000 Ang^3
#
#
#
# Elastic Constant Matrix: (Units=GPa)
#
#
# Indices 1 2 3 4 5 6 
#
# 1 60.1227 -0.1001 24.5450 0.0000 -7.6941 0.0000
# 2 -0.1001 102.7628 5.6724 0.0000 3.1322 0.0000
# 3 24.5450 5.6724 151.0600 0.0000 -10.8135 0.0000
# 4 0.0000 0.0000 0.0000 -19.2418 0.0000 4.7465
# 5 -7.6941 3.1322 -10.8135 0.0000 38.6679 0.0000
# 6 0.0000 0.0000 0.0000 4.7465 0.0000 5.5172
#
#
#
# Elastic Compliance Matrix: (Units=1/GPa)
#
#
# Indices 1 2 3 4 5 6 
#
# 1 0.018115 0.000083 -0.002744 0.000000 0.002831 0.000000
# 2 0.000083 0.009783 -0.000445 0.000000 -0.000901 0.000000
# 3 -0.002744 -0.000445 0.007190 0.000000 0.001501 0.000000
# 4 0.000000 0.000000 0.000000 -0.042872 0.000000 0.036883
# 5 0.002831 -0.000901 0.001501 0.000000 0.026917 0.000000
# 6 0.000000 0.000000 0.000000 0.036883 0.000000 0.149519
#
#
# Mechanical properties :
#
#
# Convention : Reuss Voigt Hill
#
# Bulk Modulus (GPa) = 34.63135 41.57557 38.10346
# Shear Modulus (GPa) = 27.10162 23.91055 25.50609
#
# Velocity S-wave (km/s) = 3.26968 3.07116 3.17198
# Velocity P-wave (km/s) = 5.28352 5.38298 5.33348
#
# Compressibility (1/GPa) = 0.02887557
#
# Stress axis : x y z
#
# Youngs Moduli (GPa) = 55.20213 102.21551 139.08424
#
# Poissons Ratio (x) = -0.00847 0.38164
# Poissons Ratio (y) = -0.00457 0.06193
# Poissons Ratio (z) = 0.15147 0.04552
#
# Static dielectric constant tensor:
#      x y z
#    x 1.991550 0.000000 -0.036930 
#    y 0.000000 1.980700 0.000000 
#    z -0.036930 0.000000 2.178230 
# 
# From -- ./inp_files/37835.got.cif
#   From: 2010.05.17/outbox.cif.g08.bks.cpg/sg11_19_cif.got.tgz:37835.got - 2010.06.03 12:22:45.
