data_PCOD9162230
_publ_section_title
;
Structure prediction by ZEFSAII (Michael W. Deem and Ramdas Pophale) SiO2 
 PCOD9162230
Probable space group: P 21/M
;
_chemical_formula_sum "Si O2"
_cell_formula_units_Z 32
_cell_length_a 24.861140
_cell_length_b 8.766766
_cell_length_c 18.094564
_cell_angle_alpha 90.000000
_cell_angle_beta 26.997269
_cell_angle_gamma 90.000000
_cell_volume 1790.254244
_symmetry_space_group_name_H-M "P 21/M"
_symmetry_group_IT_number 11
_symmetry_cell_setting 'monoclinic'
loop_
_space_group_symop_operation_xyz
x,y,z
-x,1/2+y,-z
-x,-y,-z
x,1/2-y,z
loop_
_atom_site_type_symbol
_atom_site_label
_atom_site_fract_x
_atom_site_fract_y
_atom_site_fract_z
Si Si1 0.263863 0.935387 0.585895
Si Si2 0.466292 0.067093 0.753995
Si Si3 0.894013 0.067146 0.579987
Si Si4 0.972687 0.067794 0.198877
Si Si5 0.401642 0.568034 0.675289
Si Si6 0.738114 0.433332 0.902577
Si Si7 0.171356 0.932664 0.860731
Si Si8 0.970420 0.432443 0.713786
O O1 0.266045 0.750000 0.583797
O O2 0.397279 0.986179 0.406123
O O3 0.161924 0.981762 0.653612
O O4 0.222090 0.981431 0.719176
O O5 0.465384 0.250000 0.752606
O O6 0.416665 0.004048 0.737244
O O7 0.380801 0.009439 0.923133
O O8 0.903055 0.250000 0.566016
O O9 0.777736 0.028252 0.770305
O O10 0.920082 0.998843 0.467930
O O11 0.000000 0.000000 0.500000
O O12 0.975825 0.250000 0.202624
O O13 0.022309 0.992243 0.212223
O O14 0.054238 0.017839 0.030436
O O15 0.500000 0.500000 0.500000
O O16 0.416702 0.750000 0.661541
O O17 0.273836 0.538256 0.795624
O O18 0.727445 0.250000 0.920673
O O19 0.847816 0.478153 0.822583
O O20 0.149860 0.750000 0.884628
O O21 0.974863 0.250000 0.706874
#
# Coordination Sequence:
#
# PCOD9162230 Si02
#       8
#     4   4   4   4   4   4   4   4
#     4   9  20  38  53  70 101 140 176 219 268 305
#     4  11  21  35  54  76 105 141 177 213 257 311
#     4   9  17  31  53  80 112 142 169 205 257 311
#     4  11  22  35  54  77 101 133 180 223 259 311
#     4  11  21  34  53  75 103 136 169 211 261 311
#     4   9  19  34  52  80 112 139 165 206 259 307
#     4  10  20  37  55  72 103 137 170 218 272 312
#     4  10  20  35  54  78 111 141 170 211 264 311
#
# _framework density 17.874555999999998
#
# number of rings (size 3 to 8) (size 9 to 14) (size 15 to 20)
#    0.000    2.000    1.250    3.750    0.000    7.000 
#    0.000    3.125    0.000    0.750    0.000    0.000 
#    0.000    0.000    0.000    0.000    0.000    0.000 
#
# Total GULP energy -178592.853792 kJ/mol
# GULP energy per Si atom -5581.026681 kJ/mol
# Density = 1.783387 g / cm^3
# Si number density = 17.874556 Si / 1000 Ang^3
#
#
#
# Elastic Constant Matrix: (Units=GPa)
#
#
# Indices 1 2 3 4 5 6 
#
# 1 36.0320 13.5133 37.7539 0.0000 3.8578 0.0000
# 2 13.5133 34.3423 33.5802 0.0000 -0.7487 0.0000
# 3 37.7539 33.5802 118.4548 0.0000 15.5779 0.0000
# 4 0.0000 0.0000 0.0000 31.0352 0.0000 8.3490
# 5 3.8578 -0.7487 15.5779 0.0000 27.0514 0.0000
# 6 0.0000 0.0000 0.0000 8.3490 0.0000 21.9355
#
#
#
# Elastic Compliance Matrix: (Units=1/GPa)
#
#
# Indices 1 2 3 4 5 6 
#
# 1 0.042249 -0.004592 -0.012285 0.000000 0.000922 0.000000
# 2 -0.004592 0.042594 -0.011742 0.000000 0.008595 0.000000
# 3 -0.012285 -0.011742 0.016768 0.000000 -0.008229 0.000000
# 4 0.000000 0.000000 0.000000 0.035897 0.000000 -0.013663
# 5 0.000922 0.008595 -0.008229 0.000000 0.041812 0.000000
# 6 0.000000 0.000000 0.000000 -0.013663 0.000000 0.050789
#
#
# Mechanical properties :
#
#
# Convention : Reuss Voigt Hill
#
# Bulk Modulus (GPa) = 22.53575 39.83598 31.18587
# Shear Modulus (GPa) = 16.54881 22.93653 19.74267
#
# Velocity S-wave (km/s) = 3.04605 3.58606 3.32703
# Velocity P-wave (km/s) = 5.00063 6.28341 5.67836
#
# Compressibility (1/GPa) = 0.04437394
#
# Stress axis : x y z
#
# Youngs Moduli (GPa) = 23.66940 23.47759 59.63618
#
# Poissons Ratio (x) = 0.10780 0.73264
# Poissons Ratio (y) = 0.10868 0.70022
# Poissons Ratio (z) = 0.29078 0.27566
#
# Static dielectric constant tensor:
#      x y z
#    x 1.585690 0.000000 0.000750 
#    y 0.000000 1.599340 0.000000 
#    z 0.000750 0.000000 1.626540 
# 
# From -- ./inp_files/67070.got.cif
#   From: 2010.05.17/outbox.cif.g08.bks.cpg/sg11_34_cif.got.tgz:67070.got - 2010.06.03 12:22:45.
