data_PCOD9162691
_publ_section_title
;
Structure prediction by ZEFSAII (Michael W. Deem and Ramdas Pophale) SiO2 
 PCOD9162691
Probable space group: P 21/M
;
_chemical_formula_sum "Si O2"
_cell_formula_units_Z 32
_cell_length_a 15.260788
_cell_length_b 21.141889
_cell_length_c 8.951823
_cell_angle_alpha 90.000000
_cell_angle_beta 144.608527
_cell_angle_gamma 90.000000
_cell_volume 1672.748638
_symmetry_space_group_name_H-M "P 21/M"
_symmetry_group_IT_number 11
_symmetry_cell_setting 'monoclinic'
loop_
_space_group_symop_operation_xyz
x,y,z
-x,1/2+y,-z
-x,-y,-z
x,1/2-y,z
loop_
_atom_site_type_symbol
_atom_site_label
_atom_site_fract_x
_atom_site_fract_y
_atom_site_fract_z
Si Si1 0.511900 0.937348 0.916205
Si Si2 0.418750 0.175998 0.782500
Si Si3 0.800504 0.899942 0.122518
Si Si4 0.941866 0.181081 0.960914
Si Si5 0.085895 0.353215 0.447451
Si Si6 0.728482 0.674804 0.728038
Si Si7 0.976093 0.007238 0.208136
Si Si8 0.782351 0.055489 0.674984
O O1 0.387298 0.947160 0.615484
O O2 0.489606 0.876027 0.994305
O O3 0.670300 0.925759 0.051821
O O4 0.500000 0.000000 0.000000
O O5 0.465201 0.250000 0.860778
O O6 0.247968 0.169444 0.609985
O O7 0.394437 0.159903 0.572589
O O8 0.897758 0.848572 0.352201
O O9 0.910266 0.957195 0.231718
O O10 0.728021 0.867416 0.875645
O O11 0.897141 0.250000 0.847064
O O12 0.826443 0.128186 0.754218
O O13 0.966328 0.180486 0.173842
O O14 0.105405 0.164778 0.115743
O O15 0.044808 0.426976 0.361224
O O16 0.715285 0.750000 0.742122
O O17 0.836023 0.022438 0.902024
O O18 0.109450 0.975098 0.299226
#
# Coordination Sequence:
#
# PCOD9162691 Si02
#       8
#     4   4   4   4   4   4   4   4
#     4  11  25  39  56  89 121 156 197 245 294 352
#     4   9  19  38  60  81 116 161 198 236 294 357
#     4  11  21  34  58  87 116 153 193 244 291 346
#     4   9  17  33  56  80 109 146 187 238 293 345
#     4   9  18  31  53  85 111 144 187 233 283 335
#     4   9  18  34  58  87 112 146 200 250 289 345
#     4  10  20  35  59  83 117 148 188 235 293 346
#     4  10  20  36  57  83 111 148 190 234 287 351
#
# _framework density 19.130191
#
# number of rings (size 3 to 8) (size 9 to 14) (size 15 to 20)
#    0.000    2.250    1.250    3.000    3.500    3.500 
#    0.000    0.000    0.000    0.000    0.000    0.000 
#    0.000    0.000    0.000    0.000    0.000    0.000 
#
# Total GULP energy -178263.879585 kJ/mol
# GULP energy per Si atom -5570.746237 kJ/mol
# Density = 1.908665 g / cm^3
# Si number density = 19.130191 Si / 1000 Ang^3
#
#
#
# Elastic Constant Matrix: (Units=GPa)
#
#
# Indices 1 2 3 4 5 6 
#
# 1 41.7298 21.5928 1.1790 0.0000 -24.3759 0.0000
# 2 21.5928 54.0653 7.3588 0.0000 -12.9340 0.0000
# 3 1.1790 7.3588 51.0748 0.0000 -8.2928 0.0000
# 4 0.0000 0.0000 0.0000 18.2835 0.0000 0.4476
# 5 -24.3759 -12.9340 -8.2928 0.0000 19.9165 0.0000
# 6 0.0000 0.0000 0.0000 0.4476 0.0000 15.1411
#
#
#
# Elastic Compliance Matrix: (Units=1/GPa)
#
#
# Indices 1 2 3 4 5 6 
#
# 1 0.106603 -0.014346 0.020675 0.000000 0.129764 0.000000
# 2 -0.014346 0.023868 -0.003691 0.000000 -0.003595 0.000000
# 3 0.020675 -0.003691 0.025046 0.000000 0.033336 0.000000
# 4 0.000000 0.000000 0.000000 0.054734 0.000000 -0.001618
# 5 0.129764 -0.003595 0.033336 0.000000 0.220574 0.000000
# 6 0.000000 0.000000 0.000000 -0.001618 0.000000 0.066093
#
#
# Mechanical properties :
#
#
# Convention : Reuss Voigt Hill
#
# Bulk Modulus (GPa) = 6.21919 23.01458 14.61689
# Shear Modulus (GPa) = 9.17026 18.45084 13.81055
#
# Velocity S-wave (km/s) = 2.19181 3.10899 2.68978
# Velocity P-wave (km/s) = 3.10860 4.99443 4.15979
#
# Compressibility (1/GPa) = 0.16079254
#
# Stress axis : x y z
#
# Youngs Moduli (GPa) = 9.38062 41.89679 39.92593
#
# Poissons Ratio (x) = 0.60106 -0.82548
# Poissons Ratio (y) = 0.13458 0.14739
# Poissons Ratio (z) = -0.19395 0.15466
#
# Static dielectric constant tensor:
#      x y z
#    x 1.663780 0.000000 -0.041140 
#    y 0.000000 1.670830 0.000000 
#    z -0.041140 0.000000 1.674020 
# 
# From -- ./inp_files/23135.got.cif
#   From: 2010.05.17/outbox.cif.g08.bks.cpg/sg11_12_cif.got.tgz:23135.got - 2010.06.03 12:22:45.
