data_PCOD9162638
_publ_section_title
;
Structure prediction by ZEFSAII (Michael W. Deem and Ramdas Pophale) SiO2 
 PCOD9162638
Probable space group: P 21/M
;
_chemical_formula_sum "Si O2"
_cell_formula_units_Z 32
_cell_length_a 14.277775
_cell_length_b 9.091875
_cell_length_c 24.530053
_cell_angle_alpha 90.000000
_cell_angle_beta 150.385857
_cell_angle_gamma 90.000000
_cell_volume 1573.537041
_symmetry_space_group_name_H-M "P 21/M"
_symmetry_group_IT_number 11
_symmetry_cell_setting 'monoclinic'
loop_
_space_group_symop_operation_xyz
x,y,z
-x,1/2+y,-z
-x,-y,-z
x,1/2-y,z
loop_
_atom_site_type_symbol
_atom_site_label
_atom_site_fract_x
_atom_site_fract_y
_atom_site_fract_z
Si Si1 0.239339 0.080282 0.459143
Si Si2 0.204394 0.925181 0.988408
Si Si3 0.241632 0.917293 0.351824
Si Si4 0.551436 0.075475 0.337115
Si Si5 0.796865 0.426549 0.790492
Si Si6 0.552159 0.425443 0.216017
Si Si7 0.779742 0.917637 0.115696
Si Si8 0.783016 0.079363 0.225841
O O1 0.296253 0.250000 0.494642
O O2 0.010835 0.070454 0.344311
O O3 0.302688 0.021135 0.431975
O O4 0.318612 0.986382 0.549055
O O5 0.188811 0.750000 0.980715
O O6 0.265946 0.983600 0.959661
O O7 0.001913 0.999303 0.898343
O O8 0.361183 0.984526 0.109109
O O9 0.305150 0.750000 0.393961
O O10 0.284942 0.960934 0.311663
O O11 0.010457 0.915822 0.235267
O O12 0.526242 0.250000 0.330819
O O13 0.628372 0.046562 0.315261
O O14 0.350345 0.994181 0.241889
O O15 0.813439 0.250000 0.802722
O O16 0.511905 0.250000 0.191921
O O17 0.693518 0.463321 0.238312
O O18 0.716607 0.750000 0.075295
O O19 0.714671 0.983148 0.140260
O O20 0.736121 0.250000 0.191321
#
# Coordination Sequence:
#
# PCOD9162638 Si02
#       8
#     4   4   4   4   4   4   4   4
#     4  10  20  35  58  86 115 147 183 230 285 336
#     4  11  22  37  60  88 116 148 186 230 283 341
#     4   8  16  32  55  83 112 143 180 222 274 336
#     4  11  24  40  58  81 111 150 195 238 281 335
#     4  10  21  39  62  86 115 149 185 232 285 335
#     4  10  23  42  59  79 111 151 196 241 281 328
#     4   9  17  32  56  86 118 149 183 226 279 339
#     4   9  19  37  60  85 114 149 190 235 282 333
#
# _framework density 20.336348999999998
#
# number of rings (size 3 to 8) (size 9 to 14) (size 15 to 20)
#    0.000    2.250    0.000    3.375    0.000    7.500 
#    0.000    0.000    0.000    0.000    0.000    0.000 
#    0.000    0.000    0.000    0.000    0.000    0.000 
#
# Total GULP energy -178840.287408 kJ/mol
# GULP energy per Si atom -5588.758982 kJ/mol
# Density = 2.029006 g / cm^3
# Si number density = 20.336349 Si / 1000 Ang^3
#
#
#
# Elastic Constant Matrix: (Units=GPa)
#
#
# Indices 1 2 3 4 5 6 
#
# 1 88.5526 29.2524 11.7467 0.0000 -11.6511 0.0000
# 2 29.2524 76.2724 26.6962 0.0000 -15.1357 0.0000
# 3 11.7467 26.6962 51.0961 0.0000 -8.9982 0.0000
# 4 0.0000 0.0000 0.0000 24.4711 0.0000 -2.0732
# 5 -11.6511 -15.1357 -8.9982 0.0000 28.4171 0.0000
# 6 0.0000 0.0000 0.0000 -2.0732 0.0000 25.0244
#
#
#
# Elastic Compliance Matrix: (Units=1/GPa)
#
#
# Indices 1 2 3 4 5 6 
#
# 1 0.013162 -0.004380 -0.000210 0.000000 0.002997 0.000000
# 2 -0.004380 0.018620 -0.007722 0.000000 0.005677 0.000000
# 3 -0.000210 -0.007722 0.024267 0.000000 0.003485 0.000000
# 4 0.000000 0.000000 0.000000 0.041153 0.000000 0.003409
# 5 0.002997 0.005677 0.003485 0.000000 0.040546 0.000000
# 6 0.000000 0.000000 0.000000 0.003409 0.000000 0.040243
#
#
# Mechanical properties :
#
#
# Convention : Reuss Voigt Hill
#
# Bulk Modulus (GPa) = 31.82025 39.03465 35.42745
# Shear Modulus (GPa) = 23.46430 25.46423 24.46427
#
# Velocity S-wave (km/s) = 3.40046 3.54242 3.47217
# Velocity P-wave (km/s) = 5.57660 5.99732 5.79078
#
# Compressibility (1/GPa) = 0.03142653
#
# Stress axis : x y z
#
# Youngs Moduli (GPa) = 75.97817 53.70629 41.20757
#
# Poissons Ratio (x) = 0.23522 0.00864
# Poissons Ratio (y) = 0.33276 0.31820
# Poissons Ratio (z) = 0.01594 0.41471
#
# Static dielectric constant tensor:
#      x y z
#    x 1.734990 0.000000 0.027300 
#    y 0.000000 1.683380 0.000000 
#    z 0.027300 0.000000 1.729360 
# 
# From -- ./inp_files/69130.got.cif
#   From: 2010.05.17/outbox.cif.g08.bks.cpg/sg11_35_cif.got.tgz:69130.got - 2010.06.03 12:22:45.
