data_PCOD9162697
_publ_section_title
;
Structure prediction by ZEFSAII (Michael W. Deem and Ramdas Pophale) SiO2 
 PCOD9162697
Probable space group: P 21/M
;
_chemical_formula_sum "Si O2"
_cell_formula_units_Z 28
_cell_length_a 11.484156
_cell_length_b 12.172813
_cell_length_c 21.694649
_cell_angle_alpha 90.000000
_cell_angle_beta 23.938781
_cell_angle_gamma 90.000000
_cell_volume 1230.586731
_symmetry_space_group_name_H-M "P 21/M"
_symmetry_group_IT_number 11
_symmetry_cell_setting 'monoclinic'
loop_
_space_group_symop_operation_xyz
x,y,z
-x,1/2+y,-z
-x,-y,-z
x,1/2-y,z
loop_
_atom_site_type_symbol
_atom_site_label
_atom_site_fract_x
_atom_site_fract_y
_atom_site_fract_z
Si Si1 0.760309 0.414928 0.482627
Si Si2 0.488795 0.871551 0.661473
Si Si3 0.933637 0.958513 0.776955
Si Si4 0.874046 0.632025 0.220805
Si Si5 0.910700 0.873108 0.559625
Si Si6 0.099530 0.021344 0.021313
Si Si7 0.520235 0.377226 0.905174
O O1 0.692206 0.544034 0.527049
O O2 0.448553 0.366266 0.649200
O O3 0.851704 0.390820 0.369198
O O4 0.007484 0.374169 0.408526
O O5 0.513406 0.750000 0.623967
O O6 0.598961 0.871455 0.679222
O O7 0.162451 0.909862 0.821683
O O8 0.107837 0.043277 0.734521
O O9 0.727548 0.891273 0.922321
O O10 0.749270 0.033889 0.818695
O O11 0.957747 0.750000 0.204628
O O12 0.088632 0.593107 0.063559
O O13 0.028791 0.750000 0.480567
O O14 0.000000 0.000000 0.500000
O O15 0.387082 0.083603 0.903660
O O16 0.000000 0.000000 0.000000
O O17 0.611407 0.250000 0.857983
#
# Coordination Sequence:
#
# PCOD9162697 Si02
#       7
#     4   4   4   4   4   4   4
#     4  10  20  35  59  85 119 152 197 246 302 361
#     4   9  19  35  55  83 117 153 193 244 300 360
#     4  10  22  39  60  86 121 156 198 247 293 353
#     4  10  21  38  58  86 119 154 196 247 302 359
#     4   9  18  33  54  82 120 157 193 240 295 358
#     4  10  22  38  61  84 116 151 198 249 298 359
#     4  10  22  40  60  85 118 158 200 245 295 355
#
# _framework density 22.753373
#
# number of rings (size 3 to 8) (size 9 to 14) (size 15 to 20)
#    0.000    2.286    0.000    1.714    2.000    3.429 
#    0.000    0.000    0.000    0.000    0.000    0.000 
#    0.000    0.000    0.000    0.000    0.000    0.000 
#
# Total GULP energy -155946.120286 kJ/mol
# GULP energy per Si atom -5569.504296 kJ/mol
# Density = 2.270159 g / cm^3
# Si number density = 22.753373 Si / 1000 Ang^3
#
#
#
# Elastic Constant Matrix: (Units=GPa)
#
#
# Indices 1 2 3 4 5 6 
#
# 1 110.4393 8.8041 -5.4339 0.0000 -1.0230 0.0000
# 2 8.8041 131.2342 2.9136 0.0000 4.1049 0.0000
# 3 -5.4339 2.9136 25.3763 0.0000 3.7858 0.0000
# 4 0.0000 0.0000 0.0000 -2.0701 0.0000 2.5320
# 5 -1.0230 4.1049 3.7858 0.0000 28.7334 0.0000
# 6 0.0000 0.0000 0.0000 2.5320 0.0000 14.3455
#
#
#
# Elastic Compliance Matrix: (Units=1/GPa)
#
#
# Indices 1 2 3 4 5 6 
#
# 1 0.009209 -0.000668 0.002025 0.000000 0.000156 0.000000
# 2 -0.000668 0.007716 -0.000878 0.000000 -0.001010 0.000000
# 3 0.002025 -0.000878 0.040712 0.000000 -0.005166 0.000000
# 4 0.000000 0.000000 0.000000 -0.397297 0.000000 0.070124
# 5 0.000156 -0.001010 -0.005166 0.000000 0.035633 0.000000
# 6 0.000000 0.000000 0.000000 0.070124 0.000000 0.057331
#
#
# Mechanical properties :
#
#
# Convention : Reuss Voigt Hill
#
# Bulk Modulus (GPa) = 17.06603 31.06859 24.06731
# Shear Modulus (GPa) = -21.91807 25.58617 1.83405
#
# Velocity S-wave (km/s) = -3.10706 3.35699 0.89878
# Velocity P-wave (km/s) = 2.31409 5.35817 3.41724
#
# Compressibility (1/GPa) = 0.05859595
#
# Stress axis : x y z
#
# Youngs Moduli (GPa) = 108.58857 129.60329 24.56276
#
# Poissons Ratio (x) = 0.08653 -0.04975
# Poissons Ratio (y) = 0.07250 0.02157
# Poissons Ratio (z) = -0.21992 0.11381
#
# Static dielectric constant tensor:
#      x y z
#    x 1.877930 0.000000 -0.005410 
#    y 0.000000 1.943600 0.000000 
#    z -0.005410 0.000000 1.847220 
# 
# From -- ./inp_files/64656.got.cif
#   From: 2010.05.17/outbox.cif.g08.bks.cpg/sg11_33_cif.got.tgz:64656.got - 2010.06.03 12:22:45.
