data_PCOD9162928
_publ_section_title
;
Structure prediction by ZEFSAII (Michael W. Deem and Ramdas Pophale) SiO2 
 PCOD9162928
Probable space group: P 21/M
;
_chemical_formula_sum "Si O2"
_cell_formula_units_Z 28
_cell_length_a 25.208809
_cell_length_b 7.486302
_cell_length_c 8.313665
_cell_angle_alpha 90.000000
_cell_angle_beta 43.310260
_cell_angle_gamma 90.000000
_cell_volume 1076.226809
_symmetry_space_group_name_H-M "P 21/M"
_symmetry_group_IT_number 11
_symmetry_cell_setting 'monoclinic'
loop_
_space_group_symop_operation_xyz
x,y,z
-x,1/2+y,-z
-x,-y,-z
x,1/2-y,z
loop_
_atom_site_type_symbol
_atom_site_label
_atom_site_fract_x
_atom_site_fract_y
_atom_site_fract_z
Si Si1 0.808541 0.958747 0.095301
Si Si2 0.335154 0.544942 0.417306
Si Si3 0.616247 0.040854 0.178625
Si Si4 0.758441 0.468601 0.679002
Si Si5 0.897876 0.465676 0.569756
Si Si6 0.042761 0.036152 0.072969
Si Si7 0.471962 0.966595 0.311774
O O1 0.794842 0.750000 0.150935
O O2 0.724461 0.045245 0.300148
O O3 0.870644 0.033211 0.089061
O O4 0.854131 0.979846 0.827650
O O5 0.350121 0.750000 0.339749
O O6 0.282820 0.465564 0.391343
O O7 0.417920 0.467384 0.285946
O O8 0.624696 0.250000 0.190906
O O9 0.572288 0.965179 0.429506
O O10 0.559971 0.020703 0.147984
O O11 0.700088 0.971756 0.948976
O O12 0.759678 0.250000 0.671374
O O13 0.843628 0.525458 0.540352
O O14 0.899939 0.250000 0.565653
O O15 0.984233 0.530060 0.341712
O O16 0.048984 0.250000 0.075178
O O17 0.000000 0.000000 0.000000
O O18 0.471044 0.750000 0.311257
#
# Coordination Sequence:
#
# PCOD9162928 Si02
#       7
#     4   4   4   4   4   4   4
#     4  11  23  37  54  82 114 140 175 224 271 312
#     4  10  20  36  57  78 104 142 183 220 263 319
#     4   9  17  31  50  73 103 136 172 219 268 311
#     4   9  18  33  55  80 103 134 181 226 261 311
#     4  10  20  37  59  80 105 143 186 219 257 317
#     4  10  22  38  58  84 113 144 179 220 265 315
#     4   9  18  32  51  75 102 136 179 219 258 314
#
# _framework density 26.016821
#
# number of rings (size 3 to 8) (size 9 to 14) (size 15 to 20)
#    0.000    2.286    0.000    2.571    0.000    6.286 
#    0.000    5.000    0.000    0.000    0.000    0.000 
#    0.000    0.000    0.000    0.000    0.000    0.000 
#
# Total GULP energy -156573.135579 kJ/mol
# GULP energy per Si atom -5591.897699 kJ/mol
# Density = 2.595761 g / cm^3
# Si number density = 26.016821 Si / 1000 Ang^3
#
#
#
# Elastic Constant Matrix: (Units=GPa)
#
#
# Indices 1 2 3 4 5 6 
#
# 1 108.5603 -5.3497 1.2571 0.0000 -14.7798 0.0000
# 2 -5.3497 90.3043 -4.5215 0.0000 -4.0588 0.0000
# 3 1.2571 -4.5215 65.2310 0.0000 -14.2533 0.0000
# 4 0.0000 0.0000 0.0000 13.2444 0.0000 2.1259
# 5 -14.7798 -4.0588 -14.2533 0.0000 52.0142 0.0000
# 6 0.0000 0.0000 0.0000 2.1259 0.0000 16.0327
#
#
#
# Elastic Compliance Matrix: (Units=1/GPa)
#
#
# Indices 1 2 3 4 5 6 
#
# 1 0.009641 0.000728 0.000506 0.000000 0.002935 0.000000
# 2 0.000728 0.011232 0.001065 0.000000 0.001375 0.000000
# 3 0.000506 0.001065 0.016427 0.000000 0.004728 0.000000
# 4 0.000000 0.000000 0.000000 0.077145 0.000000 -0.010229
# 5 0.002935 0.001375 0.004728 0.000000 0.021463 0.000000
# 6 0.000000 0.000000 0.000000 -0.010229 0.000000 0.063729
#
#
# Mechanical properties :
#
#
# Convention : Reuss Voigt Hill
#
# Bulk Modulus (GPa) = 23.86676 27.42972 25.64824
# Shear Modulus (GPa) = 23.92289 34.43892 29.18091
#
# Velocity S-wave (km/s) = 3.03564 3.64224 3.35269
# Velocity P-wave (km/s) = 4.63469 5.31543 4.98669
#
# Compressibility (1/GPa) = 0.04189927
#
# Stress axis : x y z
#
# Youngs Moduli (GPa) = 103.72274 89.03169 60.87393
#
# Poissons Ratio (x) = -0.06485 -0.03080
# Poissons Ratio (y) = -0.07555 -0.06483
# Poissons Ratio (z) = -0.05248 -0.09482
#
# Static dielectric constant tensor:
#      x y z
#    x 2.102080 0.000000 0.057430 
#    y 0.000000 2.256740 0.000000 
#    z 0.057430 0.000000 2.068800 
# 
# From -- ./inp_files/28424.got.cif
#   From: 2010.05.17/outbox.cif.g08.bks.cpg/sg11_15_cif.got.tgz:28424.got - 2010.06.03 12:22:45.
