data_PCOD9162525
_publ_section_title
;
Structure prediction by ZEFSAII (Michael W. Deem and Ramdas Pophale) SiO2 
 PCOD9162525
Probable space group: P 21/M
;
_chemical_formula_sum "Si O2"
_cell_formula_units_Z 32
_cell_length_a 23.007374
_cell_length_b 8.773908
_cell_length_c 15.185776
_cell_angle_alpha 90.000000
_cell_angle_beta 142.958712
_cell_angle_gamma 90.000000
_cell_volume 1846.609819
_symmetry_space_group_name_H-M "P 21/M"
_symmetry_group_IT_number 11
_symmetry_cell_setting 'monoclinic'
loop_
_space_group_symop_operation_xyz
x,y,z
-x,1/2+y,-z
-x,-y,-z
x,1/2-y,z
loop_
_atom_site_type_symbol
_atom_site_label
_atom_site_fract_x
_atom_site_fract_y
_atom_site_fract_z
Si Si1 0.016042 0.582564 0.798722
Si Si2 0.739790 0.567756 0.542258
Si Si3 0.890971 0.067692 0.363837
Si Si4 0.380205 0.565056 0.268561
Si Si5 0.593350 0.432809 0.501355
Si Si6 0.176039 0.424973 0.542874
Si Si7 0.931101 0.423204 0.846782
Si Si8 0.785320 0.426722 0.061875
O O1 0.004423 0.750000 0.829942
O O2 0.122009 0.574839 0.889296
O O3 0.934341 0.580909 0.625511
O O4 0.991552 0.442150 0.830538
O O5 0.733397 0.750000 0.534483
O O6 0.650489 0.497173 0.486614
O O7 0.760897 0.522048 0.465554
O O8 0.833603 0.514749 0.710157
O O9 0.901745 0.250000 0.367639
O O10 0.828140 0.007756 0.204618
O O11 0.831131 0.026218 0.379197
O O12 0.000000 0.000000 0.500000
O O13 0.382624 0.750000 0.268190
O O14 0.485539 0.499466 0.374809
O O15 0.358839 0.525272 0.345519
O O16 0.302881 0.509283 0.102560
O O17 0.590593 0.250000 0.493242
O O18 0.204032 0.250000 0.597736
O O19 0.907947 0.250000 0.840420
O O20 0.000000 0.500000 0.000000
O O21 0.759249 0.250000 0.050012
#
# Coordination Sequence:
#
# PCOD9162525 Si02
#       8
#     4   4   4   4   4   4   4   4
#     4   9  17  32  50  69 102 141 177 216 258 310
#     4  10  21  37  56  76 103 141 179 220 268 322
#     4  11  20  32  52  77 107 144 182 221 263 314
#     4   9  19  36  57  79 106 142 177 215 268 326
#     4  10  20  35  57  84 108 135 175 225 272 321
#     4   9  18  34  52  74 105 140 176 215 263 315
#     4  11  22  34  47  71 104 140 180 219 262 314
#     4   9  18  33  53  76 104 142 180 215 263 319
#
# _framework density 17.329053999999999
#
# number of rings (size 3 to 8) (size 9 to 14) (size 15 to 20)
#    0.000    2.250    1.250    3.000    1.750    3.000 
#    0.000    1.875    0.000    0.750    0.000    0.000 
#    0.000    0.000    0.000    0.000    0.000    0.000 
#
# Total GULP energy -178206.366749 kJ/mol
# GULP energy per Si atom -5568.948961 kJ/mol
# Density = 1.728961 g / cm^3
# Si number density = 17.329054 Si / 1000 Ang^3
#
#
#
# Elastic Constant Matrix: (Units=GPa)
#
#
# Indices 1 2 3 4 5 6 
#
# 1 90.7734 20.4562 45.7480 0.0000 7.2833 0.0000
# 2 20.4562 35.5199 19.7248 0.0000 -2.5838 0.0000
# 3 45.7480 19.7248 97.6132 0.0000 -11.4159 0.0000
# 4 0.0000 0.0000 0.0000 19.6240 0.0000 -0.7594
# 5 7.2833 -2.5838 -11.4159 0.0000 10.6826 0.0000
# 6 0.0000 0.0000 0.0000 -0.7594 0.0000 27.6174
#
#
#
# Elastic Compliance Matrix: (Units=1/GPa)
#
#
# Indices 1 2 3 4 5 6 
#
# 1 0.020833 -0.007657 -0.011536 0.000000 -0.028384 0.000000
# 2 -0.007657 0.034534 -0.002060 0.000000 0.011372 0.000000
# 3 -0.011536 -0.002060 0.019347 0.000000 0.028042 0.000000
# 4 0.000000 0.000000 0.000000 0.051012 0.000000 0.001403
# 5 -0.028384 0.011372 0.028042 0.000000 0.145680 0.000000
# 6 0.000000 0.000000 0.000000 0.001403 0.000000 0.036248
#
#
# Mechanical properties :
#
#
# Convention : Reuss Voigt Hill
#
# Bulk Modulus (GPa) = 31.04769 43.97384 37.51077
# Shear Modulus (GPa) = 13.85442 20.78329 17.31886
#
# Velocity S-wave (km/s) = 2.83059 3.46689 3.16478
# Velocity P-wave (km/s) = 5.35149 6.43869 5.92010
#
# Compressibility (1/GPa) = 0.03220851
#
# Stress axis : x y z
#
# Youngs Moduli (GPa) = 47.99989 28.95712 51.68758
#
# Poissons Ratio (x) = 0.22171 0.59628
# Poissons Ratio (y) = 0.36751 0.10648
# Poissons Ratio (z) = 0.55374 0.05965
#
# Static dielectric constant tensor:
#      x y z
#    x 1.666860 0.000000 -0.108680 
#    y 0.000000 1.603160 0.000000 
#    z -0.108680 0.000000 1.691620 
# 
# From -- ./inp_files/54331.got.cif
#   From: 2010.05.17/outbox.cif.g08.bks.cpg/sg11_28_cif.got.tgz:54331.got - 2010.06.03 12:22:45.
