data_PCOD9162668
_publ_section_title
;
Structure prediction by ZEFSAII (Michael W. Deem and Ramdas Pophale) SiO2 
 PCOD9162668
Probable space group: P 21/M
;
_chemical_formula_sum "Si O2"
_cell_formula_units_Z 32
_cell_length_a 19.564942
_cell_length_b 14.635429
_cell_length_c 12.833081
_cell_angle_alpha 90.000000
_cell_angle_beta 26.650015
_cell_angle_gamma 90.000000
_cell_volume 1648.221601
_symmetry_space_group_name_H-M "P 21/M"
_symmetry_group_IT_number 11
_symmetry_cell_setting 'monoclinic'
loop_
_space_group_symop_operation_xyz
x,y,z
-x,1/2+y,-z
-x,-y,-z
x,1/2-y,z
loop_
_atom_site_type_symbol
_atom_site_label
_atom_site_fract_x
_atom_site_fract_y
_atom_site_fract_z
Si Si1 0.872935 0.946141 0.240245
Si Si2 0.006674 0.008922 0.256686
Si Si3 0.708557 0.432246 0.016946
Si Si4 0.420042 0.565149 0.394642
Si Si5 0.706302 0.051664 0.785545
Si Si6 0.212314 0.145035 0.842926
Si Si7 0.458529 0.143658 0.973830
Si Si8 0.443098 0.644846 0.580709
O O1 0.824674 0.864656 0.229482
O O2 0.719166 0.005897 0.460255
O O3 0.942574 0.935277 0.260015
O O4 0.000000 0.000000 0.000000
O O5 0.097046 0.083890 0.065743
O O6 0.865203 0.052244 0.509153
O O7 0.128178 0.969547 0.171419
O O8 0.573975 0.507567 0.201773
O O9 0.655702 0.365495 0.180916
O O10 0.715097 0.404176 0.888028
O O11 0.465005 0.638157 0.245343
O O12 0.374539 0.598721 0.571466
O O13 0.582408 0.108236 0.888711
O O14 0.660216 0.942865 0.860141
O O15 0.200539 0.250000 0.890220
O O16 0.384860 0.111147 0.629296
O O17 0.410508 0.250000 0.058044
O O18 0.459246 0.750000 0.531820
#
# Coordination Sequence:
#
# PCOD9162668 Si02
#       8
#     4   4   4   4   4   4   4   4
#     4  10  20  35  58  87 123 157 201 252 308 366
#     4  11  21  41  60  87 121 164 208 251 305 370
#     4  11  22  38  63  85 123 165 204 245 310 373
#     4  11  19  38  62  88 118 159 209 249 310 369
#     4  10  23  41  64  92 124 164 212 252 307 371
#     4  10  21  36  59  93 125 161 204 254 313 366
#     4  10  22  41  65  93 121 158 210 263 309 365
#     4  11  21  35  58  92 124 156 204 255 306 367
#
# _framework density 19.414864999999999
#
# number of rings (size 3 to 8) (size 9 to 14) (size 15 to 20)
#    0.000    1.500    3.750    2.625    0.000    1.000 
#    0.000    6.250    0.000    1.500    0.000    0.000 
#    0.000    0.000    0.000    0.000    0.000    0.000 
#
# Total GULP energy -178371.462153 kJ/mol
# GULP energy per Si atom -5574.108192 kJ/mol
# Density = 1.937068 g / cm^3
# Si number density = 19.414865 Si / 1000 Ang^3
#
#
#
# Elastic Constant Matrix: (Units=GPa)
#
#
# Indices 1 2 3 4 5 6 
#
# 1 106.6558 2.1522 9.9445 0.0000 2.5988 0.0000
# 2 2.1522 53.1048 -13.6104 0.0000 1.8293 0.0000
# 3 9.9445 -13.6104 48.0690 0.0000 4.9469 0.0000
# 4 0.0000 0.0000 0.0000 16.8825 0.0000 2.7339
# 5 2.5988 1.8293 4.9469 0.0000 34.1922 0.0000
# 6 0.0000 0.0000 0.0000 2.7339 0.0000 16.6117
#
#
#
# Elastic Compliance Matrix: (Units=1/GPa)
#
#
# Indices 1 2 3 4 5 6 
#
# 1 0.009611 -0.000946 -0.002219 0.000000 -0.000359 0.000000
# 2 -0.000946 0.020526 0.006205 0.000000 -0.001924 0.000000
# 3 -0.002219 0.006205 0.023385 0.000000 -0.003547 0.000000
# 4 0.000000 0.000000 0.000000 0.060855 0.000000 -0.010015
# 5 -0.000359 -0.001924 -0.003547 0.000000 0.029890 0.000000
# 6 0.000000 0.000000 0.000000 -0.010015 0.000000 0.061847
#
#
# Mechanical properties :
#
#
# Convention : Reuss Voigt Hill
#
# Bulk Modulus (GPa) = 16.77805 22.75579 19.76692
# Shear Modulus (GPa) = 22.73773 27.49350 25.11561
#
# Velocity S-wave (km/s) = 3.42592 3.76720 3.60061
# Velocity P-wave (km/s) = 4.93050 5.53793 5.24302
#
# Compressibility (1/GPa) = 0.05960169
#
# Stress axis : x y z
#
# Youngs Moduli (GPa) = 104.05072 48.71938 42.76329
#
# Poissons Ratio (x) = 0.04608 0.09490
# Poissons Ratio (y) = 0.09842 -0.26536
# Poissons Ratio (z) = 0.23090 -0.30232
#
# Static dielectric constant tensor:
#      x y z
#    x 1.716120 0.000000 0.013180 
#    y 0.000000 1.688930 0.000000 
#    z 0.013180 0.000000 1.669280 
# 
# From -- ./inp_files/41611.got.cif
#   From: 2010.05.17/outbox.cif.g08.bks.cpg/sg11_21_cif.got.tgz:41611.got - 2010.06.03 12:22:45.
