data_PCOD9162383
_publ_section_title
;
Structure prediction by ZEFSAII (Michael W. Deem and Ramdas Pophale) SiO2 
 PCOD9162383
Probable space group: P 21/M
;
_chemical_formula_sum "Si O2"
_cell_formula_units_Z 32
_cell_length_a 26.685730
_cell_length_b 7.502991
_cell_length_c 25.839011
_cell_angle_alpha 90.000000
_cell_angle_beta 15.378748
_cell_angle_gamma 90.000000
_cell_volume 1372.020064
_symmetry_space_group_name_H-M "P 21/M"
_symmetry_group_IT_number 11
_symmetry_cell_setting 'monoclinic'
loop_
_space_group_symop_operation_xyz
x,y,z
-x,1/2+y,-z
-x,-y,-z
x,1/2-y,z
loop_
_atom_site_type_symbol
_atom_site_label
_atom_site_fract_x
_atom_site_fract_y
_atom_site_fract_z
Si Si1 0.779669 0.037419 0.219871
Si Si2 0.502364 0.455434 0.410172
Si Si3 0.315300 0.965150 0.088557
Si Si4 0.639646 0.967969 0.557510
Si Si5 0.382592 0.967753 0.909760
Si Si6 0.869283 0.539656 0.508764
Si Si7 0.045915 0.032163 0.685958
Si Si8 0.777420 0.458775 0.711508
O O1 0.749048 0.250000 0.252368
O O2 0.673046 0.967681 0.274586
O O3 0.675361 0.960431 0.373932
O O4 0.000000 0.000000 0.000000
O O5 0.554721 0.250000 0.347474
O O6 0.441568 0.534570 0.415813
O O7 0.343408 0.750000 0.061586
O O8 0.337989 0.037728 0.124614
O O9 0.090563 0.996985 0.301314
O O10 0.415949 0.029691 0.935796
O O11 0.639553 0.750000 0.555038
O O12 0.514381 0.021494 0.731456
O O13 0.849661 0.023170 0.365780
O O14 0.391163 0.750000 0.903317
O O15 0.170197 0.020094 0.105479
O O16 0.849829 0.750000 0.523396
O O17 0.844859 0.469569 0.474933
O O18 0.746867 0.498664 0.681538
O O19 0.047704 0.250000 0.683557
O O20 0.757912 0.250000 0.735911
O O21 0.000000 0.500000 0.500000
#
# Coordination Sequence:
#
# PCOD9162383 Si02
#       8
#     4   4   4   4   4   4   4   4
#     4  10  20  35  56  80 109 145 177 210 254 300
#     4   9  19  34  52  80 112 137 171 216 256 300
#     4   7  11  19  31  49  74 104 138 175 219 273
#     4   9  16  26  44  70  96 124 158 196 240 284
#     4   8  13  22  36  57  86 116 147 188 236 281
#     4   8  13  22  35  53  79 109 141 181 230 282
#     4   8  14  24  39  60  87 118 153 194 237 284
#     4   9  14  20  33  54  78 106 142 184 231 283
#
# _framework density 23.323271999999999
#
# number of rings (size 3 to 8) (size 9 to 14) (size 15 to 20)
#    0.000    3.500    0.000    3.000    0.000    1.500 
#    0.000    3.750    0.000    1.500    0.000    8.750 
#    0.000    0.000    0.000    0.000    0.000    1.125 
#
# Total GULP energy -178446.240885 kJ/mol
# GULP energy per Si atom -5576.445028 kJ/mol
# Density = 2.327019 g / cm^3
# Si number density = 23.323272 Si / 1000 Ang^3
#
#
#
# Elastic Constant Matrix: (Units=GPa)
#
#
# Indices 1 2 3 4 5 6 
#
# 1 187.4932 16.0138 43.7273 0.0000 -13.3350 0.0000
# 2 16.0138 47.6293 -10.0937 0.0000 -1.4300 0.0000
# 3 43.7273 -10.0937 72.3650 0.0000 -17.2576 0.0000
# 4 0.0000 0.0000 0.0000 6.1460 0.0000 6.9247
# 5 -13.3350 -1.4300 -17.2576 0.0000 16.7464 0.0000
# 6 0.0000 0.0000 0.0000 6.9247 0.0000 7.9568
#
#
#
# Elastic Compliance Matrix: (Units=1/GPa)
#
#
# Indices 1 2 3 4 5 6 
#
# 1 0.006649 -0.003133 -0.004317 0.000000 0.000578 0.000000
# 2 -0.003133 0.023671 0.006738 0.000000 0.006470 0.000000
# 3 -0.004317 0.006738 0.022121 0.000000 0.019934 0.000000
# 4 0.000000 0.000000 0.000000 8.370015 0.000000 -7.284341
# 5 0.000578 0.006470 0.019934 0.000000 0.081270 0.000000
# 6 0.000000 0.000000 0.000000 -7.284341 0.000000 6.465168
#
#
# Mechanical properties :
#
#
# Convention : Reuss Voigt Hill
#
# Bulk Modulus (GPa) = 19.60130 45.19805 32.39967
# Shear Modulus (GPa) = 0.33362 23.35919 11.84640
#
# Velocity S-wave (km/s) = 0.37862 3.16815 2.25616
# Velocity P-wave (km/s) = 2.93489 5.72747 4.55068
#
# Compressibility (1/GPa) = 0.05101704
#
# Stress axis : x y z
#
# Youngs Moduli (GPa) = 150.39814 42.24582 45.20594
#
# Poissons Ratio (x) = 0.13235 0.19514
# Poissons Ratio (y) = 0.47119 -0.30459
# Poissons Ratio (z) = 0.64923 -0.28464
#
# Static dielectric constant tensor:
#      x y z
#    x 1.914020 0.000000 -0.021260 
#    y 0.000000 1.866320 0.000000 
#    z -0.021260 0.000000 1.896470 
# 
# From -- ./inp_files/69987.got.cif
#   From: 2010.05.17/outbox.cif.g08.bks.cpg/sg11_35_cif.got.tgz:69987.got - 2010.06.03 12:22:45.
