data_PCOD9162862
_publ_section_title
;
Structure prediction by ZEFSAII (Michael W. Deem and Ramdas Pophale) SiO2 
 PCOD9162862
Probable space group: P 21/M
;
_chemical_formula_sum "Si O2"
_cell_formula_units_Z 32
_cell_length_a 20.787327
_cell_length_b 9.015280
_cell_length_c 10.493422
_cell_angle_alpha 90.000000
_cell_angle_beta 48.094739
_cell_angle_gamma 90.000000
_cell_volume 1463.571618
_symmetry_space_group_name_H-M "P 21/M"
_symmetry_group_IT_number 11
_symmetry_cell_setting 'monoclinic'
loop_
_space_group_symop_operation_xyz
x,y,z
-x,1/2+y,-z
-x,-y,-z
x,1/2-y,z
loop_
_atom_site_type_symbol
_atom_site_label
_atom_site_fract_x
_atom_site_fract_y
_atom_site_fract_z
Si Si1 0.744933 0.573154 0.810547
Si Si2 0.950941 0.576272 0.873642
Si Si3 0.417774 0.915508 0.056261
Si Si4 0.499894 0.917125 0.670844
Si Si5 0.879254 0.925610 0.257118
Si Si6 0.087224 0.926897 0.333647
Si Si7 0.664759 0.926479 0.191867
Si Si8 0.695887 0.930269 0.428758
O O1 0.753254 0.750000 0.784477
O O2 0.669631 0.509873 0.820423
O O3 0.835263 0.490454 0.683058
O O4 0.713129 0.537755 0.997282
O O5 0.949582 0.750000 0.840319
O O6 0.905610 0.483957 0.821846
O O7 0.048809 0.516633 0.761782
O O8 0.906480 0.562785 0.071404
O O9 0.407631 0.750000 0.122992
O O10 0.445121 0.902927 0.872825
O O11 0.500000 0.000000 0.000000
O O12 0.510564 0.750000 0.604617
O O13 0.595644 0.975099 0.582390
O O14 0.433035 0.013017 0.677261
O O15 0.884480 0.750000 0.284283
O O16 0.779608 0.978517 0.397834
O O17 0.084744 0.750000 0.341184
O O18 0.000000 0.000000 0.500000
O O19 0.660886 0.750000 0.198997
O O20 0.710429 0.974027 0.261592
O O21 0.696921 0.750000 0.437451
#
# Coordination Sequence:
#
# PCOD9162862 Si02
#       8
#     4   4   4   4   4   4   4   4
#     4  10  20  37  60  86 112 144 187 232 281 343
#     4  10  20  37  59  83 114 149 190 239 289 346
#     4  10  20  36  56  79 108 148 193 240 285 336
#     4   9  18  31  48  73 105 139 179 226 275 327
#     4   9  18  34  57  82 111 152 195 235 286 348
#     4  12  25  42  63  88 117 151 191 241 298 354
#     4   9  17  30  52  78 108 144 179 218 269 328
#     4   9  16  29  49  76 108 142 179 220 272 331
#
# _framework density 21.864321
#
# number of rings (size 3 to 8) (size 9 to 14) (size 15 to 20)
#    0.000    2.250    0.000    3.375    0.000    3.500 
#    2.250    1.250    0.000    0.000    0.000    0.000 
#    0.000    0.000    0.000    0.000    0.000    0.000 
#
# Total GULP energy -178613.085032 kJ/mol
# GULP energy per Si atom -5581.658907 kJ/mol
# Density = 2.181456 g / cm^3
# Si number density = 21.864321 Si / 1000 Ang^3
#
#
#
# Elastic Constant Matrix: (Units=GPa)
#
#
# Indices 1 2 3 4 5 6 
#
# 1 134.1660 61.6346 12.7442 0.0000 -51.0396 0.0000
# 2 61.6346 106.6606 24.9152 0.0000 -23.4112 0.0000
# 3 12.7442 24.9152 53.0330 0.0000 -25.9905 0.0000
# 4 0.0000 0.0000 0.0000 19.9423 0.0000 -6.6393
# 5 -51.0396 -23.4112 -25.9905 0.0000 43.1686 0.0000
# 6 0.0000 0.0000 0.0000 -6.6393 0.0000 34.8739
#
#
#
# Elastic Compliance Matrix: (Units=1/GPa)
#
#
# Indices 1 2 3 4 5 6 
#
# 1 0.020710 -0.008929 0.012548 0.000000 0.027199 0.000000
# 2 -0.008929 0.014859 -0.008596 0.000000 -0.007674 0.000000
# 3 0.012548 -0.008596 0.035273 0.000000 0.031411 0.000000
# 4 0.000000 0.000000 0.000000 0.053538 0.000000 0.010193
# 5 0.027199 -0.007674 0.031411 0.000000 0.070073 0.000000
# 6 0.000000 0.000000 0.000000 0.010193 0.000000 0.030615
#
#
# Mechanical properties :
#
#
# Convention : Reuss Voigt Hill
#
# Bulk Modulus (GPa) = 16.42357 54.71638 35.56998
# Shear Modulus (GPa) = 19.58342 32.56800 26.07571
#
# Velocity S-wave (km/s) = 2.99604 3.86366 3.45717
# Velocity P-wave (km/s) = 4.41545 6.70698 5.67802
#
# Compressibility (1/GPa) = 0.06088809
#
# Stress axis : x y z
#
# Youngs Moduli (GPa) = 48.28497 67.30097 28.35025
#
# Poissons Ratio (x) = 0.60091 -0.35573
# Poissons Ratio (y) = 0.43112 0.24369
# Poissons Ratio (z) = -0.60586 0.57851
#
# Static dielectric constant tensor:
#      x y z
#    x 1.842640 0.000000 0.049830 
#    y 0.000000 1.766920 0.000000 
#    z 0.049830 0.000000 1.914340 
# 
# From -- ./inp_files/42757.got.cif
#   From: 2010.05.17/outbox.cif.g08.bks.cpg/sg11_22_cif.got.tgz:42757.got - 2010.06.03 12:22:45.
