data_PCOD9162515
_publ_section_title
;
Structure prediction by ZEFSAII (Michael W. Deem and Ramdas Pophale) SiO2 
 PCOD9162515
Probable space group: P 21/M
;
_chemical_formula_sum "Si O2"
_cell_formula_units_Z 32
_cell_length_a 22.286177
_cell_length_b 8.756562
_cell_length_c 28.721145
_cell_angle_alpha 90.000000
_cell_angle_beta 18.885265
_cell_angle_gamma 90.000000
_cell_volume 1814.173836
_symmetry_space_group_name_H-M "P 21/M"
_symmetry_group_IT_number 11
_symmetry_cell_setting 'monoclinic'
loop_
_space_group_symop_operation_xyz
x,y,z
-x,1/2+y,-z
-x,-y,-z
x,1/2-y,z
loop_
_atom_site_type_symbol
_atom_site_label
_atom_site_fract_x
_atom_site_fract_y
_atom_site_fract_z
Si Si1 0.447842 0.567337 0.088084
Si Si2 0.915044 0.066258 0.910709
Si Si3 0.375329 0.932178 0.952037
Si Si4 0.199559 0.932164 0.839325
Si Si5 0.959809 0.434055 0.580265
Si Si6 0.691074 0.932952 0.340803
Si Si7 0.637092 0.930992 0.190834
Si Si8 0.654402 0.932986 0.662439
O O1 0.448603 0.750000 0.085032
O O2 0.583190 0.513885 0.030123
O O3 0.240020 0.515659 0.254692
O O4 0.500000 0.500000 0.000000
O O5 0.891665 0.250000 0.933801
O O6 0.131421 0.030411 0.756778
O O7 0.812482 0.025310 0.937804
O O8 0.802024 0.986242 0.035290
O O9 0.373698 0.750000 0.961076
O O10 0.540483 0.965477 0.793778
O O11 0.187611 0.750000 0.845738
O O12 0.261927 0.999346 0.744245
O O13 0.336946 0.984412 0.779421
O O14 0.000000 0.000000 0.000000
O O15 0.959123 0.250000 0.577493
O O16 0.000000 0.500000 0.500000
O O17 0.132609 0.476041 0.486272
O O18 0.678196 0.750000 0.347127
O O19 0.500000 0.000000 0.500000
O O20 0.647726 0.750000 0.189361
O O21 0.450018 0.980251 0.301936
O O22 0.639745 0.750000 0.665535
#
# Coordination Sequence:
#
# PCOD9162515 Si02
#       8
#     4   4   4   4   4   4   4   4
#     4  11  23  37  55  82 114 150 190 232 282 339
#     4   9  19  36  58  82 114 153 191 231 285 346
#     4   9  17  33  57  82 109 145 186 229 282 341
#     4  12  23  38  60  87 117 152 194 241 292 347
#     4  10  20  35  57  83 111 145 186 232 284 339
#     4  11  23  40  61  87 120 158 198 241 290 347
#     4  11  21  33  55  87 118 149 190 241 292 341
#     4   9  18  34  55  81 114 149 184 232 292 345
#
# _framework density 17.638881999999999
#
# number of rings (size 3 to 8) (size 9 to 14) (size 15 to 20)
#    0.000    1.750    2.500    3.750    0.000    3.500 
#    0.000    1.250    0.000    3.000    0.000    0.000 
#    0.000    0.000    0.000    0.000    0.000    0.000 
#
# Total GULP energy -178688.418553 kJ/mol
# GULP energy per Si atom -5584.013080 kJ/mol
# Density = 1.759874 g / cm^3
# Si number density = 17.638882 Si / 1000 Ang^3
#
#
#
# Elastic Constant Matrix: (Units=GPa)
#
#
# Indices 1 2 3 4 5 6 
#
# 1 148.6540 55.1079 83.9548 0.0000 -9.5284 0.0000
# 2 55.1079 64.2419 47.7830 0.0000 -4.1148 0.0000
# 3 83.9548 47.7830 128.9847 0.0000 -8.8456 0.0000
# 4 0.0000 0.0000 0.0000 25.8095 0.0000 -0.1108
# 5 -9.5284 -4.1148 -8.8456 0.0000 29.1610 0.0000
# 6 0.0000 0.0000 0.0000 -0.1108 0.0000 34.2289
#
#
#
# Elastic Compliance Matrix: (Units=1/GPa)
#
#
# Indices 1 2 3 4 5 6 
#
# 1 0.012310 -0.006324 -0.005571 0.000000 0.001440 0.000000
# 2 -0.006324 0.024747 -0.005059 0.000000 -0.000109 0.000000
# 3 -0.005571 -0.005059 0.013357 0.000000 0.001518 0.000000
# 4 0.000000 0.000000 0.000000 0.038746 0.000000 0.000125
# 5 0.001440 -0.000109 0.001518 0.000000 0.035208 0.000000
# 6 0.000000 0.000000 0.000000 0.000125 0.000000 0.029215
#
#
# Mechanical properties :
#
#
# Convention : Reuss Voigt Hill
#
# Bulk Modulus (GPa) = 60.58267 79.50802 70.04535
# Shear Modulus (GPa) = 25.90775 28.17555 27.04165
#
# Velocity S-wave (km/s) = 3.83663 4.00103 3.91969
# Velocity P-wave (km/s) = 7.35167 8.15583 7.76417
#
# Compressibility (1/GPa) = 0.01650637
#
# Stress axis : x y z
#
# Youngs Moduli (GPa) = 81.23518 40.40953 74.86639
#
# Poissons Ratio (x) = 0.25554 0.41708
# Poissons Ratio (y) = 0.51371 0.37874
# Poissons Ratio (z) = 0.45256 0.20443
#
# Static dielectric constant tensor:
#      x y z
#    x 1.595210 0.000000 -0.032720 
#    y 0.000000 1.589050 0.000000 
#    z -0.032720 0.000000 1.590850 
# 
# From -- ./inp_files/72052.got.cif
#   From: 2010.05.17/outbox.cif.g08.bks.cpg/sg11_37_cif.got.tgz:72052.got - 2010.06.03 12:22:45.
