data_PCOD9162032
_publ_section_title
;
Structure prediction by ZEFSAII (Michael W. Deem and Ramdas Pophale) SiO2 
 PCOD9162032
Probable space group: P 21/M
;
_chemical_formula_sum "Si O2"
_cell_formula_units_Z 32
_cell_length_a 32.652920
_cell_length_b 8.359310
_cell_length_c 13.122038
_cell_angle_alpha 90.000000
_cell_angle_beta 153.224699
_cell_angle_gamma 90.000000
_cell_volume 1613.546655
_symmetry_space_group_name_H-M "P 21/M"
_symmetry_group_IT_number 11
_symmetry_cell_setting 'monoclinic'
loop_
_space_group_symop_operation_xyz
x,y,z
-x,1/2+y,-z
-x,-y,-z
x,1/2-y,z
loop_
_atom_site_type_symbol
_atom_site_label
_atom_site_fract_x
_atom_site_fract_y
_atom_site_fract_z
Si Si1 0.578020 0.940901 0.958701
Si Si2 0.293343 0.442723 0.177465
Si Si3 0.096333 0.938244 0.675399
Si Si4 0.385532 0.440879 0.592031
Si Si5 0.284914 0.559035 0.568897
Si Si6 0.827344 0.441212 0.371077
Si Si7 0.900165 0.442302 0.752660
Si Si8 0.635675 0.563204 0.875552
O O1 0.592011 0.750000 0.986881
O O2 0.484328 0.980216 0.806369
O O3 0.575325 0.002494 0.834989
O O4 0.658874 0.017414 0.204036
O O5 0.298549 0.250000 0.185516
O O6 0.331018 0.495993 0.370097
O O7 0.187926 0.487618 0.926940
O O8 0.353340 0.506074 0.214296
O O9 0.101218 0.750000 0.705348
O O10 0.105723 0.965241 0.575115
O O11 0.000000 0.000000 0.500000
O O12 0.397058 0.250000 0.612230
O O13 0.333049 0.483281 0.578367
O O14 0.285543 0.750000 0.558108
O O15 0.181179 0.502603 0.354091
O O16 0.804307 0.250000 0.323673
O O17 0.871513 0.489790 0.575020
O O18 0.737019 0.540198 0.145882
O O19 0.900061 0.250000 0.755199
O O20 0.000000 0.500000 0.000000
O O21 0.612264 0.750000 0.812023
#
# Coordination Sequence:
#
# PCOD9162032 Si02
#       8
#     4   4   4   4   4   4   4   4
#     4  11  22  37  61  90 117 150 195 242 292 350
#     4   9  20  39  58  81 116 153 191 237 292 344
#     4  10  20  34  57  84 112 148 191 237 286 345
#     4  11  24  40  59  84 119 160 196 238 292 349
#     4  11  23  41  62  84 116 154 197 245 290 344
#     4   9  18  35  55  78 108 144 185 230 283 337
#     4  10  22  38  58  84 113 146 187 235 289 343
#     4   9  18  34  59  86 111 144 187 235 282 338
#
# _framework density 19.832089
#
# number of rings (size 3 to 8) (size 9 to 14) (size 15 to 20)
#    0.000    2.000    1.250    1.875    0.000    5.000 
#    0.000    3.750    0.000    0.000    0.000    0.000 
#    0.000    0.000    0.000    0.000    0.000    0.000 
#
# Total GULP energy -178614.930637 kJ/mol
# GULP energy per Si atom -5581.716582 kJ/mol
# Density = 1.978695 g / cm^3
# Si number density = 19.832089 Si / 1000 Ang^3
#
#
#
# Elastic Constant Matrix: (Units=GPa)
#
#
# Indices 1 2 3 4 5 6 
#
# 1 95.6638 4.2090 19.0776 0.0000 9.8245 0.0000
# 2 4.2090 9.0592 -9.5425 0.0000 -1.3280 0.0000
# 3 19.0776 -9.5425 53.0040 0.0000 5.4266 0.0000
# 4 0.0000 0.0000 0.0000 25.4502 0.0000 1.0780
# 5 9.8245 -1.3280 5.4266 0.0000 32.4586 0.0000
# 6 0.0000 0.0000 0.0000 1.0780 0.0000 14.7680
#
#
#
# Elastic Compliance Matrix: (Units=1/GPa)
#
#
# Indices 1 2 3 4 5 6 
#
# 1 0.012705 -0.013385 -0.006647 0.000000 -0.003282 0.000000
# 2 -0.013385 0.150391 0.031386 0.000000 0.004957 0.000000
# 3 -0.006647 0.031386 0.027035 0.000000 -0.001224 0.000000
# 4 0.000000 0.000000 0.000000 0.039414 0.000000 -0.002877
# 5 -0.003282 0.004957 -0.001224 0.000000 0.032209 0.000000
# 6 0.000000 0.000000 0.000000 -0.002877 0.000000 0.067924
#
#
# Mechanical properties :
#
#
# Convention : Reuss Voigt Hill
#
# Bulk Modulus (GPa) = 4.69840 20.57946 12.63893
# Shear Modulus (GPa) = 13.23045 24.13422 18.68234
#
# Velocity S-wave (km/s) = 2.58568 3.49223 3.07257
# Velocity P-wave (km/s) = 3.35984 5.16336 4.35596
#
# Compressibility (1/GPa) = 0.21283840
#
# Stress axis : x y z
#
# Youngs Moduli (GPa) = 78.71101 6.64933 36.98976
#
# Poissons Ratio (x) = 0.08900 0.24585
# Poissons Ratio (y) = 1.05355 -1.16094
# Poissons Ratio (z) = 0.52315 -0.20869
#
# Static dielectric constant tensor:
#      x y z
#    x 1.729910 0.000000 -0.006550 
#    y 0.000000 1.691690 0.000000 
#    z -0.006550 0.000000 1.675400 
# 
# From -- ./inp_files/45352.got.cif
#   From: 2010.05.17/outbox.cif.g08.bks.cpg/sg11_23_cif.got.tgz:45352.got - 2010.06.03 12:22:45.
