data_PCOD9162825
_publ_section_title
;
Structure prediction by ZEFSAII (Michael W. Deem and Ramdas Pophale) SiO2 
 PCOD9162825
Probable space group: P 21/M
;
_chemical_formula_sum "Si O2"
_cell_formula_units_Z 28
_cell_length_a 26.259744
_cell_length_b 8.766455
_cell_length_c 17.287848
_cell_angle_alpha 90.000000
_cell_angle_beta 24.897304
_cell_angle_gamma 90.000000
_cell_volume 1675.446031
_symmetry_space_group_name_H-M "P 21/M"
_symmetry_group_IT_number 11
_symmetry_cell_setting 'monoclinic'
loop_
_space_group_symop_operation_xyz
x,y,z
-x,1/2+y,-z
-x,-y,-z
x,1/2-y,z
loop_
_atom_site_type_symbol
_atom_site_label
_atom_site_fract_x
_atom_site_fract_y
_atom_site_fract_z
Si Si1 0.480286 0.933312 0.241495
Si Si2 0.890657 0.934475 0.813689
Si Si3 0.749427 0.432150 0.863562
Si Si4 0.168617 0.932730 0.424269
Si Si5 0.433078 0.933400 0.478446
Si Si6 0.316119 0.433369 0.784527
Si Si7 0.394904 0.068516 0.199362
O O1 0.477783 0.750000 0.239270
O O2 0.423477 0.979280 0.402362
O O3 0.415385 0.005270 0.257139
O O4 0.619284 0.988168 0.049916
O O5 0.883933 0.750000 0.815349
O O6 0.030445 0.975774 0.632147
O O7 0.836491 0.006811 0.810646
O O8 0.803896 0.980177 0.004274
O O9 0.734565 0.250000 0.891046
O O10 0.802939 0.464890 0.704949
O O11 0.181899 0.750000 0.417094
O O12 0.267157 0.016722 0.340470
O O13 0.428234 0.750000 0.488506
O O14 0.566047 0.980043 0.327242
O O15 0.336647 0.000170 0.671164
O O16 0.317046 0.250000 0.778559
O O17 0.406088 0.250000 0.183737
O O18 0.500000 0.000000 0.000000
#
# Coordination Sequence:
#
# PCOD9162825 Si02
#       7
#     4   4   4   4   4   4   4
#     4  11  21  36  57  79 109 143 178 222 271 320
#     4  10  20  36  55  77 111 149 182 218 266 325
#     4  11  21  32  51  81 112 144 182 219 264 321
#     4  10  22  38  55  77 108 147 186 222 266 318
#     4   9  18  32  51  78 107 138 174 216 271 320
#     4   9  17  31  51  77 107 140 176 215 265 319
#     4  12  24  38  57  80 107 141 183 226 268 313
#
# _framework density 16.711967999999999
#
# number of rings (size 3 to 8) (size 9 to 14) (size 15 to 20)
#    0.000    1.714    2.857    2.571    0.000    2.857 
#    0.000    0.000    0.000    0.857    0.000    0.000 
#    0.000    0.000    0.000    0.000    0.000    0.000 
#
# Total GULP energy -156348.010202 kJ/mol
# GULP energy per Si atom -5583.857507 kJ/mol
# Density = 1.667393 g / cm^3
# Si number density = 16.711968 Si / 1000 Ang^3
#
#
#
# Elastic Constant Matrix: (Units=GPa)
#
#
# Indices 1 2 3 4 5 6 
#
# 1 150.9810 58.8849 95.6753 0.0000 13.0707 0.0000
# 2 58.8849 51.3039 50.0263 0.0000 2.8283 0.0000
# 3 95.6753 50.0263 105.1325 0.0000 3.1473 0.0000
# 4 0.0000 0.0000 0.0000 22.2490 0.0000 1.8743
# 5 13.0707 2.8283 3.1473 0.0000 29.4257 0.0000
# 6 0.0000 0.0000 0.0000 1.8743 0.0000 29.9037
#
#
#
# Elastic Compliance Matrix: (Units=1/GPa)
#
#
# Indices 1 2 3 4 5 6 
#
# 1 0.018416 -0.008655 -0.012461 0.000000 -0.006016 0.000000
# 2 -0.008655 0.040512 -0.011436 0.000000 0.001174 0.000000
# 3 -0.012461 -0.011436 0.026179 0.000000 0.003834 0.000000
# 4 0.000000 0.000000 0.000000 0.045184 0.000000 -0.002832
# 5 -0.006016 0.001174 0.003834 0.000000 0.036133 0.000000
# 6 0.000000 0.000000 0.000000 -0.002832 0.000000 0.033618
#
#
# Mechanical properties :
#
#
# Convention : Reuss Voigt Hill
#
# Bulk Modulus (GPa) = 49.99239 79.62115 64.80677
# Shear Modulus (GPa) = 18.39487 23.17106 20.78297
#
# Velocity S-wave (km/s) = 3.32128 3.72761 3.53029
# Velocity P-wave (km/s) = 6.68483 8.14084 7.44850
#
# Compressibility (1/GPa) = 0.02000304
#
# Stress axis : x y z
#
# Youngs Moduli (GPa) = 54.29984 24.68388 38.19897
#
# Poissons Ratio (x) = 0.21365 0.47600
# Poissons Ratio (y) = 0.46998 0.43684
# Poissons Ratio (z) = 0.67663 0.28228
#
# Static dielectric constant tensor:
#      x y z
#    x 1.543820 0.000000 0.012500 
#    y 0.000000 1.565410 0.000000 
#    z 0.012500 0.000000 1.553110 
# 
# From -- ./inp_files/37499.got.cif
#   From: 2010.05.17/outbox.cif.g08.bks.cpg/sg11_19_cif.got.tgz:37499.got - 2010.06.03 12:22:45.
