data_PCOD9162062
_publ_section_title
;
Structure prediction by ZEFSAII (Michael W. Deem and Ramdas Pophale) SiO2 
 PCOD9162062
Probable space group: P 21/M
;
_chemical_formula_sum "Si O2"
_cell_formula_units_Z 32
_cell_length_a 25.641890
_cell_length_b 8.753306
_cell_length_c 20.868937
_cell_angle_alpha 90.000000
_cell_angle_beta 157.456274
_cell_angle_gamma 90.000000
_cell_volume 1795.814320
_symmetry_space_group_name_H-M "P 21/M"
_symmetry_group_IT_number 11
_symmetry_cell_setting 'monoclinic'
loop_
_space_group_symop_operation_xyz
x,y,z
-x,1/2+y,-z
-x,-y,-z
x,1/2-y,z
loop_
_atom_site_type_symbol
_atom_site_label
_atom_site_fract_x
_atom_site_fract_y
_atom_site_fract_z
Si Si1 0.392576 0.433388 0.070290
Si Si2 0.859935 0.932512 0.010463
Si Si3 0.173289 0.068044 0.510319
Si Si4 0.581944 0.432469 0.652693
Si Si5 0.865056 0.432574 0.158538
Si Si6 0.846564 0.566976 0.663552
Si Si7 0.444376 0.932377 0.871144
Si Si8 0.572242 0.432681 0.400001
O O1 0.372806 0.250000 0.046256
O O2 0.463383 0.482559 0.084742
O O3 0.492791 0.466687 0.243608
O O4 0.250317 0.513911 0.923827
O O5 0.858746 0.750000 0.006288
O O6 0.841313 0.986162 0.063217
O O7 0.005588 0.997928 0.154028
O O8 0.734385 0.001312 0.828861
O O9 0.191710 0.250000 0.538420
O O10 0.181816 0.032502 0.443990
O O11 0.018690 0.029524 0.354441
O O12 0.291001 0.984016 0.681989
O O13 0.500000 0.500000 0.500000
O O14 0.585863 0.250000 0.654286
O O15 0.506118 0.487099 0.631101
O O16 0.858996 0.250000 0.141208
O O17 0.849430 0.750000 0.673862
O O18 0.725077 0.494017 0.566015
O O19 0.449754 0.750000 0.879964
O O20 0.500000 0.000000 0.000000
O O21 0.571247 0.250000 0.408224
#
# Coordination Sequence:
#
# PCOD9162062 Si02
#       8
#     4   4   4   4   4   4   4   4
#     4  10  21  36  57  86 118 150 194 241 288 345
#     4  11  21  36  58  86 120 157 195 240 293 347
#     4   9  19  35  55  83 116 149 189 237 287 343
#     4  12  25  42  62  87 120 159 198 240 293 351
#     4  10  20  34  57  88 117 148 192 242 292 342
#     4  10  20  35  58  89 120 153 195 245 293 342
#     4  11  23  39  58  83 115 154 194 237 290 350
#     4  11  21  37  60  90 121 153 196 244 292 345
#
# _framework density 17.819213999999999
#
# number of rings (size 3 to 8) (size 9 to 14) (size 15 to 20)
#    0.000    1.500    2.500    4.500    0.000    4.000 
#    0.000    1.250    0.000    0.000    0.000    0.000 
#    0.000    0.000    0.000    0.000    0.000    0.000 
#
# Total GULP energy -178808.125160 kJ/mol
# GULP energy per Si atom -5587.753911 kJ/mol
# Density = 1.777866 g / cm^3
# Si number density = 17.819214 Si / 1000 Ang^3
#
#
#
# Elastic Constant Matrix: (Units=GPa)
#
#
# Indices 1 2 3 4 5 6 
#
# 1 39.4632 28.3775 22.1834 0.0000 12.1240 0.0000
# 2 28.3775 84.0278 53.0239 0.0000 2.6454 0.0000
# 3 22.1834 53.0239 111.7013 0.0000 18.1411 0.0000
# 4 0.0000 0.0000 0.0000 35.8196 0.0000 4.1604
# 5 12.1240 2.6454 18.1411 0.0000 29.2907 0.0000
# 6 0.0000 0.0000 0.0000 4.1604 0.0000 30.0282
#
#
#
# Elastic Compliance Matrix: (Units=1/GPa)
#
#
# Indices 1 2 3 4 5 6 
#
# 1 0.039216 -0.013487 0.001170 0.000000 -0.015739 0.000000
# 2 -0.013487 0.022027 -0.009297 0.000000 0.009351 0.000000
# 3 0.001170 -0.009297 0.014538 0.000000 -0.008649 0.000000
# 4 0.000000 0.000000 0.000000 0.028374 0.000000 -0.003931
# 5 -0.015739 0.009351 -0.008649 0.000000 0.045167 0.000000
# 6 0.000000 0.000000 0.000000 -0.003931 0.000000 0.033847
#
#
# Mechanical properties :
#
#
# Convention : Reuss Voigt Hill
#
# Bulk Modulus (GPa) = 30.71757 49.15134 39.93445
# Shear Modulus (GPa) = 21.07510 27.80153 24.43832
#
# Velocity S-wave (km/s) = 3.44280 3.95422 3.70734
# Velocity P-wave (km/s) = 5.75149 6.96355 6.38634
#
# Compressibility (1/GPa) = 0.03255466
#
# Stress axis : x y z
#
# Youngs Moduli (GPa) = 25.49992 45.39789 68.78680
#
# Poissons Ratio (x) = 0.61226 -0.08048
# Poissons Ratio (y) = 0.34391 0.63948
# Poissons Ratio (z) = -0.02984 0.42204
#
# Static dielectric constant tensor:
#      x y z
#    x 1.595240 0.000000 0.010580 
#    y 0.000000 1.592520 0.000000 
#    z 0.010580 0.000000 1.596230 
# 
# From -- ./inp_files/67247.got.cif
#   From: 2010.05.17/outbox.cif.g08.bks.cpg/sg11_34_cif.got.tgz:67247.got - 2010.06.03 12:22:45.
