data_PCOD9162584
_publ_section_title
;
Structure prediction by ZEFSAII (Michael W. Deem and Ramdas Pophale) SiO2 
 PCOD9162584
Probable space group: P 21/M
;
_chemical_formula_sum "Si O2"
_cell_formula_units_Z 32
_cell_length_a 19.588509
_cell_length_b 13.864284
_cell_length_c 6.630251
_cell_angle_alpha 90.000000
_cell_angle_beta 41.055621
_cell_angle_gamma 90.000000
_cell_volume 1182.649992
_symmetry_space_group_name_H-M "P 21/M"
_symmetry_group_IT_number 11
_symmetry_cell_setting 'monoclinic'
loop_
_space_group_symop_operation_xyz
x,y,z
-x,1/2+y,-z
-x,-y,-z
x,1/2-y,z
loop_
_atom_site_type_symbol
_atom_site_label
_atom_site_fract_x
_atom_site_fract_y
_atom_site_fract_z
Si Si1 0.097402 0.145078 0.602020
Si Si2 0.800556 0.427212 0.038038
Si Si3 0.838982 0.643297 0.012997
Si Si4 0.949791 0.440190 0.350363
Si Si5 0.454882 0.866339 0.147780
Si Si6 0.615705 0.013445 0.313209
Si Si7 0.670807 0.639469 0.856460
Si Si8 0.248874 0.642142 0.421631
O O1 0.051311 0.250000 0.749524
O O2 0.131497 0.148521 0.290496
O O3 0.027381 0.050465 0.763485
O O4 0.207822 0.131040 0.473596
O O5 0.709493 0.409930 0.076104
O O6 0.782557 0.361261 0.268761
O O7 0.780930 0.539414 0.152386
O O8 0.906299 0.428881 0.677051
O O9 0.792910 0.750000 0.161455
O O10 0.948573 0.625620 0.884594
O O11 0.847302 0.415398 0.454252
O O12 0.439235 0.750000 0.223946
O O13 0.414186 0.944825 0.397378
O O14 0.580966 0.877719 0.887309
O O15 0.373096 0.885539 0.146341
O O16 0.500000 0.000000 0.500000
O O17 0.659184 0.923950 0.082889
O O18 0.655791 0.750000 0.952201
O O19 0.241233 0.750000 0.361126
#
# Coordination Sequence:
#
# PCOD9162584 Si02
#       8
#     4   4   4   4   4   4   4   4
#     4   9  17  31  54  80 108 142 183 229 282 336
#     4  10  20  37  59  81 115 151 187 234 284 341
#     4  10  20  35  57  87 115 148 191 234 282 338
#     4  11  21  37  58  82 116 149 191 240 278 334
#     4   8  16  29  46  72 108 145 181 225 274 326
#     4   9  15  26  50  79 108 138 182 225 270 331
#     4   9  14  25  49  78 104 141 184 221 274 334
#     4  10  22  38  55  81 115 151 192 237 284 335
#
# _framework density 27.057877999999999
#
# number of rings (size 3 to 8) (size 9 to 14) (size 15 to 20)
#    0.000    2.500    2.500    1.875    0.000    1.500 
#    0.000    1.875    0.000    0.750    0.000    0.000 
#    0.000    0.000    0.000    0.000    0.000    0.000 
#
# Total GULP energy -178225.812834 kJ/mol
# GULP energy per Si atom -5569.556651 kJ/mol
# Density = 2.699629 g / cm^3
# Si number density = 27.057878 Si / 1000 Ang^3
#
#
#
# Elastic Constant Matrix: (Units=GPa)
#
#
# Indices 1 2 3 4 5 6 
#
# 1 162.5611 30.0586 12.9230 0.0000 -36.1008 0.0000
# 2 30.0586 142.5685 26.7003 0.0000 -0.4866 0.0000
# 3 12.9230 26.7003 90.8515 0.0000 -19.4187 0.0000
# 4 0.0000 0.0000 0.0000 44.9934 0.0000 2.9646
# 5 -36.1008 -0.4866 -19.4187 0.0000 34.5895 0.0000
# 6 0.0000 0.0000 0.0000 2.9646 0.0000 33.8027
#
#
#
# Elastic Compliance Matrix: (Units=1/GPa)
#
#
# Indices 1 2 3 4 5 6 
#
# 1 0.008579 -0.002050 0.001466 0.000000 0.009748 0.000000
# 2 -0.002050 0.007962 -0.002820 0.000000 -0.003611 0.000000
# 3 0.001466 -0.002820 0.013575 0.000000 0.009111 0.000000
# 4 0.000000 0.000000 0.000000 0.022355 0.000000 -0.001961
# 5 0.009748 -0.003611 0.009111 0.000000 0.044148 0.000000
# 6 0.000000 0.000000 0.000000 -0.001961 0.000000 0.029755
#
#
# Mechanical properties :
#
#
# Convention : Reuss Voigt Hill
#
# Bulk Modulus (GPa) = 42.90614 59.48276 51.19445
# Shear Modulus (GPa) = 35.47320 44.43042 39.95181
#
# Velocity S-wave (km/s) = 3.62472 4.05662 3.84673
# Velocity P-wave (km/s) = 5.78011 6.63120 6.22023
#
# Compressibility (1/GPa) = 0.02330669
#
# Stress axis : x y z
#
# Youngs Moduli (GPa) = 116.56702 125.59318 73.66657
#
# Poissons Ratio (x) = 0.25746 -0.10797
# Poissons Ratio (y) = 0.23895 0.20775
# Poissons Ratio (z) = -0.17084 0.35420
#
# Static dielectric constant tensor:
#      x y z
#    x 2.309650 0.000000 0.048700 
#    y 0.000000 2.062840 0.000000 
#    z 0.048700 0.000000 2.181470 
# 
# From -- ./inp_files/26791.got.cif
#   From: 2010.05.17/outbox.cif.g08.bks.cpg/sg11_14_cif.got.tgz:26791.got - 2010.06.03 12:22:45.
