data_PCOD9162819
_publ_section_title
;
Structure prediction by ZEFSAII (Michael W. Deem and Ramdas Pophale) SiO2 
 PCOD9162819
Probable space group: P 21/M
;
_chemical_formula_sum "Si O2"
_cell_formula_units_Z 28
_cell_length_a 24.331946
_cell_length_b 9.024819
_cell_length_c 20.360515
_cell_angle_alpha 90.000000
_cell_angle_beta 157.869699
_cell_angle_gamma 90.000000
_cell_volume 1684.287024
_symmetry_space_group_name_H-M "P 21/M"
_symmetry_group_IT_number 11
_symmetry_cell_setting 'monoclinic'
loop_
_space_group_symop_operation_xyz
x,y,z
-x,1/2+y,-z
-x,-y,-z
x,1/2-y,z
loop_
_atom_site_type_symbol
_atom_site_label
_atom_site_fract_x
_atom_site_fract_y
_atom_site_fract_z
Si Si1 0.549478 0.428942 0.986043
Si Si2 0.518655 0.075962 0.590281
Si Si3 0.683632 0.427142 0.368739
Si Si4 0.447652 0.574531 0.639416
Si Si5 0.733827 0.075121 0.935981
Si Si6 0.882478 0.072743 0.321931
Si Si7 0.990426 0.927347 0.680429
O O1 0.540396 0.250000 0.978890
O O2 0.716819 0.471374 0.155266
O O3 0.500000 0.500000 0.000000
O O4 0.440952 0.491402 0.810782
O O5 0.491348 0.250000 0.554612
O O6 0.500000 0.000000 0.500000
O O7 0.419876 0.006016 0.539132
O O8 0.680517 0.055064 0.801751
O O9 0.671852 0.250000 0.346524
O O10 0.658026 0.460301 0.417490
O O11 0.840462 0.485487 0.519977
O O12 0.450815 0.750000 0.632638
O O13 0.610352 0.516665 0.837913
O O14 0.715602 0.250000 0.931478
O O15 0.895878 0.034124 0.135719
O O16 0.890233 0.250000 0.338367
O O17 0.927532 0.039252 0.296994
O O18 0.000000 0.000000 0.500000
O O19 0.961836 0.750000 0.650872
#
# Coordination Sequence:
#
# PCOD9162819 Si02
#       7
#     4   4   4   4   4   4   4
#     4  11  23  39  58  79 106 140 179 224 271 324
#     4   9  17  30  53  82 111 139 176 222 267 321
#     4  11  23  36  52  79 110 141 179 223 269 318
#     4   9  18  32  51  76 107 139 175 217 263 311
#     4   8  17  32  52  77 103 134 177 220 263 313
#     4  10  22  37  55  77 103 135 175 220 267 317
#     4  10  20  36  55  75 102 140 181 221 267 318
#
# _framework density 16.624244000000001
#
# number of rings (size 3 to 8) (size 9 to 14) (size 15 to 20)
#    0.857    1.429    0.000    3.000    0.000    8.000 
#    0.000    0.000    0.000    0.857    0.000    0.000 
#    0.000    0.000    0.000    0.000    0.000    0.000 
#
# Total GULP energy -155948.403635 kJ/mol
# GULP energy per Si atom -5569.585844 kJ/mol
# Density = 1.658641 g / cm^3
# Si number density = 16.624244 Si / 1000 Ang^3
#
#
#
# Elastic Constant Matrix: (Units=GPa)
#
#
# Indices 1 2 3 4 5 6 
#
# 1 127.6534 62.7758 70.3140 0.0000 0.2449 0.0000
# 2 62.7758 59.4241 50.8744 0.0000 -0.5446 0.0000
# 3 70.3140 50.8744 112.4749 0.0000 8.0942 0.0000
# 4 0.0000 0.0000 0.0000 25.1700 0.0000 -1.2262
# 5 0.2449 -0.5446 8.0942 0.0000 27.9585 0.0000
# 6 0.0000 0.0000 0.0000 -1.2262 0.0000 29.2084
#
#
#
# Elastic Compliance Matrix: (Units=1/GPa)
#
#
# Indices 1 2 3 4 5 6 
#
# 1 0.017453 -0.014752 -0.004296 0.000000 0.000803 0.000000
# 2 -0.014752 0.040429 -0.009324 0.000000 0.003616 0.000000
# 3 -0.004296 -0.009324 0.016141 0.000000 -0.004817 0.000000
# 4 0.000000 0.000000 0.000000 0.039811 0.000000 0.001671
# 5 0.000803 0.003616 -0.004817 0.000000 0.037225 0.000000
# 6 0.000000 0.000000 0.000000 0.001671 0.000000 0.034307
#
#
# Mechanical properties :
#
#
# Convention : Reuss Voigt Hill
#
# Bulk Modulus (GPa) = 57.87994 74.16452 66.02223
# Shear Modulus (GPa) = 20.17185 24.17325 22.17255
#
# Velocity S-wave (km/s) = 3.48717 3.81740 3.65601
# Velocity P-wave (km/s) = 7.14884 8.00869 7.59095
#
# Compressibility (1/GPa) = 0.01727714
#
# Stress axis : x y z
#
# Youngs Moduli (GPa) = 57.29602 24.73502 61.95514
#
# Poissons Ratio (x) = 0.36490 0.26616
# Poissons Ratio (y) = 0.84525 0.57769
# Poissons Ratio (z) = 0.24614 0.23064
#
# Static dielectric constant tensor:
#      x y z
#    x 1.559950 0.000000 -0.011200 
#    y 0.000000 1.557620 0.000000 
#    z -0.011200 0.000000 1.551620 
# 
# From -- ./inp_files/66762.got.cif
#   From: 2010.05.17/outbox.cif.g08.bks.cpg/sg11_34_cif.got.tgz:66762.got - 2010.06.03 12:22:45.
