data_PCOD9162137
_publ_section_title
;
Structure prediction by ZEFSAII (Michael W. Deem and Ramdas Pophale) SiO2 
 PCOD9162137
Probable space group: P 21/M
;
_chemical_formula_sum "Si O2"
_cell_formula_units_Z 32
_cell_length_a 18.492096
_cell_length_b 7.471873
_cell_length_c 24.798263
_cell_angle_alpha 90.000000
_cell_angle_beta 153.003087
_cell_angle_gamma 90.000000
_cell_volume 1555.384337
_symmetry_space_group_name_H-M "P 21/M"
_symmetry_group_IT_number 11
_symmetry_cell_setting 'monoclinic'
loop_
_space_group_symop_operation_xyz
x,y,z
-x,1/2+y,-z
-x,-y,-z
x,1/2-y,z
loop_
_atom_site_type_symbol
_atom_site_label
_atom_site_fract_x
_atom_site_fract_y
_atom_site_fract_z
Si Si1 0.976240 0.462778 0.547556
Si Si2 0.522822 0.536311 0.878545
Si Si3 0.515697 0.461604 0.375677
Si Si4 0.384527 0.530482 0.673110
Si Si5 0.185713 0.964623 0.859843
Si Si6 0.660468 0.536123 0.640638
Si Si7 0.294358 0.954661 0.819317
Si Si8 0.164375 0.466876 0.344722
O O1 0.985049 0.250000 0.561676
O O2 0.800806 0.524036 0.448446
O O3 0.000000 0.500000 0.500000
O O4 0.119803 0.546185 0.676447
O O5 0.495774 0.750000 0.859125
O O6 0.468400 0.470319 0.783976
O O7 0.412411 0.462401 0.853656
O O8 0.703639 0.502126 0.015484
O O9 0.484874 0.250000 0.350553
O O10 0.531645 0.532882 0.325883
O O11 0.382375 0.535320 0.328423
O O12 0.687862 0.481323 0.519048
O O13 0.384849 0.750000 0.672757
O O14 0.174767 0.750000 0.846037
O O15 0.272708 0.036947 0.863995
O O16 0.005825 0.031267 0.747248
O O17 0.500000 0.500000 0.500000
O O18 0.680637 0.750000 0.658901
O O19 0.797576 0.470774 0.691257
O O20 0.348471 0.750000 0.863365
O O21 0.162078 0.250000 0.342386
#
# Coordination Sequence:
#
# PCOD9162137 Si02
#       8
#     4   4   4   4   4   4   4   4
#     4  11  20  32  50  71  97 125 154 189 233 282
#     4  10  20  35  50  63  89 125 159 199 239 272
#     4   9  16  28  49  74  95 119 155 187 220 278
#     4   9  18  32  48  68  95 123 152 193 233 267
#     4  10  21  34  49  69  93 122 159 199 234 278
#     4   8  14  25  44  69  95 122 147 178 225 277
#     4  10  20  35  51  69  94 121 155 199 242 277
#     4   9  17  30  46  69 101 125 144 184 238 277
#
# _framework density 20.573692000000001
#
# number of rings (size 3 to 8) (size 9 to 14) (size 15 to 20)
#    0.000    2.500    1.250    1.500    0.000    1.500 
#    0.000    1.250    0.000    0.750    0.000    0.000 
#    0.000    0.000    0.000    0.000    0.000    0.000 
#
# Total GULP energy -178552.005017 kJ/mol
# GULP energy per Si atom -5579.750157 kJ/mol
# Density = 2.052687 g / cm^3
# Si number density = 20.573692 Si / 1000 Ang^3
#
#
#
# Elastic Constant Matrix: (Units=GPa)
#
#
# Indices 1 2 3 4 5 6 
#
# 1 158.6437 8.9260 24.6766 0.0000 -12.6780 0.0000
# 2 8.9260 65.3504 -8.5597 0.0000 2.8336 0.0000
# 3 24.6766 -8.5597 60.2587 0.0000 -12.8379 0.0000
# 4 0.0000 0.0000 0.0000 16.2221 0.0000 0.4797
# 5 -12.6780 2.8336 -12.8379 0.0000 11.8211 0.0000
# 6 0.0000 0.0000 0.0000 0.4797 0.0000 -2.2523
#
#
#
# Elastic Compliance Matrix: (Units=1/GPa)
#
#
# Indices 1 2 3 4 5 6 
#
# 1 0.007157 -0.001482 -0.001861 0.000000 0.006010 0.000000
# 2 -0.001482 0.015926 0.002234 0.000000 -0.002981 0.000000
# 3 -0.001861 0.002234 0.022293 0.000000 0.021680 0.000000
# 4 0.000000 0.000000 0.000000 0.061258 0.000000 0.013046
# 5 0.006010 -0.002981 0.021680 0.000000 0.115299 0.000000
# 6 0.000000 0.000000 0.000000 0.013046 0.000000 -0.441216
#
#
# Mechanical properties :
#
#
# Convention : Reuss Voigt Hill
#
# Bulk Modulus (GPa) = 23.17004 37.14873 30.15938
# Shear Modulus (GPa) = -24.66950 22.43886 -1.11532
#
# Velocity S-wave (km/s) = -3.46653 3.30609 -0.73708
# Velocity P-wave (km/s) = 2.17624 5.71571 3.73720
#
# Compressibility (1/GPa) = 0.04315919
#
# Stress axis : x y z
#
# Youngs Moduli (GPa) = 139.73301 62.78890 44.85663
#
# Poissons Ratio (x) = 0.09304 0.08347
# Poissons Ratio (y) = 0.20706 -0.10022
# Poissons Ratio (z) = 0.26002 -0.14028
#
# Static dielectric constant tensor:
#      x y z
#    x 1.787030 0.000000 -0.000160 
#    y 0.000000 1.783010 0.000000 
#    z -0.000160 0.000000 1.677690 
# 
# From -- ./inp_files/42546.got.cif
#   From: 2010.05.17/outbox.cif.g08.bks.cpg/sg11_22_cif.got.tgz:42546.got - 2010.06.03 12:22:45.
