data_PCOD9162990
_publ_section_title
;
Structure prediction by ZEFSAII (Michael W. Deem and Ramdas Pophale) SiO2 
 PCOD9162990
Probable space group: P 21/M
;
_chemical_formula_sum "Si O2"
_cell_formula_units_Z 30
_cell_length_a 14.998668
_cell_length_b 12.035908
_cell_length_c 9.075639
_cell_angle_alpha 90.000000
_cell_angle_beta 90.186810
_cell_angle_gamma 90.000000
_cell_volume 1638.349133
_symmetry_space_group_name_H-M "P 21/M"
_symmetry_group_IT_number 11
_symmetry_cell_setting 'monoclinic'
loop_
_space_group_symop_operation_xyz
x,y,z
-x,1/2+y,-z
-x,-y,-z
x,1/2-y,z
loop_
_atom_site_type_symbol
_atom_site_label
_atom_site_fract_x
_atom_site_fract_y
_atom_site_fract_z
Si Si1 0.815529 0.618490 0.443768
Si Si2 0.390586 0.121036 0.476428
Si Si3 0.911441 0.250000 0.440918
Si Si4 0.499445 0.972158 0.251249
Si Si5 0.090431 0.542464 0.334462
Si Si6 0.191091 0.616505 0.060014
Si Si7 0.393319 0.879426 0.977194
Si Si8 0.902096 0.037972 0.223847
O O1 0.832541 0.750000 0.432694
O O2 0.713789 0.600898 0.494166
O O3 0.880528 0.560368 0.562417
O O4 0.835175 0.552837 0.293681
O O5 0.402534 0.250000 0.437444
O O6 0.444122 0.095202 0.627466
O O7 0.430391 0.044991 0.347267
O O8 0.923808 0.151145 0.566322
O O9 0.894663 0.151684 0.316332
O O10 0.564195 0.050086 0.154656
O O11 0.447586 0.900620 0.128719
O O12 0.168386 0.568614 0.219495
O O13 0.000631 0.510008 0.249554
O O14 0.182095 0.750000 0.064688
O O15 0.291030 0.590080 0.008066
O O16 0.123368 0.564902 0.942356
O O17 0.397439 0.750000 0.938629
#
# Coordination Sequence:
#
# PCOD9162990 Si02
#       8
#     4   4   2   4   4   4   4   4
#     4  10  22  37  58  86 117 156 191 241 286 344
#     4  10  20  36  57  83 118 145 187 237 285 331
#     4  10  20  38  58  86 104 154 188 246 280 334
#     4  10  20  36  58  84 112 146 192 228 282 342
#     4  11  23  37  62  83 118 152 197 236 286 339
#     4  11  22  40  57  84 119 149 193 241 286 335
#     4  10  21  36  59  81 112 151 186 229 282 337
#     4  11  23  37  62  83 118 152 197 236 286 339
#
# _framework density 18.311114
#
# number of rings (size 3 to 8) (size 9 to 14) (size 15 to 20)
#    0.000    1.600    1.333    4.400    3.733    0.000 
#    0.000    0.667    8.800    4.800    0.000    0.000 
#    0.000    0.000    0.000    0.000    0.000    0.000 
#
# Total GULP energy -167023.885850 kJ/mol
# GULP energy per Si atom -5567.462862 kJ/mol
# Density = 1.826944 g / cm^3
# Si number density = 18.311114 Si / 1000 Ang^3
#
#
#
# Elastic Constant Matrix: (Units=GPa)
#
#
# Indices 1 2 3 4 5 6 
#
# 1 50.1466 26.0730 -4.8309 0.0000 -8.1583 0.0000
# 2 26.0730 87.7884 6.2190 0.0000 -12.4250 0.0000
# 3 -4.8309 6.2190 53.8487 0.0000 -3.0268 0.0000
# 4 0.0000 0.0000 0.0000 1.1673 0.0000 16.5178
# 5 -8.1583 -12.4250 -3.0268 0.0000 25.4499 0.0000
# 6 0.0000 0.0000 0.0000 16.5178 0.0000 3.5612
#
#
#
# Elastic Compliance Matrix: (Units=1/GPa)
#
#
# Indices 1 2 3 4 5 6 
#
# 1 0.024620 -0.006845 0.003277 0.000000 0.004940 0.000000
# 2 -0.006845 0.014203 -0.002001 0.000000 0.004502 0.000000
# 3 0.003277 -0.002001 0.019228 0.000000 0.002360 0.000000
# 4 0.000000 0.000000 0.000000 -0.013254 0.000000 0.061477
# 5 0.004940 0.004502 0.002360 0.000000 0.043355 0.000000
# 6 0.000000 0.000000 0.000000 0.061477 0.000000 -0.004345
#
#
# Mechanical properties :
#
#
# Convention : Reuss Voigt Hill
#
# Bulk Modulus (GPa) = 21.31638 27.41178 24.36408
# Shear Modulus (GPa) = 45.21470 16.99052 31.10261
#
# Velocity S-wave (km/s) = 4.97454 3.04942 4.12584
# Velocity P-wave (km/s) = 6.68291 5.23461 6.00260
#
# Compressibility (1/GPa) = 0.04691227
#
# Stress axis : x y z
#
# Youngs Moduli (GPa) = 40.61759 70.40809 52.00654
#
# Poissons Ratio (x) = 0.48195 -0.17042
# Poissons Ratio (y) = 0.27803 0.10408
# Poissons Ratio (z) = -0.13310 0.14091
#
# Static dielectric constant tensor:
#      x y z
#    x 1.642890 0.000000 -0.010940 
#    y 0.000000 1.592540 0.000000 
#    z -0.010940 0.000000 1.609380 
# 
# From -- ./inp_files/21226.got.cif
#   From: 2010.05.17/outbox.cif.g08.bks.cpg/sg11_11_cif.got.tgz:21226.got - 2010.06.03 12:22:45.
