data_PCOD9162713
_publ_section_title
;
Structure prediction by ZEFSAII (Michael W. Deem and Ramdas Pophale) SiO2 
 PCOD9162713
Probable space group: P 21/M
;
_chemical_formula_sum "Si O2"
_cell_formula_units_Z 32
_cell_length_a 15.256186
_cell_length_b 14.721209
_cell_length_c 20.756218
_cell_angle_alpha 90.000000
_cell_angle_beta 19.559103
_cell_angle_gamma 90.000000
_cell_volume 1560.615647
_symmetry_space_group_name_H-M "P 21/M"
_symmetry_group_IT_number 11
_symmetry_cell_setting 'monoclinic'
loop_
_space_group_symop_operation_xyz
x,y,z
-x,1/2+y,-z
-x,-y,-z
x,1/2-y,z
loop_
_atom_site_type_symbol
_atom_site_label
_atom_site_fract_x
_atom_site_fract_y
_atom_site_fract_z
Si Si1 0.446850 0.649054 0.247780
Si Si2 0.728356 0.572663 0.487545
Si Si3 0.483504 0.941828 0.779442
Si Si4 0.478226 0.575884 0.460530
Si Si5 0.935202 0.847086 0.816227
Si Si6 0.961946 0.646179 0.191180
Si Si7 0.123655 0.355785 0.390379
Si Si8 0.799475 0.971565 0.791769
O O1 0.418534 0.750000 0.300923
O O2 0.471656 0.550073 0.263552
O O3 0.189084 0.641957 0.381239
O O4 0.710656 0.654003 0.024432
O O5 0.527695 0.609446 0.680493
O O6 0.582964 0.482404 0.560667
O O7 0.829842 0.623732 0.352690
O O8 0.987841 0.551664 0.350317
O O9 0.700414 0.907109 0.679675
O O10 0.203043 0.919791 0.006116
O O11 0.500000 0.500000 0.500000
O O12 0.740183 0.632895 0.289758
O O13 0.216823 0.633736 0.651604
O O14 0.945268 0.750000 0.775460
O O15 0.860349 0.920115 0.815644
O O16 0.054457 0.750000 0.128420
O O17 0.202832 0.250000 0.331746
O O18 0.154243 0.406730 0.301028
O O19 0.500000 0.000000 0.000000
#
# Coordination Sequence:
#
# PCOD9162713 Si02
#       8
#     4   4   4   4   4   4   4   4
#     4  10  21  37  58  88 124 166 214 265 319 378
#     4  10  23  40  65  93 123 168 216 269 324 384
#     4  12  23  41  65  91 133 174 213 266 325 384
#     4   9  19  40  64  90 119 156 205 264 325 376
#     4  10  20  35  59  88 117 155 203 260 318 378
#     4  11  24  43  67  96 131 171 215 267 328 393
#     4  11  23  38  58  88 129 170 212 263 319 383
#     4  11  21  36  59  86 121 164 212 261 312 378
#
# _framework density 20.504728
#
# number of rings (size 3 to 8) (size 9 to 14) (size 15 to 20)
#    0.000    1.500    1.250    5.250    1.750    1.500 
#    0.000    1.250    0.000    3.000    0.000    0.000 
#    0.000    0.000    0.000    0.000    0.000    0.000 
#
# Total GULP energy -178327.603527 kJ/mol
# GULP energy per Si atom -5572.737610 kJ/mol
# Density = 2.045806 g / cm^3
# Si number density = 20.504728 Si / 1000 Ang^3
#
#
#
# Elastic Constant Matrix: (Units=GPa)
#
#
# Indices 1 2 3 4 5 6 
#
# 1 79.3550 18.3512 40.3516 0.0000 -6.1995 0.0000
# 2 18.3512 83.8204 24.9514 0.0000 -6.7389 0.0000
# 3 40.3516 24.9514 94.4694 0.0000 -15.1197 0.0000
# 4 0.0000 0.0000 0.0000 24.1872 0.0000 -3.8064
# 5 -6.1995 -6.7389 -15.1197 0.0000 32.4764 0.0000
# 6 0.0000 0.0000 0.0000 -3.8064 0.0000 12.5684
#
#
#
# Elastic Compliance Matrix: (Units=1/GPa)
#
#
# Indices 1 2 3 4 5 6 
#
# 1 0.016302 -0.001634 -0.006578 0.000000 -0.000290 0.000000
# 2 -0.001634 0.013154 -0.002582 0.000000 0.001216 0.000000
# 3 -0.006578 -0.002582 0.014901 0.000000 0.005146 0.000000
# 4 0.000000 0.000000 0.000000 0.043413 0.000000 0.013148
# 5 -0.000290 0.001216 0.005146 0.000000 0.033384 0.000000
# 6 0.000000 0.000000 0.000000 0.013148 0.000000 0.083546
#
#
# Mechanical properties :
#
#
# Convention : Reuss Voigt Hill
#
# Bulk Modulus (GPa) = 43.91939 47.21703 45.56821
# Shear Modulus (GPa) = 21.37872 25.44579 23.41225
#
# Velocity S-wave (km/s) = 3.23247 3.52656 3.38272
# Velocity P-wave (km/s) = 5.94958 6.29759 6.12605
#
# Compressibility (1/GPa) = 0.02276899
#
# Stress axis : x y z
#
# Youngs Moduli (GPa) = 61.34330 76.02069 67.11165
#
# Poissons Ratio (x) = 0.12424 0.44145
# Poissons Ratio (y) = 0.10025 0.17326
# Poissons Ratio (z) = 0.40351 0.19626
#
# Static dielectric constant tensor:
#      x y z
#    x 1.701300 0.000000 0.013630 
#    y 0.000000 1.819920 0.000000 
#    z 0.013630 0.000000 1.767770 
# 
# From -- ./inp_files/65760.got.cif
#   From: 2010.05.17/outbox.cif.g08.bks.cpg/sg11_33_cif.got.tgz:65760.got - 2010.06.03 12:22:45.
