data_PCOD9162485
_publ_section_title
;
Structure prediction by ZEFSAII (Michael W. Deem and Ramdas Pophale) SiO2 
 PCOD9162485
Probable space group: P 21/M
;
_chemical_formula_sum "Si O2"
_cell_formula_units_Z 24
_cell_length_a 7.130932
_cell_length_b 10.121083
_cell_length_c 20.923177
_cell_angle_alpha 90.000000
_cell_angle_beta 138.265750
_cell_angle_gamma 90.000000
_cell_volume 1005.227066
_symmetry_space_group_name_H-M "P 21/M"
_symmetry_group_IT_number 11
_symmetry_cell_setting 'monoclinic'
loop_
_space_group_symop_operation_xyz
x,y,z
-x,1/2+y,-z
-x,-y,-z
x,1/2-y,z
loop_
_atom_site_type_symbol
_atom_site_label
_atom_site_fract_x
_atom_site_fract_y
_atom_site_fract_z
Si Si1 0.862578 0.105798 0.173431
Si Si2 0.807755 0.601592 0.866352
Si Si3 0.557421 0.389025 0.580806
Si Si4 0.021895 0.057358 0.357697
Si Si5 0.262855 0.906991 0.588676
Si Si6 0.586377 0.098336 0.909094
O O1 0.734858 0.250000 0.124559
O O2 0.121530 0.089571 0.190437
O O3 0.647809 0.985008 0.112795
O O4 0.948073 0.109597 0.269437
O O5 0.694992 0.750000 0.850745
O O6 0.639990 0.484557 0.857845
O O7 0.119289 0.597402 0.978056
O O8 0.546435 0.250000 0.613454
O O9 0.859900 0.409590 0.624512
O O10 0.304131 0.386974 0.464556
O O11 0.502413 0.513136 0.612507
O O12 0.771151 0.081761 0.343557
O O13 0.252351 0.750000 0.570045
O O14 0.000000 0.000000 0.500000
O O15 0.504522 0.250000 0.877313
#
# Coordination Sequence:
#
# PCOD9162485 Si02
#       6
#     4   4   4   4   4   4
#     4  11  22  37  59  86 116 149 189 235 281 334
#     4   9  20  39  62  86 113 151 191 226 274 337
#     4  10  22  40  61  82 109 150 195 238 286 337
#     4  10  22  37  57  84 114 147 189 236 284 334
#     4  10  20  35  57  81 107 142 185 232 280 333
#     4  10  21  38  60  86 117 150 186 230 279 334
#
# _framework density 23.875202999999999
#
# number of rings (size 3 to 8) (size 9 to 14) (size 15 to 20)
#    0.000    2.000    0.000    4.000    0.000   11.333 
#    0.000    3.333    0.000    0.000    0.000    0.000 
#    0.000    0.000    0.000    0.000    0.000    0.000 
#
# Total GULP energy -133971.533430 kJ/mol
# GULP energy per Si atom -5582.147226 kJ/mol
# Density = 2.382086 g / cm^3
# Si number density = 23.875203 Si / 1000 Ang^3
#
#
#
# Elastic Constant Matrix: (Units=GPa)
#
#
# Indices 1 2 3 4 5 6 
#
# 1 128.4050 76.5302 4.6824 0.0000 -17.2806 0.0000
# 2 76.5302 222.7540 35.9752 0.0000 -3.8798 0.0000
# 3 4.6824 35.9752 75.8724 0.0000 -23.6341 0.0000
# 4 0.0000 0.0000 0.0000 -5.1746 0.0000 -11.9568
# 5 -17.2806 -3.8798 -23.6341 0.0000 42.5303 0.0000
# 6 0.0000 0.0000 0.0000 -11.9568 0.0000 28.5730
#
#
#
# Elastic Compliance Matrix: (Units=1/GPa)
#
#
# Indices 1 2 3 4 5 6 
#
# 1 0.010929 -0.004154 0.003096 0.000000 0.005782 0.000000
# 2 -0.004154 0.006477 -0.003817 0.000000 -0.003218 0.000000
# 3 0.003096 -0.003817 0.018240 0.000000 0.011046 0.000000
# 4 0.000000 0.000000 0.000000 -0.098250 0.000000 -0.041114
# 5 0.005782 -0.003218 0.011046 0.000000 0.031707 0.000000
# 6 0.000000 0.000000 0.000000 -0.041114 0.000000 0.017793
#
#
# Mechanical properties :
#
#
# Convention : Reuss Voigt Hill
#
# Bulk Modulus (GPa) = 38.61648 73.48966 56.05307
# Shear Modulus (GPa) = 947.51217 33.84197 490.67707
#
# Velocity S-wave (km/s) = 19.94297 3.76899 14.35143
# Velocity P-wave (km/s) = 23.37745 7.05606 17.26692
#
# Compressibility (1/GPa) = 0.02589568
#
# Stress axis : x y z
#
# Youngs Moduli (GPa) = 91.49925 154.39457 54.82594
#
# Poissons Ratio (x) = 0.64138 -0.16976
# Poissons Ratio (y) = 0.38011 0.20928
# Poissons Ratio (z) = -0.28332 0.58935
#
# Static dielectric constant tensor:
#      x y z
#    x 1.974870 0.000000 0.011890 
#    y 0.000000 1.992980 0.000000 
#    z 0.011890 0.000000 1.977190 
# 
# From -- ./inp_files/67820.got.cif
#   From: 2010.05.17/outbox.cif.g08.bks.cpg/sg11_34_cif.got.tgz:67820.got - 2010.06.03 12:22:45.
