data_PCOD9162878
_publ_section_title
;
Structure prediction by ZEFSAII (Michael W. Deem and Ramdas Pophale) SiO2 
 PCOD9162878
Probable space group: P 21/M
;
_chemical_formula_sum "Si O2"
_cell_formula_units_Z 28
_cell_length_a 20.758882
_cell_length_b 9.304714
_cell_length_c 23.583690
_cell_angle_alpha 90.000000
_cell_angle_beta 19.233210
_cell_angle_gamma 90.000000
_cell_volume 1500.585569
_symmetry_space_group_name_H-M "P 21/M"
_symmetry_group_IT_number 11
_symmetry_cell_setting 'monoclinic'
loop_
_space_group_symop_operation_xyz
x,y,z
-x,1/2+y,-z
-x,-y,-z
x,1/2-y,z
loop_
_atom_site_type_symbol
_atom_site_label
_atom_site_fract_x
_atom_site_fract_y
_atom_site_fract_z
Si Si1 0.554750 0.424709 0.106974
Si Si2 0.856339 0.913073 0.078707
Si Si3 0.551200 0.413073 0.513754
Si Si4 0.930424 0.424709 0.731300
Si Si5 0.254751 0.417488 0.551581
Si Si6 0.664245 0.082512 0.142086
Si Si7 0.105111 0.075429 0.464962
O O1 0.553053 0.250000 0.110130
O O2 0.629125 0.469805 0.107378
O O3 0.333055 0.467824 0.279173
O O4 0.712714 0.470449 0.929095
O O5 0.925233 0.750000 0.013619
O O6 0.647145 0.909207 0.284285
O O7 0.816150 0.992157 0.052787
O O8 0.000000 0.000000 0.000000
O O9 0.500000 0.500000 0.500000
O O10 0.608676 0.250000 0.452472
O O11 0.709338 0.492157 0.421725
O O12 0.936500 0.250000 0.726685
O O13 0.080384 0.469807 0.656118
O O14 0.003631 0.467822 0.608596
O O15 0.220631 0.250000 0.594545
O O16 0.453743 0.422840 0.348752
O O17 0.724898 0.250000 0.090277
O O18 0.095170 0.250000 0.468275
O O19 0.000000 0.000000 0.500000
#
# Coordination Sequence:
#
# PCOD9162878 Si02
#       7
#     4   4   4   4   4   4   4
#     4   9  17  31  54  81 106 137 180 222 263 319
#     4  10  21  35  51  74 105 142 181 222 271 324
#     4  10  21  35  51  74 105 142 181 222 271 324
#     4   9  17  31  54  81 106 137 180 222 263 319
#     4   9  16  30  52  74  98 133 176 222 271 321
#     4   9  16  30  52  74  98 133 176 222 271 321
#     4  10  20  36  56  80 110 144 178 218 268 320
#
# _framework density 18.659381
#
# number of rings (size 3 to 8) (size 9 to 14) (size 15 to 20)
#    0.000    2.571    1.429    0.857    0.000    3.429 
#    0.000    4.286    0.000    1.714    0.000    0.000 
#    0.000    0.000    0.000    0.000    0.000    0.000 
#
# Total GULP energy -156224.377698 kJ/mol
# GULP energy per Si atom -5579.442061 kJ/mol
# Density = 1.861691 g / cm^3
# Si number density = 18.659381 Si / 1000 Ang^3
#
#
#
# Elastic Constant Matrix: (Units=GPa)
#
#
# Indices 1 2 3 4 5 6 
#
# 1 188.5455 64.4535 79.9444 0.0000 -13.6504 0.0000
# 2 64.4535 67.7606 34.5239 0.0000 -6.0973 0.0000
# 3 79.9444 34.5239 95.4693 0.0000 -5.3122 0.0000
# 4 0.0000 0.0000 0.0000 11.5642 0.0000 -4.9786
# 5 -13.6504 -6.0973 -5.3122 0.0000 22.4966 0.0000
# 6 0.0000 0.0000 0.0000 -4.9786 0.0000 36.0032
#
#
#
# Elastic Compliance Matrix: (Units=1/GPa)
#
#
# Indices 1 2 3 4 5 6 
#
# 1 0.010330 -0.006410 -0.006161 0.000000 0.003076 0.000000
# 2 -0.006410 0.022329 -0.002621 0.000000 0.001544 0.000000
# 3 -0.006161 -0.002621 0.016552 0.000000 -0.000540 0.000000
# 4 0.000000 0.000000 0.000000 0.091948 0.000000 0.012715
# 5 0.003076 0.001544 -0.000540 0.000000 0.046608 0.000000
# 6 0.000000 0.000000 0.000000 0.012715 0.000000 0.029534
#
#
# Mechanical properties :
#
#
# Convention : Reuss Voigt Hill
#
# Bulk Modulus (GPa) = 53.11712 78.84657 65.98185
# Shear Modulus (GPa) = 19.68807 25.53638 22.61222
#
# Velocity S-wave (km/s) = 3.25180 3.70341 3.48493
# Velocity P-wave (km/s) = 6.52897 7.78681 7.18547
#
# Compressibility (1/GPa) = 0.01882632
#
# Stress axis : x y z
#
# Youngs Moduli (GPa) = 96.80552 44.78384 60.41730
#
# Poissons Ratio (x) = 0.28707 0.37223
# Poissons Ratio (y) = 0.62053 0.15837
# Poissons Ratio (z) = 0.59642 0.11739
#
# Static dielectric constant tensor:
#      x y z
#    x 1.610870 0.000000 0.012670 
#    y 0.000000 1.632110 0.000000 
#    z 0.012670 0.000000 1.673050 
# 
# From -- ./inp_files/66730.got.cif
#   From: 2010.05.17/outbox.cif.g08.bks.cpg/sg11_34_cif.got.tgz:66730.got - 2010.06.03 12:22:45.
