data_PCOD9162864
_publ_section_title
;
Structure prediction by ZEFSAII (Michael W. Deem and Ramdas Pophale) SiO2 
 PCOD9162864
Probable space group: P 21/M
;
_chemical_formula_sum "Si O2"
_cell_formula_units_Z 32
_cell_length_a 9.191154
_cell_length_b 13.556069
_cell_length_c 20.871120
_cell_angle_alpha 90.000000
_cell_angle_beta 142.636193
_cell_angle_gamma 90.000000
_cell_volume 1578.149081
_symmetry_space_group_name_H-M "P 21/M"
_symmetry_group_IT_number 11
_symmetry_cell_setting 'monoclinic'
loop_
_space_group_symop_operation_xyz
x,y,z
-x,1/2+y,-z
-x,-y,-z
x,1/2-y,z
loop_
_atom_site_type_symbol
_atom_site_label
_atom_site_fract_x
_atom_site_fract_y
_atom_site_fract_z
Si Si1 0.296611 0.368316 0.687006
Si Si2 0.714232 0.471970 0.618891
Si Si3 0.949186 0.136563 0.318623
Si Si4 0.516085 0.136290 0.074943
Si Si5 0.869209 0.132106 0.438292
Si Si6 0.385306 0.490173 0.274611
Si Si7 0.838199 0.489005 0.099005
Si Si8 0.134756 0.138504 0.770508
O O1 0.318724 0.250000 0.689236
O O2 0.527206 0.426186 0.743059
O O3 0.265129 0.392248 0.750972
O O4 0.067999 0.397875 0.561464
O O5 0.500000 0.500000 0.500000
O O6 0.617620 0.463627 0.656010
O O7 0.896664 0.562763 0.670502
O O8 0.856760 0.373103 0.652734
O O9 0.031751 0.250000 0.340715
O O10 0.681619 0.132340 0.196030
O O11 0.955603 0.109528 0.395785
O O12 0.436127 0.250000 0.039206
O O13 0.685928 0.102022 0.074460
O O14 0.309773 0.053532 0.004004
O O15 0.852542 0.250000 0.436859
O O16 0.600798 0.089047 0.350885
O O17 0.105116 0.460535 0.169505
O O18 0.844412 0.567163 0.161212
O O19 0.197579 0.250000 0.808802
#
# Coordination Sequence:
#
# PCOD9162864 Si02
#       8
#     4   4   4   4   4   4   4   4
#     4  10  21  36  55  80 116 160 194 222 273 339
#     4  11  21  33  52  83 114 145 189 237 284 332
#     4  10  20  37  59  80 110 154 193 228 274 338
#     4  10  20  39  64  83 110 148 190 235 287 341
#     4  10  21  36  56  82 115 158 194 222 270 338
#     4  11  21  33  54  84 114 145 178 240 286 323
#     4  10  22  38  60  91 109 141 191 242 291 333
#     4  10  20  36  56  79 111 152 189 229 280 338
#
# _framework density 20.276917999999998
#
# number of rings (size 3 to 8) (size 9 to 14) (size 15 to 20)
#    0.000    1.750    2.500    3.000    0.000    4.000 
#    0.000    0.625    0.000    0.000    0.000    0.000 
#    0.000    0.000    0.000    0.000    0.000    0.000 
#
# Total GULP energy -178429.908797 kJ/mol
# GULP energy per Si atom -5575.934650 kJ/mol
# Density = 2.023077 g / cm^3
# Si number density = 20.276918 Si / 1000 Ang^3
#
#
#
# Elastic Constant Matrix: (Units=GPa)
#
#
# Indices 1 2 3 4 5 6 
#
# 1 83.9752 16.3630 -4.9127 0.0000 -0.3134 0.0000
# 2 16.3630 68.3709 -1.8937 0.0000 -5.9040 0.0000
# 3 -4.9127 -1.8937 51.0491 0.0000 7.1023 0.0000
# 4 0.0000 0.0000 0.0000 26.8040 0.0000 -5.2361
# 5 -0.3134 -5.9040 7.1023 0.0000 28.4213 0.0000
# 6 0.0000 0.0000 0.0000 -5.2361 0.0000 12.7648
#
#
#
# Elastic Compliance Matrix: (Units=1/GPa)
#
#
# Indices 1 2 3 4 5 6 
#
# 1 0.012569 -0.003043 0.001207 0.000000 -0.000795 0.000000
# 2 -0.003043 0.015631 -0.000166 0.000000 0.003255 0.000000
# 3 0.001207 -0.000166 0.020412 0.000000 -0.005122 0.000000
# 4 0.000000 0.000000 0.000000 0.040558 0.000000 0.016637
# 5 -0.000795 0.003255 -0.005122 0.000000 0.037132 0.000000
# 6 0.000000 0.000000 0.000000 0.016637 0.000000 0.085165
#
#
# Mechanical properties :
#
#
# Convention : Reuss Voigt Hill
#
# Bulk Modulus (GPa) = 22.41766 24.72317 23.57041
# Shear Modulus (GPa) = 21.70711 26.52058 24.11384
#
# Velocity S-wave (km/s) = 3.27545 3.62044 3.45226
# Velocity P-wave (km/s) = 5.03830 5.44941 5.24788
#
# Compressibility (1/GPa) = 0.04460770
#
# Stress axis : x y z
#
# Youngs Moduli (GPa) = 79.56111 63.97572 48.99171
#
# Poissons Ratio (x) = 0.19470 -0.05915
# Poissons Ratio (y) = 0.24213 0.00813
# Poissons Ratio (z) = -0.09606 0.01061
#
# Static dielectric constant tensor:
#      x y z
#    x 1.702380 0.000000 0.016610 
#    y 0.000000 1.754690 0.000000 
#    z 0.016610 0.000000 1.827530 
# 
# From -- ./inp_files/26820.got.cif
#   From: 2010.05.17/outbox.cif.g08.bks.cpg/sg11_14_cif.got.tgz:26820.got - 2010.06.03 12:22:45.
