data_PCOD9162145
_publ_section_title
;
Structure prediction by ZEFSAII (Michael W. Deem and Ramdas Pophale) SiO2 
 PCOD9162145
Probable space group: P 21/M
;
_chemical_formula_sum "Si O2"
_cell_formula_units_Z 28
_cell_length_a 15.023212
_cell_length_b 14.258206
_cell_length_c 8.300568
_cell_angle_alpha 90.000000
_cell_angle_beta 126.923880
_cell_angle_gamma 90.000000
_cell_volume 1421.406490
_symmetry_space_group_name_H-M "P 21/M"
_symmetry_group_IT_number 11
_symmetry_cell_setting 'monoclinic'
loop_
_space_group_symop_operation_xyz
x,y,z
-x,1/2+y,-z
-x,-y,-z
x,1/2-y,z
loop_
_atom_site_type_symbol
_atom_site_label
_atom_site_fract_x
_atom_site_fract_y
_atom_site_fract_z
Si Si1 0.244485 0.087535 0.335100
Si Si2 0.183745 0.970262 0.000616
Si Si3 0.822066 0.640452 0.224371
Si Si4 0.454122 0.143773 0.375007
Si Si5 0.613841 0.638413 0.209770
Si Si6 0.429619 0.555332 0.187855
Si Si7 0.962032 0.641984 0.693061
O O1 0.326590 0.140862 0.301302
O O2 0.317349 0.085472 0.575705
O O3 0.128812 0.132149 0.263759
O O4 0.218089 0.988762 0.222638
O O5 0.075246 0.909828 0.856603
O O6 0.155028 0.072201 0.896764
O O7 0.296433 0.936900 0.035728
O O8 0.840710 0.750000 0.211476
O O9 0.692998 0.630430 0.141053
O O10 0.899288 0.611299 0.460388
O O11 0.478122 0.250000 0.342340
O O12 0.527969 0.117619 0.613081
O O13 0.463392 0.052354 0.269909
O O14 0.610254 0.750000 0.243142
O O15 0.492182 0.594578 0.098274
O O16 0.987758 0.750000 0.697532
#
# Coordination Sequence:
#
# PCOD9162145 Si02
#       7
#     4   4   4   4   4   4   4
#     4   9  17  31  52  74  93 121 163 203 233 268
#     4  11  21  31  49  77 104 122 153 206 249 281
#     4   9  20  36  54  71  90 126 170 205 238 278
#     4   9  16  29  48  71 101 130 158 196 237 280
#     4   9  17  34  55  71  95 130 163 194 233 287
#     4   9  18  28  46  75  99 126 158 193 242 290
#     4  10  20  35  51  69  97 133 164 191 238 297
#
# _framework density 19.698798
#
# number of rings (size 3 to 8) (size 9 to 14) (size 15 to 20)
#    0.000    2.571    0.000    5.143    0.000    5.143 
#    0.000    0.000    0.000    0.857    0.000    8.000 
#    0.000    0.000    0.000    0.000    0.000    0.000 
#
# Total GULP energy -156062.405381 kJ/mol
# GULP energy per Si atom -5573.657335 kJ/mol
# Density = 1.965396 g / cm^3
# Si number density = 19.698798 Si / 1000 Ang^3
#
#
#
# Elastic Constant Matrix: (Units=GPa)
#
#
# Indices 1 2 3 4 5 6 
#
# 1 49.2286 30.4614 22.2769 0.0000 19.6129 0.0000
# 2 30.4614 57.6036 26.1524 0.0000 13.5622 0.0000
# 3 22.2769 26.1524 52.8991 0.0000 18.2444 0.0000
# 4 0.0000 0.0000 0.0000 16.3087 0.0000 6.1127
# 5 19.6129 13.5622 18.2444 0.0000 24.0888 0.0000
# 6 0.0000 0.0000 0.0000 6.1127 0.0000 29.9609
#
#
#
# Elastic Compliance Matrix: (Units=1/GPa)
#
#
# Indices 1 2 3 4 5 6 
#
# 1 0.038960 -0.014686 -0.001432 0.000000 -0.022368 0.000000
# 2 -0.014686 0.028517 -0.008799 0.000000 0.002566 0.000000
# 3 -0.001432 -0.008799 0.029435 0.000000 -0.016174 0.000000
# 4 0.000000 0.000000 0.000000 0.066394 0.000000 -0.013546
# 5 -0.022368 0.002566 -0.016174 0.000000 0.070531 0.000000
# 6 0.000000 0.000000 0.000000 -0.013546 0.000000 0.036141
#
#
# Mechanical properties :
#
#
# Convention : Reuss Voigt Hill
#
# Bulk Modulus (GPa) = 21.24081 35.27918 28.25999
# Shear Modulus (GPa) = 14.90297 19.46107 17.18202
#
# Velocity S-wave (km/s) = 2.75352 3.14655 2.95657
# Velocity P-wave (km/s) = 4.57333 5.58115 5.10218
#
# Compressibility (1/GPa) = 0.04707918
#
# Stress axis : x y z
#
# Youngs Moduli (GPa) = 25.66703 35.06717 33.97314
#
# Poissons Ratio (x) = 0.51501 0.04864
# Poissons Ratio (y) = 0.37695 0.29891
# Poissons Ratio (z) = 0.03675 0.30854
#
# Static dielectric constant tensor:
#      x y z
#    x 1.729740 0.000000 -0.034250 
#    y 0.000000 1.693650 0.000000 
#    z -0.034250 0.000000 1.779740 
# 
# From -- ./inp_files/22281.got.cif
#   From: 2010.05.17/outbox.cif.g08.bks.cpg/sg11_12_cif.got.tgz:22281.got - 2010.06.03 12:22:45.
