data_PCOD9162255
_publ_section_title
;
Structure prediction by ZEFSAII (Michael W. Deem and Ramdas Pophale) SiO2 
 PCOD9162255
Probable space group: P 21/M
;
_chemical_formula_sum "Si O2"
_cell_formula_units_Z 28
_cell_length_a 11.619314
_cell_length_b 15.530666
_cell_length_c 7.973918
_cell_angle_alpha 90.000000
_cell_angle_beta 86.038512
_cell_angle_gamma 90.000000
_cell_volume 1435.500795
_symmetry_space_group_name_H-M "P 21/M"
_symmetry_group_IT_number 11
_symmetry_cell_setting 'monoclinic'
loop_
_space_group_symop_operation_xyz
x,y,z
-x,1/2+y,-z
-x,-y,-z
x,1/2-y,z
loop_
_atom_site_type_symbol
_atom_site_label
_atom_site_fract_x
_atom_site_fract_y
_atom_site_fract_z
Si Si1 0.954879 0.649695 0.532187
Si Si2 0.363821 0.852092 0.136997
Si Si3 0.280845 0.404855 0.304191
Si Si4 0.539241 0.350132 0.220465
Si Si5 0.181633 0.978223 0.051698
Si Si6 0.382881 0.947864 0.482908
Si Si7 0.939673 0.998756 0.269660
O O1 0.990274 0.750000 0.503971
O O2 0.832225 0.649585 0.643000
O O3 0.930929 0.590924 0.371039
O O4 0.044109 0.586166 0.621893
O O5 0.366625 0.750000 0.149023
O O6 0.443009 0.881713 0.972125
O O7 0.238664 0.888042 0.096730
O O8 0.395676 0.890688 0.314341
O O9 0.286557 0.482618 0.440748
O O10 0.263953 0.450091 0.125974
O O11 0.566923 0.250000 0.217373
O O12 0.624099 0.394583 0.345857
O O13 0.406059 0.361494 0.290042
O O14 0.158703 0.989938 0.858771
O O15 0.060997 0.990325 0.159024
O O16 0.500000 0.000000 0.500000
#
# Coordination Sequence:
#
# PCOD9162255 Si02
#       7
#     4   4   4   4   4   4   4
#     4  10  20  36  58  83 112 145 183 231 284 340
#     4  10  21  35  55  84 115 148 190 234 281 341
#     4   9  19  35  55  80 108 145 185 229 276 336
#     4  10  20  35  54  81 117 150 185 234 281 330
#     4   9  19  37  58  78 107 145 183 232 280 334
#     4   9  19  34  54  77 106 153 190 227 278 331
#     4   9  20  38  58  82 110 143 187 233 284 337
#
# _framework density 19.505388
#
# number of rings (size 3 to 8) (size 9 to 14) (size 15 to 20)
#    0.000    2.571    0.000    0.857    2.000    6.286 
#    2.571    6.429    0.000    0.000    0.000    0.000 
#    0.000    0.000    0.000    0.000    0.000    0.000 
#
# Total GULP energy -155958.502447 kJ/mol
# GULP energy per Si atom -5569.946516 kJ/mol
# Density = 1.946099 g / cm^3
# Si number density = 19.505388 Si / 1000 Ang^3
#
#
#
# Elastic Constant Matrix: (Units=GPa)
#
#
# Indices 1 2 3 4 5 6 
#
# 1 43.7704 22.4084 22.0368 0.0000 21.8588 0.0000
# 2 22.4084 122.2415 55.7912 0.0000 14.6237 0.0000
# 3 22.0368 55.7912 95.0814 0.0000 28.5072 0.0000
# 4 0.0000 0.0000 0.0000 18.7120 0.0000 -1.6953
# 5 21.8588 14.6237 28.5072 0.0000 32.5251 0.0000
# 6 0.0000 0.0000 0.0000 -1.6953 0.0000 16.9495
#
#
#
# Elastic Compliance Matrix: (Units=1/GPa)
#
#
# Indices 1 2 3 4 5 6 
#
# 1 0.036164 -0.004379 0.001200 0.000000 -0.023387 0.000000
# 2 -0.004379 0.011726 -0.007009 0.000000 0.003814 0.000000
# 3 0.001200 -0.007009 0.018514 0.000000 -0.013882 0.000000
# 4 0.000000 0.000000 0.000000 0.053930 0.000000 0.005394
# 5 -0.023387 0.003814 -0.013882 0.000000 0.056915 0.000000
# 6 0.000000 0.000000 0.000000 0.005394 0.000000 0.059538
#
#
# Mechanical properties :
#
#
# Convention : Reuss Voigt Hill
#
# Bulk Modulus (GPa) = 21.72642 51.28512 36.50577
# Shear Modulus (GPa) = 18.34820 24.36113 21.35467
#
# Velocity S-wave (km/s) = 3.07037 3.53787 3.31238
# Velocity P-wave (km/s) = 4.87159 6.56038 5.77802
#
# Compressibility (1/GPa) = 0.04602692
#
# Stress axis : x y z
#
# Youngs Moduli (GPa) = 27.65205 85.28107 54.01310
#
# Poissons Ratio (x) = 0.37345 -0.06480
# Poissons Ratio (y) = 0.12109 0.37858
# Poissons Ratio (z) = -0.03318 0.59774
#
# Static dielectric constant tensor:
#      x y z
#    x 1.683480 0.000000 -0.021600 
#    y 0.000000 1.679540 0.000000 
#    z -0.021600 0.000000 1.739590 
# 
# From -- ./inp_files/21722.got.cif
#   From: 2010.05.17/outbox.cif.g08.bks.cpg/sg11_11_cif.got.tgz:21722.got - 2010.06.03 12:22:45.
