data_PCOD9162130
_publ_section_title
;
Structure prediction by ZEFSAII (Michael W. Deem and Ramdas Pophale) SiO2 
 PCOD9162130
Probable space group: P 21/M
;
_chemical_formula_sum "Si O2"
_cell_formula_units_Z 32
_cell_length_a 12.131357
_cell_length_b 14.090485
_cell_length_c 18.245566
_cell_angle_alpha 90.000000
_cell_angle_beta 29.393813
_cell_angle_gamma 90.000000
_cell_volume 1530.755328
_symmetry_space_group_name_H-M "P 21/M"
_symmetry_group_IT_number 11
_symmetry_cell_setting 'monoclinic'
loop_
_space_group_symop_operation_xyz
x,y,z
-x,1/2+y,-z
-x,-y,-z
x,1/2-y,z
loop_
_atom_site_type_symbol
_atom_site_label
_atom_site_fract_x
_atom_site_fract_y
_atom_site_fract_z
Si Si1 0.376863 0.141279 0.378304
Si Si2 0.908452 0.043021 0.465655
Si Si3 0.861441 0.357962 0.342333
Si Si4 0.624506 0.853294 0.445756
Si Si5 0.227913 0.520803 0.913599
Si Si6 0.426244 0.859890 0.239531
Si Si7 0.957267 0.463784 0.822029
Si Si8 0.309716 0.546789 0.160599
O O1 0.337061 0.250000 0.376556
O O2 0.373638 0.140854 0.468063
O O3 0.616252 0.100140 0.213992
O O4 0.195437 0.061514 0.461025
O O5 0.813157 0.090192 0.446864
O O6 0.809955 0.108686 0.586330
O O7 0.168988 0.028052 0.292671
O O8 0.937071 0.250000 0.309284
O O9 0.629273 0.358089 0.433482
O O10 0.038400 0.423896 0.197680
O O11 0.715951 0.750000 0.370302
O O12 0.785890 0.931880 0.319136
O O13 0.383493 0.427173 0.834517
O O14 0.000000 0.500000 0.000000
O O15 0.169744 0.554311 0.029643
O O16 0.470464 0.750000 0.227557
O O17 0.405439 0.881134 0.164804
O O18 0.860796 0.415885 0.803635
O O19 0.500000 0.500000 0.000000
#
# Coordination Sequence:
#
# PCOD9162130 Si02
#       8
#     4   4   4   4   4   4   4   4
#     4  10  21  39  61  89 124 170 217 261 319 390
#     4  10  22  41  66  93 128 168 218 271 328 394
#     4  10  20  34  61  96 129 166 212 268 324 393
#     4  10  20  35  61  93 124 165 219 263 320 392
#     4  11  25  41  64  96 138 177 213 271 336 394
#     4  11  25  44  68  97 131 177 225 272 331 398
#     4  11  22  39  64  90 130 169 217 269 329 388
#     4  11  22  44  67  91 128 170 217 276 327 392
#
# _framework density 20.904713000000001
#
# number of rings (size 3 to 8) (size 9 to 14) (size 15 to 20)
#    0.000    1.500    3.750    1.875    3.500    2.500 
#    0.000    0.625    0.000    6.750    0.000    0.000 
#    0.000    0.000    0.000    0.000    0.000    0.000 
#
# Total GULP energy -178607.203683 kJ/mol
# GULP energy per Si atom -5581.475115 kJ/mol
# Density = 2.085713 g / cm^3
# Si number density = 20.904713 Si / 1000 Ang^3
#
#
#
# Elastic Constant Matrix: (Units=GPa)
#
#
# Indices 1 2 3 4 5 6 
#
# 1 55.2295 7.6418 8.5431 0.0000 -7.2990 0.0000
# 2 7.6418 127.9467 29.4240 0.0000 -0.2612 0.0000
# 3 8.5431 29.4240 116.6596 0.0000 12.2925 0.0000
# 4 0.0000 0.0000 0.0000 9.9895 0.0000 5.3796
# 5 -7.2990 -0.2612 12.2925 0.0000 27.1809 0.0000
# 6 0.0000 0.0000 0.0000 5.3796 0.0000 18.0082
#
#
#
# Elastic Compliance Matrix: (Units=1/GPa)
#
#
# Indices 1 2 3 4 5 6 
#
# 1 0.019289 -0.000710 -0.001867 0.000000 0.006017 0.000000
# 2 -0.000710 0.008353 -0.002145 0.000000 0.000860 0.000000
# 3 -0.001867 -0.002145 0.009770 0.000000 -0.004941 0.000000
# 4 0.000000 0.000000 0.000000 0.119297 0.000000 -0.035637
# 5 0.006017 0.000860 -0.004941 0.000000 0.040649 0.000000
# 6 0.000000 0.000000 0.000000 -0.035637 0.000000 0.066176
#
#
# Mechanical properties :
#
#
# Convention : Reuss Voigt Hill
#
# Bulk Modulus (GPa) = 35.75767 43.45040 39.60403
# Shear Modulus (GPa) = 17.71146 27.98417 22.84782
#
# Velocity S-wave (km/s) = 2.91391 3.66273 3.30957
# Velocity P-wave (km/s) = 5.33511 6.22234 5.79573
#
# Compressibility (1/GPa) = 0.02796603
#
# Stress axis : x y z
#
# Youngs Moduli (GPa) = 51.84392 119.71273 102.34950
#
# Poissons Ratio (x) = 0.08503 0.19113
# Poissons Ratio (y) = 0.03682 0.21959
# Poissons Ratio (z) = 0.09681 0.25684
#
# Static dielectric constant tensor:
#      x y z
#    x 1.797000 0.000000 -0.027640 
#    y 0.000000 1.768660 0.000000 
#    z -0.027640 0.000000 1.757070 
# 
# From -- ./inp_files/59471.got.cif
#   From: 2010.05.17/outbox.cif.g08.bks.cpg/sg11_30_cif.got.tgz:59471.got - 2010.06.03 12:22:45.
