data_PCOD9162709
_publ_section_title
;
Structure prediction by ZEFSAII (Michael W. Deem and Ramdas Pophale) SiO2 
 PCOD9162709
Probable space group: P 21/M
;
_chemical_formula_sum "Si O2"
_cell_formula_units_Z 24
_cell_length_a 15.017482
_cell_length_b 8.815476
_cell_length_c 19.708664
_cell_angle_alpha 90.000000
_cell_angle_beta 31.425596
_cell_angle_gamma 90.000000
_cell_volume 1360.390254
_symmetry_space_group_name_H-M "P 21/M"
_symmetry_group_IT_number 11
_symmetry_cell_setting 'monoclinic'
loop_
_space_group_symop_operation_xyz
x,y,z
-x,1/2+y,-z
-x,-y,-z
x,1/2-y,z
loop_
_atom_site_type_symbol
_atom_site_label
_atom_site_fract_x
_atom_site_fract_y
_atom_site_fract_z
Si Si1 0.259510 0.429686 0.466441
Si Si2 0.530197 0.068553 0.406426
Si Si3 0.425756 0.931179 0.116605
Si Si4 0.811606 0.931305 0.124750
Si Si5 0.460151 0.430807 0.811745
Si Si6 0.941098 0.569414 0.610109
O O1 0.226975 0.250000 0.484184
O O2 0.366591 0.464090 0.464720
O O3 0.385352 0.479094 0.323667
O O4 0.084864 0.519921 0.570628
O O5 0.549755 0.250000 0.397430
O O6 0.500000 0.000000 0.500000
O O7 0.694125 0.999040 0.261203
O O8 0.411930 0.750000 0.119619
O O9 0.542237 0.964641 0.107047
O O10 0.240707 0.000730 0.252019
O O11 0.500000 0.000000 0.000000
O O12 0.820530 0.750000 0.126511
O O13 0.708901 0.965206 0.121646
O O14 0.000000 0.000000 0.000000
O O15 0.494672 0.250000 0.781538
O O16 0.931813 0.750000 0.610738
O O17 0.000000 0.500000 0.500000
#
# Coordination Sequence:
#
# PCOD9162709 Si02
#       6
#     4   4   4   4   4   4
#     4  10  20  35  59  88 115 147 193 238 283 338
#     4  10  21  38  60  87 118 152 189 236 290 341
#     4  11  23  40  59  84 117 154 192 236 289 340
#     4  10  20  37  60  86 113 149 193 238 285 341
#     4   9  19  36  59  82 111 150 192 233 284 343
#     4  12  23  37  60  88 116 151 193 237 283 338
#
# _framework density 17.641997
#
# number of rings (size 3 to 8) (size 9 to 14) (size 15 to 20)
#    0.000    1.667    1.667    3.500    0.000    3.333 
#    3.000    0.000    0.000    0.000    0.000    0.000 
#    0.000    0.000    0.000    0.000    0.000    0.000 
#
# Total GULP energy -134050.465766 kJ/mol
# GULP energy per Si atom -5585.436074 kJ/mol
# Density = 1.760184 g / cm^3
# Si number density = 17.641997 Si / 1000 Ang^3
#
#
#
# Elastic Constant Matrix: (Units=GPa)
#
#
# Indices 1 2 3 4 5 6 
#
# 1 137.6119 76.5073 98.8820 0.0000 10.0122 0.0000
# 2 76.5073 93.0780 68.6332 0.0000 3.4675 0.0000
# 3 98.8820 68.6332 141.8219 0.0000 3.9861 0.0000
# 4 0.0000 0.0000 0.0000 36.4807 0.0000 -0.5168
# 5 10.0122 3.4675 3.9861 0.0000 35.2894 0.0000
# 6 0.0000 0.0000 0.0000 -0.5168 0.0000 29.5793
#
#
#
# Elastic Compliance Matrix: (Units=1/GPa)
#
#
# Indices 1 2 3 4 5 6 
#
# 1 0.018604 -0.008817 -0.008608 0.000000 -0.003440 0.000000
# 2 -0.008817 0.020902 -0.003993 0.000000 0.000899 0.000000
# 3 -0.008608 -0.003993 0.014953 0.000000 0.001146 0.000000
# 4 0.000000 0.000000 0.000000 0.027419 0.000000 0.000479
# 5 -0.003440 0.000899 0.001146 0.000000 0.029095 0.000000
# 6 0.000000 0.000000 0.000000 0.000479 0.000000 0.033816
#
#
# Mechanical properties :
#
#
# Convention : Reuss Voigt Hill
#
# Bulk Modulus (GPa) = 86.03380 95.61743 90.82562
# Shear Modulus (GPa) = 26.10992 28.83582 27.47287
#
# Velocity S-wave (km/s) = 3.85123 4.04728 3.95047
# Velocity P-wave (km/s) = 8.28543 8.72680 8.50898
#
# Compressibility (1/GPa) = 0.01162334
#
# Stress axis : x y z
#
# Youngs Moduli (GPa) = 53.75190 47.84307 66.87625
#
# Poissons Ratio (x) = 0.42181 0.57566
# Poissons Ratio (y) = 0.47391 0.26705
# Poissons Ratio (z) = 0.46269 0.19105
#
# Static dielectric constant tensor:
#      x y z
#    x 1.622620 0.000000 -0.003690 
#    y 0.000000 1.587980 0.000000 
#    z -0.003690 0.000000 1.550670 
# 
# From -- ./inp_files/60047.got.cif
#   From: 2010.05.17/outbox.cif.g08.bks.cpg/sg11_31_cif.got.tgz:60047.got - 2010.06.03 12:22:45.
