data_PCOD9162387
_publ_section_title
;
Structure prediction by ZEFSAII (Michael W. Deem and Ramdas Pophale) SiO2 
 PCOD9162387
Probable space group: P 21/M
;
_chemical_formula_sum "Si O2"
_cell_formula_units_Z 32
_cell_length_a 15.717962
_cell_length_b 9.290501
_cell_length_c 24.182854
_cell_angle_alpha 90.000000
_cell_angle_beta 27.797753
_cell_angle_gamma 90.000000
_cell_volume 1646.860142
_symmetry_space_group_name_H-M "P 21/M"
_symmetry_group_IT_number 11
_symmetry_cell_setting 'monoclinic'
loop_
_space_group_symop_operation_xyz
x,y,z
-x,1/2+y,-z
-x,-y,-z
x,1/2-y,z
loop_
_atom_site_type_symbol
_atom_site_label
_atom_site_fract_x
_atom_site_fract_y
_atom_site_fract_z
Si Si1 0.655544 0.918736 0.377333
Si Si2 0.417253 0.419963 0.285592
Si Si3 0.806571 0.915446 0.693416
Si Si4 0.778228 0.417486 0.506668
Si Si5 0.778990 0.918667 0.070140
Si Si6 0.145618 0.419836 0.842680
Si Si7 0.672737 0.421207 0.874813
Si Si8 0.075013 0.418989 0.681344
O O1 0.608470 0.750000 0.403152
O O2 0.699840 0.966524 0.289610
O O3 0.840434 0.936225 0.306835
O O4 0.500000 0.000000 0.500000
O O5 0.444691 0.250000 0.278128
O O6 0.258853 0.440873 0.331167
O O7 0.359705 0.496367 0.375380
O O8 0.599591 0.493394 0.157459
O O9 0.755914 0.750000 0.736843
O O10 0.022921 0.927440 0.578266
O O11 0.709415 0.022221 0.791828
O O12 0.725776 0.250000 0.532520
O O13 0.810686 0.487500 0.428183
O O14 0.764517 0.750000 0.065140
O O15 0.796197 0.933080 0.127044
O O16 0.962037 0.988786 0.940777
O O17 0.108848 0.250000 0.853425
O O18 0.647321 0.250000 0.890438
O O19 0.861775 0.456342 0.798421
O O20 0.500000 0.500000 0.000000
O O21 0.092501 0.250000 0.655773
#
# Coordination Sequence:
#
# PCOD9162387 Si02
#       8
#     4   4   4   4   4   4   4   4
#     4  10  22  39  60  86 115 150 193 238 287 341
#     4  11  22  35  55  82 112 147 186 227 281 340
#     4   9  20  37  54  77 109 146 187 230 278 331
#     4  10  20  35  56  80 111 146 184 231 278 330
#     4  10  21  37  58  85 113 146 191 235 282 339
#     4   9  20  40  60  80 113 150 186 233 289 340
#     4  10  20  35  57  82 113 150 189 231 280 338
#     4   9  20  38  56  80 112 149 188 229 283 345
#
# _framework density 19.430914999999999
#
# number of rings (size 3 to 8) (size 9 to 14) (size 15 to 20)
#    0.000    2.250    0.000    1.875    1.750    4.500 
#    0.000    2.500    0.000    0.000    0.000    0.000 
#    0.000    0.000    0.000    0.000    0.000    0.000 
#
# Total GULP energy -178703.960052 kJ/mol
# GULP energy per Si atom -5584.498752 kJ/mol
# Density = 1.938669 g / cm^3
# Si number density = 19.430915 Si / 1000 Ang^3
#
#
#
# Elastic Constant Matrix: (Units=GPa)
#
#
# Indices 1 2 3 4 5 6 
#
# 1 27.9426 17.0880 4.9966 0.0000 4.2173 0.0000
# 2 17.0880 66.3186 38.5932 0.0000 5.5922 0.0000
# 3 4.9966 38.5932 89.4355 0.0000 16.0355 0.0000
# 4 0.0000 0.0000 0.0000 40.0573 0.0000 1.4739
# 5 4.2173 5.5922 16.0355 0.0000 18.9470 0.0000
# 6 0.0000 0.0000 0.0000 1.4739 0.0000 23.8484
#
#
#
# Elastic Compliance Matrix: (Units=1/GPa)
#
#
# Indices 1 2 3 4 5 6 
#
# 1 0.044821 -0.013754 0.005295 0.000000 -0.010399 0.000000
# 2 -0.013754 0.024400 -0.010632 0.000000 0.004858 0.000000
# 3 0.005295 -0.010632 0.017827 0.000000 -0.013128 0.000000
# 4 0.000000 0.000000 0.000000 0.025021 0.000000 -0.001546
# 5 -0.010399 0.004858 -0.013128 0.000000 0.064771 0.000000
# 6 0.000000 0.000000 0.000000 -0.001546 0.000000 0.042027
#
#
# Mechanical properties :
#
#
# Convention : Reuss Voigt Hill
#
# Bulk Modulus (GPa) = 20.46318 33.89471 27.17894
# Shear Modulus (GPa) = 18.29251 24.77180 21.53216
#
# Velocity S-wave (km/s) = 3.07157 3.57440 3.33248
# Velocity P-wave (km/s) = 4.80973 5.87509 5.36890
#
# Compressibility (1/GPa) = 0.04886827
#
# Stress axis : x y z
#
# Youngs Moduli (GPa) = 22.31097 40.98392 56.09465
#
# Poissons Ratio (x) = 0.56367 -0.29704
# Poissons Ratio (y) = 0.30685 0.59637
# Poissons Ratio (z) = -0.11814 0.43572
#
# Static dielectric constant tensor:
#      x y z
#    x 1.693860 0.000000 -0.013340 
#    y 0.000000 1.657380 0.000000 
#    z -0.013340 0.000000 1.660580 
# 
# From -- ./inp_files/69030.got.cif
#   From: 2010.05.17/outbox.cif.g08.bks.cpg/sg11_35_cif.got.tgz:69030.got - 2010.06.03 12:22:45.
