data_PCOD9162833
_publ_section_title
;
Structure prediction by ZEFSAII (Michael W. Deem and Ramdas Pophale) SiO2 
 PCOD9162833
Probable space group: P 21/M
;
_chemical_formula_sum "Si O2"
_cell_formula_units_Z 32
_cell_length_a 30.972704
_cell_length_b 7.684352
_cell_length_c 13.185046
_cell_angle_alpha 90.000000
_cell_angle_beta 24.022239
_cell_angle_gamma 90.000000
_cell_volume 1277.496549
_symmetry_space_group_name_H-M "P 21/M"
_symmetry_group_IT_number 11
_symmetry_cell_setting 'monoclinic'
loop_
_space_group_symop_operation_xyz
x,y,z
-x,1/2+y,-z
-x,-y,-z
x,1/2-y,z
loop_
_atom_site_type_symbol
_atom_site_label
_atom_site_fract_x
_atom_site_fract_y
_atom_site_fract_z
Si Si1 0.791973 0.053431 0.012836
Si Si2 0.845948 0.957981 0.673691
Si Si3 0.826537 0.551985 0.336249
Si Si4 0.485609 0.039762 0.913923
Si Si5 0.452089 0.041537 0.493832
Si Si6 0.287252 0.545726 0.616821
Si Si7 0.340542 0.049212 0.068640
Si Si8 0.039944 0.461648 0.765151
O O1 0.830114 0.250000 0.942570
O O2 0.791890 0.971936 0.126770
O O3 0.665722 0.036654 0.260514
O O4 0.847842 0.994942 0.788952
O O5 0.842823 0.750000 0.675727
O O6 0.938500 0.012706 0.397260
O O7 0.740109 0.026127 0.841739
O O8 0.789719 0.750000 0.423622
O O9 0.751681 0.463833 0.414730
O O10 0.859070 0.491670 0.379611
O O11 0.939032 0.544476 0.034698
O O12 0.483704 0.250000 0.908120
O O13 0.595012 0.968029 0.630335
O O14 0.374663 0.972752 0.104638
O O15 0.500000 0.000000 0.000000
O O16 0.445753 0.250000 0.493868
O O17 0.500000 0.000000 0.500000
O O18 0.541670 0.957404 0.231285
O O19 0.296724 0.750000 0.620700
O O20 0.307105 0.250000 0.153647
O O21 0.027873 0.250000 0.796537
#
# Coordination Sequence:
#
# PCOD9162833 Si02
#       8
#     4   4   4   4   4   4   4   4
#     4  11  22  38  57  81 116 156 196 239 289 339
#     4  10  21  36  59  87 116 153 193 237 293 344
#     4  10  21  38  65  93 113 145 192 239 287 346
#     4  10  22  38  55  80 118 159 197 239 288 340
#     4  12  22  33  52  77 108 148 194 237 279 330
#     4  10  22  40  59  82 118 160 194 233 292 347
#     4  10  20  36  55  78 113 154 194 237 284 336
#     4   9  20  40  63  89 120 149 181 234 300 351
#
# _framework density 25.048992999999999
#
# number of rings (size 3 to 8) (size 9 to 14) (size 15 to 20)
#    0.000    1.750    2.500    1.875    1.750    3.000 
#    0.000    0.625    0.000    0.000    0.000    0.000 
#    0.000    0.000    0.000    0.000    0.000    0.000 
#
# Total GULP energy -178581.956173 kJ/mol
# GULP energy per Si atom -5580.686130 kJ/mol
# Density = 2.499198 g / cm^3
# Si number density = 25.048993 Si / 1000 Ang^3
#
#
#
# Elastic Constant Matrix: (Units=GPa)
#
#
# Indices 1 2 3 4 5 6 
#
# 1 69.9706 5.1960 14.8260 0.0000 26.8516 0.0000
# 2 5.1960 64.5790 4.8838 0.0000 8.7373 0.0000
# 3 14.8260 4.8838 84.9593 0.0000 33.3343 0.0000
# 4 0.0000 0.0000 0.0000 19.3264 0.0000 7.2557
# 5 26.8516 8.7373 33.3343 0.0000 56.1168 0.0000
# 6 0.0000 0.0000 0.0000 7.2557 0.0000 30.1539
#
#
#
# Elastic Compliance Matrix: (Units=1/GPa)
#
#
# Indices 1 2 3 4 5 6 
#
# 1 0.017517 -0.000280 0.000301 0.000000 -0.008517 0.000000
# 2 -0.000280 0.015823 0.000070 0.000000 -0.002371 0.000000
# 3 0.000301 0.000070 0.015353 0.000000 -0.009275 0.000000
# 4 0.000000 0.000000 0.000000 0.056881 0.000000 -0.013687
# 5 -0.008517 -0.002371 -0.009275 0.000000 0.027774 0.000000
# 6 0.000000 0.000000 0.000000 -0.013687 0.000000 0.036457
#
#
# Mechanical properties :
#
#
# Convention : Reuss Voigt Hill
#
# Bulk Modulus (GPa) = 20.46069 29.92450 25.19259
# Shear Modulus (GPa) = 26.89403 34.09294 30.49349
#
# Velocity S-wave (km/s) = 3.28023 3.69324 3.49284
# Velocity P-wave (km/s) = 4.74684 5.49173 5.13281
#
# Compressibility (1/GPa) = 0.04887420
#
# Stress axis : x y z
#
# Youngs Moduli (GPa) = 57.08671 63.19932 65.13477
#
# Poissons Ratio (x) = 0.01769 -0.01960
# Poissons Ratio (y) = 0.01598 -0.00453
# Poissons Ratio (z) = -0.01718 -0.00440
#
# Static dielectric constant tensor:
#      x y z
#    x 2.142780 0.000000 0.101630 
#    y 0.000000 1.932970 0.000000 
#    z 0.101630 0.000000 2.119380 
# 
# From -- ./inp_files/45160.got.cif
#   From: 2010.05.17/outbox.cif.g08.bks.cpg/sg11_23_cif.got.tgz:45160.got - 2010.06.03 12:22:45.
