data_PCOD9162194
_publ_section_title
;
Structure prediction by ZEFSAII (Michael W. Deem and Ramdas Pophale) SiO2 
 PCOD9162194
Probable space group: P 21/M
;
_chemical_formula_sum "Si O2"
_cell_formula_units_Z 32
_cell_length_a 8.363517
_cell_length_b 11.450657
_cell_length_c 28.367382
_cell_angle_alpha 90.000000
_cell_angle_beta 145.895136
_cell_angle_gamma 90.000000
_cell_volume 1523.268136
_symmetry_space_group_name_H-M "P 21/M"
_symmetry_group_IT_number 11
_symmetry_cell_setting 'monoclinic'
loop_
_space_group_symop_operation_xyz
x,y,z
-x,1/2+y,-z
-x,-y,-z
x,1/2-y,z
loop_
_atom_site_type_symbol
_atom_site_label
_atom_site_fract_x
_atom_site_fract_y
_atom_site_fract_z
Si Si1 0.230461 0.618638 0.238427
Si Si2 0.189859 0.882334 0.046926
Si Si3 0.384262 0.120648 0.760658
Si Si4 0.988035 0.130695 0.521772
Si Si5 0.354760 0.376049 0.322354
Si Si6 0.734467 0.924817 0.504567
Si Si7 0.864648 0.553319 0.635610
Si Si8 0.427908 0.381644 0.953736
O O1 0.266995 0.750000 0.269495
O O2 0.433291 0.615252 0.242487
O O3 0.296508 0.499607 0.283106
O O4 0.902634 0.612452 0.142001
O O5 0.053338 0.750000 0.016008
O O6 0.397592 0.890440 0.142581
O O7 0.377911 0.883647 0.045486
O O8 0.000000 0.000000 0.000000
O O9 0.249777 0.250000 0.731485
O O10 0.150214 0.020673 0.705595
O O11 0.016742 0.250000 0.555660
O O12 0.683507 0.125446 0.420434
O O13 0.213735 0.128420 0.534492
O O14 0.958468 0.031640 0.552796
O O15 0.309810 0.250000 0.286147
O O16 0.167970 0.376701 0.324211
O O17 0.822734 0.875994 0.576706
O O18 0.410316 0.966370 0.429791
O O19 0.469584 0.250000 0.986063
O O20 0.500000 0.500000 0.000000
#
# Coordination Sequence:
#
# PCOD9162194 Si02
#       8
#     4   4   4   4   4   4   4   4
#     4  10  21  39  61  84 113 151 194 239 288 341
#     4  10  21  39  62  89 120 152 189 234 287 345
#     4  10  21  37  59  86 116 150 191 242 293 342
#     4   9  18  34  53  75 107 145 189 239 288 340
#     4  10  21  37  57  81 113 152 193 241 293 343
#     4   9  19  34  53  77 107 148 194 234 286 349
#     4  10  20  35  53  79 115 149 191 240 291 343
#     4  10  21  37  60  88 118 153 191 233 282 341
#
# _framework density 21.007462
#
# number of rings (size 3 to 8) (size 9 to 14) (size 15 to 20)
#    0.000    2.250    0.000    2.250    0.000    5.000 
#    0.000   13.125    0.000    0.000    0.000    0.000 
#    0.000    0.000    0.000    0.000    0.000    0.000 
#
# Total GULP energy -178235.264322 kJ/mol
# GULP energy per Si atom -5569.852010 kJ/mol
# Density = 2.095965 g / cm^3
# Si number density = 21.007462 Si / 1000 Ang^3
#
#
#
# Elastic Constant Matrix: (Units=GPa)
#
#
# Indices 1 2 3 4 5 6 
#
# 1 88.1324 55.1975 24.5242 0.0000 5.5154 0.0000
# 2 55.1975 186.1537 58.3616 0.0000 -8.1917 0.0000
# 3 24.5242 58.3616 68.2247 0.0000 5.7711 0.0000
# 4 0.0000 0.0000 0.0000-1124.7711 0.0000 74.0838
# 5 5.5154 -8.1917 5.7711 0.0000 36.3571 0.0000
# 6 0.0000 0.0000 0.0000 74.0838 0.0000 7.5296
#
#
#
# Elastic Compliance Matrix: (Units=1/GPa)
#
#
# Indices 1 2 3 4 5 6 
#
# 1 0.014407 -0.003889 -0.001615 0.000000 -0.002806 0.000000
# 2 -0.003889 0.008659 -0.006309 0.000000 0.003542 0.000000
# 3 -0.001615 -0.006309 0.021016 0.000000 -0.004512 0.000000
# 4 0.000000 0.000000 0.000000 -0.000539 0.000000 0.005308
# 5 -0.002806 0.003542 -0.004512 0.000000 0.029445 0.000000
# 6 0.000000 0.000000 0.000000 0.005308 0.000000 0.080586
#
#
# Mechanical properties :
#
#
# Convention : Reuss Voigt Hill
#
# Bulk Modulus (GPa) = 48.88220 68.74192 58.81206
# Shear Modulus (GPa) = 27.17133 -202.54837 -87.68852
#
# Velocity S-wave (km/s) = 3.60031 -9.82989 -6.46778
# Velocity P-wave (km/s) = 6.37200 9.80010 5.26495
#
# Compressibility (1/GPa) = 0.02045734
#
# Stress axis : x y z
#
# Youngs Moduli (GPa) = 69.40942 115.48863 47.58243
#
# Poissons Ratio (x) = 0.44917 0.07682
# Poissons Ratio (y) = 0.26995 0.30018
# Poissons Ratio (z) = 0.11206 0.72858
#
# Static dielectric constant tensor:
#      x y z
#    x 1.748200 0.000000 -0.011070 
#    y 0.000000 1.990930 0.000000 
#    z -0.011070 0.000000 1.732600 
# 
# From -- ./inp_files/72855.got.cif
#   From: 2010.05.17/outbox.cif.g08.bks.cpg/sg11_37_cif.got.tgz:72855.got - 2010.06.03 12:22:45.
