data_PCOD9162774
_publ_section_title
;
Structure prediction by ZEFSAII (Michael W. Deem and Ramdas Pophale) SiO2 
 PCOD9162774
Probable space group: P 21/M
;
_chemical_formula_sum "Si O2"
_cell_formula_units_Z 32
_cell_length_a 20.310419
_cell_length_b 8.615576
_cell_length_c 25.947306
_cell_angle_alpha 90.000000
_cell_angle_beta 21.820570
_cell_angle_gamma 90.000000
_cell_volume 1687.677189
_symmetry_space_group_name_H-M "P 21/M"
_symmetry_group_IT_number 11
_symmetry_cell_setting 'monoclinic'
loop_
_space_group_symop_operation_xyz
x,y,z
-x,1/2+y,-z
-x,-y,-z
x,1/2-y,z
loop_
_atom_site_type_symbol
_atom_site_label
_atom_site_fract_x
_atom_site_fract_y
_atom_site_fract_z
Si Si1 0.536223 0.062793 0.617002
Si Si2 0.838469 0.434557 0.084545
Si Si3 0.426874 0.437497 0.106636
Si Si4 0.666286 0.437678 0.635239
Si Si5 0.031561 0.062799 0.420120
Si Si6 0.332552 0.562773 0.589740
Si Si7 0.387609 0.563674 0.921729
Si Si8 0.066374 0.436441 0.095588
O O1 0.518750 0.250000 0.629823
O O2 0.624028 0.016634 0.607371
O O3 0.641397 0.019147 0.489117
O O4 0.342567 0.988840 0.757611
O O5 0.845866 0.250000 0.076845
O O6 0.853537 0.502724 0.016193
O O7 0.000000 0.500000 0.000000
O O8 0.429327 0.250000 0.103816
O O9 0.223558 0.489417 0.261450
O O10 0.539367 0.485980 0.075309
O O11 0.500000 0.500000 0.000000
O O12 0.652531 0.250000 0.648555
O O13 0.526675 0.507477 0.777145
O O14 0.864504 0.484549 0.506984
O O15 0.033852 0.250000 0.420147
O O16 0.000000 0.000000 0.500000
O O17 0.500000 0.500000 0.500000
O O18 0.336314 0.750000 0.590608
O O19 0.138271 0.511530 0.750154
O O20 0.380439 0.750000 0.925618
O O21 0.195879 0.496484 0.046322
O O22 0.069402 0.250000 0.093170
#
# Coordination Sequence:
#
# PCOD9162774 Si02
#       8
#     4   4   4   4   4   4   4   4
#     4  10  21  39  60  87 118 150 197 250 298 354
#     4  12  24  38  59  88 119 155 198 247 297 351
#     4  10  23  40  59  88 126 162 204 252 299 357
#     4  10  20  35  61  89 117 155 200 247 304 360
#     4  10  20  36  59  88 118 157 203 249 300 357
#     4  10  23  41  62  87 119 157 198 246 298 357
#     4  11  22  38  60  89 124 158 199 252 304 354
#     4  11  23  40  62  90 121 160 203 242 297 366
#
# _framework density 18.960971000000001
#
# number of rings (size 3 to 8) (size 9 to 14) (size 15 to 20)
#    0.000    1.500    2.500    2.625    0.000    6.000 
#    0.000    2.500    0.000    0.000    0.000    0.000 
#    0.000    0.000    0.000    0.000    0.000    0.000 
#
# Total GULP energy -178810.410035 kJ/mol
# GULP energy per Si atom -5587.825314 kJ/mol
# Density = 1.891781 g / cm^3
# Si number density = 18.960971 Si / 1000 Ang^3
#
#
#
# Elastic Constant Matrix: (Units=GPa)
#
#
# Indices 1 2 3 4 5 6 
#
# 1 86.8939 12.2252 13.5611 0.0000 -6.2430 0.0000
# 2 12.2252 18.5500 10.6361 0.0000 -0.0469 0.0000
# 3 13.5611 10.6361 95.5094 0.0000 -3.0821 0.0000
# 4 0.0000 0.0000 0.0000 25.3751 0.0000 -2.4893
# 5 -6.2430 -0.0469 -3.0821 0.0000 40.9663 0.0000
# 6 0.0000 0.0000 0.0000 -2.4893 0.0000 27.7712
#
#
#
# Elastic Compliance Matrix: (Units=1/GPa)
#
#
# Indices 1 2 3 4 5 6 
#
# 1 0.012907 -0.007996 -0.000881 0.000000 0.001891 0.000000
# 2 -0.007996 0.062546 -0.005881 0.000000 -0.001589 0.000000
# 3 -0.000881 -0.005881 0.011273 0.000000 0.000707 0.000000
# 4 0.000000 0.000000 0.000000 0.039758 0.000000 0.003564
# 5 0.001891 -0.001589 0.000707 0.000000 0.024750 0.000000
# 6 0.000000 0.000000 0.000000 0.003564 0.000000 0.036328
#
#
# Mechanical properties :
#
#
# Convention : Reuss Voigt Hill
#
# Bulk Modulus (GPa) = 17.47973 30.42202 23.95088
# Shear Modulus (GPa) = 21.17313 29.79125 25.48219
#
# Velocity S-wave (km/s) = 3.34529 3.96812 3.66994
# Velocity P-wave (km/s) = 4.91529 6.08885 5.53327
#
# Compressibility (1/GPa) = 0.05720912
#
# Stress axis : x y z
#
# Youngs Moduli (GPa) = 77.47930 15.98820 88.70719
#
# Poissons Ratio (x) = 0.12784 0.07816
# Poissons Ratio (y) = 0.61953 0.52171
# Poissons Ratio (z) = 0.06827 0.09403
#
# Static dielectric constant tensor:
#      x y z
#    x 1.652460 0.000000 -0.029610 
#    y 0.000000 1.364080 0.000000 
#    z -0.029610 0.000000 1.746280 
# 
# From -- ./inp_files/72053.got.cif
#   From: 2010.05.17/outbox.cif.g08.bks.cpg/sg11_37_cif.got.tgz:72053.got - 2010.06.03 12:22:45.
