data_PCOD9162320
_publ_section_title
;
Structure prediction by ZEFSAII (Michael W. Deem and Ramdas Pophale) SiO2 
 PCOD9162320
Probable space group: P 21/M
;
_chemical_formula_sum "Si O2"
_cell_formula_units_Z 32
_cell_length_a 17.637025
_cell_length_b 15.524147
_cell_length_c 11.588524
_cell_angle_alpha 90.000000
_cell_angle_beta 151.100964
_cell_angle_gamma 90.000000
_cell_volume 1533.376945
_symmetry_space_group_name_H-M "P 21/M"
_symmetry_group_IT_number 11
_symmetry_cell_setting 'monoclinic'
loop_
_space_group_symop_operation_xyz
x,y,z
-x,1/2+y,-z
-x,-y,-z
x,1/2-y,z
loop_
_atom_site_type_symbol
_atom_site_label
_atom_site_fract_x
_atom_site_fract_y
_atom_site_fract_z
Si Si1 0.972345 0.848397 0.223021
Si Si2 0.062668 0.650861 0.825071
Si Si3 0.471940 0.599196 0.997192
Si Si4 0.152577 0.645167 0.689001
Si Si5 0.689502 0.588372 0.699801
Si Si6 0.631449 0.116568 0.620404
Si Si7 0.753607 0.913931 0.525773
Si Si8 0.699630 0.380010 0.454083
O O1 0.918261 0.750000 0.164522
O O2 0.032596 0.880702 0.427612
O O3 0.127538 0.848599 0.350035
O O4 0.834716 0.900236 0.979291
O O5 0.009212 0.750000 0.746057
O O6 0.095713 0.619033 0.739519
O O7 0.927768 0.599091 0.710557
O O8 0.224072 0.648370 0.110786
O O9 0.322590 0.607939 0.882710
O O10 0.418506 0.643956 0.806963
O O11 0.500000 0.500000 0.000000
O O12 0.627053 0.628609 0.270851
O O13 0.165386 0.750000 0.703010
O O14 0.535275 0.634834 0.543334
O O15 0.650301 0.487148 0.640398
O O16 0.734650 0.618514 0.631366
O O17 0.645392 0.148017 0.507689
O O18 0.715637 0.015871 0.476626
#
# Coordination Sequence:
#
# PCOD9162320 Si02
#       8
#     4   4   4   4   4   4   4   4
#     4  10  20  36  57  79 105 139 180 221 266 324
#     4  11  23  37  55  80 111 148 186 222 266 324
#     4   9  18  35  58  83 108 141 187 227 266 325
#     4   9  20  38  56  78 113 149 178 221 278 322
#     4  10  21  36  56  81 108 142 179 224 276 318
#     4  10  21  37  55  78 111 143 177 223 273 322
#     4  10  20  35  55  81 112 141 180 226 266 317
#     4   9  19  36  56  80 110 142 175 220 275 321
#
# _framework density 20.868973
#
# number of rings (size 3 to 8) (size 9 to 14) (size 15 to 20)
#    0.000    2.250    0.000    2.250    0.000    7.000 
#    0.000   10.000    0.000    0.000    0.000    0.000 
#    0.000    0.000    0.000    0.000    0.000    0.000 
#
# Total GULP energy -178757.441250 kJ/mol
# GULP energy per Si atom -5586.170039 kJ/mol
# Density = 2.082147 g / cm^3
# Si number density = 20.868973 Si / 1000 Ang^3
#
#
#
# Elastic Constant Matrix: (Units=GPa)
#
#
# Indices 1 2 3 4 5 6 
#
# 1 190.4231 20.9888 80.1809 0.0000 3.5107 0.0000
# 2 20.9888 35.0556 12.0966 0.0000 3.6088 0.0000
# 3 80.1809 12.0966 148.0687 0.0000 0.4555 0.0000
# 4 0.0000 0.0000 0.0000 -6.5683 0.0000 -16.3059
# 5 3.5107 3.6088 0.4555 0.0000 17.5594 0.0000
# 6 0.0000 0.0000 0.0000 -16.3059 0.0000 5.8595
#
#
#
# Elastic Compliance Matrix: (Units=1/GPa)
#
#
# Indices 1 2 3 4 5 6 
#
# 1 0.007107 -0.002936 -0.003606 0.000000 -0.000724 0.000000
# 2 -0.002936 0.031206 -0.000942 0.000000 -0.005802 0.000000
# 3 -0.003606 -0.000942 0.008781 0.000000 0.000687 0.000000
# 4 0.000000 0.000000 0.000000 -0.019251 0.000000 -0.053573
# 5 -0.000724 -0.005802 0.000687 0.000000 0.058269 0.000000
# 6 0.000000 0.000000 0.000000 -0.053573 0.000000 0.021580
#
#
# Mechanical properties :
#
#
# Convention : Reuss Voigt Hill
#
# Bulk Modulus (GPa) = 31.12715 66.67554 48.90134
# Shear Modulus (GPa) = 37.48984 20.72219 29.10602
#
# Velocity S-wave (km/s) = 4.24304 3.15456 3.73862
# Velocity P-wave (km/s) = 6.24119 6.72958 6.48998
#
# Compressibility (1/GPa) = 0.03212630
#
# Stress axis : x y z
#
# Youngs Moduli (GPa) = 140.70664 32.04476 113.87776
#
# Poissons Ratio (x) = 0.09409 0.41069
# Poissons Ratio (y) = 0.41314 0.10723
# Poissons Ratio (z) = 0.50745 0.03017
#
# Static dielectric constant tensor:
#      x y z
#    x 0.000000 0.000000 0.000000 
#    y 0.000000 0.000000 0.000000 
#    z 0.000000 0.000000 0.000000 
# 
# From -- ./inp_files/40019.got.cif
#   From: 2010.05.17/outbox.cif.g08.bks.cpg/sg11_21_cif.got.tgz:40019.got - 2010.06.03 12:22:45.
