data_PCOD9162674
_publ_section_title
;
Structure prediction by ZEFSAII (Michael W. Deem and Ramdas Pophale) SiO2 
 PCOD9162674
Probable space group: P 21/M
;
_chemical_formula_sum "Si O2"
_cell_formula_units_Z 32
_cell_length_a 29.759621
_cell_length_b 8.622551
_cell_length_c 12.321119
_cell_angle_alpha 90.000000
_cell_angle_beta 152.678272
_cell_angle_gamma 90.000000
_cell_volume 1451.153117
_symmetry_space_group_name_H-M "P 21/M"
_symmetry_group_IT_number 11
_symmetry_cell_setting 'monoclinic'
loop_
_space_group_symop_operation_xyz
x,y,z
-x,1/2+y,-z
-x,-y,-z
x,1/2-y,z
loop_
_atom_site_type_symbol
_atom_site_label
_atom_site_fract_x
_atom_site_fract_y
_atom_site_fract_z
Si Si1 0.450399 0.067428 0.003029
Si Si2 0.314590 0.063872 0.087954
Si Si3 0.891386 0.071482 0.853869
Si Si4 0.419468 0.429684 0.527175
Si Si5 0.103065 0.074471 0.360506
Si Si6 0.298750 0.570533 0.823261
Si Si7 0.767679 0.428497 0.788969
Si Si8 0.107744 0.062697 0.760178
O O1 0.448564 0.250000 0.985974
O O2 0.511335 0.020581 0.241817
O O3 0.500000 0.000000 0.000000
O O4 0.343558 0.008219 0.811606
O O5 0.321134 0.250000 0.097301
O O6 0.201632 0.028360 0.881845
O O7 0.338528 0.994830 0.022370
O O8 0.391187 0.011167 0.345828
O O9 0.899431 0.250000 0.829041
O O10 0.988904 0.045339 0.134985
O O11 0.798596 0.063282 0.731148
O O12 0.889808 0.951101 0.753572
O O13 0.449385 0.250000 0.585267
O O14 0.314633 0.447843 0.360390
O O15 0.127669 0.250000 0.445747
O O16 0.182967 0.961626 0.580435
O O17 0.319667 0.750000 0.859669
O O18 0.737057 0.250000 0.747010
O O19 0.858412 0.475244 0.058624
O O20 0.104362 0.250000 0.764441
O O21 0.000000 0.000000 0.500000
#
# Coordination Sequence:
#
# PCOD9162674 Si02
#       8
#     4   4   4   4   4   4   4   4
#     4  12  27  48  73 100 130 167 210 262 322 388
#     4   9  21  42  65  91 128 171 215 262 319 382
#     4   9  20  37  57  84 120 165 213 259 311 376
#     4  10  22  43  68  96 130 168 212 266 319 381
#     4  10  21  38  59  85 122 166 211 261 315 375
#     4  12  26  43  66  97 131 168 214 269 323 384
#     4  10  20  35  58  88 122 165 211 259 314 377
#     4  10  21  36  56  86 125 167 215 267 318 377
#
# _framework density 22.051428000000001
#
# number of rings (size 3 to 8) (size 9 to 14) (size 15 to 20)
#    0.000    1.750    0.000    4.500    3.500    5.000 
#    0.000    0.000    0.000    0.000    0.000    0.000 
#    0.000    0.000    0.000    0.000    0.000    0.000 
#
# Total GULP energy -178656.466541 kJ/mol
# GULP energy per Si atom -5583.014579 kJ/mol
# Density = 2.200124 g / cm^3
# Si number density = 22.051428 Si / 1000 Ang^3
#
#
#
# Elastic Constant Matrix: (Units=GPa)
#
#
# Indices 1 2 3 4 5 6 
#
# 1 105.2397 36.5873 6.0683 0.0000 -16.9214 0.0000
# 2 36.5873 70.8617 9.5746 0.0000 -10.1221 0.0000
# 3 6.0683 9.5746 64.7061 0.0000 -2.4994 0.0000
# 4 0.0000 0.0000 0.0000 35.3140 0.0000 -1.3866
# 5 -16.9214 -10.1221 -2.4994 0.0000 9.6929 0.0000
# 6 0.0000 0.0000 0.0000 -1.3866 0.0000 28.0013
#
#
#
# Elastic Compliance Matrix: (Units=1/GPa)
#
#
# Indices 1 2 3 4 5 6 
#
# 1 0.014335 -0.004510 0.000109 0.000000 0.020343 0.000000
# 2 -0.004510 0.018216 -0.001860 0.000000 0.010670 0.000000
# 3 0.000109 -0.001860 0.015809 0.000000 0.002324 0.000000
# 4 0.000000 0.000000 0.000000 0.028373 0.000000 0.001405
# 5 0.020343 0.010670 0.002324 0.000000 0.150424 0.000000
# 6 0.000000 0.000000 0.000000 0.001405 0.000000 0.035782
#
#
# Mechanical properties :
#
#
# Convention : Reuss Voigt Hill
#
# Bulk Modulus (GPa) = 27.90421 38.36310 33.13365
# Shear Modulus (GPa) = 17.39686 27.17345 22.28515
#
# Velocity S-wave (km/s) = 2.81182 3.51419 3.18244
# Velocity P-wave (km/s) = 4.81907 5.82245 5.34436
#
# Compressibility (1/GPa) = 0.03583689
#
# Stress axis : x y z
#
# Youngs Moduli (GPa) = 69.76037 54.89648 63.25375
#
# Poissons Ratio (x) = 0.24759 -0.00688
# Poissons Ratio (y) = 0.31463 0.11767
# Poissons Ratio (z) = -0.00759 0.10213
#
# Static dielectric constant tensor:
#      x y z
#    x 1.826710 0.000000 0.022470 
#    y 0.000000 4.045900 0.000000 
#    z 0.022470 0.000000 1.916470 
# 
# From -- ./inp_files/45357.got.cif
#   From: 2010.05.17/outbox.cif.g08.bks.cpg/sg11_23_cif.got.tgz:45357.got - 2010.06.03 12:22:45.
