data_PCOD9162671
_publ_section_title
;
Structure prediction by ZEFSAII (Michael W. Deem and Ramdas Pophale) SiO2 
 PCOD9162671
Probable space group: P 21/M
;
_chemical_formula_sum "Si O2"
_cell_formula_units_Z 28
_cell_length_a 32.612049
_cell_length_b 8.811845
_cell_length_c 10.076955
_cell_angle_alpha 90.000000
_cell_angle_beta 147.664043
_cell_angle_gamma 90.000000
_cell_volume 1548.933629
_symmetry_space_group_name_H-M "P 21/M"
_symmetry_group_IT_number 11
_symmetry_cell_setting 'monoclinic'
loop_
_space_group_symop_operation_xyz
x,y,z
-x,1/2+y,-z
-x,-y,-z
x,1/2-y,z
loop_
_atom_site_type_symbol
_atom_site_label
_atom_site_fract_x
_atom_site_fract_y
_atom_site_fract_z
Si Si1 0.369643 0.933348 0.785658
Si Si2 0.499206 0.932900 0.349755
Si Si3 0.959628 0.569761 0.016618
Si Si4 0.633347 0.567646 0.512025
Si Si5 0.800647 0.429499 0.984958
Si Si6 0.046232 0.431057 0.503469
Si Si7 0.807170 0.428864 0.688092
O O1 0.373347 0.750000 0.779742
O O2 0.281329 0.972177 0.577294
O O3 0.389138 0.005569 0.695798
O O4 0.426214 0.977894 0.059214
O O5 0.498012 0.750000 0.357977
O O6 0.572698 0.974791 0.460296
O O7 0.500000 0.000000 0.500000
O O8 0.966774 0.750000 0.039158
O O9 0.003760 0.495461 0.259994
O O10 0.870636 0.522773 0.784325
O O11 0.000000 0.500000 0.000000
O O12 0.637284 0.750000 0.515700
O O13 0.716535 0.499258 0.772763
O O14 0.799775 0.250000 0.010533
O O15 0.819975 0.448263 0.881230
O O16 0.866454 0.512177 0.247245
O O17 0.042946 0.250000 0.497904
O O18 0.000000 0.500000 0.500000
O O19 0.816261 0.250000 0.682902
#
# Coordination Sequence:
#
# PCOD9162671 Si02
#       7
#     4   4   4   4   4   4   4
#     4   9  19  37  61  86 113 149 195 240 287 346
#     4  10  22  39  58  84 118 156 192 236 289 346
#     4  12  25  41  60  84 118 159 201 245 296 350
#     4  10  20  35  58  88 119 149 192 244 291 343
#     4  10  20  36  60  89 119 154 195 241 294 343
#     4  12  23  38  62  90 120 155 198 244 293 347
#     4   9  18  35  59  84 115 149 193 246 292 344
#
# _framework density 18.076954000000001
#
# number of rings (size 3 to 8) (size 9 to 14) (size 15 to 20)
#    0.000    1.714    1.429    4.714    0.000    4.000 
#    2.571    0.000    0.000    0.000    0.000    0.000 
#    0.000    0.000    0.000    0.000    0.000    0.000 
#
# Total GULP energy -156387.267618 kJ/mol
# GULP energy per Si atom -5585.259558 kJ/mol
# Density = 1.803581 g / cm^3
# Si number density = 18.076954 Si / 1000 Ang^3
#
#
#
# Elastic Constant Matrix: (Units=GPa)
#
#
# Indices 1 2 3 4 5 6 
#
# 1 148.3580 73.8658 94.3803 0.0000 -2.3131 0.0000
# 2 73.8658 102.1658 52.9093 0.0000 5.4685 0.0000
# 3 94.3803 52.9093 122.6775 0.0000 2.0763 0.0000
# 4 0.0000 0.0000 0.0000 30.3659 0.0000 -0.4175
# 5 -2.3131 5.4685 2.0763 0.0000 24.0827 0.0000
# 6 0.0000 0.0000 0.0000 -0.4175 0.0000 32.7012
#
#
#
# Elastic Compliance Matrix: (Units=1/GPa)
#
#
# Indices 1 2 3 4 5 6 
#
# 1 0.016539 -0.007145 -0.009711 0.000000 0.004048 0.000000
# 2 -0.007145 0.015830 -0.001259 0.000000 -0.004172 0.000000
# 3 -0.009711 -0.001259 0.016200 0.000000 -0.002043 0.000000
# 4 0.000000 0.000000 0.000000 0.032937 0.000000 0.000421
# 5 0.004048 -0.004172 -0.002043 0.000000 0.043036 0.000000
# 6 0.000000 0.000000 0.000000 0.000421 0.000000 0.030585
#
#
# Mechanical properties :
#
#
# Convention : Reuss Voigt Hill
#
# Bulk Modulus (GPa) = 81.05301 90.61246 85.83274
# Shear Modulus (GPa) = 25.57938 27.56636 26.57287
#
# Velocity S-wave (km/s) = 3.76577 3.90929 3.83820
# Velocity P-wave (km/s) = 7.99019 8.40307 8.19923
#
# Compressibility (1/GPa) = 0.01233760
#
# Stress axis : x y z
#
# Youngs Moduli (GPa) = 60.46424 63.17313 61.72843
#
# Poissons Ratio (x) = 0.45138 0.59943
# Poissons Ratio (y) = 0.43203 0.07774
# Poissons Ratio (z) = 0.58715 0.07956
#
# Static dielectric constant tensor:
#      x y z
#    x 1.589630 0.000000 0.022390 
#    y 0.000000 1.603850 0.000000 
#    z 0.022390 0.000000 1.615580 
# 
# From -- ./inp_files/29103.got.cif
#   From: 2010.05.17/outbox.cif.g08.bks.cpg/sg11_15_cif.got.tgz:29103.got - 2010.06.03 12:22:45.
