data_PCOD9162517
_publ_section_title
;
Structure prediction by ZEFSAII (Michael W. Deem and Ramdas Pophale) SiO2 
 PCOD9162517
Probable space group: P 21/M
;
_chemical_formula_sum "Si O2"
_cell_formula_units_Z 32
_cell_length_a 11.699987
_cell_length_b 9.066939
_cell_length_c 30.585038
_cell_angle_alpha 90.000000
_cell_angle_beta 30.184667
_cell_angle_gamma 90.000000
_cell_volume 1631.325231
_symmetry_space_group_name_H-M "P 21/M"
_symmetry_group_IT_number 11
_symmetry_cell_setting 'monoclinic'
loop_
_space_group_symop_operation_xyz
x,y,z
-x,1/2+y,-z
-x,-y,-z
x,1/2-y,z
loop_
_atom_site_type_symbol
_atom_site_label
_atom_site_fract_x
_atom_site_fract_y
_atom_site_fract_z
Si Si1 0.887401 0.076700 0.760539
Si Si2 0.192948 0.078581 0.002980
Si Si3 0.654546 0.075086 0.630173
Si Si4 0.747774 0.072364 0.419765
Si Si5 0.473358 0.083660 0.828451
Si Si6 0.933464 0.073449 0.454255
Si Si7 0.429326 0.423921 0.068341
Si Si8 0.321952 0.578683 0.797151
O O1 0.932918 0.250000 0.752751
O O2 0.685779 0.067048 0.790793
O O3 0.786832 0.000296 0.837045
O O4 0.100162 0.993152 0.669489
O O5 0.255177 0.250000 0.994450
O O6 0.938288 0.052578 0.102970
O O7 0.249609 0.069647 0.932857
O O8 0.359109 0.962187 0.970265
O O9 0.656661 0.250000 0.633983
O O10 0.729760 0.038954 0.555786
O O11 0.415549 0.011748 0.725285
O O12 0.847721 0.006927 0.598011
O O13 0.733827 0.250000 0.421850
O O14 0.866844 0.033692 0.426934
O O15 0.500000 0.000000 0.500000
O O16 0.478794 0.250000 0.808310
O O17 0.465912 0.968914 0.792029
O O18 0.972798 0.250000 0.442779
O O19 0.394440 0.250000 0.075019
O O20 0.500000 0.500000 0.000000
O O21 0.351955 0.750000 0.778143
#
# Coordination Sequence:
#
# PCOD9162517 Si02
#       8
#     4   4   4   4   4   4   4   4
#     4  10  21  39  61  87 116 149 192 239 286 344
#     4   9  20  37  53  76 112 149 188 233 279 330
#     4  10  20  35  57  83 111 147 189 234 285 346
#     4  11  23  40  61  87 118 154 195 246 302 353
#     4   9  18  33  55  80 110 148 188 232 279 332
#     4   9  20  39  60  81 109 146 190 238 287 344
#     4  11  22  39  63  87 112 149 192 237 286 340
#     4  11  21  32  50  80 116 150 184 227 278 335
#
# _framework density 19.615953999999999
#
# number of rings (size 3 to 8) (size 9 to 14) (size 15 to 20)
#    0.000    2.000    0.000    4.500    0.000    7.000 
#    2.250    0.000    0.000    0.000    0.000    0.000 
#    0.000    0.000    0.000    0.000    0.000    0.000 
#
# Total GULP energy -178694.014059 kJ/mol
# GULP energy per Si atom -5584.187939 kJ/mol
# Density = 1.957131 g / cm^3
# Si number density = 19.615954 Si / 1000 Ang^3
#
#
#
# Elastic Constant Matrix: (Units=GPa)
#
#
# Indices 1 2 3 4 5 6 
#
# 1 26.4872 27.2522 21.0600 0.0000 16.6733 0.0000
# 2 27.2522 89.8686 63.8425 0.0000 13.0438 0.0000
# 3 21.0600 63.8425 155.0170 0.0000 21.1851 0.0000
# 4 0.0000 0.0000 0.0000 38.9392 0.0000 2.1952
# 5 16.6733 13.0438 21.1851 0.0000 25.6138 0.0000
# 6 0.0000 0.0000 0.0000 2.1952 0.0000 25.2946
#
#
#
# Elastic Compliance Matrix: (Units=1/GPa)
#
#
# Indices 1 2 3 4 5 6 
#
# 1 0.089347 -0.022718 0.004042 0.000000 -0.049934 0.000000
# 2 -0.022718 0.021711 -0.007176 0.000000 0.009667 0.000000
# 3 0.004042 -0.007176 0.009828 0.000000 -0.007106 0.000000
# 4 0.000000 0.000000 0.000000 0.025807 0.000000 -0.002240
# 5 -0.049934 0.009667 -0.007106 0.000000 0.072500 0.000000
# 6 0.000000 0.000000 0.000000 -0.002240 0.000000 0.039728
#
#
# Mechanical properties :
#
#
# Convention : Reuss Voigt Hill
#
# Bulk Modulus (GPa) = 14.45456 55.07580 34.76518
# Shear Modulus (GPa) = 14.98405 28.58408 21.78407
#
# Velocity S-wave (km/s) = 2.76682 3.82145 3.33607
# Velocity P-wave (km/s) = 4.19426 6.89995 5.70969
#
# Compressibility (1/GPa) = 0.06918232
#
# Stress axis : x y z
#
# Youngs Moduli (GPa) = 11.19231 46.05861 101.74576
#
# Poissons Ratio (x) = 1.04635 -0.41126
# Poissons Ratio (y) = 0.25427 0.73018
# Poissons Ratio (z) = -0.04524 0.33054
#
# Static dielectric constant tensor:
#      x y z
#    x 1.701070 0.000000 0.009070 
#    y 0.000000 1.658260 0.000000 
#    z 0.009070 0.000000 1.713880 
# 
# From -- ./inp_files/73048.got.cif
#   From: 2010.05.17/outbox.cif.g08.bks.cpg/sg11_37_cif.got.tgz:73048.got - 2010.06.03 12:22:45.
