data_PCOD9162746
_publ_section_title
;
Structure prediction by ZEFSAII (Michael W. Deem and Ramdas Pophale) SiO2 
 PCOD9162746
Probable space group: P 21/M
;
_chemical_formula_sum "Si O2"
_cell_formula_units_Z 28
_cell_length_a 15.264105
_cell_length_b 7.739375
_cell_length_c 22.188051
_cell_angle_alpha 90.000000
_cell_angle_beta 31.089081
_cell_angle_gamma 90.000000
_cell_volume 1353.497662
_symmetry_space_group_name_H-M "P 21/M"
_symmetry_group_IT_number 11
_symmetry_cell_setting 'monoclinic'
loop_
_space_group_symop_operation_xyz
x,y,z
-x,1/2+y,-z
-x,-y,-z
x,1/2-y,z
loop_
_atom_site_type_symbol
_atom_site_label
_atom_site_fract_x
_atom_site_fract_y
_atom_site_fract_z
Si Si1 0.724480 0.452097 0.809407
Si Si2 0.567525 0.458856 0.677608
Si Si3 0.158221 0.959323 0.132947
Si Si4 0.549672 0.956867 0.123015
Si Si5 0.545932 0.045414 0.384311
Si Si6 0.776660 0.951765 0.353171
Si Si7 0.954574 0.456703 0.457611
O O1 0.682779 0.250000 0.841365
O O2 0.745151 0.525694 0.864167
O O3 0.583590 0.528787 0.847808
O O4 0.904824 0.465801 0.669340
O O5 0.570732 0.250000 0.676743
O O6 0.492632 0.521684 0.785315
O O7 0.461579 0.513630 0.681992
O O8 0.763415 0.517620 0.556814
O O9 0.153556 0.750000 0.138491
O O10 0.965052 0.025161 0.247139
O O11 0.264162 0.007885 0.011765
O O12 0.524311 0.750000 0.140421
O O13 0.552116 0.250000 0.392129
O O14 0.369982 0.974227 0.517017
O O15 0.700341 0.966886 0.331067
O O16 0.790876 0.750000 0.360853
O O17 0.959914 0.250000 0.447633
O O18 0.000000 0.500000 0.500000
#
# Coordination Sequence:
#
# PCOD9162746 Si02
#       7
#     4   4   4   4   4   4   4
#     4  10  20  37  56  79 113 147 183 230 278 322
#     4  10  21  37  54  78 113 150 179 218 278 324
#     4  10  21  36  57  81 108 145 187 229 273 321
#     4  10  21  37  54  75 112 152 185 225 271 321
#     4  10  20  35  60  88 108 137 178 222 272 330
#     4   9  19  37  57  82 114 141 170 222 282 325
#     4  11  21  34  54  80 111 145 182 222 270 324
#
# _framework density 20.687144
#
# number of rings (size 3 to 8) (size 9 to 14) (size 15 to 20)
#    0.000    2.000    1.429    2.143    0.000    5.143 
#    0.000    0.714    0.000    0.000    0.000    0.000 
#    0.000    0.000    0.000    0.000    0.000    0.000 
#
# Total GULP energy -156410.943947 kJ/mol
# GULP energy per Si atom -5586.105141 kJ/mol
# Density = 2.064006 g / cm^3
# Si number density = 20.687144 Si / 1000 Ang^3
#
#
#
# Elastic Constant Matrix: (Units=GPa)
#
#
# Indices 1 2 3 4 5 6 
#
# 1 105.6896 -5.6093 33.7565 0.0000 9.1374 0.0000
# 2 -5.6093 32.5320 -6.8049 0.0000 -5.1594 0.0000
# 3 33.7565 -6.8049 74.6083 0.0000 4.7471 0.0000
# 4 0.0000 0.0000 0.0000 22.8912 0.0000 -2.4039
# 5 9.1374 -5.1594 4.7471 0.0000 17.4196 0.0000
# 6 0.0000 0.0000 0.0000 -2.4039 0.0000 10.4821
#
#
#
# Elastic Compliance Matrix: (Units=1/GPa)
#
#
# Indices 1 2 3 4 5 6 
#
# 1 0.011422 0.000224 -0.004855 0.000000 -0.004602 0.000000
# 2 0.000224 0.032677 0.002311 0.000000 0.008931 0.000000
# 3 -0.004855 0.002311 0.015880 0.000000 -0.001097 0.000000
# 4 0.000000 0.000000 0.000000 0.044763 0.000000 0.010266
# 5 -0.004602 0.008931 -0.001097 0.000000 0.062765 0.000000
# 6 0.000000 0.000000 0.000000 0.010266 0.000000 0.097755
#
#
# Mechanical properties :
#
#
# Convention : Reuss Voigt Hill
#
# Bulk Modulus (GPa) = 18.07004 28.39051 23.23028
# Shear Modulus (GPa) = 17.34011 22.92442 20.13226
#
# Velocity S-wave (km/s) = 2.89832 3.33250 3.12296
# Velocity P-wave (km/s) = 4.46702 5.34424 4.92520
#
# Compressibility (1/GPa) = 0.05534022
#
# Stress axis : x y z
#
# Youngs Moduli (GPa) = 87.55061 30.60222 62.97088
#
# Poissons Ratio (x) = -0.00686 0.30570
# Poissons Ratio (y) = -0.01962 -0.14551
# Poissons Ratio (z) = 0.42503 -0.07072
#
# Static dielectric constant tensor:
#      x y z
#    x 1.735850 0.000000 -0.004810 
#    y 0.000000 1.761940 0.000000 
#    z -0.004810 0.000000 1.720930 
# 
# From -- ./inp_files/37397.got.cif
#   From: 2010.05.17/outbox.cif.g08.bks.cpg/sg11_19_cif.got.tgz:37397.got - 2010.06.03 12:22:45.
