data_PCOD9162187
_publ_section_title
;
Structure prediction by ZEFSAII (Michael W. Deem and Ramdas Pophale) SiO2 
 PCOD9162187
Probable space group: P 21/M
;
_chemical_formula_sum "Si O2"
_cell_formula_units_Z 32
_cell_length_a 31.788364
_cell_length_b 7.855771
_cell_length_c 12.174923
_cell_angle_alpha 90.000000
_cell_angle_beta 150.661502
_cell_angle_gamma 90.000000
_cell_volume 1489.673863
_symmetry_space_group_name_H-M "P 21/M"
_symmetry_group_IT_number 11
_symmetry_cell_setting 'monoclinic'
loop_
_space_group_symop_operation_xyz
x,y,z
-x,1/2+y,-z
-x,-y,-z
x,1/2-y,z
loop_
_atom_site_type_symbol
_atom_site_label
_atom_site_fract_x
_atom_site_fract_y
_atom_site_fract_z
Si Si1 0.237661 0.948228 0.379082
Si Si2 0.544927 0.051221 0.426461
Si Si3 0.057900 0.954797 0.029320
Si Si4 0.421159 0.543675 0.742368
Si Si5 0.384078 0.948388 0.179859
Si Si6 0.163640 0.457993 0.976317
Si Si7 0.019338 0.553461 0.377339
Si Si8 0.789613 0.552664 0.151380
O O1 0.245962 0.750000 0.427893
O O2 0.156768 0.016621 0.263627
O O3 0.332632 0.023452 0.594166
O O4 0.205210 0.965626 0.179413
O O5 0.568236 0.250000 0.475912
O O6 0.567319 0.979743 0.357269
O O7 0.590607 0.980626 0.640898
O O8 0.443849 0.034399 0.224892
O O9 0.059311 0.750000 0.016586
O O10 0.000000 0.000000 0.000000
O O11 0.016543 0.037748 0.827748
O O12 0.415649 0.750000 0.723748
O O13 0.500000 0.500000 0.000000
O O14 0.407376 0.750000 0.230458
O O15 0.281894 0.965121 0.937112
O O16 0.164945 0.250000 0.986221
O O17 0.212758 0.513687 0.979205
O O18 0.063190 0.510220 0.741399
O O19 0.034317 0.750000 0.439373
O O20 0.110586 0.462958 0.590475
O O21 0.766786 0.750000 0.098695
#
# Coordination Sequence:
#
# PCOD9162187 Si02
#       8
#     4   4   4   4   4   4   4   4
#     4   9  19  36  58  82 108 141 184 228 275 329
#     4   9  19  37  58  79 109 143 182 231 283 336
#     4  10  20  37  59  81 107 145 186 230 278 326
#     4  10  21  38  58  83 113 146 184 234 287 336
#     4  10  20  35  57  82 107 145 188 227 277 336
#     4   9  19  33  53  80 110 143 180 224 269 321
#     4  10  20  35  53  77 109 143 182 225 269 324
#     4  11  21  33  50  79 115 146 178 219 272 328
#
# _framework density 21.481211999999999
#
# number of rings (size 3 to 8) (size 9 to 14) (size 15 to 20)
#    0.000    2.250    0.000    2.625    0.000    4.500 
#    2.250    0.000    0.000    0.000    0.000    0.000 
#    0.000    0.000    0.000    0.000    0.000    0.000 
#
# Total GULP energy -178573.428306 kJ/mol
# GULP energy per Si atom -5580.419635 kJ/mol
# Density = 2.143232 g / cm^3
# Si number density = 21.481212 Si / 1000 Ang^3
#
#
#
# Elastic Constant Matrix: (Units=GPa)
#
#
# Indices 1 2 3 4 5 6 
#
# 1 107.9908 -0.0976 32.8321 0.0000 32.0572 0.0000
# 2 -0.0976 39.4690 -5.3522 0.0000 1.2714 0.0000
# 3 32.8321 -5.3522 86.6750 0.0000 35.8174 0.0000
# 4 0.0000 0.0000 0.0000 24.8580 0.0000 -2.3053
# 5 32.0572 1.2714 35.8174 0.0000 33.5701 0.0000
# 6 0.0000 0.0000 0.0000 -2.3053 0.0000 18.2759
#
#
#
# Elastic Compliance Matrix: (Units=1/GPa)
#
#
# Indices 1 2 3 4 5 6 
#
# 1 0.012940 0.000505 0.000436 0.000000 -0.012841 0.000000
# 2 0.000505 0.025999 0.003614 0.000000 -0.005322 0.000000
# 3 0.000436 0.003614 0.021148 0.000000 -0.023117 0.000000
# 4 0.000000 0.000000 0.000000 0.040705 0.000000 0.005134
# 5 -0.012841 -0.005322 -0.023117 0.000000 0.066917 0.000000
# 6 0.000000 0.000000 0.000000 0.005134 0.000000 0.055365
#
#
# Mechanical properties :
#
#
# Convention : Reuss Voigt Hill
#
# Bulk Modulus (GPa) = 14.45174 32.09992 23.27583
# Shear Modulus (GPa) = 21.09436 29.12428 25.10932
#
# Velocity S-wave (km/s) = 3.13707 3.68612 3.42262
# Velocity P-wave (km/s) = 4.45689 5.75259 5.14569
#
# Compressibility (1/GPa) = 0.06919582
#
# Stress axis : x y z
#
# Youngs Moduli (GPa) = 77.28094 38.46292 47.28517
#
# Poissons Ratio (x) = -0.01942 -0.02062
# Poissons Ratio (y) = -0.03901 -0.17087
# Poissons Ratio (z) = -0.03370 -0.13899
#
# Static dielectric constant tensor:
#      x y z
#    x 1.788240 0.000000 0.035560 
#    y 0.000000 1.780690 0.000000 
#    z 0.035560 0.000000 1.802390 
# 
# From -- ./inp_files/45279.got.cif
#   From: 2010.05.17/outbox.cif.g08.bks.cpg/sg11_23_cif.got.tgz:45279.got - 2010.06.03 12:22:45.
