data_PCOD9162693
_publ_section_title
;
Structure prediction by ZEFSAII (Michael W. Deem and Ramdas Pophale) SiO2 
 PCOD9162693
Probable space group: P 21/M
;
_chemical_formula_sum "Si O2"
_cell_formula_units_Z 20
_cell_length_a 7.174217
_cell_length_b 17.019965
_cell_length_c 7.104872
_cell_angle_alpha 90.000000
_cell_angle_beta 122.328451
_cell_angle_gamma 90.000000
_cell_volume 733.068035
_symmetry_space_group_name_H-M "P 21/M"
_symmetry_group_IT_number 11
_symmetry_cell_setting 'monoclinic'
loop_
_space_group_symop_operation_xyz
x,y,z
-x,1/2+y,-z
-x,-y,-z
x,1/2-y,z
loop_
_atom_site_type_symbol
_atom_site_label
_atom_site_fract_x
_atom_site_fract_y
_atom_site_fract_z
Si Si1 0.353026 0.408717 0.710748
Si Si2 0.980352 0.841315 0.199080
Si Si3 0.798403 0.446054 0.943865
Si Si4 0.303561 0.663724 0.831925
Si Si5 0.619407 0.661611 0.669256
O O1 0.124127 0.399148 0.699283
O O2 0.545458 0.476969 0.821251
O O3 0.331935 0.393118 0.479817
O O4 0.494437 0.343545 0.907830
O O5 0.004309 0.750000 0.271670
O O6 0.192649 0.878905 0.212516
O O7 0.809168 0.841486 0.930660
O O8 0.841821 0.406307 0.168736
O O9 0.000000 0.500000 0.000000
O O10 0.202597 0.750000 0.794787
O O11 0.400422 0.652410 0.678456
O O12 0.614805 0.750000 0.588811
#
# Coordination Sequence:
#
# PCOD9162693 Si02
#       5
#     4   4   4   4   4
#     4   9  19  35  58  79 111 138 180 226 276 318
#     4  10  20  35  59  84 107 138 183 232 275 320
#     4  10  22  38  56  78 115 154 182 218 273 330
#     4   8  16  32  56  76 104 140 176 223 272 313
#     4   9  16  32  57  84 106 136 179 232 281 318
#
# _framework density 27.282598
#
# number of rings (size 3 to 8) (size 9 to 14) (size 15 to 20)
#    1.200    1.600    0.000    3.600    0.000    0.800 
#    3.600    2.000    0.000    0.000    0.000    0.000 
#    0.000    0.000    0.000    0.000    0.000    0.000 
#
# Total GULP energy -111625.813906 kJ/mol
# GULP energy per Si atom -5581.290695 kJ/mol
# Density = 2.722050 g / cm^3
# Si number density = 27.282598 Si / 1000 Ang^3
#
#
#
# Elastic Constant Matrix: (Units=GPa)
#
#
# Indices 1 2 3 4 5 6 
#
# 1 129.1681 11.1160 16.7379 0.0000 -30.2248 0.0000
# 2 11.1160 71.0599 -0.7575 0.0000 -2.0105 0.0000
# 3 16.7379 -0.7575 139.5224 0.0000 -17.2882 0.0000
# 4 0.0000 0.0000 0.0000 11.5367 0.0000 -17.1799
# 5 -30.2248 -2.0105 -17.2882 0.0000 39.7378 0.0000
# 6 0.0000 0.0000 0.0000 -17.1799 0.0000 32.5945
#
#
#
# Elastic Compliance Matrix: (Units=1/GPa)
#
#
# Indices 1 2 3 4 5 6 
#
# 1 0.009544 -0.001296 -0.000275 0.000000 0.007074 0.000000
# 2 -0.001296 0.014273 0.000212 0.000000 -0.000171 0.000000
# 3 -0.000275 0.000212 0.007586 0.000000 0.003101 0.000000
# 4 0.000000 0.000000 0.000000 0.402976 0.000000 0.212400
# 5 0.007074 -0.000171 0.003101 0.000000 0.031886 0.000000
# 6 0.000000 0.000000 0.000000 0.212400 0.000000 0.142632
#
#
# Mechanical properties :
#
#
# Convention : Reuss Voigt Hill
#
# Bulk Modulus (GPa) = 34.86298 43.77147 39.31723
# Shear Modulus (GPa) = 8.04923 37.61739 22.83331
#
# Velocity S-wave (km/s) = 1.71951 3.71726 2.89609
# Velocity P-wave (km/s) = 4.09249 5.87389 5.06217
#
# Compressibility (1/GPa) = 0.02868372
#
# Stress axis : x y z
#
# Youngs Moduli (GPa) = 104.77380 70.06354 131.82519
#
# Poissons Ratio (x) = 0.09079 0.03632
# Poissons Ratio (y) = 0.13577 -0.02791
# Poissons Ratio (z) = 0.02886 -0.01483
#
# Static dielectric constant tensor:
#      x y z
#    x 2.246130 0.000000 0.080050 
#    y 0.000000 2.274190 0.000000 
#    z 0.080050 0.000000 2.093480 
# 
# From -- ./inp_files/1991.got.cif
#   From: 2010.05.17/outbox.cif.g08.bks.cpg/sg11_1_cif.got.tgz:1991.got - 2010.06.03 12:22:45.
