data_PCOD9162524
_publ_section_title
;
Structure prediction by ZEFSAII (Michael W. Deem and Ramdas Pophale) SiO2 
 PCOD9162524
Probable space group: P 21/M
;
_chemical_formula_sum "Si O2"
_cell_formula_units_Z 32
_cell_length_a 13.755020
_cell_length_b 11.225479
_cell_length_c 9.777421
_cell_angle_alpha 90.000000
_cell_angle_beta 94.825463
_cell_angle_gamma 90.000000
_cell_volume 1504.348177
_symmetry_space_group_name_H-M "P 21/M"
_symmetry_group_IT_number 11
_symmetry_cell_setting 'monoclinic'
loop_
_space_group_symop_operation_xyz
x,y,z
-x,1/2+y,-z
-x,-y,-z
x,1/2-y,z
loop_
_atom_site_type_symbol
_atom_site_label
_atom_site_fract_x
_atom_site_fract_y
_atom_site_fract_z
Si Si1 0.647218 0.447847 0.928534
Si Si2 0.855395 0.113187 0.021489
Si Si3 0.645983 0.625696 0.701173
Si Si4 0.245999 0.489930 0.519621
Si Si5 0.124766 0.392328 0.761417
Si Si6 0.429680 0.120204 0.862427
Si Si7 0.560102 0.443568 0.382715
Si Si8 0.100611 0.887530 0.291305
O O1 0.670558 0.505365 0.784882
O O2 0.544867 0.380482 0.911082
O O3 0.738248 0.379204 0.997291
O O4 0.627044 0.561339 0.020907
O O5 0.891098 0.250000 0.061835
O O6 0.873630 0.997689 0.121437
O O7 0.889457 0.083945 0.870146
O O8 0.684394 0.750000 0.764990
O O9 0.691893 0.608399 0.557165
O O10 0.528056 0.632717 0.689644
O O11 0.197640 0.436681 0.650424
O O12 0.330600 0.590303 0.559305
O O13 0.163534 0.536786 0.405780
O O14 0.142096 0.250000 0.802075
O O15 0.014246 0.395221 0.691438
O O16 0.393546 0.250000 0.829621
O O17 0.419022 0.039909 0.729869
O O18 0.500000 0.500000 0.500000
O O19 0.132832 0.750000 0.307392
#
# Coordination Sequence:
#
# PCOD9162524 Si02
#       8
#     4   4   4   4   4   4   4   4
#     4  10  20  36  57  88 122 159 214 263 310 379
#     4  11  23  43  68  93 128 171 219 270 326 392
#     4  10  20  36  57  88 129 167 209 261 317 380
#     4  11  21  41  64  94 129 168 215 265 323 390
#     4  11  25  44  68  99 133 168 214 276 336 390
#     4  10  20  35  57  83 121 167 208 258 317 372
#     4   9  21  35  52  83 120 158 206 252 302 373
#     4  10  23  44  68  95 129 169 219 274 328 391
#
# _framework density 21.271671999999999
#
# number of rings (size 3 to 8) (size 9 to 14) (size 15 to 20)
#    0.000    1.750    1.250    2.625    0.000    5.500 
#    0.000    5.625    0.000    0.000    0.000    0.000 
#    0.000    0.000    0.000    0.000    0.000    0.000 
#
# Total GULP energy -178182.013300 kJ/mol
# GULP energy per Si atom -5568.187916 kJ/mol
# Density = 2.122326 g / cm^3
# Si number density = 21.271672 Si / 1000 Ang^3
#
#
#
# Elastic Constant Matrix: (Units=GPa)
#
#
# Indices 1 2 3 4 5 6 
#
# 1 110.6893 19.9371 16.9846 0.0000 0.8487 0.0000
# 2 19.9371 114.5332 33.4684 0.0000 8.2363 0.0000
# 3 16.9846 33.4684 68.8942 0.0000 -7.5854 0.0000
# 4 0.0000 0.0000 0.0000-1154.2534 0.0000 843.8556
# 5 0.8487 8.2363 -7.5854 0.0000 35.0221 0.0000
# 6 0.0000 0.0000 0.0000 843.8556 0.0000 -268.6626
#
#
#
# Elastic Compliance Matrix: (Units=1/GPa)
#
#
# Indices 1 2 3 4 5 6 
#
# 1 0.009518 -0.001086 -0.001861 0.000000 -0.000378 0.000000
# 2 -0.001086 0.010749 -0.005357 0.000000 -0.003662 0.000000
# 3 -0.001861 -0.005357 0.018153 0.000000 0.005237 0.000000
# 4 0.000000 0.000000 0.000000 0.000668 0.000000 0.002099
# 5 -0.000378 -0.003662 0.005237 0.000000 0.030558 0.000000
# 6 0.000000 0.000000 0.000000 0.002099 0.000000 0.002871
#
#
# Mechanical properties :
#
#
# Convention : Reuss Voigt Hill
#
# Bulk Modulus (GPa) = 45.84559 48.32188 47.08374
# Shear Modulus (GPa) = 51.86927 -262.66369 -105.39721
#
# Velocity S-wave (km/s) = 4.94339 -11.12423 -7.04668
# Velocity P-wave (km/s) = 7.36085 11.92612 6.63514
#
# Compressibility (1/GPa) = 0.02181235
#
# Stress axis : x y z
#
# Youngs Moduli (GPa) = 105.06071 93.03253 55.08787
#
# Poissons Ratio (x) = 0.10103 0.10250
# Poissons Ratio (y) = 0.11409 0.29512
# Poissons Ratio (z) = 0.19548 0.49840
#
# Static dielectric constant tensor:
#      x y z
#    x 1.790660 0.000000 0.048220 
#    y 0.000000 1.796000 0.000000 
#    z 0.048220 0.000000 1.744790 
# 
# From -- ./inp_files/21538.got.cif
#   From: 2010.05.17/outbox.cif.g08.bks.cpg/sg11_11_cif.got.tgz:21538.got - 2010.06.03 12:22:45.
