data_PCOD9162650
_publ_section_title
;
Structure prediction by ZEFSAII (Michael W. Deem and Ramdas Pophale) SiO2 
 PCOD9162650
Probable space group: P 21/M
;
_chemical_formula_sum "Si O2"
_cell_formula_units_Z 28
_cell_length_a 25.128665
_cell_length_b 9.094579
_cell_length_c 22.898414
_cell_angle_alpha 90.000000
_cell_angle_beta 163.085669
_cell_angle_gamma 90.000000
_cell_volume 1522.520334
_symmetry_space_group_name_H-M "P 21/M"
_symmetry_group_IT_number 11
_symmetry_cell_setting 'monoclinic'
loop_
_space_group_symop_operation_xyz
x,y,z
-x,1/2+y,-z
-x,-y,-z
x,1/2-y,z
loop_
_atom_site_type_symbol
_atom_site_label
_atom_site_fract_x
_atom_site_fract_y
_atom_site_fract_z
Si Si1 0.122765 0.425761 0.302281
Si Si2 0.547830 0.426014 0.727754
Si Si3 0.062956 0.915415 0.123625
Si Si4 0.969643 0.427131 0.380471
Si Si5 0.880565 0.071458 0.155998
Si Si6 0.299896 0.926447 0.795700
Si Si7 0.495084 0.584376 0.555882
O O1 0.099527 0.250000 0.271781
O O2 0.339118 0.456999 0.527050
O O3 0.027021 0.501634 0.146422
O O4 0.034659 0.471993 0.270921
O O5 0.564860 0.250000 0.738011
O O6 0.586338 0.500975 0.705934
O O7 0.689110 0.474183 0.925864
O O8 0.990225 0.750000 0.047543
O O9 0.281875 0.908438 0.348642
O O10 0.000000 0.000000 0.000000
O O11 0.000397 0.250000 0.413081
O O12 0.918680 0.477151 0.261735
O O13 0.801260 0.455418 0.248218
O O14 0.152907 0.506137 0.595861
O O15 0.878751 0.250000 0.156372
O O16 0.315571 0.750000 0.805245
O O17 0.500000 0.000000 0.000000
O O18 0.500000 0.500000 0.500000
O O19 0.564590 0.750000 0.622242
#
# Coordination Sequence:
#
# PCOD9162650 Si02
#       7
#     4   4   4   4   4   4   4
#     4   9  18  33  52  74 102 134 171 219 270 322
#     4   9  18  33  51  73 102 133 169 216 267 322
#     4  10  21  35  51  72  99 130 168 216 270 327
#     4   9  19  36  57  85 117 150 192 236 275 329
#     4   9  18  33  56  81 105 139 182 224 270 326
#     4  10  20  35  58  86 119 156 192 233 279 326
#     4  10  21  35  51  72  98 129 167 215 268 323
#
# _framework density 18.390557999999999
#
# number of rings (size 3 to 8) (size 9 to 14) (size 15 to 20)
#    0.000    2.571    0.000    1.286    2.000    3.429 
#    0.000    5.714    0.000    3.429    0.000    0.000 
#    0.000    0.000    0.000    0.000    0.000    0.000 
#
# Total GULP energy -156159.042315 kJ/mol
# GULP energy per Si atom -5577.108654 kJ/mol
# Density = 1.834870 g / cm^3
# Si number density = 18.390558 Si / 1000 Ang^3
#
#
#
# Elastic Constant Matrix: (Units=GPa)
#
#
# Indices 1 2 3 4 5 6 
#
# 1 155.1413 61.2507 98.5681 0.0000 -32.1618 0.0000
# 2 61.2507 63.9138 62.5372 0.0000 -6.2725 0.0000
# 3 98.5681 62.5372 143.4898 0.0000 -13.6541 0.0000
# 4 0.0000 0.0000 0.0000 23.2451 0.0000 -4.7624
# 5 -32.1618 -6.2725 -13.6541 0.0000 39.8863 0.0000
# 6 0.0000 0.0000 0.0000 -4.7624 0.0000 23.5168
#
#
#
# Elastic Compliance Matrix: (Units=1/GPa)
#
#
# Indices 1 2 3 4 5 6 
#
# 1 0.015375 -0.007593 -0.006395 0.000000 0.009014 0.000000
# 2 -0.007593 0.031031 -0.008710 0.000000 -0.004224 0.000000
# 3 -0.006395 -0.008710 0.015027 0.000000 -0.001382 0.000000
# 4 0.000000 0.000000 0.000000 0.044882 0.000000 0.009089
# 5 0.009014 -0.004224 -0.001382 0.000000 0.031202 0.000000
# 6 0.000000 0.000000 0.000000 0.009089 0.000000 0.044363
#
#
# Mechanical properties :
#
#
# Convention : Reuss Voigt Hill
#
# Bulk Modulus (GPa) = 62.35711 89.69523 76.02617
# Shear Modulus (GPa) = 21.49420 26.67555 24.08488
#
# Velocity S-wave (km/s) = 3.42243 3.81268 3.62281
# Velocity P-wave (km/s) = 7.04259 8.26198 7.67654
#
# Compressibility (1/GPa) = 0.01603666
#
# Stress axis : x y z
#
# Youngs Moduli (GPa) = 65.04106 32.22626 66.54872
#
# Poissons Ratio (x) = 0.24468 0.42556
# Poissons Ratio (y) = 0.49384 0.57966
# Poissons Ratio (z) = 0.41592 0.28070
#
# Static dielectric constant tensor:
#      x y z
#    x 1.626110 0.000000 0.018930 
#    y 0.000000 1.630860 0.000000 
#    z 0.018930 0.000000 1.637000 
# 
# From -- ./inp_files/66765.got.cif
#   From: 2010.05.17/outbox.cif.g08.bks.cpg/sg11_34_cif.got.tgz:66765.got - 2010.06.03 12:22:45.
