data_PCOD9162489
_publ_section_title
;
Structure prediction by ZEFSAII (Michael W. Deem and Ramdas Pophale) SiO2 
 PCOD9162489
Probable space group: P 21/M
;
_chemical_formula_sum "Si O2"
_cell_formula_units_Z 28
_cell_length_a 24.072763
_cell_length_b 7.682189
_cell_length_c 27.687824
_cell_angle_alpha 90.000000
_cell_angle_beta 165.309667
_cell_angle_gamma 90.000000
_cell_volume 1298.494155
_symmetry_space_group_name_H-M "P 21/M"
_symmetry_group_IT_number 11
_symmetry_cell_setting 'monoclinic'
loop_
_space_group_symop_operation_xyz
x,y,z
-x,1/2+y,-z
-x,-y,-z
x,1/2-y,z
loop_
_atom_site_type_symbol
_atom_site_label
_atom_site_fract_x
_atom_site_fract_y
_atom_site_fract_z
Si Si1 0.549868 0.960159 0.422853
Si Si2 0.515813 0.953255 0.934690
Si Si3 0.672035 0.044258 0.317543
Si Si4 0.284527 0.958593 0.287010
Si Si5 0.021196 0.958332 0.153274
Si Si6 0.527319 0.048466 0.748954
Si Si7 0.161412 0.462505 0.711016
O O1 0.531011 0.750000 0.405481
O O2 0.350455 0.025508 0.289530
O O3 0.536045 0.028190 0.356726
O O4 0.778443 0.001013 0.641943
O O5 0.574474 0.750000 0.980073
O O6 0.492813 0.028468 0.861751
O O7 0.280609 0.971550 0.763108
O O8 0.690307 0.026764 0.119283
O O9 0.686398 0.250000 0.319874
O O10 0.915431 0.975819 0.512701
O O11 0.590096 0.025587 0.302890
O O12 0.259888 0.750000 0.263039
O O13 0.089128 0.024998 0.156674
O O14 0.500000 0.000000 0.500000
O O15 0.001110 0.750000 0.134260
O O16 0.789036 0.031773 0.973801
O O17 0.465866 0.250000 0.696087
O O18 0.167831 0.250000 0.714698
#
# Coordination Sequence:
#
# PCOD9162489 Si02
#       7
#     4   4   4   4   4   4   4
#     4   9  19  37  57  78 108 142 178 224 274 323
#     4   9  18  33  54  80 106 132 165 208 260 312
#     4  10  21  36  52  73 105 141 177 217 258 306
#     4   8  15  30  53  79 104 133 172 219 273 326
#     4  10  20  35  57  82 107 138 178 225 275 327
#     4  11  24  38  53  77 109 147 187 223 266 321
#     4   9  18  33  54  79 104 131 166 211 261 309
#
# _framework density 21.56344
#
# number of rings (size 3 to 8) (size 9 to 14) (size 15 to 20)
#    0.000    2.571    0.000    1.286    0.000    4.571 
#    0.000    1.429    0.000    0.000    0.000    0.000 
#    0.000    0.000    0.000    0.000    0.000    0.000 
#
# Total GULP energy -156211.836055 kJ/mol
# GULP energy per Si atom -5578.994145 kJ/mol
# Density = 2.151436 g / cm^3
# Si number density = 21.563440 Si / 1000 Ang^3
#
#
#
# Elastic Constant Matrix: (Units=GPa)
#
#
# Indices 1 2 3 4 5 6 
#
# 1 118.4541 -10.0861 29.5640 0.0000 -33.6623 0.0000
# 2 -10.0861 38.0656 -13.4998 0.0000 -6.0038 0.0000
# 3 29.5640 -13.4998 54.2745 0.0000 -12.7515 0.0000
# 4 0.0000 0.0000 0.0000 88.3507 0.0000 92.5017
# 5 -33.6623 -6.0038 -12.7515 0.0000 26.1162 0.0000
# 6 0.0000 0.0000 0.0000 92.5017 0.0000 130.0458
#
#
#
# Elastic Compliance Matrix: (Units=1/GPa)
#
#
# Indices 1 2 3 4 5 6 
#
# 1 0.015208 0.006528 -0.001923 0.000000 0.020164 0.000000
# 2 0.006528 0.034991 0.010182 0.000000 0.021430 0.000000
# 3 -0.001923 0.010182 0.024820 0.000000 0.011981 0.000000
# 4 0.000000 0.000000 0.000000 0.044338 0.000000 -0.031537
# 5 0.020164 0.021430 0.011981 0.000000 0.075058 0.000000
# 6 0.000000 0.000000 0.000000 -0.031537 0.000000 0.030122
#
#
# Mechanical properties :
#
#
# Convention : Reuss Voigt Hill
#
# Bulk Modulus (GPa) = 9.56070 24.75005 17.15537
# Shear Modulus (GPa) = 21.75556 62.55694 42.15625
#
# Velocity S-wave (km/s) = 3.17978 5.39200 4.42632
# Velocity P-wave (km/s) = 4.23376 7.08996 5.83919
#
# Compressibility (1/GPa) = 0.10459490
#
# Stress axis : x y z
#
# Youngs Moduli (GPa) = 65.75414 28.57844 40.29042
#
# Poissons Ratio (x) = -0.18656 0.07747
# Poissons Ratio (y) = -0.42925 -0.41025
# Poissons Ratio (z) = 0.12643 -0.29100
#
# Static dielectric constant tensor:
#      x y z
#    x 1.803130 0.000000 -0.031410 
#    y 0.000000 1.788430 0.000000 
#    z -0.031410 0.000000 1.774020 
# 
# From -- ./inp_files/66760.got.cif
#   From: 2010.05.17/outbox.cif.g08.bks.cpg/sg11_34_cif.got.tgz:66760.got - 2010.06.03 12:22:45.
