data_PCOD9162295
_publ_section_title
;
Structure prediction by ZEFSAII (Michael W. Deem and Ramdas Pophale) SiO2 
 PCOD9162295
Probable space group: P 21/M
;
_chemical_formula_sum "Si O2"
_cell_formula_units_Z 28
_cell_length_a 24.777068
_cell_length_b 9.196416
_cell_length_c 8.164747
_cell_angle_alpha 90.000000
_cell_angle_beta 42.647783
_cell_angle_gamma 90.000000
_cell_volume 1260.415970
_symmetry_space_group_name_H-M "P 21/M"
_symmetry_group_IT_number 11
_symmetry_cell_setting 'monoclinic'
loop_
_space_group_symop_operation_xyz
x,y,z
-x,1/2+y,-z
-x,-y,-z
x,1/2-y,z
loop_
_atom_site_type_symbol
_atom_site_label
_atom_site_fract_x
_atom_site_fract_y
_atom_site_fract_z
Si Si1 0.587057 0.916950 0.476832
Si Si2 0.541138 0.576627 0.062098
Si Si3 0.030496 0.418590 0.673003
Si Si4 0.253263 0.078948 0.725823
Si Si5 0.693054 0.919879 0.909362
Si Si6 0.828896 0.077508 0.788688
Si Si7 0.891582 0.582802 0.143602
O O1 0.558867 0.750000 0.557601
O O2 0.653138 0.948485 0.470489
O O3 0.637534 0.925769 0.197292
O O4 0.515309 0.027342 0.661009
O O5 0.539964 0.750000 0.046039
O O6 0.631882 0.535076 0.903624
O O7 0.500000 0.500000 0.000000
O O8 0.027522 0.250000 0.632224
O O9 0.083441 0.511330 0.431161
O O10 0.078156 0.432417 0.739617
O O11 0.944150 0.480272 0.910591
O O12 0.245323 0.250000 0.789780
O O13 0.202197 0.058117 0.675709
O O14 0.209889 0.982733 0.958803
O O15 0.716680 0.750000 0.833976
O O16 0.769318 0.016265 0.781033
O O17 0.831437 0.250000 0.779464
O O18 0.908388 0.750000 0.058258
#
# Coordination Sequence:
#
# PCOD9162295 Si02
#       7
#     4   4   4   4   4   4   4
#     4   9  18  35  58  81 106 138 177 221 270 321
#     4  11  23  37  55  81 112 144 179 220 265 314
#     4  10  20  35  55  79 110 145 178 218 271 323
#     4   9  19  37  58  80 108 141 177 220 270 320
#     4   9  20  39  59  78 105 143 181 218 267 321
#     4  11  22  35  55  83 110 138 178 224 266 315
#     4   9  19  36  57  79 104 140 185 224 262 316
#
# _framework density 22.214887000000001
#
# number of rings (size 3 to 8) (size 9 to 14) (size 15 to 20)
#    0.000    2.286    0.000    3.429    0.000    6.286 
#    0.000    2.857    0.000    0.000    0.000    0.000 
#    0.000    0.000    0.000    0.000    0.000    0.000 
#
# Total GULP energy -156500.368400 kJ/mol
# GULP energy per Si atom -5589.298871 kJ/mol
# Density = 2.216432 g / cm^3
# Si number density = 22.214887 Si / 1000 Ang^3
#
#
#
# Elastic Constant Matrix: (Units=GPa)
#
#
# Indices 1 2 3 4 5 6 
#
# 1 102.1974 18.1409 -2.5425 0.0000 -13.2961 0.0000
# 2 18.1409 63.6997 35.6923 0.0000 -15.4227 0.0000
# 3 -2.5425 35.6923 58.8431 0.0000 -13.0190 0.0000
# 4 0.0000 0.0000 0.0000 32.9508 0.0000 -5.9229
# 5 -13.2961 -15.4227 -13.0190 0.0000 32.8931 0.0000
# 6 0.0000 0.0000 0.0000 -5.9229 0.0000 24.0580
#
#
#
# Elastic Compliance Matrix: (Units=1/GPa)
#
#
# Indices 1 2 3 4 5 6 
#
# 1 0.011217 -0.004527 0.004125 0.000000 0.004045 0.000000
# 2 -0.004527 0.026726 -0.015386 0.000000 0.004611 0.000000
# 3 0.004125 -0.015386 0.027704 0.000000 0.005419 0.000000
# 4 0.000000 0.000000 0.000000 0.031753 0.000000 0.007817
# 5 0.004045 0.004611 0.005419 0.000000 0.036343 0.000000
# 6 0.000000 0.000000 0.000000 0.007817 0.000000 0.043491
#
#
# Mechanical properties :
#
#
# Convention : Reuss Voigt Hill
#
# Bulk Modulus (GPa) = 29.34976 36.36907 32.85942
# Shear Modulus (GPa) = 22.71002 29.54368 26.12685
#
# Velocity S-wave (km/s) = 3.20079 3.65074 3.43315
# Velocity P-wave (km/s) = 5.18657 5.84616 5.52622
#
# Compressibility (1/GPa) = 0.03407183
#
# Stress axis : x y z
#
# Youngs Moduli (GPa) = 89.14734 37.41740 36.09557
#
# Poissons Ratio (x) = 0.16938 -0.14891
# Poissons Ratio (y) = 0.40356 0.55537
# Poissons Ratio (z) = -0.36777 0.57571
#
# Static dielectric constant tensor:
#      x y z
#    x 1.914720 0.000000 0.051360 
#    y 0.000000 1.728850 0.000000 
#    z 0.051360 0.000000 1.832760 
# 
# From -- ./inp_files/24054.got.cif
#   From: 2010.05.17/outbox.cif.g08.bks.cpg/sg11_13_cif.got.tgz:24054.got - 2010.06.03 12:22:45.
