data_PCOD9162109
_publ_section_title
;
Structure prediction by ZEFSAII (Michael W. Deem and Ramdas Pophale) SiO2 
 PCOD9162109
Probable space group: P 21/M
;
_chemical_formula_sum "Si O2"
_cell_formula_units_Z 32
_cell_length_a 9.372474
_cell_length_b 15.079852
_cell_length_c 14.398642
_cell_angle_alpha 90.000000
_cell_angle_beta 121.988327
_cell_angle_gamma 90.000000
_cell_volume 1726.031100
_symmetry_space_group_name_H-M "P 21/M"
_symmetry_group_IT_number 11
_symmetry_cell_setting 'monoclinic'
loop_
_space_group_symop_operation_xyz
x,y,z
-x,1/2+y,-z
-x,-y,-z
x,1/2-y,z
loop_
_atom_site_type_symbol
_atom_site_label
_atom_site_fract_x
_atom_site_fract_y
_atom_site_fract_z
Si Si1 0.006485 0.151318 0.073426
Si Si2 0.298510 0.648944 0.551897
Si Si3 0.712543 0.035475 0.050019
Si Si4 0.440584 0.004072 0.820050
Si Si5 0.651002 0.585668 0.730172
Si Si6 0.897099 0.645463 0.106778
Si Si7 0.860959 0.458131 0.673153
Si Si8 0.881344 0.027325 0.373654
O O1 0.940105 0.250000 0.066373
O O2 0.883496 0.081008 0.077580
O O3 0.191704 0.142244 0.180524
O O4 0.024936 0.136621 0.969523
O O5 0.252276 0.750000 0.521328
O O6 0.499169 0.637352 0.629099
O O7 0.231314 0.590929 0.443224
O O8 0.213499 0.613171 0.618127
O O9 0.647654 0.056485 0.130904
O O10 0.749673 0.928851 0.060960
O O11 0.567443 0.061198 0.926623
O O12 0.562792 0.958039 0.789141
O O13 0.276195 0.037522 0.706932
O O14 0.729260 0.510731 0.690713
O O15 0.852415 0.750000 0.104271
O O16 0.033037 0.611645 0.228877
O O17 0.995159 0.525631 0.671834
O O18 0.000000 0.000000 0.500000
#
# Coordination Sequence:
#
# PCOD9162109 Si02
#       8
#     4   4   4   4   4   4   4   4
#     4  11  22  37  58  88 118 156 200 242 292 350
#     4  10  22  38  57  88 119 149 195 250 294 348
#     4  11  20  38  57  81 121 158 192 241 290 350
#     4  10  20  34  59  84 112 156 195 234 297 344
#     4  11  20  36  60  87 115 155 195 245 291 353
#     4  11  21  34  60  88 114 153 199 240 288 349
#     4  11  20  38  62  85 114 157 202 234 297 353
#     4   9  19  36  59  82 111 152 195 233 288 356
#
# _framework density 18.539642000000001
#
# number of rings (size 3 to 8) (size 9 to 14) (size 15 to 20)
#    0.000    1.500    3.750    2.250    0.000    0.000 
#    0.000    9.375    0.000    1.500    0.000    0.000 
#    0.000    0.000    0.000    0.000    0.000    0.000 
#
# Total GULP energy -178225.395131 kJ/mol
# GULP energy per Si atom -5569.543598 kJ/mol
# Density = 1.849744 g / cm^3
# Si number density = 18.539642 Si / 1000 Ang^3
#
#
#
# Elastic Constant Matrix: (Units=GPa)
#
#
# Indices 1 2 3 4 5 6 
#
# 1 110.7372 46.3368 35.7731 0.0000 -1.3348 0.0000
# 2 46.3368 70.8422 17.2334 0.0000 -16.2107 0.0000
# 3 35.7731 17.2334 115.8939 0.0000 6.3985 0.0000
# 4 0.0000 0.0000 0.0000 19.0211 0.0000 -0.0946
# 5 -1.3348 -16.2107 6.3985 0.0000 38.8298 0.0000
# 6 0.0000 0.0000 0.0000 -0.0946 0.0000 9.1515
#
#
#
# Elastic Compliance Matrix: (Units=1/GPa)
#
#
# Indices 1 2 3 4 5 6 
#
# 1 0.013583 -0.008859 -0.002722 0.000000 -0.002783 0.000000
# 2 -0.008859 0.022273 -0.001084 0.000000 0.009173 0.000000
# 3 -0.002722 -0.001084 0.009749 0.000000 -0.002152 0.000000
# 4 0.000000 0.000000 0.000000 0.052576 0.000000 0.000544
# 5 -0.002783 0.009173 -0.002152 0.000000 0.029842 0.000000
# 6 0.000000 0.000000 0.000000 0.000544 0.000000 0.109277
#
#
# Mechanical properties :
#
#
# Convention : Reuss Voigt Hill
#
# Bulk Modulus (GPa) = 49.32082 55.12889 52.22486
# Shear Modulus (GPa) = 18.56056 26.60914 22.58485
#
# Velocity S-wave (km/s) = 3.16749 3.79259 3.49405
# Velocity P-wave (km/s) = 6.32756 6.99847 6.67145
#
# Compressibility (1/GPa) = 0.02027541
#
# Stress axis : x y z
#
# Youngs Moduli (GPa) = 73.62058 44.89688 102.57779
#
# Poissons Ratio (x) = 0.39776 0.27918
# Poissons Ratio (y) = 0.65223 0.11118
# Poissons Ratio (z) = 0.20037 0.04866
#
# Static dielectric constant tensor:
#      x y z
#    x 1.634700 0.000000 0.015830 
#    y 0.000000 1.625840 0.000000 
#    z 0.015830 0.000000 1.701240 
# 
# From -- ./inp_files/47648.got.cif
#   From: 2010.05.17/outbox.cif.g08.bks.cpg/sg11_24_cif.got.tgz:47648.got - 2010.06.03 12:22:45.
