data_PCOD9162986
_publ_section_title
;
Structure prediction by ZEFSAII (Michael W. Deem and Ramdas Pophale) SiO2 
 PCOD9162986
Probable space group: P 21/M
;
_chemical_formula_sum "Si O2"
_cell_formula_units_Z 32
_cell_length_a 8.131103
_cell_length_b 11.021531
_cell_length_c 22.885940
_cell_angle_alpha 90.000000
_cell_angle_beta 130.183637
_cell_angle_gamma 90.000000
_cell_volume 1566.903759
_symmetry_space_group_name_H-M "P 21/M"
_symmetry_group_IT_number 11
_symmetry_cell_setting 'monoclinic'
loop_
_space_group_symop_operation_xyz
x,y,z
-x,1/2+y,-z
-x,-y,-z
x,1/2-y,z
loop_
_atom_site_type_symbol
_atom_site_label
_atom_site_fract_x
_atom_site_fract_y
_atom_site_fract_z
Si Si1 0.020356 0.611066 0.423570
Si Si2 0.144649 0.885921 0.014400
Si Si3 0.657353 0.039225 0.403902
Si Si4 0.870203 0.886829 0.200946
Si Si5 0.488909 0.881943 0.195777
Si Si6 0.153550 0.884391 0.880432
Si Si7 0.277286 0.607195 0.369346
Si Si8 0.636119 0.620648 0.763117
O O1 0.958306 0.750000 0.397117
O O2 0.184118 0.607761 0.515881
O O3 0.151289 0.560546 0.397797
O O4 0.812265 0.535809 0.395630
O O5 0.041040 0.750000 0.995333
O O6 0.344591 0.884055 0.104120
O O7 0.207997 0.899463 0.961229
O O8 0.000000 0.000000 0.000000
O O9 0.502506 0.954336 0.407004
O O10 0.493325 0.115701 0.327076
O O11 0.849299 0.750000 0.170750
O O12 0.731869 0.887103 0.228663
O O13 0.116159 0.906438 0.277235
O O14 0.785704 0.996429 0.141932
O O15 0.449501 0.750000 0.215823
O O16 0.427901 0.999227 0.217917
O O17 0.232595 0.750000 0.879195
O O18 0.893405 0.880985 0.816324
O O19 0.311195 0.750000 0.386475
O O20 0.580554 0.750000 0.780017
#
# Coordination Sequence:
#
# PCOD9162986 Si02
#       8
#     4   4   4   4   4   4   4   4
#     4  10  22  38  57  85 117 149 196 250 297 354
#     4  10  20  36  57  83 114 151 195 241 291 349
#     4  11  21  37  60  83 115 156 196 239 301 357
#     4  10  21  38  57  84 117 150 194 245 291 349
#     4  10  22  38  60  87 117 153 198 247 294 346
#     4  10  21  37  56  82 116 152 190 237 291 350
#     4  10  20  36  58  83 113 152 196 244 299 354
#     4  11  22  37  59  87 118 152 194 240 295 352
#
# _framework density 20.422442
#
# number of rings (size 3 to 8) (size 9 to 14) (size 15 to 20)
#    0.000    1.750    2.500    1.875    0.000    4.000 
#    0.000    0.000    0.000    3.750    0.000    0.000 
#    0.000    0.000    0.000    0.000    0.000    0.000 
#
# Total GULP energy -178562.490753 kJ/mol
# GULP energy per Si atom -5580.077836 kJ/mol
# Density = 2.037596 g / cm^3
# Si number density = 20.422442 Si / 1000 Ang^3
#
#
#
# Elastic Constant Matrix: (Units=GPa)
#
#
# Indices 1 2 3 4 5 6 
#
# 1 73.0513 40.5906 -1.4242 0.0000 -4.8904 0.0000
# 2 40.5906 146.4456 14.1221 0.0000 -23.6432 0.0000
# 3 -1.4242 14.1221 67.5770 0.0000 -3.4218 0.0000
# 4 0.0000 0.0000 0.0000 55.4498 0.0000 -19.3237
# 5 -4.8904 -23.6432 -3.4218 0.0000 29.7354 0.0000
# 6 0.0000 0.0000 0.0000 -19.3237 0.0000 28.6841
#
#
#
# Elastic Compliance Matrix: (Units=1/GPa)
#
#
# Indices 1 2 3 4 5 6 
#
# 1 0.016320 -0.004808 0.001299 0.000000 -0.000990 0.000000
# 2 -0.004808 0.009371 -0.001733 0.000000 0.006461 0.000000
# 3 0.001299 -0.001733 0.015217 0.000000 0.000587 0.000000
# 4 0.000000 0.000000 0.000000 0.023567 0.000000 0.015877
# 5 -0.000990 0.006461 0.000587 0.000000 0.038672 0.000000
# 6 0.000000 0.000000 0.000000 0.015877 0.000000 0.045558
#
#
# Mechanical properties :
#
#
# Convention : Reuss Voigt Hill
#
# Bulk Modulus (GPa) = 32.86911 43.73900 38.30406
# Shear Modulus (GPa) = 29.52782 38.35956 33.94369
#
# Velocity S-wave (km/s) = 3.80656 4.33864 4.08128
# Velocity P-wave (km/s) = 5.95394 6.82364 6.40357
#
# Compressibility (1/GPa) = 0.03042370
#
# Stress axis : x y z
#
# Youngs Moduli (GPa) = 61.27504 106.70676 65.71553
#
# Poissons Ratio (x) = 0.51309 -0.08534
# Poissons Ratio (y) = 0.29464 0.11386
# Poissons Ratio (z) = -0.07958 0.18488
#
# Static dielectric constant tensor:
#      x y z
#    x 1.712490 0.000000 -0.002800 
#    y 0.000000 1.692740 0.000000 
#    z -0.002800 0.000000 1.750320 
# 
# From -- ./inp_files/63667.got.cif
#   From: 2010.05.17/outbox.cif.g08.bks.cpg/sg11_32_cif.got.tgz:63667.got - 2010.06.03 12:22:45.
