data_PCOD9162455
_publ_section_title
;
Structure prediction by ZEFSAII (Michael W. Deem and Ramdas Pophale) SiO2 
 PCOD9162455
Probable space group: P 21/M
;
_chemical_formula_sum "Si O2"
_cell_formula_units_Z 32
_cell_length_a 22.858643
_cell_length_b 8.021354
_cell_length_c 15.192735
_cell_angle_alpha 90.000000
_cell_angle_beta 147.750805
_cell_angle_gamma 90.000000
_cell_volume 1486.455989
_symmetry_space_group_name_H-M "P 21/M"
_symmetry_group_IT_number 11
_symmetry_cell_setting 'monoclinic'
loop_
_space_group_symop_operation_xyz
x,y,z
-x,1/2+y,-z
-x,-y,-z
x,1/2-y,z
loop_
_atom_site_type_symbol
_atom_site_label
_atom_site_fract_x
_atom_site_fract_y
_atom_site_fract_z
Si Si1 0.626867 0.950032 0.667799
Si Si2 0.260654 0.947410 0.008227
Si Si3 0.208695 0.555565 0.605647
Si Si4 0.591329 0.449583 0.258480
Si Si5 0.057732 0.451047 0.163344
Si Si6 0.300690 0.451529 0.432223
Si Si7 0.649681 0.945161 0.059385
Si Si8 0.976797 0.051839 0.245891
O O1 0.635600 0.750000 0.684306
O O2 0.681727 0.006227 0.645692
O O3 0.500000 0.000000 0.500000
O O4 0.683439 0.024439 0.826052
O O5 0.261032 0.750000 0.989536
O O6 0.135319 0.012572 0.854518
O O7 0.324975 0.034225 0.011177
O O8 0.195231 0.750000 0.567804
O O9 0.303782 0.484190 0.662054
O O10 0.258550 0.534141 0.765795
O O11 0.089945 0.476037 0.441329
O O12 0.589554 0.250000 0.244450
O O13 0.609449 0.487404 0.384294
O O14 0.472560 0.513611 0.077541
O O15 0.060499 0.250000 0.172141
O O16 0.183076 0.510113 0.318276
O O17 0.996900 0.515683 0.172772
O O18 0.000000 0.500000 0.000000
O O19 0.302872 0.250000 0.435403
O O20 0.652525 0.750000 0.085910
O O21 0.960003 0.250000 0.216483
#
# Coordination Sequence:
#
# PCOD9162455 Si02
#       8
#     4   4   4   4   4   4   4   4
#     4  11  23  39  60  89 124 165 209 254 303 360
#     4  11  24  42  63  90 123 162 209 257 304 361
#     4  11  23  40  64  94 123 155 201 255 308 365
#     4  10  22  39  61  92 124 156 199 250 307 365
#     4  10  20  35  56  84 115 151 194 239 292 351
#     4  10  21  36  58  86 118 156 198 242 297 359
#     4  11  24  42  64  89 121 162 204 251 309 370
#     4  10  22  41  63  87 122 163 202 248 306 366
#
# _framework density 21.527716000000002
#
# number of rings (size 3 to 8) (size 9 to 14) (size 15 to 20)
#    0.000    1.500    1.250    3.375    0.000    7.000 
#    0.000    0.000    0.000    0.000    0.000    0.000 
#    0.000    0.000    0.000    0.000    0.000    0.000 
#
# Total GULP energy -178909.841951 kJ/mol
# GULP energy per Si atom -5590.932561 kJ/mol
# Density = 2.147872 g / cm^3
# Si number density = 21.527716 Si / 1000 Ang^3
#
#
#
# Elastic Constant Matrix: (Units=GPa)
#
#
# Indices 1 2 3 4 5 6 
#
# 1 74.2181 0.4628 16.2594 0.0000 9.9397 0.0000
# 2 0.4628 16.5327 -11.0592 0.0000 4.4620 0.0000
# 3 16.2594 -11.0592 108.2318 0.0000 10.7759 0.0000
# 4 0.0000 0.0000 0.0000 22.2595 0.0000 -10.1799
# 5 9.9397 4.4620 10.7759 0.0000 38.9807 0.0000
# 6 0.0000 0.0000 0.0000 -10.1799 0.0000 21.1438
#
#
#
# Elastic Compliance Matrix: (Units=1/GPa)
#
#
# Indices 1 2 3 4 5 6 
#
# 1 0.014308 -0.000886 -0.001940 0.000000 -0.003011 0.000000
# 2 -0.000886 0.068613 0.008127 0.000000 -0.009875 0.000000
# 3 -0.001940 0.008127 0.010699 0.000000 -0.003393 0.000000
# 4 0.000000 0.000000 0.000000 0.057609 0.000000 0.027736
# 5 -0.003011 -0.009875 -0.003393 0.000000 0.028490 0.000000
# 6 0.000000 0.000000 0.000000 0.027736 0.000000 0.060649
#
#
# Mechanical properties :
#
#
# Convention : Reuss Voigt Hill
#
# Bulk Modulus (GPa) = 9.59493 23.36761 16.48127
# Shear Modulus (GPa) = 18.90316 29.36476 24.13396
#
# Velocity S-wave (km/s) = 2.96646 3.69730 3.35186
# Velocity P-wave (km/s) = 4.02491 5.39490 4.75946
#
# Compressibility (1/GPa) = 0.10422175
#
# Stress axis : x y z
#
# Youngs Moduli (GPa) = 69.89312 14.57455 93.46513
#
# Poissons Ratio (x) = 0.01291 0.18134
# Poissons Ratio (y) = 0.06192 -0.75961
# Poissons Ratio (z) = 0.13560 -0.11845
#
# Static dielectric constant tensor:
#      x y z
#    x 1.801620 0.000000 0.020330 
#    y 0.000000 1.773260 0.000000 
#    z 0.020330 0.000000 1.761480 
# 
# From -- ./inp_files/55676.got.cif
#   From: 2010.05.17/outbox.cif.g08.bks.cpg/sg11_28_cif.got.tgz:55676.got - 2010.06.03 12:22:45.
