data_PCOD9162174
_publ_section_title
;
Structure prediction by ZEFSAII (Michael W. Deem and Ramdas Pophale) SiO2 
 PCOD9162174
Probable space group: P 21/M
;
_chemical_formula_sum "Si O2"
_cell_formula_units_Z 32
_cell_length_a 25.921214
_cell_length_b 8.407696
_cell_length_c 20.748149
_cell_angle_alpha 90.000000
_cell_angle_beta 159.629842
_cell_angle_gamma 90.000000
_cell_volume 1573.966696
_symmetry_space_group_name_H-M "P 21/M"
_symmetry_group_IT_number 11
_symmetry_cell_setting 'monoclinic'
loop_
_space_group_symop_operation_xyz
x,y,z
-x,1/2+y,-z
-x,-y,-z
x,1/2-y,z
loop_
_atom_site_type_symbol
_atom_site_label
_atom_site_fract_x
_atom_site_fract_y
_atom_site_fract_z
Si Si1 0.970652 0.560074 0.762041
Si Si2 0.833556 0.936076 0.374123
Si Si3 0.834931 0.558158 0.230348
Si Si4 0.586672 0.067497 0.161165
Si Si5 0.427485 0.435677 0.584637
Si Si6 0.103487 0.058826 0.178246
Si Si7 0.255528 0.060877 0.018980
Si Si8 0.655460 0.439254 0.375605
O O1 0.945527 0.750000 0.727467
O O2 0.964801 0.516783 0.831547
O O3 0.829900 0.466793 0.568850
O O4 0.120437 0.516840 0.900128
O O5 0.803897 0.750000 0.351874
O O6 0.776024 0.974120 0.234002
O O7 0.754151 0.043076 0.333806
O O8 0.007278 0.970213 0.583274
O O9 0.856630 0.750000 0.254463
O O10 0.751870 0.515195 0.066340
O O11 0.548280 0.250000 0.122747
O O12 0.570824 0.999050 0.213594
O O13 0.500000 0.000000 0.000000
O O14 0.443688 0.250000 0.588118
O O15 0.275163 0.498784 0.373555
O O16 0.388466 0.461357 0.613913
O O17 0.586854 0.517103 0.764489
O O18 0.110777 0.250000 0.185182
O O19 0.000000 0.000000 0.000000
O O20 0.237247 0.250000 0.999792
O O21 0.626597 0.250000 0.352298
#
# Coordination Sequence:
#
# PCOD9162174 Si02
#       8
#     4   4   4   4   4   4   4   4
#     4  10  21  38  60  89 120 151 190 235 281 335
#     4  10  20  35  53  74 101 137 184 234 288 344
#     4   9  20  36  53  74 105 141 181 232 282 336
#     4  11  24  37  51  73 104 140 185 238 289 339
#     4  10  22  39  59  88 121 152 190 237 287 341
#     4   9  20  39  64  91 120 152 188 230 275 333
#     4  11  22  36  57  85 117 153 194 239 287 338
#     4  10  21  38  58  80 110 149 194 243 290 346
#
# _framework density 20.330798999999999
#
# number of rings (size 3 to 8) (size 9 to 14) (size 15 to 20)
#    0.000    2.000    0.000    3.750    1.750    9.500 
#    0.000    0.625    0.000    0.000    0.000    0.000 
#    0.000    0.000    0.000    0.000    0.000    0.000 
#
# Total GULP energy -178538.115608 kJ/mol
# GULP energy per Si atom -5579.316113 kJ/mol
# Density = 2.028453 g / cm^3
# Si number density = 20.330799 Si / 1000 Ang^3
#
#
#
# Elastic Constant Matrix: (Units=GPa)
#
#
# Indices 1 2 3 4 5 6 
#
# 1 42.0204 2.2291 18.0730 0.0000 -9.8596 0.0000
# 2 2.2291 13.7252 0.5584 0.0000 -7.4823 0.0000
# 3 18.0730 0.5584 77.4507 0.0000 -13.7409 0.0000
# 4 0.0000 0.0000 0.0000 31.0703 0.0000 1.8293
# 5 -9.8596 -7.4823 -13.7409 0.0000 37.4955 0.0000
# 6 0.0000 0.0000 0.0000 1.8293 0.0000 26.0339
#
#
#
# Elastic Compliance Matrix: (Units=1/GPa)
#
#
# Indices 1 2 3 4 5 6 
#
# 1 0.027397 -0.001571 -0.005518 0.000000 0.004869 0.000000
# 2 -0.001571 0.082285 0.002795 0.000000 0.017031 0.000000
# 3 -0.005518 0.002795 0.014995 0.000000 0.004602 0.000000
# 4 0.000000 0.000000 0.000000 0.032319 0.000000 -0.002271
# 5 0.004869 0.017031 0.004602 0.000000 0.033035 0.000000
# 6 0.000000 0.000000 0.000000 -0.002271 0.000000 0.038571
#
#
# Mechanical properties :
#
#
# Convention : Reuss Voigt Hill
#
# Bulk Modulus (GPa) = 8.61410 19.43525 14.02467
# Shear Modulus (GPa) = 18.12341 26.40898 22.26620
#
# Velocity S-wave (km/s) = 2.98892 3.60802 3.31296
# Velocity P-wave (km/s) = 4.01966 5.19012 4.64193
#
# Compressibility (1/GPa) = 0.11608878
#
# Stress axis : x y z
#
# Youngs Moduli (GPa) = 36.50043 12.15295 66.68721
#
# Poissons Ratio (x) = 0.01909 0.36798
# Poissons Ratio (y) = 0.05734 -0.18639
# Poissons Ratio (z) = 0.20141 -0.03397
#
# Static dielectric constant tensor:
#      x y z
#    x 1.782480 0.000000 0.005780 
#    y 0.000000 1.681510 0.000000 
#    z 0.005780 0.000000 1.779340 
# 
# From -- ./inp_files/67231.got.cif
#   From: 2010.05.17/outbox.cif.g08.bks.cpg/sg11_34_cif.got.tgz:67231.got - 2010.06.03 12:22:45.
