data_PCOD9162045
_publ_section_title
;
Structure prediction by ZEFSAII (Michael W. Deem and Ramdas Pophale) SiO2 
 PCOD9162045
Probable space group: P 21/M
;
_chemical_formula_sum "Si O2"
_cell_formula_units_Z 28
_cell_length_a 16.403514
_cell_length_b 8.921601
_cell_length_c 11.215923
_cell_angle_alpha 90.000000
_cell_angle_beta 119.421173
_cell_angle_gamma 90.000000
_cell_volume 1429.713411
_symmetry_space_group_name_H-M "P 21/M"
_symmetry_group_IT_number 11
_symmetry_cell_setting 'monoclinic'
loop_
_space_group_symop_operation_xyz
x,y,z
-x,1/2+y,-z
-x,-y,-z
x,1/2-y,z
loop_
_atom_site_type_symbol
_atom_site_label
_atom_site_fract_x
_atom_site_fract_y
_atom_site_fract_z
Si Si1 0.698736 0.572795 0.640813
Si Si2 0.039589 0.572003 0.908076
Si Si3 0.211045 0.072028 0.909551
Si Si4 0.776719 0.427729 0.331935
Si Si5 0.402022 0.426179 0.682282
Si Si6 0.602500 0.929147 0.821836
Si Si7 0.876791 0.427749 0.652932
O O1 0.723365 0.750000 0.666255
O O2 0.629595 0.553590 0.478440
O O3 0.647494 0.530090 0.725937
O O4 0.792010 0.480642 0.677793
O O5 0.040882 0.750000 0.918543
O O6 0.141331 0.508701 0.950274
O O7 0.968876 0.517886 0.754057
O O8 0.000000 0.500000 0.000000
O O9 0.196796 0.250000 0.907494
O O10 0.192186 0.013253 0.763704
O O11 0.317948 0.039736 0.023340
O O12 0.776430 0.250000 0.310613
O O13 0.673580 0.483951 0.294719
O O14 0.841839 0.458462 0.493519
O O15 0.395065 0.250000 0.705256
O O16 0.506335 0.485439 0.773840
O O17 0.584601 0.750000 0.807043
O O18 0.892272 0.250000 0.677632
#
# Coordination Sequence:
#
# PCOD9162045 Si02
#       7
#     4   4   4   4   4   4   4
#     4   9  18  34  56  85 119 152 190 238 294 351
#     4  12  25  42  65  92 122 154 189 233 287 346
#     4  11  24  41  61  86 117 154 198 245 291 344
#     4  10  22  41  62  85 116 154 197 243 291 345
#     4  10  20  34  57  86 115 151 194 241 291 348
#     4  10  21  36  55  81 115 154 192 237 293 348
#     4  10  21  38  62  89 117 153 195 240 292 347
#
# _framework density 19.584346
#
# number of rings (size 3 to 8) (size 9 to 14) (size 15 to 20)
#    0.000    1.714    0.000    4.286    0.000    6.286 
#    0.000    0.000    0.000    0.000    0.000    0.000 
#    0.000    0.000    0.000    0.000    0.000    0.000 
#
# Total GULP energy -156575.909697 kJ/mol
# GULP energy per Si atom -5591.996775 kJ/mol
# Density = 1.953977 g / cm^3
# Si number density = 19.584346 Si / 1000 Ang^3
#
#
#
# Elastic Constant Matrix: (Units=GPa)
#
#
# Indices 1 2 3 4 5 6 
#
# 1 25.5847 18.3067 19.7732 0.0000 -1.9704 0.0000
# 2 18.3067 78.9271 42.7923 0.0000 6.0409 0.0000
# 3 19.7732 42.7923 49.9131 0.0000 2.2905 0.0000
# 4 0.0000 0.0000 0.0000 30.3958 0.0000 3.5302
# 5 -1.9704 6.0409 2.2905 0.0000 34.4829 0.0000
# 6 0.0000 0.0000 0.0000 3.5302 0.0000 37.4458
#
#
#
# Elastic Compliance Matrix: (Units=1/GPa)
#
#
# Indices 1 2 3 4 5 6 
#
# 1 0.057334 -0.002328 -0.020950 0.000000 0.005076 0.000000
# 2 -0.002328 0.024043 -0.019551 0.000000 -0.003046 0.000000
# 3 -0.020950 -0.019551 0.045131 0.000000 -0.000770 0.000000
# 4 0.000000 0.000000 0.000000 0.033263 0.000000 -0.003136
# 5 0.005076 -0.003046 -0.000770 0.000000 0.029875 0.000000
# 6 0.000000 0.000000 0.000000 -0.003136 0.000000 0.027001
#
#
# Mechanical properties :
#
#
# Convention : Reuss Voigt Hill
#
# Bulk Modulus (GPa) = 24.47965 35.12993 29.80479
# Shear Modulus (GPa) = 15.82672 25.36841 20.59756
#
# Velocity S-wave (km/s) = 2.84585 3.60299 3.24657
# Velocity P-wave (km/s) = 4.82962 5.94015 5.41344
#
# Compressibility (1/GPa) = 0.04085026
#
# Stress axis : x y z
#
# Youngs Moduli (GPa) = 17.44174 41.59189 22.15773
#
# Poissons Ratio (x) = 0.09684 0.46419
# Poissons Ratio (y) = 0.04061 0.43320
# Poissons Ratio (z) = 0.36540 0.81316
#
# Static dielectric constant tensor:
#      x y z
#    x 1.650290 0.000000 -0.006020 
#    y 0.000000 1.639670 0.000000 
#    z -0.006020 0.000000 1.697020 
# 
# From -- ./inp_files/38457.got.cif
#   From: 2010.05.17/outbox.cif.g08.bks.cpg/sg11_20_cif.got.tgz:38457.got - 2010.06.03 12:22:45.
