data_PCOD9162447
_publ_section_title
;
Structure prediction by ZEFSAII (Michael W. Deem and Ramdas Pophale) SiO2 
 PCOD9162447
Probable space group: P 21/M
;
_chemical_formula_sum "Si O2"
_cell_formula_units_Z 32
_cell_length_a 12.627893
_cell_length_b 8.660600
_cell_length_c 15.426358
_cell_angle_alpha 90.000000
_cell_angle_beta 92.133323
_cell_angle_gamma 90.000000
_cell_volume 1685.936339
_symmetry_space_group_name_H-M "P 21/M"
_symmetry_group_IT_number 11
_symmetry_cell_setting 'monoclinic'
loop_
_space_group_symop_operation_xyz
x,y,z
-x,1/2+y,-z
-x,-y,-z
x,1/2-y,z
loop_
_atom_site_type_symbol
_atom_site_label
_atom_site_fract_x
_atom_site_fract_y
_atom_site_fract_z
Si Si1 0.542011 0.434015 0.092279
Si Si2 0.393136 0.062926 0.247967
Si Si3 0.595348 0.066325 0.560974
Si Si4 0.804529 0.937577 0.866840
Si Si5 0.825636 0.934338 0.521207
Si Si6 0.963739 0.064392 0.371923
Si Si7 0.041630 0.936420 0.830024
Si Si8 0.761580 0.934416 0.061014
O O1 0.534737 0.250000 0.087049
O O2 0.472704 0.482401 0.172979
O O3 0.662521 0.487634 0.104720
O O4 0.500000 0.500000 0.000000
O O5 0.395358 0.250000 0.256329
O O6 0.276627 0.015606 0.210531
O O7 0.418734 0.990177 0.340711
O O8 0.592499 0.250000 0.556570
O O9 0.500000 0.000000 0.500000
O O10 0.711542 0.008999 0.533789
O O11 0.804631 0.750000 0.866572
O O12 0.924392 0.987139 0.854922
O O13 0.764356 0.985285 0.960411
O O14 0.812883 0.750000 0.524518
O O15 0.916776 0.978411 0.594225
O O16 0.879298 0.984296 0.432292
O O17 0.955092 0.250000 0.382905
O O18 0.945497 0.027946 0.271156
O O19 0.048867 0.750000 0.840377
O O20 0.130326 0.016314 0.890167
O O21 0.749112 0.750000 0.062261
#
# Coordination Sequence:
#
# PCOD9162447 Si02
#       8
#     4   4   4   4   4   4   4   4
#     4  11  22  39  64  89 119 156 199 247 297 353
#     4  10  21  41  66  90 118 158 199 245 304 361
#     4  12  26  43  63  90 122 157 199 251 305 365
#     4   9  18  36  60  84 116 157 197 239 295 354
#     4  10  20  38  64  89 117 155 197 245 300 358
#     4   9  19  36  60  88 119 157 198 243 297 359
#     4  10  20  35  56  83 117 157 199 240 293 354
#     4  11  22  37  56  83 120 159 199 245 296 347
#
# _framework density 18.980549
#
# number of rings (size 3 to 8) (size 9 to 14) (size 15 to 20)
#    0.000    1.750    1.250    3.375    0.000    5.000 
#    0.000    3.750    0.000    0.000    0.000    0.000 
#    0.000    0.000    0.000    0.000    0.000    0.000 
#
# Total GULP energy -178794.357449 kJ/mol
# GULP energy per Si atom -5587.323670 kJ/mol
# Density = 1.893735 g / cm^3
# Si number density = 18.980549 Si / 1000 Ang^3
#
#
#
# Elastic Constant Matrix: (Units=GPa)
#
#
# Indices 1 2 3 4 5 6 
#
# 1 144.7009 43.4663 83.3901 0.0000 0.9326 0.0000
# 2 43.4663 49.7573 37.7500 0.0000 -2.7156 0.0000
# 3 83.3901 37.7500 86.8406 0.0000 5.8413 0.0000
# 4 0.0000 0.0000 0.0000 29.3685 0.0000 1.4345
# 5 0.9326 -2.7156 5.8413 0.0000 27.2344 0.0000
# 6 0.0000 0.0000 0.0000 1.4345 0.0000 31.9077
#
#
#
# Elastic Compliance Matrix: (Units=1/GPa)
#
#
# Indices 1 2 3 4 5 6 
#
# 1 0.015979 -0.003115 -0.014136 0.000000 0.002174 0.000000
# 2 -0.003115 0.031549 -0.011102 0.000000 0.005634 0.000000
# 3 -0.014136 -0.011102 0.030397 0.000000 -0.007142 0.000000
# 4 0.000000 0.000000 0.000000 0.034125 0.000000 -0.001534
# 5 0.002174 0.005634 -0.007142 0.000000 0.038738 0.000000
# 6 0.000000 0.000000 0.000000 -0.001534 0.000000 0.031409
#
#
# Mechanical properties :
#
#
# Convention : Reuss Voigt Hill
#
# Bulk Modulus (GPa) = 47.13039 67.83462 57.48250
# Shear Modulus (GPa) = 20.32707 25.48160 22.90433
#
# Velocity S-wave (km/s) = 3.27608 3.66800 3.47757
# Velocity P-wave (km/s) = 6.26059 7.33182 6.81728
#
# Compressibility (1/GPa) = 0.02121773
#
# Stress axis : x y z
#
# Youngs Moduli (GPa) = 62.58113 31.69631 32.89838
#
# Poissons Ratio (x) = 0.09874 0.46506
# Poissons Ratio (y) = 0.19496 0.36524
# Poissons Ratio (z) = 0.88467 0.35190
#
# Static dielectric constant tensor:
#      x y z
#    x 1.652020 0.000000 -0.003540 
#    y 0.000000 1.646730 0.000000 
#    z -0.003540 0.000000 1.637640 
# 
# From -- ./inp_files/49335.got.cif
#   From: 2010.05.17/outbox.cif.g08.bks.cpg/sg11_25_cif.got.tgz:49335.got - 2010.06.03 12:22:45.
