data_PCOD9162229
_publ_section_title
;
Structure prediction by ZEFSAII (Michael W. Deem and Ramdas Pophale) SiO2 
 PCOD9162229
Probable space group: P 21/M
;
_chemical_formula_sum "Si O2"
_cell_formula_units_Z 32
_cell_length_a 31.225814
_cell_length_b 9.042909
_cell_length_c 12.187836
_cell_angle_alpha 90.000000
_cell_angle_beta 150.551566
_cell_angle_gamma 90.000000
_cell_volume 1691.982159
_symmetry_space_group_name_H-M "P 21/M"
_symmetry_group_IT_number 11
_symmetry_cell_setting 'monoclinic'
loop_
_space_group_symop_operation_xyz
x,y,z
-x,1/2+y,-z
-x,-y,-z
x,1/2-y,z
loop_
_atom_site_type_symbol
_atom_site_label
_atom_site_fract_x
_atom_site_fract_y
_atom_site_fract_z
Si Si1 0.243452 0.925565 0.370605
Si Si2 0.544926 0.925285 0.432999
Si Si3 0.058252 0.926631 0.037405
Si Si4 0.426269 0.427628 0.759199
Si Si5 0.367577 0.924011 0.162197
Si Si6 0.170804 0.081109 0.998623
Si Si7 0.015511 0.576269 0.344323
Si Si8 0.804794 0.578009 0.197062
O O1 0.258305 0.750000 0.410403
O O2 0.161363 0.964748 0.265593
O O3 0.332257 0.012960 0.587633
O O4 0.210283 0.970088 0.174762
O O5 0.565879 0.750000 0.491332
O O6 0.561906 0.966979 0.344294
O O7 0.444135 0.945068 0.243862
O O8 0.597268 0.014463 0.642714
O O9 0.051955 0.750000 0.028215
O O10 0.000000 0.000000 0.000000
O O11 0.018887 0.987946 0.837121
O O12 0.430670 0.250000 0.776343
O O13 0.500000 0.500000 0.000000
O O14 0.350301 0.750000 0.134028
O O15 0.279498 0.008287 0.934849
O O16 0.185675 0.250000 0.072287
O O17 0.210904 0.067212 0.968690
O O18 0.066288 0.062342 0.755285
O O19 0.025368 0.750000 0.341796
O O20 0.106975 0.509710 0.583121
O O21 0.815936 0.750000 0.249930
#
# Coordination Sequence:
#
# PCOD9162229 Si02
#       8
#     4   4   4   4   4   4   4   4
#     4  10  21  37  59  87 114 144 186 232 281 338
#     4   9  20  39  59  80 110 146 184 233 286 336
#     4  10  21  39  61  84 111 147 188 232 279 332
#     4  11  23  40  61  85 115 150 190 241 295 344
#     4  10  20  35  57  83 110 147 189 230 279 341
#     4   9  19  34  54  79 111 149 186 227 275 328
#     4  10  20  35  54  78 109 146 186 229 277 330
#     4  11  21  33  50  79 116 149 183 226 276 330
#
# _framework density 18.91273
#
# number of rings (size 3 to 8) (size 9 to 14) (size 15 to 20)
#    0.000    2.000    0.000    3.375    0.000    7.500 
#    2.250    0.000    0.000    0.000    0.000    0.000 
#    0.000    0.000    0.000    0.000    0.000    0.000 
#
# Total GULP energy -178625.998730 kJ/mol
# GULP energy per Si atom -5582.062460 kJ/mol
# Density = 1.886968 g / cm^3
# Si number density = 18.912730 Si / 1000 Ang^3
#
#
#
# Elastic Constant Matrix: (Units=GPa)
#
#
# Indices 1 2 3 4 5 6 
#
# 1 91.4240 46.0454 32.1814 0.0000 19.1506 0.0000
# 2 46.0454 76.2169 43.7360 0.0000 20.4064 0.0000
# 3 32.1814 43.7360 88.9670 0.0000 27.7118 0.0000
# 4 0.0000 0.0000 0.0000 39.0865 0.0000 2.0831
# 5 19.1506 20.4064 27.7118 0.0000 23.8391 0.0000
# 6 0.0000 0.0000 0.0000 2.0831 0.0000 26.5045
#
#
#
# Elastic Compliance Matrix: (Units=1/GPa)
#
#
# Indices 1 2 3 4 5 6 
#
# 1 0.016374 -0.008285 0.000060 0.000000 -0.006131 0.000000
# 2 -0.008285 0.023538 -0.006853 0.000000 -0.005527 0.000000
# 3 0.000060 -0.006853 0.020026 0.000000 -0.017462 0.000000
# 4 0.000000 0.000000 0.000000 0.025692 0.000000 -0.002019
# 5 -0.006131 -0.005527 -0.017462 0.000000 0.071903 0.000000
# 6 0.000000 0.000000 0.000000 -0.002019 0.000000 0.037888
#
#
# Mechanical properties :
#
#
# Convention : Reuss Voigt Hill
#
# Bulk Modulus (GPa) = 33.57673 55.61481 44.59577
# Shear Modulus (GPa) = 21.23105 26.86236 24.04670
#
# Velocity S-wave (km/s) = 3.35413 3.77282 3.56962
# Velocity P-wave (km/s) = 5.72645 6.96051 6.37342
#
# Compressibility (1/GPa) = 0.02978253
#
# Stress axis : x y z
#
# Youngs Moduli (GPa) = 61.07265 42.48494 49.93416
#
# Poissons Ratio (x) = 0.35198 -0.00298
# Poissons Ratio (y) = 0.50597 0.34219
# Poissons Ratio (z) = -0.00365 0.29114
#
# Static dielectric constant tensor:
#      x y z
#    x 1.735100 0.000000 -0.028830 
#    y 0.000000 1.633210 0.000000 
#    z -0.028830 0.000000 1.710390 
# 
# From -- ./inp_files/45281.got.cif
#   From: 2010.05.17/outbox.cif.g08.bks.cpg/sg11_23_cif.got.tgz:45281.got - 2010.06.03 12:22:45.
