data_PCOD9162940
_publ_section_title
;
Structure prediction by ZEFSAII (Michael W. Deem and Ramdas Pophale) SiO2 
 PCOD9162940
Probable space group: P 21/M
;
_chemical_formula_sum "Si O2"
_cell_formula_units_Z 28
_cell_length_a 11.617909
_cell_length_b 8.468212
_cell_length_c 16.796308
_cell_angle_alpha 90.000000
_cell_angle_beta 61.196782
_cell_angle_gamma 90.000000
_cell_volume 1448.025580
_symmetry_space_group_name_H-M "P 21/M"
_symmetry_group_IT_number 11
_symmetry_cell_setting 'monoclinic'
loop_
_space_group_symop_operation_xyz
x,y,z
-x,1/2+y,-z
-x,-y,-z
x,1/2-y,z
loop_
_atom_site_type_symbol
_atom_site_label
_atom_site_fract_x
_atom_site_fract_y
_atom_site_fract_z
Si Si1 0.108777 0.941073 0.025143
Si Si2 0.687780 0.939177 0.579979
Si Si3 0.336388 0.560944 0.234203
Si Si4 0.608679 0.058142 0.335196
Si Si5 0.168991 0.560926 0.616206
Si Si6 0.909539 0.059134 0.787460
Si Si7 0.624540 0.440616 0.146886
O O1 0.107628 0.750000 0.025115
O O2 0.081225 0.995359 0.124220
O O3 0.252545 0.992424 0.946818
O O4 0.000000 0.000000 0.000000
O O5 0.690120 0.750000 0.578975
O O6 0.541693 0.992326 0.599938
O O7 0.701077 0.997456 0.665834
O O8 0.795428 0.003607 0.483728
O O9 0.337409 0.750000 0.236605
O O10 0.227357 0.508973 0.207127
O O11 0.483109 0.502345 0.166942
O O12 0.609816 0.250000 0.336739
O O13 0.714758 0.001915 0.363499
O O14 0.643453 0.010543 0.233099
O O15 0.169071 0.750000 0.617553
O O16 0.031398 0.500546 0.695367
O O17 0.912129 0.250000 0.786762
O O18 0.619581 0.250000 0.147727
#
# Coordination Sequence:
#
# PCOD9162940 Si02
#       7
#     4   4   4   4   4   4   4
#     4  10  21  38  60  86 115 146 180 222 273 327
#     4  10  20  36  57  80 110 145 180 225 280 329
#     4  10  21  38  57  79 108 143 187 230 268 322
#     4   8  16  31  52  80 110 138 172 217 268 322
#     4  11  21  34  55  82 110 144 187 228 270 326
#     4  10  23  40  55  77 112 148 182 226 276 322
#     4   9  18  35  58  82 111 145 179 222 275 323
#
# _framework density 19.336675
#
# number of rings (size 3 to 8) (size 9 to 14) (size 15 to 20)
#    0.000    2.286    0.000    3.429    0.000    4.571 
#    0.000    7.857    0.000    0.000    0.000    0.000 
#    0.000    0.000    0.000    0.000    0.000    0.000 
#
# Total GULP energy -156360.751574 kJ/mol
# GULP energy per Si atom -5584.312556 kJ/mol
# Density = 1.929266 g / cm^3
# Si number density = 19.336675 Si / 1000 Ang^3
#
#
#
# Elastic Constant Matrix: (Units=GPa)
#
#
# Indices 1 2 3 4 5 6 
#
# 1 127.2657 25.5770 71.2186 0.0000 1.9807 0.0000
# 2 25.5770 19.9152 24.0875 0.0000 -2.1866 0.0000
# 3 71.2186 24.0875 122.2971 0.0000 -32.1676 0.0000
# 4 0.0000 0.0000 0.0000 16.0178 0.0000 0.1160
# 5 1.9807 -2.1866 -32.1676 0.0000 22.1726 0.0000
# 6 0.0000 0.0000 0.0000 0.1160 0.0000 27.4026
#
#
#
# Elastic Compliance Matrix: (Units=1/GPa)
#
#
# Indices 1 2 3 4 5 6 
#
# 1 0.019049 -0.007231 -0.016662 0.000000 -0.026588 0.000000
# 2 -0.007231 0.074607 -0.013549 0.000000 -0.011653 0.000000
# 3 -0.016662 -0.013549 0.033293 0.000000 0.048453 0.000000
# 4 0.000000 0.000000 0.000000 0.062432 0.000000 -0.000264
# 5 -0.026588 -0.011653 0.048453 0.000000 0.116622 0.000000
# 6 0.000000 0.000000 0.000000 -0.000264 0.000000 0.036494
#
#
# Mechanical properties :
#
#
# Convention : Reuss Voigt Hill
#
# Bulk Modulus (GPa) = 19.20654 56.80490 38.00572
# Shear Modulus (GPa) = 11.50125 23.02494 17.26310
#
# Velocity S-wave (km/s) = 2.44148 3.45445 2.99116
# Velocity P-wave (km/s) = 4.23108 6.73435 5.62377
#
# Compressibility (1/GPa) = 0.05206559
#
# Stress axis : x y z
#
# Youngs Moduli (GPa) = 52.49699 13.40353 30.03637
#
# Poissons Ratio (x) = 0.09692 0.50047
# Poissons Ratio (y) = 0.37958 0.40696
# Poissons Ratio (z) = 0.87471 0.18160
#
# Static dielectric constant tensor:
#      x y z
#    x 1.664800 0.000000 0.004370 
#    y 0.000000 1.659520 0.000000 
#    z 0.004370 0.000000 1.657970 
# 
# From -- ./inp_files/49106.got.cif
#   From: 2010.05.17/outbox.cif.g08.bks.cpg/sg11_25_cif.got.tgz:49106.got - 2010.06.03 12:22:45.
