data_PCOD9162334
_publ_section_title
;
Structure prediction by ZEFSAII (Michael W. Deem and Ramdas Pophale) SiO2 
 PCOD9162334
Probable space group: P 21/M
;
_chemical_formula_sum "Si O2"
_cell_formula_units_Z 28
_cell_length_a 12.433401
_cell_length_b 7.358180
_cell_length_c 15.877404
_cell_angle_alpha 90.000000
_cell_angle_beta 49.462433
_cell_angle_gamma 90.000000
_cell_volume 1103.931169
_symmetry_space_group_name_H-M "P 21/M"
_symmetry_group_IT_number 11
_symmetry_cell_setting 'monoclinic'
loop_
_space_group_symop_operation_xyz
x,y,z
-x,1/2+y,-z
-x,-y,-z
x,1/2-y,z
loop_
_atom_site_type_symbol
_atom_site_label
_atom_site_fract_x
_atom_site_fract_y
_atom_site_fract_z
Si Si1 0.529922 0.970334 0.267649
Si Si2 0.214616 0.034601 0.202458
Si Si3 0.662333 0.953572 0.025627
Si Si4 0.893660 0.969235 0.385380
Si Si5 0.212893 0.460965 0.390963
Si Si6 0.972695 0.035709 0.916838
Si Si7 0.730005 0.529924 0.316366
O O1 0.542583 0.750000 0.259810
O O2 0.613022 0.033895 0.309169
O O3 0.368216 0.026541 0.351878
O O4 0.590639 0.035997 0.145670
O O5 0.245288 0.250000 0.189551
O O6 0.320374 0.961164 0.076558
O O7 0.225910 0.957724 0.291100
O O8 0.047244 0.013080 0.268458
O O9 0.602774 0.750000 0.047116
O O10 0.827931 0.941912 0.965600
O O11 0.886423 0.750000 0.391833
O O12 0.886998 0.037856 0.484801
O O13 0.759478 0.031445 0.397307
O O14 0.174985 0.250000 0.398648
O O15 0.952644 0.250000 0.910689
O O16 0.118865 0.981101 0.800186
O O17 0.000000 0.000000 0.000000
O O18 0.716346 0.750000 0.325951
#
# Coordination Sequence:
#
# PCOD9162334 Si02
#       7
#     4   4   4   4   4   4   4
#     4  10  21  38  56  77 110 150 185 221 272 336
#     4  10  21  37  58  84 113 141 181 236 284 323
#     4  10  20  35  55  82 113 145 181 228 280 328
#     4  10  20  37  60  83 110 143 183 230 281 331
#     4  10  23  40  55  78 113 149 186 233 276 319
#     4  11  19  31  53  82 115 147 179 224 280 332
#     4   9  18  33  54  81 111 141 176 222 274 326
#
# _framework density 25.363900999999998
#
# number of rings (size 3 to 8) (size 9 to 14) (size 15 to 20)
#    0.000    2.000    2.857    0.857    0.000    2.857 
#    0.000    0.714    0.000    0.000    0.000    0.000 
#    0.000    0.000    0.000    0.000    0.000    0.000 
#
# Total GULP energy -156359.896793 kJ/mol
# GULP energy per Si atom -5584.282028 kJ/mol
# Density = 2.530617 g / cm^3
# Si number density = 25.363901 Si / 1000 Ang^3
#
#
#
# Elastic Constant Matrix: (Units=GPa)
#
#
# Indices 1 2 3 4 5 6 
#
# 1 92.6173 -3.0073 39.1184 0.0000 13.6329 0.0000
# 2 -3.0073 101.9588 1.6817 0.0000 2.9870 0.0000
# 3 39.1184 1.6817 95.6595 0.0000 37.6423 0.0000
# 4 0.0000 0.0000 0.0000 -21.0983 0.0000 -31.0082
# 5 13.6329 2.9870 37.6423 0.0000 46.8987 0.0000
# 6 0.0000 0.0000 0.0000 -31.0082 0.0000 -11.8367
#
#
#
# Elastic Compliance Matrix: (Units=1/GPa)
#
#
# Indices 1 2 3 4 5 6 
#
# 1 0.013089 0.000459 -0.005630 0.000000 0.000685 0.000000
# 2 0.000459 0.009843 -0.000090 0.000000 -0.000688 0.000000
# 3 -0.005630 -0.000090 0.017703 0.000000 -0.012566 0.000000
# 4 0.000000 0.000000 0.000000 0.016630 0.000000 -0.043565
# 5 0.000685 -0.000688 -0.012566 0.000000 0.031253 0.000000
# 6 0.000000 0.000000 0.000000 -0.043565 0.000000 0.029642
#
#
# Mechanical properties :
#
#
# Convention : Reuss Voigt Hill
#
# Bulk Modulus (GPa) = 33.20891 40.64680 36.92785
# Shear Modulus (GPa) = 36.04390 19.62225 27.83307
#
# Velocity S-wave (km/s) = 3.77380 2.78444 3.31622
# Velocity P-wave (km/s) = 5.66658 5.13787 5.40869
#
# Compressibility (1/GPa) = 0.03011240
#
# Stress axis : x y z
#
# Youngs Moduli (GPa) = 76.39880 101.59440 56.48899
#
# Poissons Ratio (x) = -0.04662 0.31804
# Poissons Ratio (y) = -0.03506 0.00508
# Poissons Ratio (z) = 0.43014 0.00913
#
# Static dielectric constant tensor:
#      x y z
#    x 1.997480 0.000000 0.089430 
#    y 0.000000 1.909930 0.000000 
#    z 0.089430 0.000000 2.021990 
# 
# From -- ./inp_files/49166.got.cif
#   From: 2010.05.17/outbox.cif.g08.bks.cpg/sg11_25_cif.got.tgz:49166.got - 2010.06.03 12:22:45.
