data_PCOD9162879
_publ_section_title
;
Structure prediction by ZEFSAII (Michael W. Deem and Ramdas Pophale) SiO2 
 PCOD9162879
Probable space group: P 21/M
;
_chemical_formula_sum "Si O2"
_cell_formula_units_Z 32
_cell_length_a 16.494429
_cell_length_b 7.473725
_cell_length_c 25.546785
_cell_angle_alpha 90.000000
_cell_angle_beta 153.511515
_cell_angle_gamma 90.000000
_cell_volume 1404.633380
_symmetry_space_group_name_H-M "P 21/M"
_symmetry_group_IT_number 11
_symmetry_cell_setting 'monoclinic'
loop_
_space_group_symop_operation_xyz
x,y,z
-x,1/2+y,-z
-x,-y,-z
x,1/2-y,z
loop_
_atom_site_type_symbol
_atom_site_label
_atom_site_fract_x
_atom_site_fract_y
_atom_site_fract_z
Si Si1 0.574487 0.463781 0.100819
Si Si2 0.988376 0.467098 0.343262
Si Si3 0.722553 0.530258 0.987547
Si Si4 0.716567 0.457959 0.568776
Si Si5 0.432206 0.044656 0.209705
Si Si6 0.160139 0.037555 0.551737
Si Si7 0.585092 0.960276 0.683982
Si Si8 0.133137 0.533561 0.237442
O O1 0.584317 0.250000 0.113419
O O2 0.780607 0.530417 0.225680
O O3 0.431714 0.531125 0.061206
O O4 0.500000 0.500000 0.000000
O O5 0.988972 0.250000 0.342864
O O6 0.093893 0.530953 0.352989
O O7 0.097488 0.525565 0.458092
O O8 0.719083 0.750000 0.985581
O O9 0.673809 0.467461 0.900952
O O10 0.924573 0.475277 0.120570
O O11 0.667372 0.250000 0.547692
O O12 0.566272 0.538815 0.443015
O O13 0.748542 0.534418 0.644943
O O14 0.368697 0.250000 0.177218
O O15 0.412985 0.962693 0.256457
O O16 0.646949 0.043275 0.321036
O O17 0.186434 0.250000 0.564266
O O18 0.000000 0.000000 0.500000
O O19 0.538581 0.750000 0.663281
O O20 0.773910 0.978176 0.762853
O O21 0.133716 0.750000 0.239892
#
# Coordination Sequence:
#
# PCOD9162879 Si02
#       8
#     4   4   4   4   4   4   4   4
#     4  10  20  36  56  80 111 147 186 225 270 327
#     4  10  21  35  55  83 112 144 182 226 277 330
#     4   9  19  37  58  79 109 151 190 225 275 335
#     4  10  20  36  57  83 113 145 184 230 283 336
#     4  10  20  38  60  80 111 149 185 229 281 334
#     4  11  22  36  56  83 112 145 185 226 274 329
#     4  10  21  36  56  83 112 145 184 233 291 333
#     4  10  21  36  57  82 109 148 193 232 275 335
#
# _framework density 22.781745999999998
#
# number of rings (size 3 to 8) (size 9 to 14) (size 15 to 20)
#    0.000    2.000    1.250    2.250    0.000    6.000 
#    0.000    3.125    0.000    0.000    0.000    0.000 
#    0.000    0.000    0.000    0.000    0.000    0.000 
#
# Total GULP energy -178914.059715 kJ/mol
# GULP energy per Si atom -5591.064366 kJ/mol
# Density = 2.272989 g / cm^3
# Si number density = 22.781746 Si / 1000 Ang^3
#
#
#
# Elastic Constant Matrix: (Units=GPa)
#
#
# Indices 1 2 3 4 5 6 
#
# 1 117.9120 -6.5494 15.5160 0.0000 -8.9031 0.0000
# 2 -6.5494 70.6405 2.5776 0.0000 -6.8046 0.0000
# 3 15.5160 2.5776 82.1426 0.0000 -11.7712 0.0000
# 4 0.0000 0.0000 0.0000 10.1648 0.0000 7.6812
# 5 -8.9031 -6.8046 -11.7712 0.0000 45.5926 0.0000
# 6 0.0000 0.0000 0.0000 7.6812 0.0000 18.8518
#
#
#
# Elastic Compliance Matrix: (Units=1/GPa)
#
#
# Indices 1 2 3 4 5 6 
#
# 1 0.008846 0.001019 -0.001489 0.000000 0.001495 0.000000
# 2 0.001019 0.014482 -0.000320 0.000000 0.002278 0.000000
# 3 -0.001489 -0.000320 0.012894 0.000000 0.002990 0.000000
# 4 0.000000 0.000000 0.000000 0.142145 0.000000 -0.057917
# 5 0.001495 0.002278 0.002990 0.000000 0.023337 0.000000
# 6 0.000000 0.000000 0.000000 -0.057917 0.000000 0.076643
#
#
# Mechanical properties :
#
#
# Convention : Reuss Voigt Hill
#
# Bulk Modulus (GPa) = 28.86798 32.64262 30.75530
# Shear Modulus (GPa) = 17.15411 32.19857 24.67634
#
# Velocity S-wave (km/s) = 2.74702 3.76353 3.29471
# Velocity P-wave (km/s) = 4.77080 5.76586 5.29177
#
# Compressibility (1/GPa) = 0.03464046
#
# Stress axis : x y z
#
# Youngs Moduli (GPa) = 113.04208 69.05269 77.55706
#
# Poissons Ratio (x) = -0.07033 0.11546
# Poissons Ratio (y) = -0.11514 0.02485
# Poissons Ratio (z) = 0.16828 0.02213
#
# Static dielectric constant tensor:
#      x y z
#    x 1.817820 0.000000 -0.016740 
#    y 0.000000 1.868410 0.000000 
#    z -0.016740 0.000000 1.828850 
# 
# From -- ./inp_files/55674.got.cif
#   From: 2010.05.17/outbox.cif.g08.bks.cpg/sg11_28_cif.got.tgz:55674.got - 2010.06.03 12:22:45.
