data_PCOD9162789
_publ_section_title
;
Structure prediction by ZEFSAII (Michael W. Deem and Ramdas Pophale) SiO2 
 PCOD9162789
Probable space group: P 21/M
;
_chemical_formula_sum "Si O2"
_cell_formula_units_Z 32
_cell_length_a 11.677436
_cell_length_b 21.904969
_cell_length_c 5.609602
_cell_angle_alpha 90.000000
_cell_angle_beta 69.798948
_cell_angle_gamma 90.000000
_cell_volume 1346.636253
_symmetry_space_group_name_H-M "P 21/M"
_symmetry_group_IT_number 11
_symmetry_cell_setting 'monoclinic'
loop_
_space_group_symop_operation_xyz
x,y,z
-x,1/2+y,-z
-x,-y,-z
x,1/2-y,z
loop_
_atom_site_type_symbol
_atom_site_label
_atom_site_fract_x
_atom_site_fract_y
_atom_site_fract_z
Si Si1 0.751363 0.912616 0.414560
Si Si2 0.765249 0.822508 0.023133
Si Si3 0.836433 0.489770 0.962609
Si Si4 0.578680 0.179864 0.398613
Si Si5 0.374935 0.517696 0.273254
Si Si6 0.040603 0.404818 0.347060
Si Si7 0.796735 0.391291 0.332846
Si Si8 0.523714 0.626461 0.023611
O O1 0.725540 0.848210 0.310111
O O2 0.791182 0.959140 0.179209
O O3 0.869655 0.905880 0.493487
O O4 0.637198 0.949769 0.609443
O O5 0.766819 0.750000 0.007080
O O6 0.664311 0.852480 0.921024
O O7 0.894253 0.853787 0.866750
O O8 0.862773 0.425768 0.067665
O O9 0.724671 0.480670 0.864018
O O10 0.946672 0.525690 0.759895
O O11 0.546149 0.250000 0.387540
O O12 0.724608 0.168778 0.316420
O O13 0.527865 0.160318 0.698523
O O14 0.539295 0.145821 0.180071
O O15 0.311406 0.562100 0.515586
O O16 0.494921 0.555265 0.110089
O O17 0.899068 0.388071 0.462630
#
# Coordination Sequence:
#
# PCOD9162789 Si02
#       8
#     4   4   4   4   4   4   4   4
#     4   9  21  39  60  94 130 168 215 267 327 397
#     4  11  25  43  63  87 123 178 227 270 320 392
#     4   9  17  36  60  92 125 160 205 260 326 393
#     4  11  23  42  66  97 128 167 221 280 338 393
#     4   9  19  37  64  97 130 161 207 274 345 394
#     4  10  22  38  59  90 126 167 214 260 323 390
#     4  10  20  35  62  91 128 165 209 267 330 393
#     4  11  24  44  71  97 128 170 224 280 337 397
#
# _framework density 23.762913000000001
#
# number of rings (size 3 to 8) (size 9 to 14) (size 15 to 20)
#    0.000    2.000    1.250    1.500    1.750    8.000 
#    0.000    5.625    0.000    0.000    0.000    0.000 
#    0.000    0.000    0.000    0.000    0.000    0.000 
#
# Total GULP energy -178712.490337 kJ/mol
# GULP energy per Si atom -5584.765323 kJ/mol
# Density = 2.370883 g / cm^3
# Si number density = 23.762913 Si / 1000 Ang^3
#
#
#
# Elastic Constant Matrix: (Units=GPa)
#
#
# Indices 1 2 3 4 5 6 
#
# 1 81.3500 6.9117 23.5121 0.0000 -8.4932 0.0000
# 2 6.9117 131.6821 28.8770 0.0000 -7.2384 0.0000
# 3 23.5121 28.8770 92.7397 0.0000 7.6589 0.0000
# 4 0.0000 0.0000 0.0000 26.6093 0.0000 2.3955
# 5 -8.4932 -7.2384 7.6589 0.0000 34.6639 0.0000
# 6 0.0000 0.0000 0.0000 2.3955 0.0000 27.8597
#
#
#
# Elastic Compliance Matrix: (Units=1/GPa)
#
#
# Indices 1 2 3 4 5 6 
#
# 1 0.013871 0.000388 -0.003998 0.000000 0.004363 0.000000
# 2 0.000388 0.008346 -0.002902 0.000000 0.002479 0.000000
# 3 -0.003998 -0.002902 0.013069 0.000000 -0.004473 0.000000
# 4 0.000000 0.000000 0.000000 0.037874 0.000000 -0.003257
# 5 0.004363 0.002479 -0.004473 0.000000 0.031423 0.000000
# 6 0.000000 0.000000 0.000000 -0.003257 0.000000 0.036174
#
#
# Mechanical properties :
#
#
# Convention : Reuss Voigt Hill
#
# Bulk Modulus (GPa) = 44.91661 47.15258 46.03459
# Shear Modulus (GPa) = 31.01696 34.25798 32.63747
#
# Velocity S-wave (km/s) = 3.61677 3.80104 3.71005
# Velocity P-wave (km/s) = 6.03195 6.25698 6.14549
#
# Compressibility (1/GPa) = 0.02226348
#
# Stress axis : x y z
#
# Youngs Moduli (GPa) = 72.09529 119.81292 76.51406
#
# Poissons Ratio (x) = -0.04655 0.30589
# Poissons Ratio (y) = -0.02801 0.22205
# Poissons Ratio (z) = 0.28823 0.34771
#
# Static dielectric constant tensor:
#      x y z
#    x 1.902590 0.000000 -0.058350 
#    y 0.000000 1.886770 0.000000 
#    z -0.058350 0.000000 2.101410 
# 
# From -- ./inp_files/5458.got.cif
#   From: 2010.05.17/outbox.cif.g08.bks.cpg/sg11_3_cif.got.tgz:5458.got - 2010.06.03 12:22:45.
