data_PCOD9162259
_publ_section_title
;
Structure prediction by ZEFSAII (Michael W. Deem and Ramdas Pophale) SiO2 
 PCOD9162259
Probable space group: P 21/M
;
_chemical_formula_sum "Si O2"
_cell_formula_units_Z 24
_cell_length_a 11.230577
_cell_length_b 8.696223
_cell_length_c 22.010027
_cell_angle_alpha 90.000000
_cell_angle_beta 32.787919
_cell_angle_gamma 90.000000
_cell_volume 1164.063322
_symmetry_space_group_name_H-M "P 21/M"
_symmetry_group_IT_number 11
_symmetry_cell_setting 'monoclinic'
loop_
_space_group_symop_operation_xyz
x,y,z
-x,1/2+y,-z
-x,-y,-z
x,1/2-y,z
loop_
_atom_site_type_symbol
_atom_site_label
_atom_site_fract_x
_atom_site_fract_y
_atom_site_fract_z
Si Si1 0.022530 0.435298 0.774961
Si Si2 0.663832 0.432942 0.175439
Si Si3 0.000477 0.565576 0.649524
Si Si4 0.511427 0.065409 0.563026
Si Si5 0.205681 0.931409 0.375616
Si Si6 0.107868 0.564890 0.042369
O O1 0.016741 0.250000 0.768262
O O2 0.981772 0.514669 0.727779
O O3 0.271382 0.477249 0.690923
O O4 0.864579 0.477145 0.898784
O O5 0.643485 0.250000 0.189453
O O6 0.443521 0.509824 0.294596
O O7 0.884859 0.489117 0.113158
O O8 0.703717 0.473553 0.086998
O O9 0.980981 0.750000 0.653618
O O10 0.245501 0.517467 0.520338
O O11 0.828551 0.485971 0.679039
O O12 0.517584 0.250000 0.559847
O O13 0.500000 0.000000 0.500000
O O14 0.199284 0.750000 0.383911
O O15 0.000000 0.000000 0.500000
O O16 0.078523 0.750000 0.052902
#
# Coordination Sequence:
#
# PCOD9162259 Si02
#       6
#     4   4   4   4   4   4
#     4   9  17  32  55  84 115 153 193 235 288 341
#     4  10  21  39  60  88 120 154 199 247 292 345
#     4  10  20  35  54  83 118 153 191 238 289 345
#     4   8  15  27  46  73 108 145 180 221 272 327
#     4  12  26  43  62  84 114 155 197 240 294 356
#     4   9  19  36  62  90 120 156 197 245 293 342
#
# _framework density 20.617436000000001
#
# number of rings (size 3 to 8) (size 9 to 14) (size 15 to 20)
#    0.000    2.333    0.000    2.500    2.333    2.000 
#    0.000    0.833    0.000    0.000    0.000    0.000 
#    0.000    0.000    0.000    0.000    0.000    0.000 
#
# Total GULP energy -133868.786058 kJ/mol
# GULP energy per Si atom -5577.866086 kJ/mol
# Density = 2.057051 g / cm^3
# Si number density = 20.617436 Si / 1000 Ang^3
#
#
#
# Elastic Constant Matrix: (Units=GPa)
#
#
# Indices 1 2 3 4 5 6 
#
# 1 56.1283 17.6614 24.8773 0.0000 4.6295 0.0000
# 2 17.6614 41.2508 42.9831 0.0000 2.0597 0.0000
# 3 24.8773 42.9831 99.9829 0.0000 13.7272 0.0000
# 4 0.0000 0.0000 0.0000 21.2936 0.0000 -1.5260
# 5 4.6295 2.0597 13.7272 0.0000 36.9640 0.0000
# 6 0.0000 0.0000 0.0000 -1.5260 0.0000 25.5047
#
#
#
# Elastic Compliance Matrix: (Units=1/GPa)
#
#
# Indices 1 2 3 4 5 6 
#
# 1 0.020990 -0.006667 -0.002156 0.000000 -0.001457 0.000000
# 2 -0.006667 0.046858 -0.019222 0.000000 0.005362 0.000000
# 3 -0.002156 -0.019222 0.019618 0.000000 -0.005944 0.000000
# 4 0.000000 0.000000 0.000000 0.047165 0.000000 0.002822
# 5 -0.001457 0.005362 -0.005944 0.000000 0.029144 0.000000
# 6 0.000000 0.000000 0.000000 0.002822 0.000000 0.039377
#
#
# Mechanical properties :
#
#
# Convention : Reuss Voigt Hill
#
# Bulk Modulus (GPa) = 31.87233 40.93396 36.40315
# Shear Modulus (GPa) = 18.53905 24.20847 21.37376
#
# Velocity S-wave (km/s) = 3.00191 3.43034 3.22325
# Velocity P-wave (km/s) = 5.24478 5.96547 5.61670
#
# Compressibility (1/GPa) = 0.03137518
#
# Stress axis : x y z
#
# Youngs Moduli (GPa) = 47.64143 21.34124 50.97387
#
# Poissons Ratio (x) = 0.14228 0.10992
# Poissons Ratio (y) = 0.31763 0.97980
# Poissons Ratio (z) = 0.10274 0.41021
#
# Static dielectric constant tensor:
#      x y z
#    x 1.755740 0.000000 0.013960 
#    y 0.000000 1.681080 0.000000 
#    z 0.013960 0.000000 1.771190 
# 
# From -- ./inp_files/68362.got.cif
#   From: 2010.05.17/outbox.cif.g08.bks.cpg/sg11_35_cif.got.tgz:68362.got - 2010.06.03 12:22:45.
