data_PCOD9162022
_publ_section_title
;
Structure prediction by ZEFSAII (Michael W. Deem and Ramdas Pophale) SiO2 
 PCOD9162022
Probable space group: P 21/M
;
_chemical_formula_sum "Si O2"
_cell_formula_units_Z 28
_cell_length_a 7.871495
_cell_length_b 13.904710
_cell_length_c 13.809374
_cell_angle_alpha 90.000000
_cell_angle_beta 63.077355
_cell_angle_gamma 90.000000
_cell_volume 1347.635034
_symmetry_space_group_name_H-M "P 21/M"
_symmetry_group_IT_number 11
_symmetry_cell_setting 'monoclinic'
loop_
_space_group_symop_operation_xyz
x,y,z
-x,1/2+y,-z
-x,-y,-z
x,1/2-y,z
loop_
_atom_site_type_symbol
_atom_site_label
_atom_site_fract_x
_atom_site_fract_y
_atom_site_fract_z
Si Si1 0.577371 0.642523 0.838188
Si Si2 0.733392 0.014262 0.296449
Si Si3 0.360902 0.055830 0.873721
Si Si4 0.235866 0.638494 0.186792
Si Si5 0.961085 0.932103 0.417842
Si Si6 0.388302 0.147981 0.394832
Si Si7 0.894571 0.552248 0.889169
O O1 0.501914 0.750000 0.877440
O O2 0.431111 0.553721 0.878441
O O3 0.653790 0.640794 0.708474
O O4 0.750339 0.616398 0.863397
O O5 0.540954 0.066426 0.376682
O O6 0.887935 0.074714 0.193706
O O7 0.673602 0.934677 0.232060
O O8 0.848291 0.985550 0.361258
O O9 0.537513 0.119993 0.864312
O O10 0.170771 0.069687 0.984580
O O11 0.195128 0.750000 0.174267
O O12 0.149905 0.558053 0.135406
O O13 0.143415 0.611767 0.315786
O O14 0.806200 0.857895 0.497228
O O15 0.000000 0.000000 0.500000
O O16 0.484690 0.250000 0.388242
#
# Coordination Sequence:
#
# PCOD9162022 Si02
#       7
#     4   4   4   4   4   4   4
#     4   9  18  33  55  81 109 140 183 229 268 320
#     4  10  21  37  54  78 110 142 179 226 271 324
#     4  10  20  36  55  80 111 147 182 224 277 326
#     4  10  21  37  57  85 114 144 186 231 271 325
#     4  11  21  38  60  80 104 144 186 227 278 332
#     4  10  20  35  55  81 110 140 175 222 276 327
#     4  10  20  34  57  81 110 149 186 221 269 328
#
# _framework density 20.777138000000001
#
# number of rings (size 3 to 8) (size 9 to 14) (size 15 to 20)
#    0.000    2.000    0.000    6.429    0.000    2.857 
#    0.000    6.429    0.000    5.143    0.000    0.000 
#    0.000    0.000    0.000    0.000    0.000    0.000 
#
# Total GULP energy -156139.617965 kJ/mol
# GULP energy per Si atom -5576.414927 kJ/mol
# Density = 2.072985 g / cm^3
# Si number density = 20.777138 Si / 1000 Ang^3
#
#
#
# Elastic Constant Matrix: (Units=GPa)
#
#
# Indices 1 2 3 4 5 6 
#
# 1 59.0403 2.2022 -2.2222 0.0000 3.6622 0.0000
# 2 2.2022 73.1285 17.4644 0.0000 5.4103 0.0000
# 3 -2.2222 17.4644 78.4376 0.0000 -19.9138 0.0000
# 4 0.0000 0.0000 0.0000 11.0182 0.0000 1.8763
# 5 3.6622 5.4103 -19.9138 0.0000 32.5011 0.0000
# 6 0.0000 0.0000 0.0000 1.8763 0.0000 4.9792
#
#
#
# Elastic Compliance Matrix: (Units=1/GPa)
#
#
# Indices 1 2 3 4 5 6 
#
# 1 0.017068 -0.000412 0.000124 0.000000 -0.001779 0.000000
# 2 -0.000412 0.015229 -0.004777 0.000000 -0.005416 0.000000
# 3 0.000124 -0.004777 0.016596 0.000000 0.010950 0.000000
# 4 0.000000 0.000000 0.000000 0.096982 0.000000 -0.036545
# 5 -0.001779 -0.005416 0.010950 0.000000 0.038579 0.000000
# 6 0.000000 0.000000 0.000000 -0.036545 0.000000 0.214605
#
#
# Mechanical properties :
#
#
# Convention : Reuss Voigt Hill
#
# Bulk Modulus (GPa) = 25.79880 27.27725 26.53802
# Shear Modulus (GPa) = 11.84522 22.57716 17.21119
#
# Velocity S-wave (km/s) = 2.39028 3.29999 2.88127
# Velocity P-wave (km/s) = 4.47904 5.26088 4.88563
#
# Compressibility (1/GPa) = 0.03876150
#
# Stress axis : x y z
#
# Youngs Moduli (GPa) = 58.58932 65.66616 60.25479
#
# Poissons Ratio (x) = 0.02705 -0.00745
# Poissons Ratio (y) = 0.02413 0.28786
# Poissons Ratio (z) = -0.00724 0.31371
#
# Static dielectric constant tensor:
#      x y z
#    x 1.738770 0.000000 0.010830 
#    y 0.000000 1.783370 0.000000 
#    z 0.010830 0.000000 1.793450 
# 
# From -- ./inp_files/47403.got.cif
#   From: 2010.05.17/outbox.cif.g08.bks.cpg/sg11_24_cif.got.tgz:47403.got - 2010.06.03 12:22:45.
