data_PCOD9162322
_publ_section_title
;
Structure prediction by ZEFSAII (Michael W. Deem and Ramdas Pophale) SiO2 
 PCOD9162322
Probable space group: P 21/M
;
_chemical_formula_sum "Si O2"
_cell_formula_units_Z 24
_cell_length_a 20.875999
_cell_length_b 8.927447
_cell_length_c 7.178576
_cell_angle_alpha 90.000000
_cell_angle_beta 108.550827
_cell_angle_gamma 90.000000
_cell_volume 1268.353576
_symmetry_space_group_name_H-M "P 21/M"
_symmetry_group_IT_number 11
_symmetry_cell_setting 'monoclinic'
loop_
_space_group_symop_operation_xyz
x,y,z
-x,1/2+y,-z
-x,-y,-z
x,1/2-y,z
loop_
_atom_site_type_symbol
_atom_site_label
_atom_site_fract_x
_atom_site_fract_y
_atom_site_fract_z
Si Si1 0.056706 0.572757 0.422777
Si Si2 0.755338 0.429781 0.849554
Si Si3 0.604282 0.070493 0.589352
Si Si4 0.490897 0.071280 0.789851
Si Si5 0.112502 0.075329 0.137159
Si Si6 0.841739 0.925154 0.221518
O O1 0.050262 0.750000 0.417977
O O2 0.059839 0.510149 0.216478
O O3 0.126663 0.518250 0.582961
O O4 0.894082 0.566385 0.093279
O O5 0.762043 0.250000 0.865290
O O6 0.774991 0.502395 0.067661
O O7 0.680893 0.468984 0.711775
O O8 0.813650 0.498724 0.772048
O O9 0.601013 0.250000 0.558815
O O10 0.554677 0.032931 0.715705
O O11 0.574223 0.990737 0.380180
O O12 0.487231 0.250000 0.801797
O O13 0.500000 0.000000 0.000000
O O14 0.113715 0.250000 0.189034
O O15 0.832957 0.750000 0.258158
O O16 0.000000 0.000000 0.500000
#
# Coordination Sequence:
#
# PCOD9162322 Si02
#       6
#     4   4   4   4   4   4
#     4  12  24  38  60  84 112 148 186 228 277 331
#     4   9  17  35  59  82 109 146 186 227 282 332
#     4   9  19  36  57  80 110 146 185 231 275 327
#     4  10  20  35  55  81 112 147 187 231 276 328
#     4   9  20  38  58  81 113 143 179 228 275 329
#     4   9  20  38  58  81 113 144 180 230 275 326
#
# _framework density 18.922167999999999
#
# number of rings (size 3 to 8) (size 9 to 14) (size 15 to 20)
#    1.000    1.333    0.000    3.000    0.000    2.667 
#    3.000    0.000    0.000    0.000    0.000    0.000 
#    0.000    0.000    0.000    0.000    0.000    0.000 
#
# Total GULP energy -133778.470272 kJ/mol
# GULP energy per Si atom -5574.102928 kJ/mol
# Density = 1.887910 g / cm^3
# Si number density = 18.922168 Si / 1000 Ang^3
#
#
#
# Elastic Constant Matrix: (Units=GPa)
#
#
# Indices 1 2 3 4 5 6 
#
# 1 37.5654 21.2874 24.4150 0.0000 5.5018 0.0000
# 2 21.2874 101.1129 39.8153 0.0000 -3.4781 0.0000
# 3 24.4150 39.8153 105.1837 0.0000 -0.5902 0.0000
# 4 0.0000 0.0000 0.0000 34.0322 0.0000 -0.8908
# 5 5.5018 -3.4781 -0.5902 0.0000 27.5284 0.0000
# 6 0.0000 0.0000 0.0000 -0.8908 0.0000 29.0480
#
#
#
# Elastic Compliance Matrix: (Units=1/GPa)
#
#
# Indices 1 2 3 4 5 6 
#
# 1 0.034654 -0.005143 -0.006140 0.000000 -0.007707 0.000000
# 2 -0.005143 0.012438 -0.003500 0.000000 0.002524 0.000000
# 3 -0.006140 -0.003500 0.012263 0.000000 0.001048 0.000000
# 4 0.000000 0.000000 0.000000 0.029408 0.000000 0.000902
# 5 -0.007707 0.002524 0.001048 0.000000 0.038208 0.000000
# 6 0.000000 0.000000 0.000000 0.000902 0.000000 0.034453
#
#
# Mechanical properties :
#
#
# Convention : Reuss Voigt Hill
#
# Bulk Modulus (GPa) = 33.57018 46.09972 39.83495
# Shear Modulus (GPa) = 24.88542 28.67799 26.78170
#
# Velocity S-wave (km/s) = 3.63043 3.89726 3.76621
# Velocity P-wave (km/s) = 5.94584 6.68336 6.32536
#
# Compressibility (1/GPa) = 0.02978834
#
# Stress axis : x y z
#
# Youngs Moduli (GPa) = 28.85639 80.40004 81.54446
#
# Poissons Ratio (x) = 0.41350 0.50071
# Poissons Ratio (y) = 0.14841 0.28542
# Poissons Ratio (z) = 0.17719 0.28141
#
# Static dielectric constant tensor:
#      x y z
#    x 1.665660 0.000000 0.003070 
#    y 0.000000 1.620660 0.000000 
#    z 0.003070 0.000000 1.678070 
# 
# From -- ./inp_files/25926.got.cif
#   From: 2010.05.17/outbox.cif.g08.bks.cpg/sg11_13_cif.got.tgz:25926.got - 2010.06.03 12:22:45.
