data_PCOD9162376
_publ_section_title
;
Structure prediction by ZEFSAII (Michael W. Deem and Ramdas Pophale) SiO2 
 PCOD9162376
Probable space group: P 21/M
;
_chemical_formula_sum "Si O2"
_cell_formula_units_Z 28
_cell_length_a 17.312946
_cell_length_b 11.482765
_cell_length_c 13.715577
_cell_angle_alpha 90.000000
_cell_angle_beta 25.551723
_cell_angle_gamma 90.000000
_cell_volume 1176.080063
_symmetry_space_group_name_H-M "P 21/M"
_symmetry_group_IT_number 11
_symmetry_cell_setting 'monoclinic'
loop_
_space_group_symop_operation_xyz
x,y,z
-x,1/2+y,-z
-x,-y,-z
x,1/2-y,z
loop_
_atom_site_type_symbol
_atom_site_label
_atom_site_fract_x
_atom_site_fract_y
_atom_site_fract_z
Si Si1 0.107478 0.125499 0.769308
Si Si2 0.902258 0.123914 0.483166
Si Si3 0.141399 0.944231 0.107405
Si Si4 0.610064 0.877137 0.256339
Si Si5 0.227524 0.619108 0.702335
Si Si6 0.527637 0.378890 0.810897
Si Si7 0.353505 0.622698 0.042469
O O1 0.205370 0.250000 0.670911
O O2 0.012517 0.123598 0.772678
O O3 0.210454 0.003959 0.665401
O O4 0.943251 0.123089 0.032862
O O5 0.991347 0.250000 0.373895
O O6 0.738904 0.118702 0.592280
O O7 0.807228 0.116102 0.695988
O O8 0.045953 0.029194 0.292898
O O9 0.281145 0.876342 0.014294
O O10 0.242094 0.023799 0.912227
O O11 0.690206 0.750000 0.185618
O O12 0.425097 0.887567 0.526106
O O13 0.535233 0.879830 0.229782
O O14 0.225228 0.750000 0.656957
O O15 0.467447 0.250000 0.917661
O O16 0.457376 0.500612 0.934854
O O17 0.442903 0.750000 0.958104
#
# Coordination Sequence:
#
# PCOD9162376 Si02
#       7
#     4   4   4   4   4   4   4
#     4  10  21  37  57  83 112 141 177 221 270 322
#     4  10  20  35  56  80 106 141 187 231 267 314
#     4  11  21  34  52  79 113 146 177 218 273 325
#     4   9  18  33  54  80 108 139 178 222 267 318
#     4   9  19  38  61  82 107 141 181 223 264 315
#     4   9  18  34  56  80 104 135 180 229 272 315
#     4  10  21  37  54  77 110 145 181 223 273 323
#
# _framework density 23.807901999999999
#
# number of rings (size 3 to 8) (size 9 to 14) (size 15 to 20)
#    0.000    2.286    0.000    2.571    0.000    3.429 
#    0.000    9.286    0.000    0.000    0.000    0.000 
#    0.000    0.000    0.000    0.000    0.000    0.000 
#
# Total GULP energy -156164.444848 kJ/mol
# GULP energy per Si atom -5577.301602 kJ/mol
# Density = 2.375371 g / cm^3
# Si number density = 23.807902 Si / 1000 Ang^3
#
#
#
# Elastic Constant Matrix: (Units=GPa)
#
#
# Indices 1 2 3 4 5 6 
#
# 1 33.3903 19.4901 -21.1246 0.0000 -2.1395 0.0000
# 2 19.4901 233.2682 47.3826 0.0000 1.5807 0.0000
# 3 -21.1246 47.3826 43.8729 0.0000 4.7833 0.0000
# 4 0.0000 0.0000 0.0000 -16.7107 0.0000 -32.3131
# 5 -2.1395 1.5807 4.7833 0.0000 23.0589 0.0000
# 6 0.0000 0.0000 0.0000 -32.3131 0.0000 -15.5046
#
#
#
# Elastic Compliance Matrix: (Units=1/GPa)
#
#
# Indices 1 2 3 4 5 6 
#
# 1 0.074926 -0.017472 0.055309 0.000000 -0.003324 0.000000
# 2 -0.017472 0.009583 -0.018943 0.000000 0.001651 0.000000
# 3 0.055309 -0.018943 0.070782 0.000000 -0.008253 0.000000
# 4 0.000000 0.000000 0.000000 0.019750 0.000000 -0.041161
# 5 -0.003324 0.001651 -0.008253 0.000000 0.044658 0.000000
# 6 0.000000 0.000000 0.000000 -0.041161 0.000000 0.021286
#
#
# Mechanical properties :
#
#
# Convention : Reuss Voigt Hill
#
# Bulk Modulus (GPa) = 5.17921 44.66975 24.92448
# Shear Modulus (GPa) = 18.68753 15.82093 17.25423
#
# Velocity S-wave (km/s) = 2.80470 2.58063 2.69500
# Velocity P-wave (km/s) = 3.55930 5.26145 4.49174
#
# Compressibility (1/GPa) = 0.19307956
#
# Stress axis : x y z
#
# Youngs Moduli (GPa) = 13.34645 104.34739 14.12783
#
# Poissons Ratio (x) = 1.82320 -0.78140
# Poissons Ratio (y) = 0.23319 0.26762
# Poissons Ratio (z) = -0.73818 1.97665
#
# Static dielectric constant tensor:
#      x y z
#    x 1.917660 0.000000 0.024100 
#    y 0.000000 2.007850 0.000000 
#    z 0.024100 0.000000 1.886860 
# 
# From -- ./inp_files/61482.got.cif
#   From: 2010.05.17/outbox.cif.g08.bks.cpg/sg11_31_cif.got.tgz:61482.got - 2010.06.03 12:22:45.
