data_PCOD9162350
_publ_section_title
;
Structure prediction by ZEFSAII (Michael W. Deem and Ramdas Pophale) SiO2 
 PCOD9162350
Probable space group: P 21/M
;
_chemical_formula_sum "Si O2"
_cell_formula_units_Z 32
_cell_length_a 25.415139
_cell_length_b 8.631537
_cell_length_c 25.392899
_cell_angle_alpha 90.000000
_cell_angle_beta 17.597018
_cell_angle_gamma 90.000000
_cell_volume 1684.070209
_symmetry_space_group_name_H-M "P 21/M"
_symmetry_group_IT_number 11
_symmetry_cell_setting 'monoclinic'
loop_
_space_group_symop_operation_xyz
x,y,z
-x,1/2+y,-z
-x,-y,-z
x,1/2-y,z
loop_
_atom_site_type_symbol
_atom_site_label
_atom_site_fract_x
_atom_site_fract_y
_atom_site_fract_z
Si Si1 0.726770 0.064340 0.331477
Si Si2 0.671701 0.564563 0.268777
Si Si3 0.128280 0.061917 0.122887
Si Si4 0.075747 0.431287 0.481419
Si Si5 0.531387 0.937017 0.140290
Si Si6 0.868614 0.063322 0.463035
Si Si7 0.938101 0.434388 0.929849
Si Si8 0.451342 0.563685 0.103306
O O1 0.738230 0.250000 0.316827
O O2 0.533853 0.024638 0.537123
O O3 0.738699 0.993870 0.261555
O O4 0.881388 0.001795 0.219810
O O5 0.688232 0.750000 0.250545
O O6 0.784467 0.490470 0.115097
O O7 0.130830 0.250000 0.117714
O O8 0.974633 0.017791 0.310048
O O9 0.096289 0.995769 0.095869
O O10 0.312760 0.008088 0.971429
O O11 0.040968 0.250000 0.515932
O O12 0.031035 0.505421 0.580425
O O13 0.277262 0.473617 0.283883
O O14 0.000000 0.500000 0.500000
O O15 0.526960 0.750000 0.149209
O O16 0.334436 0.989966 0.342551
O O17 0.569888 0.967574 0.041562
O O18 0.865331 0.250000 0.469139
O O19 0.946378 0.250000 0.922282
O O20 0.424158 0.750000 0.126611
O O21 0.500000 0.500000 0.000000
#
# Coordination Sequence:
#
# PCOD9162350 Si02
#       8
#     4   4   4   4   4   4   4   4
#     4  10  21  39  64  92 123 161 203 249 301 356
#     4  10  21  39  64  92 123 160 202 249 301 356
#     4  10  21  38  60  82 109 154 202 244 293 352
#     4  11  22  36  55  81 112 146 184 232 288 350
#     4   8  17  35  56  79 108 142 185 234 286 347
#     4   9  19  37  59  81 109 144 187 239 295 354
#     4  12  25  39  57  87 126 163 203 251 297 352
#     4  10  20  35  55  84 114 145 183 229 288 352
#
# _framework density 19.001581999999999
#
# number of rings (size 3 to 8) (size 9 to 14) (size 15 to 20)
#    0.000    2.000    0.000    4.500    1.750    3.000 
#    0.000    5.625    0.000    0.000    0.000    0.000 
#    0.000    0.000    0.000    0.000    0.000    0.000 
#
# Total GULP energy -178564.716264 kJ/mol
# GULP energy per Si atom -5580.147383 kJ/mol
# Density = 1.895833 g / cm^3
# Si number density = 19.001582 Si / 1000 Ang^3
#
#
#
# Elastic Constant Matrix: (Units=GPa)
#
#
# Indices 1 2 3 4 5 6 
#
# 1 106.0026 -3.8024 63.6569 0.0000 30.4848 0.0000
# 2 -3.8024 14.4776 10.5373 0.0000 11.6632 0.0000
# 3 63.6569 10.5373 82.4830 0.0000 1.7498 0.0000
# 4 0.0000 0.0000 0.0000 18.2622 0.0000 4.8997
# 5 30.4848 11.6632 1.7498 0.0000 -11.4853 0.0000
# 6 0.0000 0.0000 0.0000 4.8997 0.0000 35.2518
#
#
#
# Elastic Compliance Matrix: (Units=1/GPa)
#
#
# Indices 1 2 3 4 5 6 
#
# 1 0.008421 -0.005842 -0.006081 0.000000 0.015492 0.000000
# 2 -0.005842 0.044888 -0.001858 0.000000 0.029793 0.000000
# 3 -0.006081 -0.001858 0.017380 0.000000 -0.015379 0.000000
# 4 0.000000 0.000000 0.000000 0.056879 0.000000 -0.007906
# 5 0.015492 0.029793 -0.015379 0.000000 -0.018038 0.000000
# 6 0.000000 0.000000 0.000000 -0.007906 0.000000 0.029466
#
#
# Mechanical properties :
#
#
# Convention : Reuss Voigt Hill
#
# Bulk Modulus (GPa) = 23.18722 38.19410 30.69066
# Shear Modulus (GPa) = 27.63423 17.24384 22.43904
#
# Velocity S-wave (km/s) = 3.81768 3.01573 3.44016
# Velocity P-wave (km/s) = 5.62692 5.68070 5.65387
#
# Compressibility (1/GPa) = 0.04312720
#
# Stress axis : x y z
#
# Youngs Moduli (GPa) = 118.75325 22.27757 57.53610
#
# Poissons Ratio (x) = 0.13015 0.34988
# Poissons Ratio (y) = 0.69380 0.10688
# Poissons Ratio (z) = 0.72215 0.04138
#
# Static dielectric constant tensor:
#      x y z
#    x 1.668610 0.000000 -0.003220 
#    y 0.000000 1.638620 0.000000 
#    z -0.003220 0.000000 1.660400 
# 
# From -- ./inp_files/69964.got.cif
#   From: 2010.05.17/outbox.cif.g08.bks.cpg/sg11_35_cif.got.tgz:69964.got - 2010.06.03 12:22:45.
