data_PCOD9162449
_publ_section_title
;
Structure prediction by ZEFSAII (Michael W. Deem and Ramdas Pophale) SiO2 
 PCOD9162449
Probable space group: P 21/M
;
_chemical_formula_sum "Si O2"
_cell_formula_units_Z 32
_cell_length_a 22.219114
_cell_length_b 8.851820
_cell_length_c 28.658083
_cell_angle_alpha 90.000000
_cell_angle_beta 18.849171
_cell_angle_gamma 90.000000
_cell_volume 1821.016226
_symmetry_space_group_name_H-M "P 21/M"
_symmetry_group_IT_number 11
_symmetry_cell_setting 'monoclinic'
loop_
_space_group_symop_operation_xyz
x,y,z
-x,1/2+y,-z
-x,-y,-z
x,1/2-y,z
loop_
_atom_site_type_symbol
_atom_site_label
_atom_site_fract_x
_atom_site_fract_y
_atom_site_fract_z
Si Si1 0.456676 0.568888 0.082164
Si Si2 0.914977 0.931656 0.903697
Si Si3 0.384053 0.930563 0.942940
Si Si4 0.198331 0.929897 0.841339
Si Si5 0.964801 0.430455 0.576814
Si Si6 0.694988 0.067697 0.341393
Si Si7 0.633273 0.928855 0.194759
Si Si8 0.670092 0.069593 0.658408
O O1 0.479160 0.750000 0.065095
O O2 0.584513 0.497470 0.028799
O O3 0.242553 0.534860 0.253437
O O4 0.500000 0.500000 0.000000
O O5 0.902829 0.750000 0.905637
O O6 0.128506 0.975411 0.755856
O O7 0.799343 0.964006 0.036166
O O8 0.806142 0.013494 0.941982
O O9 0.393304 0.750000 0.936802
O O10 0.549197 0.996249 0.788849
O O11 0.180046 0.750000 0.854059
O O12 0.259606 0.979644 0.744929
O O13 0.339850 0.980657 0.777723
O O14 0.000000 0.000000 0.000000
O O15 0.984907 0.250000 0.559588
O O16 0.000000 0.500000 0.500000
O O17 0.125317 0.500523 0.491264
O O18 0.685139 0.250000 0.349488
O O19 0.500000 0.000000 0.500000
O O20 0.644519 0.750000 0.196461
O O21 0.444491 0.959047 0.304836
O O22 0.675953 0.250000 0.661860
#
# Coordination Sequence:
#
# PCOD9162449 Si02
#       8
#     4   4   4   4   4   4   4   4
#     4  11  24  41  60  85 118 156 195 238 289 343
#     4   9  18  36  57  79 114 150 186 234 287 341
#     4  11  21  34  57  87 115 147 193 240 287 343
#     4  11  21  35  56  83 113 145 185 233 284 337
#     4  11  22  36  59  87 116 149 190 235 287 342
#     4  10  22  39  57  82 115 152 191 235 285 340
#     4   9  18  34  55  82 114 147 186 234 286 337
#     4  10  20  35  56  83 118 153 190 237 288 340
#
# _framework density 17.572607000000001
#
# number of rings (size 3 to 8) (size 9 to 14) (size 15 to 20)
#    0.000    1.750    2.500    3.375    0.000    5.500 
#    0.000    1.250    0.000    3.000    0.000    0.000 
#    0.000    0.000    0.000    0.000    0.000    0.000 
#
# Total GULP energy -178709.861680 kJ/mol
# GULP energy per Si atom -5584.683178 kJ/mol
# Density = 1.753261 g / cm^3
# Si number density = 17.572607 Si / 1000 Ang^3
#
#
#
# Elastic Constant Matrix: (Units=GPa)
#
#
# Indices 1 2 3 4 5 6 
#
# 1 148.1071 68.1459 78.2703 0.0000 -7.0919 0.0000
# 2 68.1459 70.9683 56.1182 0.0000 -3.7860 0.0000
# 3 78.2703 56.1182 117.8914 0.0000 -12.6219 0.0000
# 4 0.0000 0.0000 0.0000 29.9290 0.0000 -3.4527
# 5 -7.0919 -3.7860 -12.6219 0.0000 29.4222 0.0000
# 6 0.0000 0.0000 0.0000 -3.4527 0.0000 35.1231
#
#
#
# Elastic Compliance Matrix: (Units=1/GPa)
#
#
# Indices 1 2 3 4 5 6 
#
# 1 0.013408 -0.009365 -0.004431 0.000000 0.000126 0.000000
# 2 -0.009365 0.029227 -0.007897 0.000000 -0.001884 0.000000
# 3 -0.004431 -0.007897 0.015680 0.000000 0.004642 0.000000
# 4 0.000000 0.000000 0.000000 0.033796 0.000000 0.003322
# 5 0.000126 -0.001884 0.004642 0.000000 0.035767 0.000000
# 6 0.000000 0.000000 0.000000 0.003322 0.000000 0.028798
#
#
# Mechanical properties :
#
#
# Convention : Reuss Voigt Hill
#
# Bulk Modulus (GPa) = 66.97562 82.44840 74.71201
# Shear Modulus (GPa) = 24.38576 27.85702 26.12139
#
# Velocity S-wave (km/s) = 3.72924 3.98584 3.85968
# Velocity P-wave (km/s) = 7.53256 8.25852 7.90388
#
# Compressibility (1/GPa) = 0.01493081
#
# Stress axis : x y z
#
# Youngs Moduli (GPa) = 74.58115 34.21497 63.77514
#
# Poissons Ratio (x) = 0.32041 0.28257
# Poissons Ratio (y) = 0.69843 0.50362
# Poissons Ratio (z) = 0.33045 0.27019
#
# Static dielectric constant tensor:
#      x y z
#    x 1.604320 0.000000 -0.022910 
#    y 0.000000 1.586810 0.000000 
#    z -0.022910 0.000000 1.582380 
# 
# From -- ./inp_files/72050.got.cif
#   From: 2010.05.17/outbox.cif.g08.bks.cpg/sg11_37_cif.got.tgz:72050.got - 2010.06.03 12:22:45.
