data_PCOD9162491
_publ_section_title
;
Structure prediction by ZEFSAII (Michael W. Deem and Ramdas Pophale) SiO2 
 PCOD9162491
Probable space group: P 21/M
;
_chemical_formula_sum "Si O2"
_cell_formula_units_Z 32
_cell_length_a 15.034112
_cell_length_b 9.127950
_cell_length_c 20.335449
_cell_angle_alpha 90.000000
_cell_angle_beta 43.912015
_cell_angle_gamma 90.000000
_cell_volume 1935.460891
_symmetry_space_group_name_H-M "P 21/M"
_symmetry_group_IT_number 11
_symmetry_cell_setting 'monoclinic'
loop_
_space_group_symop_operation_xyz
x,y,z
-x,1/2+y,-z
-x,-y,-z
x,1/2-y,z
loop_
_atom_site_type_symbol
_atom_site_label
_atom_site_fract_x
_atom_site_fract_y
_atom_site_fract_z
Si Si1 0.094610 0.083960 0.536181
Si Si2 0.643128 0.076351 0.615173
Si Si3 0.618013 0.075466 0.473531
Si Si4 0.861996 0.577257 0.829822
Si Si5 0.424293 0.426811 0.978948
Si Si6 0.847402 0.582330 0.681375
Si Si7 0.442590 0.078197 0.214858
Si Si8 0.118910 0.417214 0.682393
O O1 0.114762 0.250000 0.502053
O O2 0.100426 0.084741 0.612887
O O3 0.211877 0.982279 0.452539
O O4 0.954439 0.023218 0.594701
O O5 0.637855 0.250000 0.629035
O O6 0.610650 0.046078 0.556085
O O7 0.553983 0.992933 0.714781
O O8 0.615868 0.250000 0.465729
O O9 0.500000 0.000000 0.500000
O O10 0.752599 0.010535 0.375769
O O11 0.886478 0.750000 0.827058
O O12 0.839085 0.555462 0.763966
O O13 0.989158 0.487505 0.780114
O O14 0.727220 0.538415 0.934946
O O15 0.438863 0.250000 0.975004
O O16 0.479020 0.490740 0.881997
O O17 0.500000 0.500000 0.000000
O O18 0.892095 0.750000 0.649680
O O19 0.706237 0.567806 0.727957
O O20 0.477251 0.250000 0.197084
O O21 0.136097 0.250000 0.695133
#
# Coordination Sequence:
#
# PCOD9162491 Si02
#       8
#     4   4   4   4   4   4   4   4
#     4   9  17  29  46  68  93 127 168 208 247 293
#     4  10  21  36  51  71  99 133 165 203 252 304
#     4  10  20  35  57  82 108 134 163 200 248 307
#     4   9  17  31  48  68  98 134 172 216 260 297
#     4  11  21  34  51  72  99 135 180 227 267 304
#     4   9  17  30  45  64  92 129 171 212 253 295
#     4  11  22  35  49  69  97 133 175 219 260 301
#     4   9  17  29  48  76 104 130 165 206 250 300
#
# _framework density 16.533529000000001
#
# number of rings (size 3 to 8) (size 9 to 14) (size 15 to 20)
#    0.000    2.250    1.250    2.250    0.000    7.000 
#    0.000    0.000    0.000    0.000    0.000    0.875 
#    0.000    0.000    0.000    0.000    0.000    0.000 
#
# Total GULP energy -178550.824287 kJ/mol
# GULP energy per Si atom -5579.713259 kJ/mol
# Density = 1.649590 g / cm^3
# Si number density = 16.533529 Si / 1000 Ang^3
#
#
#
# Elastic Constant Matrix: (Units=GPa)
#
#
# Indices 1 2 3 4 5 6 
#
# 1 65.0096 53.0042 45.3242 0.0000 -14.7790 0.0000
# 2 53.0042 101.4839 68.2940 0.0000 -8.5651 0.0000
# 3 45.3242 68.2940 113.2431 0.0000 -8.9505 0.0000
# 4 0.0000 0.0000 0.0000 29.1882 0.0000 -5.8131
# 5 -14.7790 -8.5651 -8.9505 0.0000 17.2821 0.0000
# 6 0.0000 0.0000 0.0000 -5.8131 0.0000 21.8843
#
#
#
# Elastic Compliance Matrix: (Units=1/GPa)
#
#
# Indices 1 2 3 4 5 6 
#
# 1 0.033301 -0.013127 -0.003832 0.000000 0.019987 0.000000
# 2 -0.013127 0.021927 -0.008340 0.000000 -0.004678 0.000000
# 3 -0.003832 -0.008340 0.015440 0.000000 0.000586 0.000000
# 4 0.000000 0.000000 0.000000 0.036174 0.000000 0.009609
# 5 0.019987 -0.004678 0.000586 0.000000 0.072941 0.000000
# 6 0.000000 0.000000 0.000000 0.009609 0.000000 0.048247
#
#
# Mechanical properties :
#
#
# Convention : Reuss Voigt Hill
#
# Bulk Modulus (GPa) = 49.82340 68.10905 58.96622
# Shear Modulus (GPa) = 17.52434 21.21185 19.36810
#
# Velocity S-wave (km/s) = 3.25918 3.58573 3.42635
# Velocity P-wave (km/s) = 6.66057 7.64377 7.16905
#
# Compressibility (1/GPa) = 0.02007089
#
# Stress axis : x y z
#
# Youngs Moduli (GPa) = 30.02956 45.60531 64.76720
#
# Poissons Ratio (x) = 0.59866 0.24818
# Poissons Ratio (y) = 0.39420 0.54013
# Poissons Ratio (z) = 0.11507 0.38033
#
# Static dielectric constant tensor:
#      x y z
#    x 1.543640 0.000000 0.014730 
#    y 0.000000 1.566530 0.000000 
#    z 0.014730 0.000000 1.559080 
# 
# From -- ./inp_files/51317.got.cif
#   From: 2010.05.17/outbox.cif.g08.bks.cpg/sg11_26_cif.got.tgz:51317.got - 2010.06.03 12:22:45.
