data_PCOD9162161
_publ_section_title
;
Structure prediction by ZEFSAII (Michael W. Deem and Ramdas Pophale) SiO2 
 PCOD9162161
Probable space group: P 21/M
;
_chemical_formula_sum "Si O2"
_cell_formula_units_Z 32
_cell_length_a 9.453951
_cell_length_b 20.731432
_cell_length_c 15.355785
_cell_angle_alpha 90.000000
_cell_angle_beta 146.359279
_cell_angle_gamma 90.000000
_cell_volume 1667.291003
_symmetry_space_group_name_H-M "P 21/M"
_symmetry_group_IT_number 11
_symmetry_cell_setting 'monoclinic'
loop_
_space_group_symop_operation_xyz
x,y,z
-x,1/2+y,-z
-x,-y,-z
x,1/2-y,z
loop_
_atom_site_type_symbol
_atom_site_label
_atom_site_fract_x
_atom_site_fract_y
_atom_site_fract_z
Si Si1 0.676494 0.080121 0.153972
Si Si2 0.371042 0.014021 0.342827
Si Si3 0.138275 0.461122 0.492194
Si Si4 0.316949 0.879613 0.040578
Si Si5 0.190829 0.474293 0.989434
Si Si6 0.782840 0.825314 0.379773
Si Si7 0.669475 0.319600 0.308516
Si Si8 0.199344 0.127067 0.154384
O O1 0.400187 0.046724 0.024877
O O2 0.674533 0.129345 0.233985
O O3 0.929161 0.038284 0.306672
O O4 0.700352 0.112413 0.072209
O O5 0.101165 0.977746 0.192428
O O6 0.297477 0.088081 0.288680
O O7 0.500000 0.000000 0.500000
O O8 0.596050 0.995945 0.391375
O O9 0.214860 0.386158 0.551693
O O10 0.000000 0.500000 0.500000
O O11 0.576256 0.846055 0.202878
O O12 0.283981 0.953149 0.059137
O O13 0.074883 0.845181 0.961286
O O14 0.189031 0.426881 0.071573
O O15 0.735400 0.750000 0.383307
O O16 0.079661 0.827474 0.503393
O O17 0.688242 0.250000 0.275640
O O18 0.414071 0.325180 0.232188
#
# Coordination Sequence:
#
# PCOD9162161 Si02
#       8
#     4   4   4   4   4   4   4   4
#     4  10  21  34  54  81 108 140 179 226 278 328
#     4  11  21  33  53  82 113 138 171 225 278 322
#     4  11  20  36  59  83 109 148 192 232 282 344
#     4  11  20  33  53  81 112 138 177 229 277 325
#     4  10  20  35  52  77 112 146 177 217 273 333
#     4  10  21  35  54  80 109 144 186 231 278 338
#     4   9  20  39  57  72  99 140 182 220 266 328
#     4  10  20  35  54  78 105 142 181 218 266 326
#
# _framework density 19.192810000000001
#
# number of rings (size 3 to 8) (size 9 to 14) (size 15 to 20)
#    0.000    1.750    0.000    7.875    0.000    3.000 
#    0.000    0.000    0.000    2.250    0.000    7.000 
#    0.000    0.000    0.000    0.000    0.000    0.000 
#
# Total GULP energy -178258.252285 kJ/mol
# GULP energy per Si atom -5570.570384 kJ/mol
# Density = 1.914913 g / cm^3
# Si number density = 19.192810 Si / 1000 Ang^3
#
#
#
# Elastic Constant Matrix: (Units=GPa)
#
#
# Indices 1 2 3 4 5 6 
#
# 1 100.4105 9.5236 52.6923 0.0000 22.7267 0.0000
# 2 9.5236 52.6000 30.4720 0.0000 14.1183 0.0000
# 3 52.6923 30.4720 126.8247 0.0000 20.3112 0.0000
# 4 0.0000 0.0000 0.0000 19.9280 0.0000 6.9491
# 5 22.7267 14.1183 20.3112 0.0000 35.4502 0.0000
# 6 0.0000 0.0000 0.0000 6.9491 0.0000 12.2447
#
#
#
# Elastic Compliance Matrix: (Units=1/GPa)
#
#
# Indices 1 2 3 4 5 6 
#
# 1 0.014095 0.002393 -0.005319 0.000000 -0.006941 0.000000
# 2 0.002393 0.023865 -0.005461 0.000000 -0.007909 0.000000
# 3 -0.005319 -0.005461 0.011575 0.000000 -0.001047 0.000000
# 4 0.000000 0.000000 0.000000 0.062562 0.000000 -0.035505
# 5 -0.006941 -0.007909 -0.001047 0.000000 0.036408 0.000000
# 6 0.000000 0.000000 0.000000 -0.035505 0.000000 0.101818
#
#
# Mechanical properties :
#
#
# Convention : Reuss Voigt Hill
#
# Bulk Modulus (GPa) = 30.52662 51.69011 41.10837
# Shear Modulus (GPa) = 17.98452 26.00108 21.99280
#
# Velocity S-wave (km/s) = 3.06444 3.68466 3.38877
# Velocity P-wave (km/s) = 5.33487 6.71512 6.06439
#
# Compressibility (1/GPa) = 0.03275830
#
# Stress axis : x y z
#
# Youngs Moduli (GPa) = 70.94947 41.90244 86.39540
#
# Poissons Ratio (x) = -0.10026 0.45955
# Poissons Ratio (y) = -0.16975 0.47184
# Poissons Ratio (z) = 0.37739 0.22885
#
# Static dielectric constant tensor:
#      x y z
#    x 1.691560 0.000000 0.019390 
#    y 0.000000 1.737740 0.000000 
#    z 0.019390 0.000000 1.702020 
# 
# From -- ./inp_files/48263.got.cif
#   From: 2010.05.17/outbox.cif.g08.bks.cpg/sg11_25_cif.got.tgz:48263.got - 2010.06.03 12:22:45.
