data_PCOD9162622
_publ_section_title
;
Structure prediction by ZEFSAII (Michael W. Deem and Ramdas Pophale) SiO2 
 PCOD9162622
Probable space group: P 21/M
;
_chemical_formula_sum "Si O2"
_cell_formula_units_Z 20
_cell_length_a 12.214907
_cell_length_b 9.069594
_cell_length_c 9.723549
_cell_angle_alpha 90.000000
_cell_angle_beta 120.912269
_cell_angle_gamma 90.000000
_cell_volume 924.202815
_symmetry_space_group_name_H-M "P 21/M"
_symmetry_group_IT_number 11
_symmetry_cell_setting 'monoclinic'
loop_
_space_group_symop_operation_xyz
x,y,z
-x,1/2+y,-z
-x,-y,-z
x,1/2-y,z
loop_
_atom_site_type_symbol
_atom_site_label
_atom_site_fract_x
_atom_site_fract_y
_atom_site_fract_z
Si Si1 0.658051 0.576061 0.983449
Si Si2 0.578945 0.420422 0.669593
Si Si3 0.727845 0.419462 0.292390
Si Si4 0.912240 0.080704 0.175187
Si Si5 0.177103 0.578185 0.354051
O O1 0.645794 0.750000 0.976590
O O2 0.645215 0.509793 0.128773
O O3 0.803679 0.524349 0.041850
O O4 0.573037 0.504050 0.810134
O O5 0.500000 0.500000 0.500000
O O6 0.541009 0.250000 0.660199
O O7 0.723419 0.424579 0.705483
O O8 0.681976 0.250000 0.266718
O O9 0.749276 0.473893 0.460010
O O10 0.866801 0.418448 0.306090
O O11 0.899960 0.250000 0.118176
O O12 0.052201 0.017594 0.248352
O O13 0.140930 0.750000 0.355674
#
# Coordination Sequence:
#
# PCOD9162622 Si02
#       5
#     4   4   4   4   4
#     4  10  20  36  58  82 113 149 183 223 273 326
#     4  11  24  42  60  79 107 145 188 234 278 324
#     4   8  17  34  55  85 117 144 177 222 272 328
#     4   9  18  32  56  86 119 147 176 220 273 329
#     4  10  20  35  58  85 113 146 184 225 274 327
#
# _framework density 21.640272
#
# number of rings (size 3 to 8) (size 9 to 14) (size 15 to 20)
#    1.200    1.200    0.000    3.000    0.000    3.200 
#    0.000    1.000    0.000    0.000    0.000    0.000 
#    0.000    0.000    0.000    0.000    0.000    0.000 
#
# Total GULP energy -111599.617339 kJ/mol
# GULP energy per Si atom -5579.980867 kJ/mol
# Density = 2.159102 g / cm^3
# Si number density = 21.640272 Si / 1000 Ang^3
#
#
#
# Elastic Constant Matrix: (Units=GPa)
#
#
# Indices 1 2 3 4 5 6 
#
# 1 62.0534 27.3631 19.3011 0.0000 6.3030 0.0000
# 2 27.3631 119.4590 54.2587 0.0000 -7.8352 0.0000
# 3 19.3011 54.2587 110.9193 0.0000 -5.2237 0.0000
# 4 0.0000 0.0000 0.0000 35.3612 0.0000 3.4333
# 5 6.3030 -7.8352 -5.2237 0.0000 20.7661 0.0000
# 6 0.0000 0.0000 0.0000 3.4333 0.0000 10.0076
#
#
#
# Elastic Compliance Matrix: (Units=1/GPa)
#
#
# Indices 1 2 3 4 5 6 
#
# 1 0.019272 -0.004163 -0.001687 0.000000 -0.007845 0.000000
# 2 -0.004163 0.011821 -0.004846 0.000000 0.004505 0.000000
# 3 -0.001687 -0.004846 0.011757 0.000000 0.001641 0.000000
# 4 0.000000 0.000000 0.000000 0.029254 0.000000 -0.010036
# 5 -0.007845 0.004505 0.001641 0.000000 0.052649 0.000000
# 6 0.000000 0.000000 0.000000 -0.010036 0.000000 0.103367
#
#
# Mechanical properties :
#
#
# Convention : Reuss Voigt Hill
#
# Bulk Modulus (GPa) = 46.60021 54.91972 50.75996
# Shear Modulus (GPa) = 19.48073 25.99425 22.73749
#
# Velocity S-wave (km/s) = 3.00360 3.46959 3.24497
# Velocity P-wave (km/s) = 5.79738 6.44083 6.12756
#
# Compressibility (1/GPa) = 0.02145913
#
# Stress axis : x y z
#
# Youngs Moduli (GPa) = 51.88807 84.59388 85.05649
#
# Poissons Ratio (x) = 0.35216 0.14346
# Poissons Ratio (y) = 0.21601 0.41219
# Poissons Ratio (z) = 0.08751 0.40995
#
# Static dielectric constant tensor:
#      x y z
#    x 1.815370 0.000000 0.021010 
#    y 0.000000 1.715650 0.000000 
#    z 0.021010 0.000000 1.787430 
# 
# From -- ./inp_files/37273.got.cif
#   From: 2010.05.17/outbox.cif.g08.bks.cpg/sg11_19_cif.got.tgz:37273.got - 2010.06.03 12:22:45.
