data_PCOD9162427
_publ_section_title
;
Structure prediction by ZEFSAII (Michael W. Deem and Ramdas Pophale) SiO2 
 PCOD9162427
Probable space group: P 21/M
;
_chemical_formula_sum "Si O2"
_cell_formula_units_Z 30
_cell_length_a 7.667210
_cell_length_b 9.645710
_cell_length_c 22.097486
_cell_angle_alpha 90.000000
_cell_angle_beta 57.927122
_cell_angle_gamma 90.000000
_cell_volume 1384.806967
_symmetry_space_group_name_H-M "P 21/M"
_symmetry_group_IT_number 11
_symmetry_cell_setting 'monoclinic'
loop_
_space_group_symop_operation_xyz
x,y,z
-x,1/2+y,-z
-x,-y,-z
x,1/2-y,z
loop_
_atom_site_type_symbol
_atom_site_label
_atom_site_fract_x
_atom_site_fract_y
_atom_site_fract_z
Si Si1 0.501191 0.408212 0.202446
Si Si2 0.250166 0.086837 0.631374
Si Si3 0.297921 0.982060 0.443036
Si Si4 0.019950 0.250000 0.476851
Si Si5 0.397469 0.086192 0.927318
Si Si6 0.239330 0.088931 0.081233
Si Si7 0.153967 0.595987 0.761517
Si Si8 0.807528 0.408944 0.673585
O O1 0.462776 0.250000 0.189667
O O2 0.619878 0.496224 0.129877
O O3 0.640318 0.404282 0.236465
O O4 0.293189 0.486217 0.260143
O O5 0.290827 0.250000 0.630176
O O6 0.053251 0.071589 0.624005
O O7 0.467650 0.016352 0.577626
O O8 0.169507 0.021117 0.708759
O O9 0.190946 0.129652 0.460506
O O10 0.292643 0.929531 0.373590
O O11 0.155378 0.870725 0.502229
O O12 0.416324 0.250000 0.910924
O O13 0.601948 0.021772 0.920782
O O14 0.226410 0.067122 0.011286
O O15 0.313671 0.250000 0.074241
O O16 0.031346 0.077078 0.157159
O O17 0.131049 0.750000 0.737661
O O18 0.772163 0.250000 0.699722
#
# Coordination Sequence:
#
# PCOD9162427 Si02
#       8
#     4   4   4   2   4   4   4   4
#     4  11  23  37  57  86 119 158 206 257 309 365
#     4  11  23  39  63  92 124 162 205 251 303 360
#     4  11  22  46  65  97 128 165 198 250 294 359
#     4  10  24  42  74  92 130 168 198 238 306 352
#     4  10  20  35  56  82 116 157 202 254 314 369
#     4   9  19  37  57  80 115 157 203 257 310 367
#     4  10  22  38  58  85 117 157 206 257 308 363
#     4  11  23  40  64  92 125 163 206 253 303 360
#
# _framework density 21.663668999999999
#
# number of rings (size 3 to 8) (size 9 to 14) (size 15 to 20)
#    0.000    1.600    2.667    1.600    1.867    4.800 
#    0.000    4.000    0.000    0.000    0.000    0.000 
#    0.000    0.000    0.000    0.000    0.000    0.000 
#
# Total GULP energy -167096.797777 kJ/mol
# GULP energy per Si atom -5569.893259 kJ/mol
# Density = 2.161436 g / cm^3
# Si number density = 21.663669 Si / 1000 Ang^3
#
#
#
# Elastic Constant Matrix: (Units=GPa)
#
#
# Indices 1 2 3 4 5 6 
#
# 1 37.8084 -1.5998 19.5245 0.0000 -6.3731 0.0000
# 2 -1.5998 122.7143 41.3536 0.0000 -3.0734 0.0000
# 3 19.5245 41.3536 65.3501 0.0000 -8.2695 0.0000
# 4 0.0000 0.0000 0.0000 491.9027 0.0000 242.1731
# 5 -6.3731 -3.0734 -8.2695 0.0000 36.8036 0.0000
# 6 0.0000 0.0000 0.0000 242.1731 0.0000 142.3274
#
#
#
# Elastic Compliance Matrix: (Units=1/GPa)
#
#
# Indices 1 2 3 4 5 6 
#
# 1 0.033787 0.004808 -0.012707 0.000000 0.003397 0.000000
# 2 0.004808 0.011056 -0.008451 0.000000 -0.000143 0.000000
# 3 -0.012707 -0.008451 0.024783 0.000000 0.002662 0.000000
# 4 0.000000 0.000000 0.000000 0.012525 0.000000 -0.021312
# 5 0.003397 -0.000143 0.002662 0.000000 0.028346 0.000000
# 6 0.000000 0.000000 0.000000 -0.021312 0.000000 0.043288
#
#
# Mechanical properties :
#
#
# Convention : Reuss Voigt Hill
#
# Bulk Modulus (GPa) = 27.08093 38.26994 32.67543
# Shear Modulus (GPa) = 25.15164 145.31303 85.23233
#
# Velocity S-wave (km/s) = 3.41105 8.19893 6.27924
# Velocity P-wave (km/s) = 5.29542 10.36020 8.22725
#
# Compressibility (1/GPa) = 0.03692635
#
# Stress axis : x y z
#
# Youngs Moduli (GPa) = 29.59698 90.44947 40.35005
#
# Poissons Ratio (x) = -0.43485 0.51273
# Poissons Ratio (y) = -0.14229 0.34098
# Poissons Ratio (z) = 0.37609 0.76436
#
# Static dielectric constant tensor:
#      x y z
#    x 1.794750 0.000000 0.021660 
#    y 0.000000 1.821280 0.000000 
#    z 0.021660 0.000000 1.831040 
# 
# From -- ./inp_files/70660.got.cif
#   From: 2010.05.17/outbox.cif.g08.bks.cpg/sg11_36_cif.got.tgz:70660.got - 2010.06.03 12:22:45.
