data_PCOD9162235
_publ_section_title
;
Structure prediction by ZEFSAII (Michael W. Deem and Ramdas Pophale) SiO2 
 PCOD9162235
Probable space group: P 21/M
;
_chemical_formula_sum "Si O2"
_cell_formula_units_Z 28
_cell_length_a 23.064163
_cell_length_b 8.463247
_cell_length_c 25.388773
_cell_angle_alpha 90.000000
_cell_angle_beta 17.078220
_cell_angle_gamma 90.000000
_cell_volume 1455.413257
_symmetry_space_group_name_H-M "P 21/M"
_symmetry_group_IT_number 11
_symmetry_cell_setting 'monoclinic'
loop_
_space_group_symop_operation_xyz
x,y,z
-x,1/2+y,-z
-x,-y,-z
x,1/2-y,z
loop_
_atom_site_type_symbol
_atom_site_label
_atom_site_fract_x
_atom_site_fract_y
_atom_site_fract_z
Si Si1 0.872052 0.439201 0.038757
Si Si2 0.294832 0.939242 0.703279
Si Si3 0.825661 0.941057 0.863579
Si Si4 0.057349 0.068033 0.506905
Si Si5 0.334538 0.059861 0.104063
Si Si6 0.230173 0.560027 0.457340
Si Si7 0.660844 0.941901 0.117642
O O1 0.884741 0.250000 0.029359
O O2 0.750883 0.491245 0.196497
O O3 0.760346 0.493907 0.083625
O O4 0.095253 0.505956 0.846873
O O5 0.303021 0.750000 0.695368
O O6 0.500000 0.000000 0.500000
O O7 0.837223 0.750000 0.856406
O O8 0.657401 0.972690 0.965478
O O9 0.037473 0.996107 0.657174
O O10 0.772457 0.997334 0.967740
O O11 0.106671 0.250000 0.457655
O O12 0.856849 0.035859 0.712393
O O13 0.000000 0.000000 0.500000
O O14 0.215044 0.989500 0.409173
O O15 0.308049 0.250000 0.133448
O O16 0.500000 0.000000 0.000000
O O17 0.224276 0.750000 0.462615
O O18 0.433126 0.508998 0.307878
O O19 0.666396 0.750000 0.114329
#
# Coordination Sequence:
#
# PCOD9162235 Si02
#       7
#     4   4   4   4   4   4   4
#     4  10  22  39  58  89 127 159 198 245 288 343
#     4  10  21  39  64  91 123 161 200 243 292 342
#     4   8  17  34  52  75 107 142 185 234 283 343
#     4  11  22  36  54  77 105 139 182 236 294 353
#     4  10  20  35  54  79 107 139 181 232 290 351
#     4   9  19  36  55  76 107 144 187 238 290 348
#     4  10  20  35  58  83 112 156 197 235 288 347
#
# _framework density 19.238523000000001
#
# number of rings (size 3 to 8) (size 9 to 14) (size 15 to 20)
#    0.000    2.286    0.000    3.429    2.000    3.429 
#    0.000    5.000    0.000    0.000    0.000    0.000 
#    0.000    0.000    0.000    0.000    0.000    0.000 
#
# Total GULP energy -156066.304622 kJ/mol
# GULP energy per Si atom -5573.796594 kJ/mol
# Density = 1.919474 g / cm^3
# Si number density = 19.238523 Si / 1000 Ang^3
#
#
#
# Elastic Constant Matrix: (Units=GPa)
#
#
# Indices 1 2 3 4 5 6 
#
# 1 186.2434 24.0308 91.2687 0.0000 -20.3047 0.0000
# 2 24.0308 24.3888 23.7784 0.0000 -2.7617 0.0000
# 3 91.2687 23.7784 139.8939 0.0000 -7.6554 0.0000
# 4 0.0000 0.0000 0.0000 21.6022 0.0000 -4.7912
# 5 -20.3047 -2.7617 -7.6554 0.0000 26.8493 0.0000
# 6 0.0000 0.0000 0.0000 -4.7912 0.0000 34.4637
#
#
#
# Elastic Compliance Matrix: (Units=1/GPa)
#
#
# Indices 1 2 3 4 5 6 
#
# 1 0.008701 -0.003294 -0.004851 0.000000 0.004858 0.000000
# 2 -0.003294 0.050589 -0.006401 0.000000 0.000887 0.000000
# 3 -0.004851 -0.006401 0.011341 0.000000 -0.001093 0.000000
# 4 0.000000 0.000000 0.000000 0.047764 0.000000 0.006640
# 5 0.004858 0.000887 -0.001093 0.000000 0.040699 0.000000
# 6 0.000000 0.000000 0.000000 0.006640 0.000000 0.029939
#
#
# Mechanical properties :
#
#
# Convention : Reuss Voigt Hill
#
# Bulk Modulus (GPa) = 24.07342 69.85354 46.96348
# Shear Modulus (GPa) = 21.55419 30.67959 26.11689
#
# Velocity S-wave (km/s) = 3.35082 3.99770 3.68847
# Velocity P-wave (km/s) = 5.24509 7.59584 6.52716
#
# Compressibility (1/GPa) = 0.04153958
#
# Stress axis : x y z
#
# Youngs Moduli (GPa) = 114.92582 19.76695 88.17199
#
# Poissons Ratio (x) = 0.06511 0.42773
# Poissons Ratio (y) = 0.37853 0.56443
# Poissons Ratio (z) = 0.55752 0.12654
#
# Static dielectric constant tensor:
#      x y z
#    x 1.697640 0.000000 0.010200 
#    y 0.000000 1.661580 0.000000 
#    z 0.010200 0.000000 1.673250 
# 
# From -- ./inp_files/69785.got.cif
#   From: 2010.05.17/outbox.cif.g08.bks.cpg/sg11_35_cif.got.tgz:69785.got - 2010.06.03 12:22:45.
