data_PCOD9162095
_publ_section_title
;
Structure prediction by ZEFSAII (Michael W. Deem and Ramdas Pophale) SiO2 
 PCOD9162095
Probable space group: P 21/M
;
_chemical_formula_sum "Si O2"
_cell_formula_units_Z 32
_cell_length_a 10.912408
_cell_length_b 11.960333
_cell_length_c 12.416854
_cell_angle_alpha 90.000000
_cell_angle_beta 114.837807
_cell_angle_gamma 90.000000
_cell_volume 1470.693983
_symmetry_space_group_name_H-M "P 21/M"
_symmetry_group_IT_number 11
_symmetry_cell_setting 'monoclinic'
loop_
_space_group_symop_operation_xyz
x,y,z
-x,1/2+y,-z
-x,-y,-z
x,1/2-y,z
loop_
_atom_site_type_symbol
_atom_site_label
_atom_site_fract_x
_atom_site_fract_y
_atom_site_fract_z
Si Si1 0.869851 0.132823 0.566087
Si Si2 0.043804 0.544200 0.728973
Si Si3 0.839554 0.629207 0.816875
Si Si4 0.304373 0.930910 0.694495
Si Si5 0.621159 0.620451 0.428753
Si Si6 0.468684 0.381694 0.054675
Si Si7 0.676844 0.455388 0.652311
Si Si8 0.854742 0.873439 0.057553
O O1 0.943971 0.250000 0.578569
O O2 0.751142 0.127021 0.433873
O O3 0.791365 0.125811 0.650078
O O4 0.967128 0.026192 0.607914
O O5 0.181853 0.589228 0.731585
O O6 0.938763 0.623323 0.751085
O O7 0.086191 0.460299 0.838620
O O8 0.769752 0.750000 0.791302
O O9 0.735868 0.528368 0.769624
O O10 0.912552 0.618928 0.958285
O O11 0.440529 0.892721 0.803532
O O12 0.322727 0.058130 0.657181
O O13 0.660487 0.750000 0.451142
O O14 0.658689 0.547065 0.548568
O O15 0.459415 0.606340 0.368762
O O16 0.495544 0.250000 0.023756
O O17 0.307533 0.384968 0.011244
O O18 0.500000 0.500000 0.000000
O O19 0.883558 0.750000 0.110677
#
# Coordination Sequence:
#
# PCOD9162095 Si02
#       8
#     4   4   4   4   4   4   4   4
#     4  10  21  37  59  85 116 161 204 249 307 369
#     4  11  22  39  59  85 124 158 205 255 310 368
#     4  10  21  37  60  85 114 157 205 255 311 371
#     4  11  23  39  59  90 126 161 205 257 312 382
#     4  10  20  34  58  88 122 163 207 259 320 383
#     4  11  23  42  66  91 124 166 208 261 321 384
#     4   9  19  36  56  85 121 153 203 259 311 368
#     4  10  21  39  62  87 117 159 207 256 314 375
#
# _framework density 21.758434999999999
#
# number of rings (size 3 to 8) (size 9 to 14) (size 15 to 20)
#    0.000    1.750    1.250    3.000    0.000    2.500 
#    0.000    3.750    0.000    3.000    0.000    0.000 
#    0.000    0.000    0.000    0.000    0.000    0.000 
#
# Total GULP energy -178333.697413 kJ/mol
# GULP energy per Si atom -5572.928044 kJ/mol
# Density = 2.170891 g / cm^3
# Si number density = 21.758435 Si / 1000 Ang^3
#
#
#
# Elastic Constant Matrix: (Units=GPa)
#
#
# Indices 1 2 3 4 5 6 
#
# 1 57.2036 -0.5000 -3.4844 0.0000 3.0063 0.0000
# 2 -0.5000 118.8201 26.1526 0.0000 -2.6101 0.0000
# 3 -3.4844 26.1526 77.0855 0.0000 11.0140 0.0000
# 4 0.0000 0.0000 0.0000 -28.9334 0.0000 -12.3605
# 5 3.0063 -2.6101 11.0140 0.0000 33.1612 0.0000
# 6 0.0000 0.0000 0.0000 -12.3605 0.0000 3.1439
#
#
#
# Elastic Compliance Matrix: (Units=1/GPa)
#
#
# Indices 1 2 3 4 5 6 
#
# 1 0.017655 -0.000225 0.001161 0.000000 -0.002004 0.000000
# 2 -0.000225 0.009205 -0.003401 0.000000 0.001875 0.000000
# 3 0.001161 -0.003401 0.014941 0.000000 -0.005335 0.000000
# 4 0.000000 0.000000 0.000000 -0.012898 0.000000 -0.050711
# 5 -0.002004 0.001875 -0.005335 0.000000 0.032257 0.000000
# 6 0.000000 0.000000 0.000000 -0.050711 0.000000 0.118703
#
#
# Mechanical properties :
#
#
# Convention : Reuss Voigt Hill
#
# Bulk Modulus (GPa) = 27.12168 33.04950 30.08559
# Shear Modulus (GPa) = 25.36981 16.87041 21.12011
#
# Velocity S-wave (km/s) = 3.41834 2.78753 3.11893
# Velocity P-wave (km/s) = 5.29831 5.05793 5.17952
#
# Compressibility (1/GPa) = 0.03687087
#
# Stress axis : x y z
#
# Youngs Moduli (GPa) = 56.63969 108.63812 66.92884
#
# Poissons Ratio (x) = 0.02447 -0.07769
# Poissons Ratio (y) = 0.01276 0.22762
# Poissons Ratio (z) = -0.06575 0.36947
#
# Static dielectric constant tensor:
#      x y z
#    x 1.778550 0.000000 -0.014690 
#    y 0.000000 1.860640 0.000000 
#    z -0.014690 0.000000 1.809190 
# 
# From -- ./inp_files/35019.got.cif
#   From: 2010.05.17/outbox.cif.g08.bks.cpg/sg11_18_cif.got.tgz:35019.got - 2010.06.03 12:22:45.
