data_PCOD9162363
_publ_section_title
;
Structure prediction by ZEFSAII (Michael W. Deem and Ramdas Pophale) SiO2 
 PCOD9162363
Probable space group: P 21/M
;
_chemical_formula_sum "Si O2"
_cell_formula_units_Z 24
_cell_length_a 9.303124
_cell_length_b 17.980260
_cell_length_c 9.011323
_cell_angle_alpha 90.000000
_cell_angle_beta 51.740634
_cell_angle_gamma 90.000000
_cell_volume 1183.592811
_symmetry_space_group_name_H-M "P 21/M"
_symmetry_group_IT_number 11
_symmetry_cell_setting 'monoclinic'
loop_
_space_group_symop_operation_xyz
x,y,z
-x,1/2+y,-z
-x,-y,-z
x,1/2-y,z
loop_
_atom_site_type_symbol
_atom_site_label
_atom_site_fract_x
_atom_site_fract_y
_atom_site_fract_z
Si Si1 0.603859 0.664534 0.859581
Si Si2 0.649334 0.953927 0.604296
Si Si3 0.812082 0.332330 0.996630
Si Si4 0.600407 0.334720 0.407307
Si Si5 0.445168 0.395875 0.783345
Si Si6 0.897403 0.948842 0.183908
O O1 0.664524 0.750000 0.799385
O O2 0.710613 0.602702 0.694351
O O3 0.391576 0.660244 0.939782
O O4 0.599251 0.642093 0.033584
O O5 0.519755 0.900848 0.586664
O O6 0.465967 0.977783 0.256769
O O7 0.797976 0.983607 0.391226
O O8 0.880029 0.250000 0.919850
O O9 0.785568 0.339603 0.192637
O O10 0.950994 0.392818 0.851739
O O11 0.531826 0.250000 0.421438
O O12 0.585837 0.348976 0.591063
O O13 0.258178 0.406013 0.810333
O O14 0.000000 0.000000 0.000000
#
# Coordination Sequence:
#
# PCOD9162363 Si02
#       6
#     4   4   4   4   4   4
#     4  10  21  39  58  79 107 144 185 226 271 327
#     4  10  20  35  56  78 109 149 184 217 267 336
#     4   9  19  35  55  77 108 143 176 217 276 333
#     4   9  17  33  55  79 106 142 182 222 266 324
#     4  11  21  35  58  84 108 141 188 234 266 314
#     4  11  21  35  56  83 112 141 179 228 274 322
#
# _framework density 20.277242999999999
#
# number of rings (size 3 to 8) (size 9 to 14) (size 15 to 20)
#    0.000    2.000    0.000    7.500    0.000    4.000 
#    0.000    5.000    0.000    0.000    0.000    0.000 
#    0.000    0.000    0.000    0.000    0.000    0.000 
#
# Total GULP energy -133746.428472 kJ/mol
# GULP energy per Si atom -5572.767853 kJ/mol
# Density = 2.023109 g / cm^3
# Si number density = 20.277243 Si / 1000 Ang^3
#
#
#
# Elastic Constant Matrix: (Units=GPa)
#
#
# Indices 1 2 3 4 5 6 
#
# 1 13.3466 -3.1253 6.6755 0.0000 6.2410 0.0000
# 2 -3.1253 65.5221 -4.3100 0.0000 -5.7261 0.0000
# 3 6.6755 -4.3100 55.6051 0.0000 16.1817 0.0000
# 4 0.0000 0.0000 0.0000 37.5366 0.0000 1.9380
# 5 6.2410 -5.7261 16.1817 0.0000 29.8217 0.0000
# 6 0.0000 0.0000 0.0000 1.9380 0.0000 17.9806
#
#
#
# Elastic Compliance Matrix: (Units=1/GPa)
#
#
# Indices 1 2 3 4 5 6 
#
# 1 0.085057 0.002434 -0.005912 0.000000 -0.014125 0.000000
# 2 0.002434 0.015600 0.000230 0.000000 0.002361 0.000000
# 3 -0.005912 0.000230 0.021777 0.000000 -0.010535 0.000000
# 4 0.000000 0.000000 0.000000 0.026790 0.000000 -0.002888
# 5 -0.014125 0.002361 -0.010535 0.000000 0.042659 0.000000
# 6 0.000000 0.000000 0.000000 -0.002888 0.000000 0.055927
#
#
# Mechanical properties :
#
#
# Convention : Reuss Voigt Hill
#
# Bulk Modulus (GPa) = 8.62535 14.77269 11.69902
# Shear Modulus (GPa) = 17.06763 26.08335 21.57549
#
# Velocity S-wave (km/s) = 2.90438 3.59044 3.26548
# Velocity P-wave (km/s) = 3.93829 4.94869 4.47212
#
# Compressibility (1/GPa) = 0.11593732
#
# Stress axis : x y z
#
# Youngs Moduli (GPa) = 11.75679 64.10429 45.91911
#
# Poissons Ratio (x) = -0.15601 0.27147
# Poissons Ratio (y) = -0.02861 -0.01055
# Poissons Ratio (z) = 0.06951 -0.01473
#
# Static dielectric constant tensor:
#      x y z
#    x 1.724020 0.000000 0.021010 
#    y 0.000000 -0.710530 0.000000 
#    z 0.021010 0.000000 1.772590 
# 
# From -- ./inp_files/13926.got.cif
#   From: 2010.05.17/outbox.cif.g08.bks.cpg/sg11_7_cif.got.tgz:13926.got - 2010.06.03 12:22:45.
