data_PCOD9162876
_publ_section_title
;
Structure prediction by ZEFSAII (Michael W. Deem and Ramdas Pophale) SiO2 
 PCOD9162876
Probable space group: P 21/M
;
_chemical_formula_sum "Si O2"
_cell_formula_units_Z 24
_cell_length_a 16.441388
_cell_length_b 8.484339
_cell_length_c 16.449288
_cell_angle_alpha 90.000000
_cell_angle_beta 36.209084
_cell_angle_gamma 90.000000
_cell_volume 1355.486727
_symmetry_space_group_name_H-M "P 21/M"
_symmetry_group_IT_number 11
_symmetry_cell_setting 'monoclinic'
loop_
_space_group_symop_operation_xyz
x,y,z
-x,1/2+y,-z
-x,-y,-z
x,1/2-y,z
loop_
_atom_site_type_symbol
_atom_site_label
_atom_site_fract_x
_atom_site_fract_y
_atom_site_fract_z
Si Si1 0.894724 0.559476 0.198531
Si Si2 0.138391 0.060940 0.429400
Si Si3 0.803594 0.059601 0.101774
Si Si4 0.569113 0.062451 0.862414
Si Si5 0.531112 0.059108 0.227235
Si Si6 0.233794 0.058280 0.528689
O O1 0.892598 0.750000 0.200478
O O2 0.810261 0.501204 0.188544
O O3 0.832801 0.502495 0.333751
O O4 0.053237 0.509509 0.056302
O O5 0.139575 0.250000 0.426998
O O6 0.153564 0.009541 0.511597
O O7 0.275466 0.000858 0.273868
O O8 0.000000 0.000000 0.500000
O O9 0.802156 0.250000 0.104796
O O10 0.669348 0.006574 0.160918
O O11 0.572138 0.250000 0.861145
O O12 0.486176 0.004299 0.849867
O O13 0.500000 0.000000 0.000000
O O14 0.532044 0.250000 0.222236
O O15 0.392886 0.011732 0.387401
O O16 0.231031 0.250000 0.532686
#
# Coordination Sequence:
#
# PCOD9162876 Si02
#       6
#     4   4   4   4   4   4
#     4   9  17  31  49  69  95 129 167 204 247 302
#     4  10  20  36  56  80 109 140 177 220 267 317
#     4   9  18  31  48  71  99 130 163 204 254 303
#     4  11  22  37  56  79 107 139 176 218 266 317
#     4   9  18  34  52  71  99 132 167 208 256 309
#     4   8  16  31  50  70  96 131 167 206 252 302
#
# _framework density 17.705817
#
# number of rings (size 3 to 8) (size 9 to 14) (size 15 to 20)
#    0.000    2.667    0.000    3.000    0.000    2.667 
#    0.000    7.500    0.000    0.000    0.000    0.000 
#    0.000    0.000    0.000    0.000    0.000    0.000 
#
# Total GULP energy -133857.086443 kJ/mol
# GULP energy per Si atom -5577.378602 kJ/mol
# Density = 1.766552 g / cm^3
# Si number density = 17.705817 Si / 1000 Ang^3
#
#
#
# Elastic Constant Matrix: (Units=GPa)
#
#
# Indices 1 2 3 4 5 6 
#
# 1 193.2619 36.4376 128.7124 0.0000 -11.2094 0.0000
# 2 36.4376 35.6438 31.5702 0.0000 -0.7552 0.0000
# 3 128.7124 31.5702 156.0421 0.0000 26.7931 0.0000
# 4 0.0000 0.0000 0.0000 21.3873 0.0000 2.2471
# 5 -11.2094 -0.7552 26.7931 0.0000 29.7382 0.0000
# 6 0.0000 0.0000 0.0000 2.2471 0.0000 29.9474
#
#
#
# Elastic Compliance Matrix: (Units=1/GPa)
#
#
# Indices 1 2 3 4 5 6 
#
# 1 0.023377 -0.001865 -0.024145 0.000000 0.030518 0.000000
# 2 -0.001865 0.036199 -0.006888 0.000000 0.006422 0.000000
# 3 -0.024145 -0.006888 0.034676 0.000000 -0.040518 0.000000
# 4 0.000000 0.000000 0.000000 0.047128 0.000000 -0.003536
# 5 0.030518 0.006422 -0.040518 0.000000 0.081798 0.000000
# 6 0.000000 0.000000 0.000000 -0.003536 0.000000 0.033657
#
#
# Mechanical properties :
#
#
# Convention : Reuss Voigt Hill
#
# Bulk Modulus (GPa) = 35.14386 86.48758 60.81572
# Shear Modulus (GPa) = 15.05494 28.76309 21.90902
#
# Velocity S-wave (km/s) = 2.91912 4.03488 3.52147
# Velocity P-wave (km/s) = 5.59049 8.40595 7.13840
#
# Compressibility (1/GPa) = 0.02845447
#
# Stress axis : x y z
#
# Youngs Moduli (GPa) = 42.77729 27.62524 28.83868
#
# Poissons Ratio (x) = 0.05152 0.69632
# Poissons Ratio (y) = 0.07978 0.19864
# Poissons Ratio (z) = 1.03287 0.19028
#
# Static dielectric constant tensor:
#      x y z
#    x 1.580110 0.000000 -0.001220 
#    y 0.000000 1.605710 0.000000 
#    z -0.001220 0.000000 1.591520 
# 
# From -- ./inp_files/20604.got.cif
#   From: 2010.05.17/outbox.cif.g08.bks.cpg/sg11_11_cif.got.tgz:20604.got - 2010.06.03 12:22:45.
