data_PCOD9162135
_publ_section_title
;
Structure prediction by ZEFSAII (Michael W. Deem and Ramdas Pophale) SiO2 
 PCOD9162135
Probable space group: P 21/M
;
_chemical_formula_sum "Si O2"
_cell_formula_units_Z 32
_cell_length_a 7.509200
_cell_length_b 25.269355
_cell_length_c 11.096602
_cell_angle_alpha 90.000000
_cell_angle_beta 138.192700
_cell_angle_gamma 90.000000
_cell_volume 1403.657102
_symmetry_space_group_name_H-M "P 21/M"
_symmetry_group_IT_number 11
_symmetry_cell_setting 'monoclinic'
loop_
_space_group_symop_operation_xyz
x,y,z
-x,1/2+y,-z
-x,-y,-z
x,1/2-y,z
loop_
_atom_site_type_symbol
_atom_site_label
_atom_site_fract_x
_atom_site_fract_y
_atom_site_fract_z
Si Si1 0.121343 0.809118 0.143552
Si Si2 0.278583 0.478276 0.040407
Si Si3 0.941781 0.311710 0.154154
Si Si4 0.090068 0.414482 0.587607
Si Si5 0.577377 0.526366 0.413079
Si Si6 0.164629 0.908158 0.296699
Si Si7 0.243370 0.309022 0.544661
Si Si8 0.383029 0.917538 0.978206
O O1 0.047476 0.750000 0.140142
O O2 0.068197 0.848970 0.224744
O O3 0.438714 0.810823 0.273589
O O4 0.982863 0.823193 0.946714
O O5 0.406753 0.493127 0.231097
O O6 0.506881 0.444341 0.087319
O O7 0.206068 0.535287 0.944558
O O8 0.021961 0.443212 0.884625
O O9 0.838677 0.250000 0.103563
O O10 0.744914 0.359779 0.092513
O O11 0.180338 0.312896 0.370328
O O12 0.141982 0.456959 0.506760
O O13 0.083634 0.355993 0.528998
O O14 0.869469 0.423868 0.580418
O O15 0.362059 0.416433 0.804056
O O16 0.500000 0.500000 0.500000
O O17 0.451697 0.584132 0.381139
O O18 0.152506 0.250000 0.537101
#
# Coordination Sequence:
#
# PCOD9162135 Si02
#       8
#     4   4   4   4   4   4   4   4
#     4  10  20  39  62  88 124 160 204 258 305 368
#     4   9  20  36  58  85 118 162 202 247 309 368
#     4  10  20  34  63  95 119 162 209 249 312 367
#     4  10  21  38  60  87 120 158 207 250 303 372
#     4  11  23  38  56  87 124 158 202 252 307 366
#     4  11  22  39  62  88 117 163 208 249 314 366
#     4  10  20  36  61  90 125 163 199 254 314 361
#     4   9  17  36  60  86 121 160 204 255 303 363
#
# _framework density 22.797588999999999
#
# number of rings (size 3 to 8) (size 9 to 14) (size 15 to 20)
#    0.000    2.000    2.500    1.875    0.000    4.000 
#    0.000    1.875    0.000    0.000    0.000    0.000 
#    0.000    0.000    0.000    0.000    0.000    0.000 
#
# Total GULP energy -178420.604134 kJ/mol
# GULP energy per Si atom -5575.643879 kJ/mol
# Density = 2.274570 g / cm^3
# Si number density = 22.797589 Si / 1000 Ang^3
#
#
#
# Elastic Constant Matrix: (Units=GPa)
#
#
# Indices 1 2 3 4 5 6 
#
# 1 86.7362 39.8466 18.0434 0.0000 -26.7710 0.0000
# 2 39.8466 128.8443 15.8723 0.0000 -24.6080 0.0000
# 3 18.0434 15.8723 63.3984 0.0000 -29.2700 0.0000
# 4 0.0000 0.0000 0.0000 30.9071 0.0000 -7.0035
# 5 -26.7710 -24.6080 -29.2700 0.0000 36.3744 0.0000
# 6 0.0000 0.0000 0.0000 -7.0035 0.0000 30.8006
#
#
#
# Elastic Compliance Matrix: (Units=1/GPa)
#
#
# Indices 1 2 3 4 5 6 
#
# 1 0.015966 -0.003054 0.001101 0.000000 0.010570 0.000000
# 2 -0.003054 0.009528 0.000671 0.000000 0.004738 0.000000
# 3 0.001101 0.000671 0.025260 0.000000 0.021591 0.000000
# 4 0.000000 0.000000 0.000000 0.034113 0.000000 0.007757
# 5 0.010570 0.004738 0.021591 0.000000 0.055850 0.000000
# 6 0.000000 0.000000 0.000000 0.007757 0.000000 0.034231
#
#
# Mechanical properties :
#
#
# Convention : Reuss Voigt Hill
#
# Bulk Modulus (GPa) = 20.75142 47.38928 34.07035
# Shear Modulus (GPa) = 25.82974 33.29755 29.56365
#
# Velocity S-wave (km/s) = 3.36966 3.82589 3.60500
# Velocity P-wave (km/s) = 4.92562 6.35206 5.68377
#
# Compressibility (1/GPa) = 0.04818946
#
# Stress axis : x y z
#
# Youngs Moduli (GPa) = 62.63364 104.95190 39.58833
#
# Poissons Ratio (x) = 0.32057 -0.04358
# Poissons Ratio (y) = 0.19131 -0.02658
# Poissons Ratio (z) = -0.06895 -0.07047
#
# Static dielectric constant tensor:
#      x y z
#    x 1.874100 0.000000 -0.002290 
#    y 0.000000 1.934770 0.000000 
#    z -0.002290 0.000000 1.871260 
# 
# From -- ./inp_files/33009.got.cif
#   From: 2010.05.17/outbox.cif.g08.bks.cpg/sg11_17_cif.got.tgz:33009.got - 2010.06.03 12:22:45.
