data_PCOD9162048
_publ_section_title
;
Structure prediction by ZEFSAII (Michael W. Deem and Ramdas Pophale) SiO2 
 PCOD9162048
Probable space group: P 21/M
;
_chemical_formula_sum "Si O2"
_cell_formula_units_Z 24
_cell_length_a 5.047782
_cell_length_b 11.238303
_cell_length_c 21.028243
_cell_angle_alpha 90.000000
_cell_angle_beta 75.822624
_cell_angle_gamma 90.000000
_cell_volume 1156.567551
_symmetry_space_group_name_H-M "P 21/M"
_symmetry_group_IT_number 11
_symmetry_cell_setting 'monoclinic'
loop_
_space_group_symop_operation_xyz
x,y,z
-x,1/2+y,-z
-x,-y,-z
x,1/2-y,z
loop_
_atom_site_type_symbol
_atom_site_label
_atom_site_fract_x
_atom_site_fract_y
_atom_site_fract_z
Si Si1 0.399268 0.390759 0.318958
Si Si2 0.886974 0.513358 0.912238
Si Si3 0.663930 0.492169 0.424059
Si Si4 0.348277 0.379656 0.952895
Si Si5 0.729648 0.750000 0.447074
Si Si6 0.869544 0.250000 0.460122
Si Si7 0.006639 0.389363 0.232244
O O1 0.358185 0.250000 0.337237
O O2 0.456700 0.464531 0.379186
O O3 0.167043 0.435409 0.284746
O O4 0.685033 0.398379 0.263724
O O5 0.667978 0.407486 0.932200
O O6 0.909559 0.551767 0.838533
O O7 0.179979 0.475623 0.922388
O O8 0.761582 0.609267 0.968527
O O9 0.500000 0.500000 0.500000
O O10 0.796752 0.623375 0.410000
O O11 0.848171 0.372457 0.421037
O O12 0.290195 0.250000 0.930476
O O13 0.404301 0.750000 0.479966
O O14 0.878912 0.750000 0.506604
O O15 0.078931 0.250000 0.223838
#
# Coordination Sequence:
#
# PCOD9162048 Si02
#       7
#     4   4   4   4   2   2   4
#     4  10  21  37  58  85 111 151 188 238 288 346
#     4  10  20  35  57  86 115 152 186 241 284 329
#     4  10  21  39  60  87 115 146 189 241 294 345
#     4  10  20  34  57  86 118 150 194 231 284 337
#     4  10  22  34  56  82 112 144 174 226 288 346
#     4  10  20  36  56  84 110 140 180 224 288 340
#     4  10  21  37  60  85 115 146 191 237 285 331
#
# _framework density 20.751058
#
# number of rings (size 3 to 8) (size 9 to 14) (size 15 to 20)
#    0.000    2.000    0.833    2.500    0.000    5.333 
#    0.000    5.000   11.000    0.000    0.000    0.000 
#    0.000    0.000    0.000    0.000    0.000    0.000 
#
# Total GULP energy -134072.350331 kJ/mol
# GULP energy per Si atom -5586.347930 kJ/mol
# Density = 2.070383 g / cm^3
# Si number density = 20.751058 Si / 1000 Ang^3
#
#
#
# Elastic Constant Matrix: (Units=GPa)
#
#
# Indices 1 2 3 4 5 6 
#
# 1 59.5057 5.7328 10.4480 0.0000 7.1585 0.0000
# 2 5.7328 112.6873 23.0117 0.0000 1.9575 0.0000
# 3 10.4480 23.0117 120.9607 0.0000 7.3103 0.0000
# 4 0.0000 0.0000 0.0000 2.3601 0.0000 10.3787
# 5 7.1585 1.9575 7.3103 0.0000 22.0995 0.0000
# 6 0.0000 0.0000 0.0000 10.3787 0.0000 10.1513
#
#
#
# Elastic Compliance Matrix: (Units=1/GPa)
#
#
# Indices 1 2 3 4 5 6 
#
# 1 0.017693 -0.000584 -0.001096 0.000000 -0.005317 0.000000
# 2 -0.000584 0.009253 -0.001706 0.000000 -0.000066 0.000000
# 3 -0.001096 -0.001706 0.008832 0.000000 -0.002416 0.000000
# 4 0.000000 0.000000 0.000000 -0.121195 0.000000 0.123910
# 5 -0.005317 -0.000066 -0.002416 0.000000 0.047777 0.000000
# 6 0.000000 0.000000 0.000000 0.123910 0.000000 -0.028177
#
#
# Mechanical properties :
#
#
# Convention : Reuss Voigt Hill
#
# Bulk Modulus (GPa) = 34.47375 41.28208 37.87791
# Shear Modulus (GPa) = -101.26583 23.85292 -38.70645
#
# Velocity S-wave (km/s) = -6.99330 3.39408 -4.32357
# Velocity P-wave (km/s) = 6.96845 5.94111 2.57512
#
# Compressibility (1/GPa) = 0.02900758
#
# Stress axis : x y z
#
# Youngs Moduli (GPa) = 56.51823 108.06910 113.22048
#
# Poissons Ratio (x) = 0.06311 0.12407
# Poissons Ratio (y) = 0.03301 0.19315
# Poissons Ratio (z) = 0.06193 0.18436
#
# Static dielectric constant tensor:
#      x y z
#    x 1.752950 0.000000 -0.018350 
#    y 0.000000 1.787590 0.000000 
#    z -0.018350 0.000000 1.717970 
# 
# From -- ./inp_files/7738.got.cif
#   From: 2010.05.17/outbox.cif.g08.bks.cpg/sg11_4_cif.got.tgz:7738.got - 2010.06.03 12:22:45.
