data_PCOD9162675
_publ_section_title
;
Structure prediction by ZEFSAII (Michael W. Deem and Ramdas Pophale) SiO2 
 PCOD9162675
Probable space group: P 21/M
;
_chemical_formula_sum "Si O2"
_cell_formula_units_Z 32
_cell_length_a 11.510070
_cell_length_b 15.768849
_cell_length_c 16.914507
_cell_angle_alpha 90.000000
_cell_angle_beta 145.314606
_cell_angle_gamma 90.000000
_cell_volume 1747.040347
_symmetry_space_group_name_H-M "P 21/M"
_symmetry_group_IT_number 11
_symmetry_cell_setting 'monoclinic'
loop_
_space_group_symop_operation_xyz
x,y,z
-x,1/2+y,-z
-x,-y,-z
x,1/2-y,z
loop_
_atom_site_type_symbol
_atom_site_label
_atom_site_fract_x
_atom_site_fract_y
_atom_site_fract_z
Si Si1 0.966005 0.649419 0.146519
Si Si2 0.280580 0.654467 0.015603
Si Si3 0.696547 0.059303 0.125566
Si Si4 0.981315 0.424715 0.649879
Si Si5 0.820207 0.064873 0.879334
Si Si6 0.376556 0.990483 0.648644
Si Si7 0.491785 0.651490 0.840948
Si Si8 0.252975 0.154888 0.673894
O O1 0.987246 0.750000 0.162615
O O2 0.008327 0.611547 0.256302
O O3 0.115278 0.612809 0.163685
O O4 0.731459 0.631807 0.989416
O O5 0.215778 0.750000 0.962109
O O6 0.202321 0.625892 0.057269
O O7 0.527658 0.652014 0.159067
O O8 0.220894 0.591953 0.911957
O O9 0.620849 0.135306 0.138818
O O10 0.866162 0.004825 0.264726
O O11 0.500000 0.000000 0.000000
O O12 0.760100 0.453164 0.497506
O O13 0.076556 0.360525 0.638975
O O14 0.602588 0.018803 0.749793
O O15 0.000000 0.000000 0.000000
O O16 0.404725 0.917564 0.730939
O O17 0.265692 0.074608 0.622193
O O18 0.471248 0.750000 0.804928
O O19 0.235297 0.250000 0.628722
#
# Coordination Sequence:
#
# PCOD9162675 Si02
#       8
#     4   4   4   4   4   4   4   4
#     4  11  23  39  63  92 118 161 215 260 306 361
#     4  10  20  35  58  89 117 151 201 254 297 352
#     4  12  19  35  59  87 124 163 196 242 299 372
#     4  12  23  37  61  89 131 160 198 251 313 365
#     4  11  21  40  65  82 112 158 210 258 308 356
#     4  11  24  42  60  93 125 163 206 251 314 368
#     4  11  22  38  62  93 126 160 205 257 302 363
#     4  10  20  37  62  89 122 165 205 242 301 373
#
# _framework density 18.316692
#
# number of rings (size 3 to 8) (size 9 to 14) (size 15 to 20)
#    0.000    1.000    5.000    3.000    0.000    4.000 
#    0.000    0.625    0.000    1.500    0.000    0.000 
#    0.000    0.000    0.000    0.000    0.000    0.000 
#
# Total GULP energy -178762.862232 kJ/mol
# GULP energy per Si atom -5586.339445 kJ/mol
# Density = 1.827500 g / cm^3
# Si number density = 18.316692 Si / 1000 Ang^3
#
#
#
# Elastic Constant Matrix: (Units=GPa)
#
#
# Indices 1 2 3 4 5 6 
#
# 1 102.4149 36.9238 31.7917 0.0000 8.0419 0.0000
# 2 36.9238 107.5395 42.7125 0.0000 -4.8442 0.0000
# 3 31.7917 42.7125 77.4185 0.0000 -5.8196 0.0000
# 4 0.0000 0.0000 0.0000 10.1582 0.0000 1.0072
# 5 8.0419 -4.8442 -5.8196 0.0000 14.1093 0.0000
# 6 0.0000 0.0000 0.0000 1.0072 0.0000 27.5207
#
#
#
# Elastic Compliance Matrix: (Units=1/GPa)
#
#
# Indices 1 2 3 4 5 6 
#
# 1 0.013103 -0.003226 -0.004381 0.000000 -0.010383 0.000000
# 2 -0.003226 0.012731 -0.005399 0.000000 0.003983 0.000000
# 3 -0.004381 -0.005399 0.018311 0.000000 0.008196 0.000000
# 4 0.000000 0.000000 0.000000 0.098801 0.000000 -0.003616
# 5 -0.010383 0.003983 0.008196 0.000000 0.081541 0.000000
# 6 0.000000 0.000000 0.000000 -0.003616 0.000000 0.036469
#
#
# Mechanical properties :
#
#
# Convention : Reuss Voigt Hill
#
# Bulk Modulus (GPa) = 55.15539 56.69209 55.92374
# Shear Modulus (GPa) = 17.06412 22.08729 19.57570
#
# Velocity S-wave (km/s) = 3.05555 3.47631 3.27270
# Velocity P-wave (km/s) = 6.52886 6.86522 6.69915
#
# Compressibility (1/GPa) = 0.01813059
#
# Stress axis : x y z
#
# Youngs Moduli (GPa) = 76.32005 78.55089 54.61270
#
# Poissons Ratio (x) = 0.25344 0.23926
# Poissons Ratio (y) = 0.24625 0.29487
# Poissons Ratio (z) = 0.33436 0.42412
#
# Static dielectric constant tensor:
#      x y z
#    x 1.628910 0.000000 0.006090 
#    y 0.000000 1.653820 0.000000 
#    z 0.006090 0.000000 1.603720 
# 
# From -- ./inp_files/59536.got.cif
#   From: 2010.05.17/outbox.cif.g08.bks.cpg/sg11_30_cif.got.tgz:59536.got - 2010.06.03 12:22:45.
