data_PCOD9162473
_publ_section_title
;
Structure prediction by ZEFSAII (Michael W. Deem and Ramdas Pophale) SiO2 
 PCOD9162473
Probable space group: P 21/M
;
_chemical_formula_sum "Si O2"
_cell_formula_units_Z 28
_cell_length_a 12.158806
_cell_length_b 8.861855
_cell_length_c 15.308622
_cell_angle_alpha 90.000000
_cell_angle_beta 119.606635
_cell_angle_gamma 90.000000
_cell_volume 1434.135374
_symmetry_space_group_name_H-M "P 21/M"
_symmetry_group_IT_number 11
_symmetry_cell_setting 'monoclinic'
loop_
_space_group_symop_operation_xyz
x,y,z
-x,1/2+y,-z
-x,-y,-z
x,1/2-y,z
loop_
_atom_site_type_symbol
_atom_site_label
_atom_site_fract_x
_atom_site_fract_y
_atom_site_fract_z
Si Si1 0.777100 0.918340 0.712349
Si Si2 0.881052 0.428466 0.006636
Si Si3 0.975621 0.574648 0.211707
Si Si4 0.081227 0.068955 0.611955
Si Si5 0.368436 0.072626 0.172378
Si Si6 0.393100 0.076103 0.516701
Si Si7 0.646866 0.069174 0.313276
O O1 0.831454 0.750000 0.751636
O O2 0.664156 0.938301 0.736929
O O3 0.726710 0.920723 0.594608
O O4 0.881797 0.044424 0.764300
O O5 0.110267 0.750000 0.998976
O O6 0.892716 0.478728 0.112133
O O7 0.746301 0.486696 0.918368
O O8 0.000000 0.500000 0.000000
O O9 0.941818 0.750000 0.191370
O O10 0.969924 0.530092 0.311276
O O11 0.078861 0.250000 0.601497
O O12 0.225141 0.009630 0.667511
O O13 0.000000 0.000000 0.500000
O O14 0.360311 0.250000 0.146147
O O15 0.513473 0.022750 0.215978
O O16 0.425047 0.250000 0.551815
O O17 0.500000 0.000000 0.500000
O O18 0.366868 0.979313 0.591467
O O19 0.657804 0.250000 0.310443
#
# Coordination Sequence:
#
# PCOD9162473 Si02
#       7
#     4   4   4   4   4   4   4
#     4  10  20  35  56  85 122 161 201 249 307 368
#     4  12  24  39  63  94 127 164 208 258 315 376
#     4  11  24  41  63  91 123 162 209 259 312 370
#     4  11  25  45  68  95 127 167 215 263 311 372
#     4  10  21  39  60  88 126 162 201 252 311 370
#     4  11  21  34  54  84 122 161 203 251 308 374
#     4  11  23  41  63  89 125 167 209 259 319 375
#
# _framework density 19.523959000000001
#
# number of rings (size 3 to 8) (size 9 to 14) (size 15 to 20)
#    0.000    1.143    2.857    3.857    0.000    6.857 
#    0.000    0.714    0.000    0.000    0.000    0.000 
#    0.000    0.000    0.000    0.000    0.000    0.000 
#
# Total GULP energy -156357.846049 kJ/mol
# GULP energy per Si atom -5584.208787 kJ/mol
# Density = 1.947952 g / cm^3
# Si number density = 19.523959 Si / 1000 Ang^3
#
#
#
# Elastic Constant Matrix: (Units=GPa)
#
#
# Indices 1 2 3 4 5 6 
#
# 1 92.3179 37.8141 33.5675 0.0000 16.3220 0.0000
# 2 37.8141 76.8742 56.6345 0.0000 8.9033 0.0000
# 3 33.5675 56.6345 108.8946 0.0000 16.6091 0.0000
# 4 0.0000 0.0000 0.0000 33.8631 0.0000 3.8197
# 5 16.3220 8.9033 16.6091 0.0000 31.1768 0.0000
# 6 0.0000 0.0000 0.0000 3.8197 0.0000 31.2241
#
#
#
# Elastic Compliance Matrix: (Units=1/GPa)
#
#
# Indices 1 2 3 4 5 6 
#
# 1 0.014505 -0.006195 -0.000393 0.000000 -0.005616 0.000000
# 2 -0.006195 0.023736 -0.010771 0.000000 0.002203 0.000000
# 3 -0.000393 -0.010771 0.015680 0.000000 -0.005072 0.000000
# 4 0.000000 0.000000 0.000000 0.029944 0.000000 -0.003663
# 5 -0.005616 0.002203 -0.005072 0.000000 0.037088 0.000000
# 6 0.000000 0.000000 0.000000 -0.003663 0.000000 0.032475
#
#
# Mechanical properties :
#
#
# Convention : Reuss Voigt Hill
#
# Bulk Modulus (GPa) = 52.07615 59.34652 55.71133
# Shear Modulus (GPa) = 25.70088 29.25752 27.47920
#
# Velocity S-wave (km/s) = 3.63213 3.87530 3.75568
# Velocity P-wave (km/s) = 6.65738 7.10540 6.88503
#
# Compressibility (1/GPa) = 0.01920265
#
# Stress axis : x y z
#
# Youngs Moduli (GPa) = 68.93941 42.13072 63.77734
#
# Poissons Ratio (x) = 0.26102 0.02505
# Poissons Ratio (y) = 0.42711 0.68693
# Poissons Ratio (z) = 0.02707 0.45378
#
# Static dielectric constant tensor:
#      x y z
#    x 1.725120 0.000000 -0.004290 
#    y 0.000000 1.682990 0.000000 
#    z -0.004290 0.000000 1.718640 
# 
# From -- ./inp_files/38498.got.cif
#   From: 2010.05.17/outbox.cif.g08.bks.cpg/sg11_20_cif.got.tgz:38498.got - 2010.06.03 12:22:45.
