data_PCOD9162251
_publ_section_title
;
Structure prediction by ZEFSAII (Michael W. Deem and Ramdas Pophale) SiO2 
 PCOD9162251
Probable space group: P 21/M
;
_chemical_formula_sum "Si O2"
_cell_formula_units_Z 28
_cell_length_a 22.297004
_cell_length_b 7.610483
_cell_length_c 15.255531
_cell_angle_alpha 90.000000
_cell_angle_beta 151.622885
_cell_angle_gamma 90.000000
_cell_volume 1230.351044
_symmetry_space_group_name_H-M "P 21/M"
_symmetry_group_IT_number 11
_symmetry_cell_setting 'monoclinic'
loop_
_space_group_symop_operation_xyz
x,y,z
-x,1/2+y,-z
-x,-y,-z
x,1/2-y,z
loop_
_atom_site_type_symbol
_atom_site_label
_atom_site_fract_x
_atom_site_fract_y
_atom_site_fract_z
Si Si1 0.411150 0.454934 0.654072
Si Si2 0.124645 0.039304 0.715105
Si Si3 0.028742 0.041643 0.769792
Si Si4 0.742641 0.537129 0.392871
Si Si5 0.897264 0.538516 0.944185
Si Si6 0.628290 0.963175 0.068779
Si Si7 0.397666 0.039095 0.444564
O O1 0.383023 0.250000 0.603431
O O2 0.293212 0.531071 0.556589
O O3 0.442990 0.525859 0.599242
O O4 0.519070 0.469061 0.865669
O O5 0.135707 0.250000 0.734817
O O6 0.244455 0.977441 0.815870
O O7 0.113296 0.969342 0.799373
O O8 0.000000 0.000000 0.500000
O O9 0.052233 0.250000 0.805104
O O10 0.884789 0.014452 0.555779
O O11 0.051931 0.970791 0.896675
O O12 0.737477 0.750000 0.386490
O O13 0.646988 0.477042 0.193338
O O14 0.890926 0.750000 0.937567
O O15 0.749869 0.477970 0.749089
O O16 0.000000 0.500000 0.000000
O O17 0.620474 0.750000 0.059451
O O18 0.391984 0.250000 0.435504
O O19 0.500000 0.000000 0.500000
#
# Coordination Sequence:
#
# PCOD9162251 Si02
#       7
#     4   4   4   4   4   4   4
#     4  10  22  38  57  82 113 149 190 234 283 334
#     4  10  20  35  54  81 114 147 186 229 276 333
#     4  10  21  35  57  86 115 148 186 230 284 339
#     4  10  20  37  58  84 117 150 185 228 278 338
#     4  10  22  41  64  89 118 153 196 247 300 353
#     4  10  21  35  56  84 113 150 190 225 275 337
#     4  10  23  42  62  86 118 157 199 247 299 350
#
# _framework density 22.757733000000002
#
# number of rings (size 3 to 8) (size 9 to 14) (size 15 to 20)
#    0.000    2.000    1.429    1.286    2.000    4.571 
#    0.000    0.000    0.000    0.000    0.000    0.000 
#    0.000    0.000    0.000    0.000    0.000    0.000 
#
# Total GULP energy -156221.491705 kJ/mol
# GULP energy per Si atom -5579.338989 kJ/mol
# Density = 2.270594 g / cm^3
# Si number density = 22.757733 Si / 1000 Ang^3
#
#
#
# Elastic Constant Matrix: (Units=GPa)
#
#
# Indices 1 2 3 4 5 6 
#
# 1 221.5010 10.9023 58.7345 0.0000 -18.0612 0.0000
# 2 10.9023 50.0288 -4.9095 0.0000 -2.9601 0.0000
# 3 58.7345 -4.9095 82.3638 0.0000 -8.6229 0.0000
# 4 0.0000 0.0000 0.0000 7.8737 0.0000 -4.2599
# 5 -18.0612 -2.9601 -8.6229 0.0000 41.0154 0.0000
# 6 0.0000 0.0000 0.0000 -4.2599 0.0000 18.0641
#
#
#
# Elastic Compliance Matrix: (Units=1/GPa)
#
#
# Indices 1 2 3 4 5 6 
#
# 1 0.005798 -0.001568 -0.004062 0.000000 0.001586 0.000000
# 2 -0.001568 0.020653 0.002488 0.000000 0.001323 0.000000
# 3 -0.004062 0.002488 0.015356 0.000000 0.001619 0.000000
# 4 0.000000 0.000000 0.000000 0.145578 0.000000 0.034330
# 5 0.001586 0.001323 0.001619 0.000000 0.025515 0.000000
# 6 0.000000 0.000000 0.000000 0.034330 0.000000 0.063454
#
#
# Mechanical properties :
#
#
# Convention : Reuss Voigt Hill
#
# Bulk Modulus (GPa) = 28.15188 53.70536 40.92862
# Shear Modulus (GPa) = 16.97907 32.66841 24.82374
#
# Velocity S-wave (km/s) = 2.73441 3.79289 3.30628
# Velocity P-wave (km/s) = 4.72931 6.54456 5.70954
#
# Compressibility (1/GPa) = 0.03552160
#
# Stress axis : x y z
#
# Youngs Moduli (GPa) = 172.46238 48.41984 65.12139
#
# Poissons Ratio (x) = 0.07594 0.26454
# Poissons Ratio (y) = 0.27049 -0.16202
# Poissons Ratio (z) = 0.70060 -0.12047
#
# Static dielectric constant tensor:
#      x y z
#    x 1.857430 0.000000 -0.017700 
#    y 0.000000 1.853580 0.000000 
#    z -0.017700 0.000000 1.836420 
# 
# From -- ./inp_files/37384.got.cif
#   From: 2010.05.17/outbox.cif.g08.bks.cpg/sg11_19_cif.got.tgz:37384.got - 2010.06.03 12:22:45.
