data_PCOD9162962
_publ_section_title
;
Structure prediction by ZEFSAII (Michael W. Deem and Ramdas Pophale) SiO2 
 PCOD9162962
Probable space group: P 21/M
;
_chemical_formula_sum "Si O2"
_cell_formula_units_Z 28
_cell_length_a 8.215390
_cell_length_b 15.784346
_cell_length_c 18.029875
_cell_angle_alpha 90.000000
_cell_angle_beta 33.467585
_cell_angle_gamma 90.000000
_cell_volume 1289.334333
_symmetry_space_group_name_H-M "P 21/M"
_symmetry_group_IT_number 11
_symmetry_cell_setting 'monoclinic'
loop_
_space_group_symop_operation_xyz
x,y,z
-x,1/2+y,-z
-x,-y,-z
x,1/2-y,z
loop_
_atom_site_type_symbol
_atom_site_label
_atom_site_fract_x
_atom_site_fract_y
_atom_site_fract_z
Si Si1 0.344064 0.842735 0.266141
Si Si2 0.342694 0.885042 0.102545
Si Si3 0.057667 0.096152 0.457096
Si Si4 0.346901 0.975942 0.816040
Si Si5 0.044763 0.654328 0.662237
Si Si6 0.325191 0.657062 0.943426
Si Si7 0.047450 0.446003 0.170747
O O1 0.489322 0.750000 0.224219
O O2 0.253624 0.845411 0.214153
O O3 0.070116 0.849527 0.427211
O O4 0.524267 0.931326 0.211023
O O5 0.224854 0.981126 0.146901
O O6 0.238166 0.848693 0.063224
O O7 0.699469 0.887033 0.961740
O O8 0.402306 0.091478 0.307407
O O9 0.893998 0.118745 0.442531
O O10 0.000000 0.000000 0.500000
O O11 0.221773 0.923062 0.933864
O O12 0.140591 0.983519 0.823777
O O13 0.148537 0.750000 0.627319
O O14 0.685147 0.653673 0.806868
O O15 0.146730 0.601052 0.693918
O O16 0.239966 0.750000 0.946257
#
# Coordination Sequence:
#
# PCOD9162962 Si02
#       7
#     4   4   4   4   4   4   4
#     4  11  22  38  59  83 116 153 187 227 284 352
#     4  10  20  36  57  81 114 157 190 221 282 349
#     4   9  18  36  59  80 105 142 187 230 280 335
#     4  10  21  37  60  87 111 144 192 245 284 322
#     4   9  17  32  54  78 106 143 188 234 279 329
#     4   9  18  34  56  82 111 145 189 236 278 326
#     4  10  20  36  58  82 113 149 191 238 281 330
#
# _framework density 21.716633999999999
#
# number of rings (size 3 to 8) (size 9 to 14) (size 15 to 20)
#    0.000    2.286    0.000    5.143    0.000    4.000 
#    0.000    9.286    0.000    0.857    0.000    0.000 
#    0.000    0.000    0.000    0.000    0.000    0.000 
#
# Total GULP energy -156075.852106 kJ/mol
# GULP energy per Si atom -5574.137575 kJ/mol
# Density = 2.166721 g / cm^3
# Si number density = 21.716634 Si / 1000 Ang^3
#
#
#
# Elastic Constant Matrix: (Units=GPa)
#
#
# Indices 1 2 3 4 5 6 
#
# 1 80.9925 34.3571 41.6519 0.0000 32.8039 0.0000
# 2 34.3571 142.9740 34.2182 0.0000 29.4041 0.0000
# 3 41.6519 34.2182 99.6047 0.0000 49.5599 0.0000
# 4 0.0000 0.0000 0.0000 -12.4742 0.0000 -6.7063
# 5 32.8039 29.4041 49.5599 0.0000 38.2357 0.0000
# 6 0.0000 0.0000 0.0000 -6.7063 0.0000 -2.6815
#
#
#
# Elastic Compliance Matrix: (Units=1/GPa)
#
#
# Indices 1 2 3 4 5 6 
#
# 1 0.019177 -0.001445 0.000311 0.000000 -0.015745 0.000000
# 2 -0.001445 0.008447 0.000895 0.000000 -0.006416 0.000000
# 3 0.000311 0.000895 0.028381 0.000000 -0.037742 0.000000
# 4 0.000000 0.000000 0.000000 0.232688 0.000000 -0.581931
# 5 -0.015745 -0.006416 -0.037742 0.000000 0.093515 0.000000
# 6 0.000000 0.000000 0.000000 -0.581931 0.000000 1.082434
#
#
# Mechanical properties :
#
#
# Convention : Reuss Voigt Hill
#
# Bulk Modulus (GPa) = 18.00918 60.44729 39.22824
# Shear Modulus (GPa) = 3.37012 18.83892 11.10452
#
# Velocity S-wave (km/s) = 1.24709 2.94851 2.26373
# Velocity P-wave (km/s) = 3.22249 6.28384 4.99355
#
# Compressibility (1/GPa) = 0.05552723
#
# Stress axis : x y z
#
# Youngs Moduli (GPa) = 52.14697 118.38756 35.23461
#
# Poissons Ratio (x) = 0.17102 -0.01097
# Poissons Ratio (y) = 0.07533 -0.03152
# Poissons Ratio (z) = -0.01623 -0.10592
#
# Static dielectric constant tensor:
#      x y z
#    x 1.778780 0.000000 -0.019520 
#    y 0.000000 1.816160 0.000000 
#    z -0.019520 0.000000 1.929380 
# 
# From -- ./inp_files/58098.got.cif
#   From: 2010.05.17/outbox.cif.g08.bks.cpg/sg11_30_cif.got.tgz:58098.got - 2010.06.03 12:22:45.
