data_PCOD9162780
_publ_section_title
;
Structure prediction by ZEFSAII (Michael W. Deem and Ramdas Pophale) SiO2 
 PCOD9162780
Probable space group: P 21/M
;
_chemical_formula_sum "Si O2"
_cell_formula_units_Z 32
_cell_length_a 12.951398
_cell_length_b 8.577764
_cell_length_c 14.986200
_cell_angle_alpha 90.000000
_cell_angle_beta 101.453091
_cell_angle_gamma 90.000000
_cell_volume 1631.725733
_symmetry_space_group_name_H-M "P 21/M"
_symmetry_group_IT_number 11
_symmetry_cell_setting 'monoclinic'
loop_
_space_group_symop_operation_xyz
x,y,z
-x,1/2+y,-z
-x,-y,-z
x,1/2-y,z
loop_
_atom_site_type_symbol
_atom_site_label
_atom_site_fract_x
_atom_site_fract_y
_atom_site_fract_z
Si Si1 0.097179 0.932649 0.138573
Si Si2 0.020084 0.065603 0.406086
Si Si3 0.677304 0.565443 0.111693
Si Si4 0.783388 0.563873 0.673700
Si Si5 0.541994 0.563247 0.599801
Si Si6 0.299912 0.563737 0.078471
Si Si7 0.902857 0.437009 0.204808
Si Si8 0.500233 0.562942 0.787418
O O1 0.073938 0.750000 0.123291
O O2 0.178015 0.985317 0.074919
O O3 0.169372 0.963761 0.238030
O O4 0.989231 0.020591 0.143680
O O5 0.002646 0.250000 0.407185
O O6 0.140232 0.038448 0.396863
O O7 0.950213 0.010606 0.309223
O O8 0.000000 0.000000 0.500000
O O9 0.671887 0.750000 0.097092
O O10 0.791546 0.516542 0.168297
O O11 0.585911 0.512549 0.163149
O O12 0.665674 0.480638 0.014830
O O13 0.790099 0.750000 0.698318
O O14 0.664616 0.522992 0.631834
O O15 0.500000 0.500000 0.500000
O O16 0.534549 0.750000 0.596222
O O17 0.486536 0.511328 0.682163
O O18 0.304149 0.750000 0.091938
O O19 0.382973 0.483982 0.159332
O O20 0.890490 0.250000 0.203468
O O21 0.491181 0.750000 0.790276
#
# Coordination Sequence:
#
# PCOD9162780 Si02
#       8
#     4   4   4   4   4   4   4   4
#     4  10  20  35  61  92 118 151 197 247 297 354
#     4   9  19  34  57  84 113 150 195 243 294 355
#     4  12  26  42  62  89 123 163 205 253 307 365
#     4   9  18  36  56  79 112 153 196 242 298 353
#     4  10  22  38  60  88 119 156 201 251 306 359
#     4  11  23  40  64  93 123 159 205 252 303 366
#     4  10  22  41  61  85 122 161 200 248 305 362
#     4  11  23  42  65  89 122 162 205 254 307 363
#
# _framework density 19.611139999999999
#
# number of rings (size 3 to 8) (size 9 to 14) (size 15 to 20)
#    0.000    1.750    1.250    3.750    0.000    7.000 
#    0.000    2.500    0.000    0.000    0.000    0.000 
#    0.000    0.000    0.000    0.000    0.000    0.000 
#
# Total GULP energy -178713.477855 kJ/mol
# GULP energy per Si atom -5584.796183 kJ/mol
# Density = 1.956650 g / cm^3
# Si number density = 19.611140 Si / 1000 Ang^3
#
#
#
# Elastic Constant Matrix: (Units=GPa)
#
#
# Indices 1 2 3 4 5 6 
#
# 1 60.7721 0.6589 14.1253 0.0000 -8.3992 0.0000
# 2 0.6589 17.2065 -7.8172 0.0000 -4.7428 0.0000
# 3 14.1253 -7.8172 83.6059 0.0000 -12.9153 0.0000
# 4 0.0000 0.0000 0.0000 25.5473 0.0000 1.9910
# 5 -8.3992 -4.7428 -12.9153 0.0000 27.0098 0.0000
# 6 0.0000 0.0000 0.0000 1.9910 0.0000 34.1237
#
#
#
# Elastic Compliance Matrix: (Units=1/GPa)
#
#
# Indices 1 2 3 4 5 6 
#
# 1 0.017598 -0.000585 -0.002374 0.000000 0.004235 0.000000
# 2 -0.000585 0.066420 0.008727 0.000000 0.015654 0.000000
# 3 -0.002374 0.008727 0.014362 0.000000 0.007662 0.000000
# 4 0.000000 0.000000 0.000000 0.039322 0.000000 -0.002294
# 5 0.004235 0.015654 0.007662 0.000000 0.044753 0.000000
# 6 0.000000 0.000000 0.000000 -0.002294 0.000000 0.029439
#
#
# Mechanical properties :
#
#
# Convention : Reuss Voigt Hill
#
# Bulk Modulus (GPa) = 9.09779 19.50206 14.29992
# Shear Modulus (GPa) = 21.09746 27.64400 24.37073
#
# Velocity S-wave (km/s) = 3.28348 3.75855 3.52902
# Velocity P-wave (km/s) = 4.36167 5.36671 4.89008
#
# Compressibility (1/GPa) = 0.10991681
#
# Stress axis : x y z
#
# Youngs Moduli (GPa) = 56.82380 15.05571 69.63052
#
# Poissons Ratio (x) = 0.00881 0.16529
# Poissons Ratio (y) = 0.03325 -0.60770
# Poissons Ratio (z) = 0.13489 -0.13140
#
# Static dielectric constant tensor:
#      x y z
#    x 1.688660 0.000000 -0.011390 
#    y 0.000000 1.645720 0.000000 
#    z -0.011390 0.000000 1.697730 
# 
# From -- ./inp_files/49378.got.cif
#   From: 2010.05.17/outbox.cif.g08.bks.cpg/sg11_25_cif.got.tgz:49378.got - 2010.06.03 12:22:45.
