data_PCOD9162763
_publ_section_title
;
Structure prediction by ZEFSAII (Michael W. Deem and Ramdas Pophale) SiO2 
 PCOD9162763
Probable space group: P 21/M
;
_chemical_formula_sum "Si O2"
_cell_formula_units_Z 32
_cell_length_a 12.284138
_cell_length_b 8.857873
_cell_length_c 31.937079
_cell_angle_alpha 90.000000
_cell_angle_beta 149.937803
_cell_angle_gamma 90.000000
_cell_volume 1740.824048
_symmetry_space_group_name_H-M "P 21/M"
_symmetry_group_IT_number 11
_symmetry_cell_setting 'monoclinic'
loop_
_space_group_symop_operation_xyz
x,y,z
-x,1/2+y,-z
-x,-y,-z
x,1/2-y,z
loop_
_atom_site_type_symbol
_atom_site_label
_atom_site_fract_x
_atom_site_fract_y
_atom_site_fract_z
Si Si1 0.454346 0.430679 0.030305
Si Si2 0.311910 0.932035 0.754880
Si Si3 0.051708 0.569216 0.128742
Si Si4 0.196418 0.430435 0.091918
Si Si5 0.837169 0.930996 0.212176
Si Si6 0.125483 0.568296 0.602463
Si Si7 0.685970 0.069499 0.424057
Si Si8 0.777782 0.431783 0.722033
O O1 0.479502 0.250000 0.037154
O O2 0.625902 0.500941 0.119191
O O3 0.500000 0.500000 0.000000
O O4 0.205527 0.462828 0.959758
O O5 0.299263 0.750000 0.754416
O O6 0.564698 0.976000 0.844638
O O7 0.234989 0.974177 0.682673
O O8 0.166712 0.007725 0.742104
O O9 0.080847 0.750000 0.133525
O O10 0.172364 0.483767 0.131776
O O11 0.133378 0.526281 0.202206
O O12 0.182901 0.250000 0.085076
O O13 0.000000 0.500000 0.000000
O O14 0.824728 0.750000 0.207486
O O15 0.046752 0.976817 0.254575
O O16 0.102491 0.750000 0.594073
O O17 0.268734 0.525599 0.609522
O O18 0.890171 0.494756 0.517623
O O19 0.683347 0.250000 0.425701
O O20 0.457461 0.003145 0.362359
O O21 0.760603 0.250000 0.715441
#
# Coordination Sequence:
#
# PCOD9162763 Si02
#       8
#     4   4   4   4   4   4   4   4
#     4  11  21  36  56  80 112 150 192 237 283 332
#     4  10  22  40  59  81 113 153 193 233 282 337
#     4  10  21  37  56  80 112 147 187 234 284 336
#     4  11  23  38  56  82 115 149 188 234 281 333
#     4  11  23  39  57  82 114 151 196 238 281 336
#     4   9  19  38  61  85 116 149 181 227 287 340
#     4  10  20  35  60  92 117 141 183 231 279 341
#     4  10  21  38  56  80 115 149 182 229 287 335
#
# _framework density 18.382100000000001
#
# number of rings (size 3 to 8) (size 9 to 14) (size 15 to 20)
#    0.000    1.750    1.250    3.000    0.000    8.500 
#    0.000    0.625    0.000    0.000    0.000    0.000 
#    0.000    0.000    0.000    0.000    0.000    0.000 
#
# Total GULP energy -178812.350208 kJ/mol
# GULP energy per Si atom -5587.885944 kJ/mol
# Density = 1.834026 g / cm^3
# Si number density = 18.382100 Si / 1000 Ang^3
#
#
#
# Elastic Constant Matrix: (Units=GPa)
#
#
# Indices 1 2 3 4 5 6 
#
# 1 114.9686 34.4865 53.0701 0.0000 7.4558 0.0000
# 2 34.4865 24.9144 28.5299 0.0000 5.4885 0.0000
# 3 53.0701 28.5299 100.2323 0.0000 7.3942 0.0000
# 4 0.0000 0.0000 0.0000 29.8505 0.0000 -2.7836
# 5 7.4558 5.4885 7.3942 0.0000 30.6946 0.0000
# 6 0.0000 0.0000 0.0000 -2.7836 0.0000 32.6862
#
#
#
# Elastic Compliance Matrix: (Units=1/GPa)
#
#
# Indices 1 2 3 4 5 6 
#
# 1 0.015504 -0.017931 -0.003119 0.000000 0.000192 0.000000
# 2 -0.017931 0.081662 -0.013229 0.000000 -0.007060 0.000000
# 3 -0.003119 -0.013229 0.015438 0.000000 -0.000596 0.000000
# 4 0.000000 0.000000 0.000000 0.033768 0.000000 0.002876
# 5 0.000192 -0.007060 -0.000596 0.000000 0.033938 0.000000
# 6 0.000000 0.000000 0.000000 0.002876 0.000000 0.030839
#
#
# Mechanical properties :
#
#
# Convention : Reuss Voigt Hill
#
# Bulk Modulus (GPa) = 22.70426 52.47648 37.59037
# Shear Modulus (GPa) = 16.98427 26.91486 21.94956
#
# Velocity S-wave (km/s) = 3.04296 3.83062 3.45928
# Velocity P-wave (km/s) = 4.97235 6.94078 6.03733
#
# Compressibility (1/GPa) = 0.04404459
#
# Stress axis : x y z
#
# Youngs Moduli (GPa) = 64.49884 12.24563 64.77578
#
# Poissons Ratio (x) = 0.21958 0.20205
# Poissons Ratio (y) = 1.15653 0.85693
# Poissons Ratio (z) = 0.20119 0.16200
#
# Static dielectric constant tensor:
#      x y z
#    x 1.628780 0.000000 -0.009190 
#    y 0.000000 1.611210 0.000000 
#    z -0.009190 0.000000 1.620480 
# 
# From -- ./inp_files/45175.got.cif
#   From: 2010.05.17/outbox.cif.g08.bks.cpg/sg11_23_cif.got.tgz:45175.got - 2010.06.03 12:22:45.
