data_PCOD9162604
_publ_section_title
;
Structure prediction by ZEFSAII (Michael W. Deem and Ramdas Pophale) SiO2 
 PCOD9162604
Probable space group: P 21/M
;
_chemical_formula_sum "Si O2"
_cell_formula_units_Z 32
_cell_length_a 29.765506
_cell_length_b 8.039043
_cell_length_c 12.907309
_cell_angle_alpha 90.000000
_cell_angle_beta 29.048108
_cell_angle_gamma 90.000000
_cell_volume 1499.621842
_symmetry_space_group_name_H-M "P 21/M"
_symmetry_group_IT_number 11
_symmetry_cell_setting 'monoclinic'
loop_
_space_group_symop_operation_xyz
x,y,z
-x,1/2+y,-z
-x,-y,-z
x,1/2-y,z
loop_
_atom_site_type_symbol
_atom_site_label
_atom_site_fract_x
_atom_site_fract_y
_atom_site_fract_z
Si Si1 0.489628 0.047356 0.355640
Si Si2 0.478676 0.064424 0.156047
Si Si3 0.753372 0.554338 0.657254
Si Si4 0.720335 0.547024 0.168965
Si Si5 0.297431 0.561891 0.461060
Si Si6 0.685461 0.551020 0.016653
Si Si7 0.960108 0.050894 0.192976
Si Si8 0.853138 0.950942 0.087234
O O1 0.489745 0.250000 0.356056
O O2 0.510989 0.980453 0.196120
O O3 0.385022 0.994904 0.591739
O O4 0.576110 0.987320 0.247983
O O5 0.513712 0.250000 0.089775
O O6 0.367236 0.057817 0.380935
O O7 0.500000 0.000000 0.000000
O O8 0.731153 0.750000 0.696822
O O9 0.704039 0.470681 0.658216
O O10 0.862533 0.530453 0.417659
O O11 0.723036 0.486292 0.830749
O O12 0.720923 0.750000 0.169447
O O13 0.736227 0.491485 0.018462
O O14 0.796137 0.493256 0.100661
O O15 0.326935 0.750000 0.422424
O O16 0.197931 0.528563 0.710424
O O17 0.696105 0.750000 0.992000
O O18 0.946833 0.250000 0.218979
O O19 0.039142 0.007335 0.118030
O O20 0.000000 0.000000 0.000000
O O21 0.846124 0.750000 0.108597
#
# Coordination Sequence:
#
# PCOD9162604 Si02
#       8
#     4   4   4   4   4   4   4   4
#     4  10  20  35  58  83 113 152 193 239 290 343
#     4  11  22  36  53  79 116 157 195 236 291 351
#     4  11  23  39  58  83 119 158 193 239 293 348
#     4   9  18  38  62  84 112 152 197 238 288 348
#     4  12  23  35  56  84 115 151 192 239 289 346
#     4  10  22  38  59  84 113 153 199 242 286 339
#     4  11  22  36  61  91 117 151 190 239 293 351
#     4  10  20  38  62  85 114 148 186 235 293 352
#
# _framework density 21.338715000000001
#
# number of rings (size 3 to 8) (size 9 to 14) (size 15 to 20)
#    0.000    1.500    2.500    3.375    0.000    4.500 
#    0.000    1.250    0.000    0.000    0.000    0.000 
#    0.000    0.000    0.000    0.000    0.000    0.000 
#
# Total GULP energy -178725.171592 kJ/mol
# GULP energy per Si atom -5585.161612 kJ/mol
# Density = 2.129015 g / cm^3
# Si number density = 21.338715 Si / 1000 Ang^3
#
#
#
# Elastic Constant Matrix: (Units=GPa)
#
#
# Indices 1 2 3 4 5 6 
#
# 1 149.4886 6.4408 34.0936 0.0000 13.0232 0.0000
# 2 6.4408 27.4806 -2.9759 0.0000 4.1148 0.0000
# 3 34.0936 -2.9759 60.2446 0.0000 2.1445 0.0000
# 4 0.0000 0.0000 0.0000 19.4061 0.0000 -8.6573
# 5 13.0232 4.1148 2.1445 0.0000 35.9841 0.0000
# 6 0.0000 0.0000 0.0000 -8.6573 0.0000 17.4897
#
#
#
# Elastic Compliance Matrix: (Units=1/GPa)
#
#
# Indices 1 2 3 4 5 6 
#
# 1 0.008024 -0.002014 -0.004555 0.000000 -0.002402 0.000000
# 2 -0.002014 0.037767 0.003140 0.000000 -0.003777 0.000000
# 3 -0.004555 0.003140 0.019327 0.000000 0.000138 0.000000
# 4 0.000000 0.000000 0.000000 0.066134 0.000000 0.032736
# 5 -0.002402 -0.003777 0.000138 0.000000 0.029083 0.000000
# 6 0.000000 0.000000 0.000000 0.032736 0.000000 0.073381
#
#
# Mechanical properties :
#
#
# Convention : Reuss Voigt Hill
#
# Bulk Modulus (GPa) = 17.16463 34.70342 25.93403
# Shear Modulus (GPa) = 19.23110 27.88634 23.55872
#
# Velocity S-wave (km/s) = 3.00531 3.61895 3.32631
# Velocity P-wave (km/s) = 4.48373 5.81041 5.18964
#
# Compressibility (1/GPa) = 0.05825933
#
# Stress axis : x y z
#
# Youngs Moduli (GPa) = 124.61919 26.47822 51.74089
#
# Poissons Ratio (x) = 0.05334 0.23569
# Poissons Ratio (y) = 0.25102 -0.16246
# Poissons Ratio (z) = 0.56766 -0.08314
#
# Static dielectric constant tensor:
#      x y z
#    x 1.797960 0.000000 0.012830 
#    y 0.000000 1.758910 0.000000 
#    z 0.012830 0.000000 1.805500 
# 
# From -- ./inp_files/45118.got.cif
#   From: 2010.05.17/outbox.cif.g08.bks.cpg/sg11_23_cif.got.tgz:45118.got - 2010.06.03 12:22:45.
