data_PCOD9162958
_publ_section_title
;
Structure prediction by ZEFSAII (Michael W. Deem and Ramdas Pophale) SiO2 
 PCOD9162958
Probable space group: P 21/M
;
_chemical_formula_sum "Si O2"
_cell_formula_units_Z 32
_cell_length_a 15.465112
_cell_length_b 14.189247
_cell_length_c 19.899458
_cell_angle_alpha 90.000000
_cell_angle_beta 22.236938
_cell_angle_gamma 90.000000
_cell_volume 1652.524680
_symmetry_space_group_name_H-M "P 21/M"
_symmetry_group_IT_number 11
_symmetry_cell_setting 'monoclinic'
loop_
_space_group_symop_operation_xyz
x,y,z
-x,1/2+y,-z
-x,-y,-z
x,1/2-y,z
loop_
_atom_site_type_symbol
_atom_site_label
_atom_site_fract_x
_atom_site_fract_y
_atom_site_fract_z
Si Si1 0.028224 0.011631 0.282367
Si Si2 0.236131 0.363656 0.903547
Si Si3 0.614548 0.854001 0.707380
Si Si4 0.443761 0.449537 0.887869
Si Si5 0.633545 0.136827 0.524179
Si Si6 0.329489 0.360510 0.488502
Si Si7 0.272213 0.635148 0.697772
Si Si8 0.099325 0.927508 0.374565
O O1 0.825725 0.088290 0.432078
O O2 0.122332 0.980362 0.286829
O O3 0.899356 0.921505 0.343277
O O4 0.227561 0.049108 0.092163
O O5 0.229219 0.250000 0.910816
O O6 0.373776 0.400545 0.869024
O O7 0.383838 0.389823 0.731769
O O8 0.974887 0.397802 0.097918
O O9 0.528132 0.750000 0.788510
O O10 0.513593 0.942016 0.820699
O O11 0.574946 0.870357 0.656306
O O12 0.890695 0.855458 0.515818
O O13 0.656531 0.399094 0.771579
O O14 0.653887 0.250000 0.513260
O O15 0.683437 0.108273 0.411455
O O16 0.282747 0.250000 0.532950
O O17 0.519515 0.393373 0.404402
O O18 0.268483 0.750000 0.702097
O O19 0.000000 0.000000 0.500000
#
# Coordination Sequence:
#
# PCOD9162958 Si02
#       8
#     4   4   4   4   4   4   4   4
#     4  11  21  36  56  83 113 146 183 229 282 336
#     4  10  20  36  58  83 113 147 188 234 285 333
#     4   9  19  37  57  79 110 147 188 231 273 331
#     4  11  21  36  56  84 114 147 182 233 278 337
#     4  10  20  36  57  81 113 147 184 235 284 332
#     4   9  19  37  58  78 109 150 188 230 278 327
#     4   9  18  36  57  81 111 146 190 237 280 327
#     4   9  19  36  57  77 105 141 184 225 277 328
#
# _framework density 19.36431
#
# number of rings (size 3 to 8) (size 9 to 14) (size 15 to 20)
#    0.000    2.250    1.250    2.625    0.000    1.500 
#    2.250    5.000    0.000    4.500    0.000    0.000 
#    0.000    0.000    0.000    0.000    0.000    0.000 
#
# Total GULP energy -178498.809947 kJ/mol
# GULP energy per Si atom -5578.087811 kJ/mol
# Density = 1.932024 g / cm^3
# Si number density = 19.364310 Si / 1000 Ang^3
#
#
#
# Elastic Constant Matrix: (Units=GPa)
#
#
# Indices 1 2 3 4 5 6 
#
# 1 42.6522 -2.7677 19.5657 0.0000 -17.4278 0.0000
# 2 -2.7677 30.6795 -1.1179 0.0000 4.6254 0.0000
# 3 19.5657 -1.1179 103.3917 0.0000 4.7081 0.0000
# 4 0.0000 0.0000 0.0000 35.7657 0.0000 -17.6153
# 5 -17.4278 4.6254 4.7081 0.0000 32.4622 0.0000
# 6 0.0000 0.0000 0.0000 -17.6153 0.0000 47.5569
#
#
#
# Elastic Compliance Matrix: (Units=1/GPa)
#
#
# Indices 1 2 3 4 5 6 
#
# 1 0.035035 -0.000117 -0.007538 0.000000 0.019919 0.000000
# 2 -0.000117 0.033346 0.000606 0.000000 -0.004902 0.000000
# 3 -0.007538 0.000606 0.011368 0.000000 -0.005782 0.000000
# 4 0.000000 0.000000 0.000000 0.034199 0.000000 0.012667
# 5 0.019919 -0.004902 -0.005782 0.000000 0.043036 0.000000
# 6 0.000000 0.000000 0.000000 0.012667 0.000000 0.025719
#
#
# Mechanical properties :
#
#
# Convention : Reuss Voigt Hill
#
# Bulk Modulus (GPa) = 15.23234 23.12041 19.17637
# Shear Modulus (GPa) = 22.86390 33.89317 28.37854
#
# Velocity S-wave (km/s) = 3.43989 4.18819 3.83235
# Velocity P-wave (km/s) = 4.86420 5.94588 5.43203
#
# Compressibility (1/GPa) = 0.06564980
#
# Stress axis : x y z
#
# Youngs Moduli (GPa) = 28.54301 29.98890 87.96359
#
# Poissons Ratio (x) = 0.00351 0.66309
# Poissons Ratio (y) = 0.00335 -0.05330
# Poissons Ratio (z) = 0.21516 -0.01817
#
# Static dielectric constant tensor:
#      x y z
#    x 1.672730 0.000000 -0.007330 
#    y 0.000000 1.692250 0.000000 
#    z -0.007330 0.000000 1.677130 
# 
# From -- ./inp_files/65743.got.cif
#   From: 2010.05.17/outbox.cif.g08.bks.cpg/sg11_33_cif.got.tgz:65743.got - 2010.06.03 12:22:45.
