data_PCOD9162456
_publ_section_title
;
Structure prediction by ZEFSAII (Michael W. Deem and Ramdas Pophale) SiO2 
 PCOD9162456
Probable space group: P 21/M
;
_chemical_formula_sum "Si O2"
_cell_formula_units_Z 32
_cell_length_a 14.622102
_cell_length_b 7.840507
_cell_length_c 20.540238
_cell_angle_alpha 90.000000
_cell_angle_beta 140.482593
_cell_angle_gamma 90.000000
_cell_volume 1498.407584
_symmetry_space_group_name_H-M "P 21/M"
_symmetry_group_IT_number 11
_symmetry_cell_setting 'monoclinic'
loop_
_space_group_symop_operation_xyz
x,y,z
-x,1/2+y,-z
-x,-y,-z
x,1/2-y,z
loop_
_atom_site_type_symbol
_atom_site_label
_atom_site_fract_x
_atom_site_fract_y
_atom_site_fract_z
Si Si1 0.854284 0.455161 0.456249
Si Si2 0.606711 0.454804 0.713256
Si Si3 0.683593 0.951434 0.901405
Si Si4 0.218009 0.949954 0.314338
Si Si5 0.285813 0.544926 0.494191
Si Si6 0.334572 0.955006 0.895529
Si Si7 0.107133 0.550584 0.877082
Si Si8 0.372562 0.958596 0.773597
O O1 0.845519 0.250000 0.453557
O O2 0.830370 0.518467 0.516626
O O3 0.723396 0.516885 0.339206
O O4 0.000000 0.500000 0.500000
O O5 0.613782 0.250000 0.719635
O O6 0.664527 0.519091 0.814267
O O7 0.700943 0.521490 0.704274
O O8 0.442704 0.507195 0.609297
O O9 0.693232 0.750000 0.918327
O O10 0.536471 0.016318 0.854482
O O11 0.819015 0.032097 0.011908
O O12 0.257050 0.750000 0.337201
O O13 0.265366 0.024565 0.410134
O O14 0.047330 0.965041 0.212721
O O15 0.270332 0.750000 0.481676
O O16 0.325225 0.750000 0.891764
O O17 0.222137 0.019706 0.887382
O O18 0.306778 0.013126 0.806341
O O19 0.500000 0.000000 0.000000
O O20 0.084479 0.750000 0.851123
O O21 0.374975 0.750000 0.774117
#
# Coordination Sequence:
#
# PCOD9162456 Si02
#       8
#     4   4   4   4   4   4   4   4
#     4  10  21  37  57  86 120 155 195 238 289 350
#     4  11  23  40  64  93 119 149 200 259 308 358
#     4  11  21  39  66  88 118 163 201 245 305 364
#     4  10  24  43  62  86 121 162 201 248 306 366
#     4  10  21  41  65  89 120 160 205 244 294 366
#     4  10  20  35  56  84 116 152 193 237 284 344
#     4  11  24  39  59  91 125 157 202 256 300 352
#     4   9  18  35  57  81 114 155 195 233 286 353
#
# _framework density 21.356003999999999
#
# number of rings (size 3 to 8) (size 9 to 14) (size 15 to 20)
#    0.000    1.750    2.500    1.500    1.750    3.000 
#    0.000    0.625    0.000    0.000    0.000    0.000 
#    0.000    0.000    0.000    0.000    0.000    0.000 
#
# Total GULP energy -178779.837613 kJ/mol
# GULP energy per Si atom -5586.869925 kJ/mol
# Density = 2.130740 g / cm^3
# Si number density = 21.356004 Si / 1000 Ang^3
#
#
#
# Elastic Constant Matrix: (Units=GPa)
#
#
# Indices 1 2 3 4 5 6 
#
# 1 151.6778 -3.7178 36.2247 0.0000 -19.5862 0.0000
# 2 -3.7178 23.8673 -13.9313 0.0000 -5.5749 0.0000
# 3 36.2247 -13.9313 67.3751 0.0000 -23.9470 0.0000
# 4 0.0000 0.0000 0.0000 20.0680 0.0000 -1.3028
# 5 -19.5862 -5.5749 -23.9470 0.0000 34.0656 0.0000
# 6 0.0000 0.0000 0.0000 -1.3028 0.0000 13.4325
#
#
#
# Elastic Compliance Matrix: (Units=1/GPa)
#
#
# Indices 1 2 3 4 5 6 
#
# 1 0.007670 -0.000464 -0.003572 0.000000 0.001823 0.000000
# 2 -0.000464 0.060086 0.021428 0.000000 0.024629 0.000000
# 3 -0.003572 0.021428 0.028941 0.000000 0.021797 0.000000
# 4 0.000000 0.000000 0.000000 0.050146 0.000000 0.004864
# 5 0.001823 0.024629 0.021797 0.000000 0.049757 0.000000
# 6 0.000000 0.000000 0.000000 0.004864 0.000000 0.074918
#
#
# Mechanical properties :
#
#
# Convention : Reuss Voigt Hill
#
# Bulk Modulus (GPa) = 7.60574 31.11905 19.36239
# Shear Modulus (GPa) = 17.82141 28.46954 23.14548
#
# Velocity S-wave (km/s) = 2.89189 3.65512 3.29567
# Velocity P-wave (km/s) = 3.83665 5.69354 4.85470
#
# Compressibility (1/GPa) = 0.13147971
#
# Stress axis : x y z
#
# Youngs Moduli (GPa) = 130.37789 16.64278 34.55333
#
# Poissons Ratio (x) = 0.00773 0.12342
# Poissons Ratio (y) = 0.06054 -0.74040
# Poissons Ratio (z) = 0.46570 -0.35662
#
# Static dielectric constant tensor:
#      x y z
#    x 1.800190 0.000000 -0.039710 
#    y 0.000000 1.775010 0.000000 
#    z -0.039710 0.000000 1.752680 
# 
# From -- ./inp_files/65226.got.cif
#   From: 2010.05.17/outbox.cif.g08.bks.cpg/sg11_33_cif.got.tgz:65226.got - 2010.06.03 12:22:45.
