data_PCOD9162486
_publ_section_title
;
Structure prediction by ZEFSAII (Michael W. Deem and Ramdas Pophale) SiO2 
 PCOD9162486
Probable space group: P 21/M
;
_chemical_formula_sum "Si O2"
_cell_formula_units_Z 32
_cell_length_a 9.369421
_cell_length_b 15.344236
_cell_length_c 25.632859
_cell_angle_alpha 90.000000
_cell_angle_beta 28.037334
_cell_angle_gamma 90.000000
_cell_volume 1732.192547
_symmetry_space_group_name_H-M "P 21/M"
_symmetry_group_IT_number 11
_symmetry_cell_setting 'monoclinic'
loop_
_space_group_symop_operation_xyz
x,y,z
-x,1/2+y,-z
-x,-y,-z
x,1/2-y,z
loop_
_atom_site_type_symbol
_atom_site_label
_atom_site_fract_x
_atom_site_fract_y
_atom_site_fract_z
Si Si1 0.997295 0.903914 0.474818
Si Si2 0.751066 0.982675 0.764544
Si Si3 0.412483 0.848131 0.715189
Si Si4 0.362451 0.149102 0.865597
Si Si5 0.303261 0.349946 0.764065
Si Si6 0.719364 0.148039 0.121582
Si Si7 0.719245 0.006326 0.478664
Si Si8 0.181164 0.488752 0.724087
O O1 0.335043 0.868458 0.359538
O O2 0.767627 0.850383 0.584855
O O3 0.000000 0.000000 0.500000
O O4 0.841186 0.919441 0.468531
O O5 0.478355 0.914241 0.851228
O O6 0.979520 0.953371 0.643971
O O7 0.616689 0.077685 0.794805
O O8 0.934588 0.991744 0.759246
O O9 0.295797 0.750000 0.744060
O O10 0.359893 0.871025 0.792565
O O11 0.261227 0.921818 0.728069
O O12 0.465971 0.250000 0.836703
O O13 0.246930 0.136769 0.843598
O O14 0.075225 0.135240 0.995870
O O15 0.240207 0.250000 0.770831
O O16 0.117194 0.416128 0.788018
O O17 0.651461 0.250000 0.133758
O O18 0.488904 0.045461 0.595595
O O19 0.500000 0.000000 0.500000
#
# Coordination Sequence:
#
# PCOD9162486 Si02
#       8
#     4   4   4   4   4   4   4   4
#     4  11  17  32  56  80 111 142 181 230 270 323
#     4  11  20  37  60  80 110 152 186 219 278 333
#     4  10  20  35  57  81 110 144 182 226 277 328
#     4  10  22  39  59  82 108 143 191 235 270 319
#     4  11  21  35  56  81 111 146 186 229 274 325
#     4  10  22  39  59  83 108 142 189 236 272 319
#     4   9  18  32  53  81 114 146 173 217 275 326
#     4  10  22  36  54  83 120 147 175 228 277 331
#
# _framework density 18.473697000000001
#
# number of rings (size 3 to 8) (size 9 to 14) (size 15 to 20)
#    0.000    1.750    3.750    2.250    0.000    1.000 
#    0.000    2.500    0.000    9.000    0.000    0.000 
#    0.000    0.000    0.000    0.000    0.000    0.000 
#
# Total GULP energy -178291.093551 kJ/mol
# GULP energy per Si atom -5571.596673 kJ/mol
# Density = 1.843165 g / cm^3
# Si number density = 18.473697 Si / 1000 Ang^3
#
#
#
# Elastic Constant Matrix: (Units=GPa)
#
#
# Indices 1 2 3 4 5 6 
#
# 1 97.0716 50.6828 21.8407 0.0000 6.8318 0.0000
# 2 50.6828 80.7449 10.7182 0.0000 -1.5293 0.0000
# 3 21.8407 10.7182 54.0851 0.0000 11.5902 0.0000
# 4 0.0000 0.0000 0.0000 18.8734 0.0000 6.9412
# 5 6.8318 -1.5293 11.5902 0.0000 21.5223 0.0000
# 6 0.0000 0.0000 0.0000 6.9412 0.0000 9.2602
#
#
#
# Elastic Compliance Matrix: (Units=1/GPa)
#
#
# Indices 1 2 3 4 5 6 
#
# 1 0.016697 -0.010034 -0.003918 0.000000 -0.003903 0.000000
# 2 -0.010034 0.018875 -0.000744 0.000000 0.004927 0.000000
# 3 -0.003918 -0.000744 0.022568 0.000000 -0.010963 0.000000
# 4 0.000000 0.000000 0.000000 0.073150 0.000000 -0.054832
# 5 -0.003903 0.004927 -0.010963 0.000000 0.053956 0.000000
# 6 0.000000 0.000000 0.000000 -0.054832 0.000000 0.149089
#
#
# Mechanical properties :
#
#
# Convention : Reuss Voigt Hill
#
# Bulk Modulus (GPa) = 34.78534 44.26501 39.52518
# Shear Modulus (GPa) = 13.39364 19.84184 16.61774
#
# Velocity S-wave (km/s) = 2.69552 3.28084 3.00248
# Velocity P-wave (km/s) = 5.34400 6.19395 5.78461
#
# Compressibility (1/GPa) = 0.02874774
#
# Stress axis : x y z
#
# Youngs Moduli (GPa) = 59.89103 52.97913 44.31031
#
# Poissons Ratio (x) = 0.53162 0.17359
# Poissons Ratio (y) = 0.60097 0.03298
# Poissons Ratio (z) = 0.23462 0.03944
#
# Static dielectric constant tensor:
#      x y z
#    x 1.638510 0.000000 0.018430 
#    y 0.000000 1.638520 0.000000 
#    z 0.018430 0.000000 1.665530 
# 
# From -- ./inp_files/68128.got.cif
#   From: 2010.05.17/outbox.cif.g08.bks.cpg/sg11_35_cif.got.tgz:68128.got - 2010.06.03 12:22:45.
