data_PCOD9162467
_publ_section_title
;
Structure prediction by ZEFSAII (Michael W. Deem and Ramdas Pophale) SiO2 
 PCOD9162467
Probable space group: P 21/M
;
_chemical_formula_sum "Si O2"
_cell_formula_units_Z 32
_cell_length_a 31.649700
_cell_length_b 7.965306
_cell_length_c 12.250363
_cell_angle_alpha 90.000000
_cell_angle_beta 149.830806
_cell_angle_gamma 90.000000
_cell_volume 1552.046670
_symmetry_space_group_name_H-M "P 21/M"
_symmetry_group_IT_number 11
_symmetry_cell_setting 'monoclinic'
loop_
_space_group_symop_operation_xyz
x,y,z
-x,1/2+y,-z
-x,-y,-z
x,1/2-y,z
loop_
_atom_site_type_symbol
_atom_site_label
_atom_site_fract_x
_atom_site_fract_y
_atom_site_fract_z
Si Si1 0.713562 0.544676 0.333816
Si Si2 0.246871 0.443971 0.811980
Si Si3 0.930970 0.945760 0.188907
Si Si4 0.479293 0.451508 0.078026
Si Si5 0.778400 0.543865 0.714146
Si Si6 0.596406 0.057806 0.717673
Si Si7 0.363601 0.446704 0.430467
Si Si8 0.891411 0.053609 0.332889
O O1 0.714394 0.750000 0.335157
O O2 0.758300 0.488992 0.322747
O O3 0.754054 0.489585 0.538226
O O4 0.615995 0.494255 0.112124
O O5 0.220977 0.250000 0.754859
O O6 0.188028 0.535497 0.767018
O O7 0.343167 0.455994 0.066993
O O8 0.942334 0.750000 0.187805
O O9 0.024371 0.014582 0.419038
O O10 0.883917 0.962220 0.200304
O O11 0.868750 0.016671 0.958789
O O12 0.484427 0.250000 0.101014
O O13 0.547297 0.531650 0.310051
O O14 0.500000 0.500000 0.000000
O O15 0.777973 0.750000 0.713357
O O16 0.707328 0.493132 0.643051
O O17 0.599422 0.250000 0.759394
O O18 0.500000 0.000000 0.500000
O O19 0.632760 0.038969 0.676643
O O20 0.348827 0.250000 0.374759
O O21 0.905309 0.250000 0.338822
#
# Coordination Sequence:
#
# PCOD9162467 Si02
#       8
#     4   4   4   4   4   4   4   4
#     4   9  19  35  55  78 106 145 192 237 276 333
#     4  11  22  38  60  82 111 154 196 231 280 344
#     4   9  18  34  60  86 110 144 186 234 289 349
#     4  11  20  34  54  79 111 149 193 239 287 339
#     4   9  17  33  56  82 108 139 184 234 284 337
#     4  12  25  41  59  83 116 150 190 238 286 339
#     4  11  21  35  58  85 114 147 188 238 291 345
#     4  10  20  35  56  85 117 146 183 234 289 345
#
# _framework density 20.617936
#
# number of rings (size 3 to 8) (size 9 to 14) (size 15 to 20)
#    0.000    1.750    1.250    4.125    0.000    2.500 
#    0.000    3.125    0.000    0.000    0.000    0.000 
#    0.000    0.000    0.000    0.000    0.000    0.000 
#
# Total GULP energy -178816.008344 kJ/mol
# GULP energy per Si atom -5588.000261 kJ/mol
# Density = 2.057101 g / cm^3
# Si number density = 20.617936 Si / 1000 Ang^3
#
#
#
# Elastic Constant Matrix: (Units=GPa)
#
#
# Indices 1 2 3 4 5 6 
#
# 1 73.7629 -10.0186 22.9243 0.0000 -5.3945 0.0000
# 2 -10.0186 31.1009 -11.5456 0.0000 4.1723 0.0000
# 3 22.9243 -11.5456 105.0416 0.0000 -11.4530 0.0000
# 4 0.0000 0.0000 0.0000 18.6327 0.0000 0.0042
# 5 -5.3945 4.1723 -11.4530 0.0000 27.1231 0.0000
# 6 0.0000 0.0000 0.0000 0.0042 0.0000 20.0321
#
#
#
# Elastic Compliance Matrix: (Units=1/GPa)
#
#
# Indices 1 2 3 4 5 6 
#
# 1 0.014994 0.003645 -0.002734 0.000000 0.001267 0.000000
# 2 0.003645 0.034780 0.002645 0.000000 -0.003508 0.000000
# 3 -0.002734 0.002645 0.010801 0.000000 0.003610 0.000000
# 4 0.000000 0.000000 0.000000 0.053669 0.000000 -0.000011
# 5 0.001267 -0.003508 0.003610 0.000000 0.039185 0.000000
# 6 0.000000 0.000000 0.000000 -0.000011 0.000000 0.049920
#
#
# Mechanical properties :
#
#
# Convention : Reuss Voigt Hill
#
# Bulk Modulus (GPa) = 14.77354 23.62507 19.19931
# Shear Modulus (GPa) = 22.85200 27.06059 24.95629
#
# Velocity S-wave (km/s) = 3.33281 3.62674 3.48288
# Velocity P-wave (km/s) = 4.68947 5.38712 5.05035
#
# Compressibility (1/GPa) = 0.06768857
#
# Stress axis : x y z
#
# Youngs Moduli (GPa) = 66.69206 28.75204 92.58452
#
# Poissons Ratio (x) = -0.10481 0.25308
# Poissons Ratio (y) = -0.24312 -0.24486
# Poissons Ratio (z) = 0.18230 -0.07604
#
# Static dielectric constant tensor:
#      x y z
#    x 1.713470 0.000000 0.002940 
#    y 0.000000 1.733760 0.000000 
#    z 0.002940 0.000000 1.742760 
# 
# From -- ./inp_files/45326.got.cif
#   From: 2010.05.17/outbox.cif.g08.bks.cpg/sg11_23_cif.got.tgz:45326.got - 2010.06.03 12:22:45.
