data_PCOD9162276
_publ_section_title
;
Structure prediction by ZEFSAII (Michael W. Deem and Ramdas Pophale) SiO2 
 PCOD9162276
Probable space group: P 21/M
;
_chemical_formula_sum "Si O2"
_cell_formula_units_Z 32
_cell_length_a 23.845894
_cell_length_b 8.580905
_cell_length_c 16.105820
_cell_angle_alpha 90.000000
_cell_angle_beta 148.422884
_cell_angle_gamma 90.000000
_cell_volume 1725.707045
_symmetry_space_group_name_H-M "P 21/M"
_symmetry_group_IT_number 11
_symmetry_cell_setting 'monoclinic'
loop_
_space_group_symop_operation_xyz
x,y,z
-x,1/2+y,-z
-x,-y,-z
x,1/2-y,z
loop_
_atom_site_type_symbol
_atom_site_label
_atom_site_fract_x
_atom_site_fract_y
_atom_site_fract_z
Si Si1 0.914325 0.931756 0.664086
Si Si2 0.890281 0.436128 0.322390
Si Si3 0.698322 0.061784 0.473215
Si Si4 0.867254 0.934654 0.108945
Si Si5 0.649278 0.436718 0.756723
Si Si6 0.222104 0.070382 0.669067
Si Si7 0.417069 0.927142 0.832118
Si Si8 0.588688 0.937265 0.499506
O O1 0.926221 0.750000 0.700035
O O2 0.877110 0.940119 0.520219
O O3 0.815562 0.001130 0.592757
O O4 0.028514 0.015807 0.813226
O O5 0.885178 0.250000 0.325941
O O6 0.877463 0.481122 0.210728
O O7 0.803827 0.523263 0.270485
O O8 0.000000 0.500000 0.500000
O O9 0.700699 0.250000 0.474012
O O10 0.612010 0.004048 0.294824
O O11 0.657144 0.002608 0.509520
O O12 0.869793 0.750000 0.124659
O O13 0.755499 0.985488 0.927114
O O14 0.661388 0.250000 0.774327
O O15 0.538478 0.477022 0.665226
O O16 0.630461 0.492329 0.638704
O O17 0.260800 0.250000 0.712480
O O18 0.305310 0.947300 0.738457
O O19 0.448893 0.750000 0.859165
O O20 0.500000 0.000000 0.000000
O O21 0.597179 0.750000 0.512950
#
# Coordination Sequence:
#
# PCOD9162276 Si02
#       8
#     4   4   4   4   4   4   4   4
#     4  10  20  36  58  83 116 154 195 240 289 348
#     4  12  23  36  55  81 114 153 196 240 288 342
#     4  10  21  37  60  87 116 154 197 240 292 353
#     4  12  24  38  59  87 122 158 199 246 296 354
#     4  10  22  41  64  90 121 155 192 242 299 354
#     4  10  20  35  55  78 108 149 194 239 289 344
#     4  10  21  36  54  79 114 153 195 242 290 344
#     4  10  21  40  66  92 118 151 195 242 297 358
#
# _framework density 18.543125
#
# number of rings (size 3 to 8) (size 9 to 14) (size 15 to 20)
#    0.000    1.500    1.250    4.500    0.000    5.000 
#    0.000    3.125    0.000    0.000    0.000    0.000 
#    0.000    0.000    0.000    0.000    0.000    0.000 
#
# Total GULP energy -178564.827149 kJ/mol
# GULP energy per Si atom -5580.150848 kJ/mol
# Density = 1.850092 g / cm^3
# Si number density = 18.543125 Si / 1000 Ang^3
#
#
#
# Elastic Constant Matrix: (Units=GPa)
#
#
# Indices 1 2 3 4 5 6 
#
# 1 108.4472 10.9907 23.9358 0.0000 -4.7596 0.0000
# 2 10.9907 66.9427 13.0761 0.0000 3.1906 0.0000
# 3 23.9358 13.0761 86.1816 0.0000 8.6470 0.0000
# 4 0.0000 0.0000 0.0000 31.3867 0.0000 -0.1011
# 5 -4.7596 3.1906 8.6470 0.0000 14.6550 0.0000
# 6 0.0000 0.0000 0.0000 -0.1011 0.0000 30.0864
#
#
#
# Elastic Compliance Matrix: (Units=1/GPa)
#
#
# Indices 1 2 3 4 5 6 
#
# 1 0.010309 -0.001328 -0.003217 0.000000 0.005535 0.000000
# 2 -0.001328 0.015626 -0.001719 0.000000 -0.002819 0.000000
# 3 -0.003217 -0.001719 0.013632 0.000000 -0.008714 0.000000
# 4 0.000000 0.000000 0.000000 0.031861 0.000000 0.000107
# 5 0.005535 -0.002819 -0.008714 0.000000 0.075789 0.000000
# 6 0.000000 0.000000 0.000000 0.000107 0.000000 0.033238
#
#
# Mechanical properties :
#
#
# Convention : Reuss Voigt Hill
#
# Bulk Modulus (GPa) = 36.98411 39.73076 38.35743
# Shear Modulus (GPa) = 24.75294 29.46356 27.10825
#
# Velocity S-wave (km/s) = 3.65757 3.99045 3.82763
# Velocity P-wave (km/s) = 6.15023 6.53485 6.34545
#
# Compressibility (1/GPa) = 0.02703864
#
# Stress axis : x y z
#
# Youngs Moduli (GPa) = 97.00622 63.99449 73.35658
#
# Poissons Ratio (x) = 0.08498 0.23599
# Poissons Ratio (y) = 0.12882 0.12612
# Poissons Ratio (z) = 0.31207 0.11003
#
# Static dielectric constant tensor:
#      x y z
#    x 1.621380 0.000000 -0.005930 
#    y 0.000000 1.629820 0.000000 
#    z -0.005930 0.000000 1.621660 
# 
# From -- ./inp_files/55687.got.cif
#   From: 2010.05.17/outbox.cif.g08.bks.cpg/sg11_28_cif.got.tgz:55687.got - 2010.06.03 12:22:45.
