data_PCOD9162212
_publ_section_title
;
Structure prediction by ZEFSAII (Michael W. Deem and Ramdas Pophale) SiO2 
 PCOD9162212
Probable space group: P 21/M
;
_chemical_formula_sum "Si O2"
_cell_formula_units_Z 32
_cell_length_a 22.367815
_cell_length_b 8.398145
_cell_length_c 12.447959
_cell_angle_alpha 90.000000
_cell_angle_beta 46.115146
_cell_angle_gamma 90.000000
_cell_volume 1685.312036
_symmetry_space_group_name_H-M "P 21/M"
_symmetry_group_IT_number 11
_symmetry_cell_setting 'monoclinic'
loop_
_space_group_symop_operation_xyz
x,y,z
-x,1/2+y,-z
-x,-y,-z
x,1/2-y,z
loop_
_atom_site_type_symbol
_atom_site_label
_atom_site_fract_x
_atom_site_fract_y
_atom_site_fract_z
Si Si1 0.273604 0.555549 0.063877
Si Si2 0.579198 0.058042 0.264968
Si Si3 0.970606 0.941087 0.420215
Si Si4 0.392214 0.057344 0.535187
Si Si5 0.093882 0.439524 0.891223
Si Si6 0.245027 0.442277 0.562134
Si Si7 0.784428 0.059953 0.630924
Si Si8 0.127048 0.942416 0.083553
O O1 0.272663 0.750000 0.067016
O O2 0.254370 0.500504 0.208361
O O3 0.200520 0.507964 0.072571
O O4 0.361052 0.503355 0.905064
O O5 0.578688 0.250000 0.264386
O O6 0.483490 0.004492 0.381211
O O7 0.616309 0.003818 0.332832
O O8 0.966649 0.750000 0.425568
O O9 0.039710 0.988501 0.246955
O O10 0.880409 0.009012 0.509072
O O11 0.000000 0.000000 0.500000
O O12 0.391502 0.250000 0.538750
O O13 0.318658 0.003699 0.549113
O O14 0.090670 0.250000 0.886922
O O15 0.156764 0.498609 0.720559
O O16 0.131601 0.487008 0.959386
O O17 0.000000 0.500000 0.000000
O O18 0.244133 0.250000 0.564687
O O19 0.256813 0.496656 0.425894
O O20 0.779863 0.250000 0.637185
O O21 0.129186 0.750000 0.072811
#
# Coordination Sequence:
#
# PCOD9162212 Si02
#       8
#     4   4   4   4   4   4   4   4
#     4   9  18  34  53  78 108 136 171 217 269 314
#     4   9  17  32  58  84 107 137 172 215 269 324
#     4  11  21  35  54  77 107 143 180 220 265 312
#     4   9  18  34  56  82 110 138 172 217 267 322
#     4  11  23  37  53  75 104 138 175 218 264 314
#     4  10  22  39  54  74 109 146 178 217 271 322
#     4  11  22  37  55  77 106 142 186 227 263 314
#     4  10  20  35  54  76 106 137 170 218 266 311
#
# _framework density 18.987582
#
# number of rings (size 3 to 8) (size 9 to 14) (size 15 to 20)
#    0.000    2.000    1.250    2.625    0.000    5.500 
#    0.000    1.875    0.000    0.000    0.000    0.000 
#    0.000    0.000    0.000    0.000    0.000    0.000 
#
# Total GULP energy -178708.634307 kJ/mol
# GULP energy per Si atom -5584.644822 kJ/mol
# Density = 1.894437 g / cm^3
# Si number density = 18.987582 Si / 1000 Ang^3
#
#
#
# Elastic Constant Matrix: (Units=GPa)
#
#
# Indices 1 2 3 4 5 6 
#
# 1 107.2708 15.6018 52.4013 0.0000 5.6384 0.0000
# 2 15.6018 10.6953 16.6224 0.0000 -1.0482 0.0000
# 3 52.4013 16.6224 138.4624 0.0000 6.1094 0.0000
# 4 0.0000 0.0000 0.0000 20.7427 0.0000 6.8404
# 5 5.6384 -1.0482 6.1094 0.0000 25.5423 0.0000
# 6 0.0000 0.0000 0.0000 6.8404 0.0000 28.9384
#
#
#
# Elastic Compliance Matrix: (Units=1/GPa)
#
#
# Indices 1 2 3 4 5 6 
#
# 1 0.013093 -0.014577 -0.003084 0.000000 -0.002751 0.000000
# 2 -0.014577 0.132857 -0.010931 0.000000 0.011284 0.000000
# 3 -0.003084 -0.010931 0.009795 0.000000 -0.002111 0.000000
# 4 0.000000 0.000000 0.000000 0.052286 0.000000 -0.012359
# 5 -0.002751 0.011284 -0.002111 0.000000 0.040726 0.000000
# 6 0.000000 0.000000 0.000000 -0.012359 0.000000 0.037478
#
#
# Mechanical properties :
#
#
# Convention : Reuss Voigt Hill
#
# Bulk Modulus (GPa) = 10.14586 47.29771 28.72179
# Shear Modulus (GPa) = 13.28830 26.49820 19.89325
#
# Velocity S-wave (km/s) = 2.64832 3.73976 3.24033
# Velocity P-wave (km/s) = 3.83491 6.60391 5.39992
#
# Compressibility (1/GPa) = 0.09856240
#
# Stress axis : x y z
#
# Youngs Moduli (GPa) = 76.37487 7.52689 102.09642
#
# Poissons Ratio (x) = 0.10972 0.31485
# Poissons Ratio (y) = 1.11328 1.11600
# Poissons Ratio (z) = 0.23553 0.08228
#
# Static dielectric constant tensor:
#      x y z
#    x 1.640800 0.000000 -0.011900 
#    y 0.000000 1.657040 0.000000 
#    z -0.011900 0.000000 1.670060 
# 
# From -- ./inp_files/42773.got.cif
#   From: 2010.05.17/outbox.cif.g08.bks.cpg/sg11_22_cif.got.tgz:42773.got - 2010.06.03 12:22:45.
