data_PCOD9162935
_publ_section_title
;
Structure prediction by ZEFSAII (Michael W. Deem and Ramdas Pophale) SiO2 
 PCOD9162935
Probable space group: P 21/M
;
_chemical_formula_sum "Si O2"
_cell_formula_units_Z 32
_cell_length_a 25.329912
_cell_length_b 8.486957
_cell_length_c 16.762972
_cell_angle_alpha 90.000000
_cell_angle_beta 26.652723
_cell_angle_gamma 90.000000
_cell_volume 1616.509440
_symmetry_space_group_name_H-M "P 21/M"
_symmetry_group_IT_number 11
_symmetry_cell_setting 'monoclinic'
loop_
_space_group_symop_operation_xyz
x,y,z
-x,1/2+y,-z
-x,-y,-z
x,1/2-y,z
loop_
_atom_site_type_symbol
_atom_site_label
_atom_site_fract_x
_atom_site_fract_y
_atom_site_fract_z
Si Si1 0.206617 0.927673 0.278106
Si Si2 0.383735 0.924102 0.187263
Si Si3 0.611932 0.562360 0.094381
Si Si4 0.761577 0.558198 0.040754
Si Si5 0.024110 0.942885 0.651063
Si Si6 0.618530 0.940421 0.381730
Si Si7 0.800627 0.058693 0.445260
Si Si8 0.358468 0.061606 0.466616
O O1 0.180765 0.750000 0.283374
O O2 0.294628 0.913218 0.234264
O O3 0.091341 0.996407 0.479187
O O4 0.284272 0.017806 0.107940
O O5 0.414008 0.750000 0.175857
O O6 0.310834 0.006860 0.354173
O O7 0.500000 0.000000 0.000000
O O8 0.599016 0.750000 0.111348
O O9 0.661898 0.508180 0.112703
O O10 0.481890 0.491214 0.258454
O O11 0.764309 0.750000 0.035174
O O12 0.724621 0.510877 0.179517
O O13 0.889724 0.505157 0.839020
O O14 0.029046 0.750000 0.640552
O O15 0.090352 0.986977 0.644715
O O16 0.614931 0.750000 0.387868
O O17 0.632051 0.994858 0.454324
O O18 0.500000 0.000000 0.500000
O O19 0.801318 0.250000 0.444212
O O20 0.762360 0.001810 0.409993
O O21 0.354647 0.250000 0.470244
#
# Coordination Sequence:
#
# PCOD9162935 Si02
#       8
#     4   4   4   4   4   4   4   4
#     4   9  18  32  49  72 104 138 173 215 260 307
#     4   9  17  28  43  65  93 129 170 208 250 298
#     4  11  21  32  51  79 108 139 179 220 261 312
#     4   9  18  34  56  79 103 136 177 219 260 312
#     4   8  16  34  57  77 102 141 182 214 254 310
#     4  10  20  36  57  80 106 137 172 213 264 317
#     4   9  18  33  53  75 100 135 177 215 254 309
#     4  11  22  34  52  79 110 139 170 216 272 317
#
# _framework density 19.795739999999999
#
# number of rings (size 3 to 8) (size 9 to 14) (size 15 to 20)
#    0.000    2.500    1.250    3.000    0.000    4.000 
#    0.000    2.500    0.000    3.750    0.000    0.000 
#    0.000    0.000    0.000    0.000    0.000    0.000 
#
# Total GULP energy -178185.621302 kJ/mol
# GULP energy per Si atom -5568.300666 kJ/mol
# Density = 1.975068 g / cm^3
# Si number density = 19.795740 Si / 1000 Ang^3
#
#
#
# Elastic Constant Matrix: (Units=GPa)
#
#
# Indices 1 2 3 4 5 6 
#
# 1 63.2151 2.7231 -2.5529 0.0000 7.9213 0.0000
# 2 2.7231 13.0645 0.2751 0.0000 -0.5495 0.0000
# 3 -2.5529 0.2751 70.2009 0.0000 1.5700 0.0000
# 4 0.0000 0.0000 0.0000 10.6067 0.0000 2.8531
# 5 7.9213 -0.5495 1.5700 0.0000 29.9261 0.0000
# 6 0.0000 0.0000 0.0000 2.8531 0.0000 18.6474
#
#
#
# Elastic Compliance Matrix: (Units=1/GPa)
#
#
# Indices 1 2 3 4 5 6 
#
# 1 0.016568 -0.003657 0.000717 0.000000 -0.004490 0.000000
# 2 -0.003657 0.077418 -0.000490 0.000000 0.002415 0.000000
# 3 0.000717 -0.000490 0.014294 0.000000 -0.000949 0.000000
# 4 0.000000 0.000000 0.000000 0.098327 0.000000 -0.015044
# 5 -0.004490 0.002415 -0.000949 0.000000 0.034698 0.000000
# 6 0.000000 0.000000 0.000000 -0.015044 0.000000 0.055929
#
#
# Mechanical properties :
#
#
# Convention : Reuss Voigt Hill
#
# Bulk Modulus (GPa) = 9.86009 16.37455 13.11732
# Shear Modulus (GPa) = 14.79723 21.57172 18.18448
#
# Velocity S-wave (km/s) = 2.73700 3.30466 3.03414
# Velocity P-wave (km/s) = 3.87040 4.78025 4.34918
#
# Compressibility (1/GPa) = 0.10141895
#
# Stress axis : x y z
#
# Youngs Moduli (GPa) = 60.35661 12.91694 69.95912
#
# Poissons Ratio (x) = 0.04724 -0.05018
# Poissons Ratio (y) = 0.22075 0.03431
# Poissons Ratio (z) = -0.04329 0.00633
#
# Static dielectric constant tensor:
#      x y z
#    x 1.736310 0.000000 0.045410 
#    y 0.000000 1.676620 0.000000 
#    z 0.045410 0.000000 1.646710 
# 
# From -- ./inp_files/55650.got.cif
#   From: 2010.05.17/outbox.cif.g08.bks.cpg/sg11_28_cif.got.tgz:55650.got - 2010.06.03 12:22:45.
