data_PCOD9162015
_publ_section_title
;
Structure prediction by ZEFSAII (Michael W. Deem and Ramdas Pophale) SiO2 
 PCOD9162015
Probable space group: P 21/M
;
_chemical_formula_sum "Si O2"
_cell_formula_units_Z 24
_cell_length_a 14.707630
_cell_length_b 8.535104
_cell_length_c 13.751044
_cell_angle_alpha 90.000000
_cell_angle_beta 40.851146
_cell_angle_gamma 90.000000
_cell_volume 1129.090455
_symmetry_space_group_name_H-M "P 21/M"
_symmetry_group_IT_number 11
_symmetry_cell_setting 'monoclinic'
loop_
_space_group_symop_operation_xyz
x,y,z
-x,1/2+y,-z
-x,-y,-z
x,1/2-y,z
loop_
_atom_site_type_symbol
_atom_site_label
_atom_site_fract_x
_atom_site_fract_y
_atom_site_fract_z
Si Si1 0.818589 0.940793 0.543155
Si Si2 0.926895 0.931466 0.963397
Si Si3 0.655965 0.937054 0.866342
Si Si4 0.329307 0.569129 0.741829
Si Si5 0.094015 0.563740 0.226548
Si Si6 0.659122 0.564513 0.476328
O O1 0.821026 0.750000 0.545281
O O2 0.735559 0.996317 0.704706
O O3 0.735987 0.983636 0.512046
O O4 0.977152 0.993344 0.397857
O O5 0.960642 0.750000 0.925363
O O6 0.959250 0.021296 0.837843
O O7 0.763844 0.958403 0.116847
O O8 0.000000 0.000000 0.000000
O O9 0.649142 0.750000 0.867604
O O10 0.757608 0.987817 0.871174
O O11 0.500000 0.000000 0.000000
O O12 0.294373 0.750000 0.791372
O O13 0.493395 0.546485 0.623717
O O14 0.299644 0.530357 0.652927
O O15 0.107265 0.750000 0.223644
O O16 0.686200 0.750000 0.436640
#
# Coordination Sequence:
#
# PCOD9162015 Si02
#       6
#     4   4   4   4   4   4
#     4   9  20  39  65  91 121 164 213 263 318 377
#     4  12  25  41  62  91 128 168 213 264 317 382
#     4  11  24  43  66  96 129 167 216 269 323 384
#     4  10  20  34  56  88 125 166 211 262 317 374
#     4  11  23  42  67  95 129 171 213 264 325 384
#     4   9  18  35  59  87 121 165 212 263 316 374
#
# _framework density 21.256049000000001
#
# number of rings (size 3 to 8) (size 9 to 14) (size 15 to 20)
#    0.000    1.667    0.000    4.500    2.333    2.000 
#    0.000    5.000    0.000    0.000    0.000    0.000 
#    0.000    0.000    0.000    0.000    0.000    0.000 
#
# Total GULP energy -134206.356647 kJ/mol
# GULP energy per Si atom -5591.931527 kJ/mol
# Density = 2.120767 g / cm^3
# Si number density = 21.256049 Si / 1000 Ang^3
#
#
#
# Elastic Constant Matrix: (Units=GPa)
#
#
# Indices 1 2 3 4 5 6 
#
# 1 107.6561 13.2788 41.0520 0.0000 -8.4311 0.0000
# 2 13.2788 48.7971 22.7420 0.0000 -11.3087 0.0000
# 3 41.0520 22.7420 107.9643 0.0000 -3.3505 0.0000
# 4 0.0000 0.0000 0.0000 30.4481 0.0000 -0.5846
# 5 -8.4311 -11.3087 -3.3505 0.0000 26.8678 0.0000
# 6 0.0000 0.0000 0.0000 -0.5846 0.0000 29.8910
#
#
#
# Elastic Compliance Matrix: (Units=1/GPa)
#
#
# Indices 1 2 3 4 5 6 
#
# 1 0.011105 -0.000501 -0.004031 0.000000 0.002771 0.000000
# 2 -0.000501 0.025144 -0.004801 0.000000 0.009827 0.000000
# 3 -0.004031 -0.004801 0.011750 0.000000 -0.001820 0.000000
# 4 0.000000 0.000000 0.000000 0.032855 0.000000 0.000643
# 5 0.002771 0.009827 -0.001820 0.000000 0.041998 0.000000
# 6 0.000000 0.000000 0.000000 0.000643 0.000000 0.033467
#
#
# Mechanical properties :
#
#
# Convention : Reuss Voigt Hill
#
# Bulk Modulus (GPa) = 34.09125 46.50701 40.29913
# Shear Modulus (GPa) = 27.06166 29.93103 28.49634
#
# Velocity S-wave (km/s) = 3.57196 3.75656 3.66542
# Velocity P-wave (km/s) = 5.75196 6.38299 6.07568
#
# Compressibility (1/GPa) = 0.02933304
#
# Stress axis : x y z
#
# Youngs Moduli (GPa) = 90.05169 39.77029 85.10769
#
# Poissons Ratio (x) = 0.01993 0.34306
# Poissons Ratio (y) = 0.04512 0.40860
# Poissons Ratio (z) = 0.36299 0.19094
#
# Static dielectric constant tensor:
#      x y z
#    x 1.765720 0.000000 -0.006900 
#    y 0.000000 1.722340 0.000000 
#    z -0.006900 0.000000 1.784080 
# 
# From -- ./inp_files/51500.got.cif
#   From: 2010.05.17/outbox.cif.g08.bks.cpg/sg11_26_cif.got.tgz:51500.got - 2010.06.03 12:22:45.
