data_PCOD9162385
_publ_section_title
;
Structure prediction by ZEFSAII (Michael W. Deem and Ramdas Pophale) SiO2 
 PCOD9162385
Probable space group: P 21/M
;
_chemical_formula_sum "Si O2"
_cell_formula_units_Z 24
_cell_length_a 9.850916
_cell_length_b 8.800496
_cell_length_c 22.358340
_cell_angle_alpha 90.000000
_cell_angle_beta 44.323696
_cell_angle_gamma 90.000000
_cell_volume 1354.319206
_symmetry_space_group_name_H-M "P 21/M"
_symmetry_group_IT_number 11
_symmetry_cell_setting 'monoclinic'
loop_
_space_group_symop_operation_xyz
x,y,z
-x,1/2+y,-z
-x,-y,-z
x,1/2-y,z
loop_
_atom_site_type_symbol
_atom_site_label
_atom_site_fract_x
_atom_site_fract_y
_atom_site_fract_z
Si Si1 0.193057 0.568802 0.469958
Si Si2 0.923799 0.568196 0.235188
Si Si3 0.559321 0.431489 0.284704
Si Si4 0.649722 0.931172 0.905906
Si Si5 0.929232 0.569541 0.371433
Si Si6 0.648233 0.569043 0.769524
O O1 0.189582 0.750000 0.465512
O O2 0.381402 0.500969 0.378435
O O3 0.186867 0.519238 0.541181
O O4 0.000000 0.500000 0.500000
O O5 0.932869 0.750000 0.227655
O O6 0.758735 0.502025 0.244820
O O7 0.875186 0.531089 0.320059
O O8 0.134872 0.499416 0.154875
O O9 0.562382 0.250000 0.291737
O O10 0.510982 0.463925 0.230511
O O11 0.658006 0.750000 0.910186
O O12 0.589243 0.964694 0.856182
O O13 0.500000 0.000000 0.000000
O O14 0.908166 0.750000 0.386977
O O15 0.155287 0.522355 0.306405
O O16 0.694388 0.750000 0.751430
#
# Coordination Sequence:
#
# PCOD9162385 Si02
#       6
#     4   4   4   4   4   4
#     4  12  23  35  54  81 113 150 194 239 278 325
#     4  10  22  39  58  84 116 149 186 232 284 337
#     4  11  22  37  57  83 114 151 189 233 284 332
#     4  10  20  38  63  89 113 143 183 229 280 340
#     4  10  20  35  56  80 109 149 194 235 278 329
#     4   9  19  35  57  82 111 146 186 230 279 335
#
# _framework density 17.721081000000002
#
# number of rings (size 3 to 8) (size 9 to 14) (size 15 to 20)
#    0.000    1.667    1.667    3.500    0.000    4.000 
#    0.000    0.833    0.000    0.000    0.000    0.000 
#    0.000    0.000    0.000    0.000    0.000    0.000 
#
# Total GULP energy -134076.501547 kJ/mol
# GULP energy per Si atom -5586.520898 kJ/mol
# Density = 1.768075 g / cm^3
# Si number density = 17.721081 Si / 1000 Ang^3
#
#
#
# Elastic Constant Matrix: (Units=GPa)
#
#
# Indices 1 2 3 4 5 6 
#
# 1 153.6090 65.9073 73.8478 0.0000 2.8315 0.0000
# 2 65.9073 82.9337 60.0956 0.0000 5.9428 0.0000
# 3 73.8478 60.0956 134.6461 0.0000 6.4481 0.0000
# 4 0.0000 0.0000 0.0000 31.7249 0.0000 -3.5104
# 5 2.8315 5.9428 6.4481 0.0000 14.9279 0.0000
# 6 0.0000 0.0000 0.0000 -3.5104 0.0000 30.0066
#
#
#
# Elastic Compliance Matrix: (Units=1/GPa)
#
#
# Indices 1 2 3 4 5 6 
#
# 1 0.010715 -0.006393 -0.003112 0.000000 0.001857 0.000000
# 2 -0.006393 0.021842 -0.006008 0.000000 -0.004888 0.000000
# 3 -0.003112 -0.006008 0.011919 0.000000 -0.002166 0.000000
# 4 0.000000 0.000000 0.000000 0.031934 0.000000 0.003736
# 5 0.001857 -0.004888 -0.002166 0.000000 0.069518 0.000000
# 6 0.000000 0.000000 0.000000 0.003736 0.000000 0.033763
#
#
# Mechanical properties :
#
#
# Convention : Reuss Voigt Hill
#
# Bulk Modulus (GPa) = 74.35376 85.65447 80.00412
# Shear Modulus (GPa) = 23.23395 26.75444 24.99420
#
# Velocity S-wave (km/s) = 3.62483 3.88977 3.75963
# Velocity P-wave (km/s) = 7.71803 8.28332 8.00567
#
# Compressibility (1/GPa) = 0.01344922
#
# Stress axis : x y z
#
# Youngs Moduli (GPa) = 93.32657 45.78252 83.89779
#
# Poissons Ratio (x) = 0.29269 0.26112
# Poissons Ratio (y) = 0.59664 0.50409
# Poissons Ratio (z) = 0.29046 0.27508
#
# Static dielectric constant tensor:
#      x y z
#    x 1.602820 0.000000 0.032540 
#    y 0.000000 1.590490 0.000000 
#    z 0.032540 0.000000 1.576930 
# 
# From -- ./inp_files/20332.got.cif
#   From: 2010.05.17/outbox.cif.g08.bks.cpg/sg11_11_cif.got.tgz:20332.got - 2010.06.03 12:22:45.
