data_PCOD9162416
_publ_section_title
;
Structure prediction by ZEFSAII (Michael W. Deem and Ramdas Pophale) SiO2 
 PCOD9162416
Probable space group: P 21/M
;
_chemical_formula_sum "Si O2"
_cell_formula_units_Z 32
_cell_length_a 15.069360
_cell_length_b 8.471013
_cell_length_c 15.582835
_cell_angle_alpha 90.000000
_cell_angle_beta 121.653749
_cell_angle_gamma 90.000000
_cell_volume 1693.269577
_symmetry_space_group_name_H-M "P 21/M"
_symmetry_group_IT_number 11
_symmetry_cell_setting 'monoclinic'
loop_
_space_group_symop_operation_xyz
x,y,z
-x,1/2+y,-z
-x,-y,-z
x,1/2-y,z
loop_
_atom_site_type_symbol
_atom_site_label
_atom_site_fract_x
_atom_site_fract_y
_atom_site_fract_z
Si Si1 0.010811 0.061793 0.276830
Si Si2 0.708122 0.439236 0.732002
Si Si3 0.391354 0.561538 0.984006
Si Si4 0.240250 0.940427 0.429768
Si Si5 0.791116 0.442822 0.236917
Si Si6 0.565702 0.562104 0.809891
Si Si7 0.049733 0.562013 0.112199
Si Si8 0.670599 0.442788 0.343927
O O1 0.017781 0.250000 0.288934
O O2 0.907566 0.004524 0.273401
O O3 0.119268 0.988991 0.364184
O O4 0.001327 0.018082 0.171762
O O5 0.692209 0.250000 0.726368
O O6 0.705034 0.493475 0.631120
O O7 0.628532 0.518698 0.756424
O O8 0.826488 0.471109 0.822435
O O9 0.393217 0.750000 0.979678
O O10 0.293618 0.505759 0.877157
O O11 0.500000 0.500000 0.000000
O O12 0.384678 0.511247 0.079525
O O13 0.243711 0.750000 0.430552
O O14 0.294172 0.997077 0.544204
O O15 0.792102 0.250000 0.236051
O O16 0.749468 0.492016 0.308919
O O17 0.564334 0.750000 0.820479
O O18 0.446147 0.506808 0.739345
O O19 0.036522 0.750000 0.112584
O O20 0.000000 0.500000 0.000000
O O21 0.670144 0.250000 0.345044
#
# Coordination Sequence:
#
# PCOD9162416 Si02
#       8
#     4   4   4   4   4   4   4   4
#     4  10  20  35  56  82 112 146 185 231 279 331
#     4   9  20  37  54  78 112 146 182 229 286 334
#     4  11  21  37  58  81 114 152 187 229 278 333
#     4   9  19  38  61  80 108 150 187 230 284 334
#     4   9  19  35  56  81 112 150 184 220 278 337
#     4  11  22  36  57  85 112 148 192 232 275 334
#     4  10  21  37  56  79 110 148 187 230 281 335
#     4   9  18  36  59  81 109 148 190 226 276 340
#
# _framework density 18.898347999999999
#
# number of rings (size 3 to 8) (size 9 to 14) (size 15 to 20)
#    0.000    2.250    1.250    2.250    1.750    3.500 
#    0.000    3.125    0.000    0.000    0.000    0.000 
#    0.000    0.000    0.000    0.000    0.000    0.000 
#
# Total GULP energy -178630.706935 kJ/mol
# GULP energy per Si atom -5582.209592 kJ/mol
# Density = 1.885533 g / cm^3
# Si number density = 18.898348 Si / 1000 Ang^3
#
#
#
# Elastic Constant Matrix: (Units=GPa)
#
#
# Indices 1 2 3 4 5 6 
#
# 1 83.4337 6.7487 4.7771 0.0000 -24.8231 0.0000
# 2 6.7487 9.8835 2.5725 0.0000 -3.1015 0.0000
# 3 4.7771 2.5725 96.7430 0.0000 -25.6677 0.0000
# 4 0.0000 0.0000 0.0000 21.3387 0.0000 -1.4061
# 5 -24.8231 -3.1015 -25.6677 0.0000 17.0264 0.0000
# 6 0.0000 0.0000 0.0000 -1.4061 0.0000 29.7322
#
#
#
# Elastic Compliance Matrix: (Units=1/GPa)
#
#
# Indices 1 2 3 4 5 6 
#
# 1 0.034761 -0.003927 0.019406 0.000000 0.079219 0.000000
# 2 -0.003927 0.108641 0.001727 0.000000 0.016668 0.000000
# 3 0.019406 0.001727 0.028203 0.000000 0.071125 0.000000
# 4 0.000000 0.000000 0.000000 0.047010 0.000000 0.002223
# 5 0.079219 0.016668 0.071125 0.000000 0.284486 0.000000
# 6 0.000000 0.000000 0.000000 0.002223 0.000000 0.033739
#
#
# Mechanical properties :
#
#
# Convention : Reuss Voigt Hill
#
# Bulk Modulus (GPa) = 4.85393 24.25074 14.55234
# Shear Modulus (GPa) = 8.75503 25.35026 17.05264
#
# Velocity S-wave (km/s) = 2.15470 3.66649 3.00715
# Velocity P-wave (km/s) = 2.96046 5.54835 4.44683
#
# Compressibility (1/GPa) = 0.20601863
#
# Stress axis : x y z
#
# Youngs Moduli (GPa) = 28.76758 9.20460 35.45705
#
# Poissons Ratio (x) = 0.03615 -0.68809
# Poissons Ratio (y) = 0.11298 -0.06125
# Poissons Ratio (z) = -0.55827 -0.01590
#
# Static dielectric constant tensor:
#      x y z
#    x 1.639060 0.000000 -0.004220 
#    y 0.000000 1.654410 0.000000 
#    z -0.004220 0.000000 1.650200 
# 
# From -- ./inp_files/51779.got.cif
#   From: 2010.05.17/outbox.cif.g08.bks.cpg/sg11_26_cif.got.tgz:51779.got - 2010.06.03 12:22:45.
