data_PCOD9162328
_publ_section_title
;
Structure prediction by ZEFSAII (Michael W. Deem and Ramdas Pophale) SiO2 
 PCOD9162328
Probable space group: P 21/M
;
_chemical_formula_sum "Si O2"
_cell_formula_units_Z 32
_cell_length_a 25.320545
_cell_length_b 7.856689
_cell_length_c 25.353503
_cell_angle_alpha 90.000000
_cell_angle_beta 18.053866
_cell_angle_gamma 90.000000
_cell_volume 1563.102839
_symmetry_space_group_name_H-M "P 21/M"
_symmetry_group_IT_number 11
_symmetry_cell_setting 'monoclinic'
loop_
_space_group_symop_operation_xyz
x,y,z
-x,1/2+y,-z
-x,-y,-z
x,1/2-y,z
loop_
_atom_site_type_symbol
_atom_site_label
_atom_site_fract_x
_atom_site_fract_y
_atom_site_fract_z
Si Si1 0.131085 0.044728 0.125155
Si Si2 0.112889 0.952780 0.442491
Si Si3 0.524620 0.949217 0.150308
Si Si4 0.487958 0.438525 0.071302
Si Si5 0.341944 0.955055 0.719414
Si Si6 0.278523 0.455099 0.660338
Si Si7 0.067990 0.544147 0.064249
Si Si8 0.862037 0.456556 0.465805
O O1 0.134576 0.250000 0.127934
O O2 0.977519 0.980610 0.308268
O O3 0.099114 0.004584 0.094814
O O4 0.314242 0.977686 0.971470
O O5 0.150545 0.750000 0.405018
O O6 0.048256 0.991487 0.562823
O O7 0.286720 0.054696 0.272183
O O8 0.000000 0.000000 0.500000
O O9 0.515222 0.750000 0.172127
O O10 0.335028 0.018903 0.343935
O O11 0.558495 0.962832 0.055153
O O12 0.560013 0.250000 0.005412
O O13 0.500000 0.500000 0.000000
O O14 0.347991 0.750000 0.717126
O O15 0.537518 0.018378 0.534952
O O16 0.268739 0.999824 0.731376
O O17 0.219044 0.017849 0.882362
O O18 0.280655 0.250000 0.654547
O O19 0.114389 0.517791 0.784464
O O20 0.066374 0.750000 0.062667
O O21 0.852754 0.250000 0.470841
#
# Coordination Sequence:
#
# PCOD9162328 Si02
#       8
#     4   4   4   4   4   4   4   4
#     4  10  21  36  56  78 102 142 185 222 269 322
#     4  10  20  35  55  82 111 141 177 222 278 337
#     4   9  19  37  57  76 104 138 176 224 275 325
#     4  11  22  36  55  81 110 141 177 222 278 338
#     4   9  18  33  53  77 107 141 175 216 267 313
#     4   9  18  33  53  77 106 140 176 215 265 316
#     4  10  21  35  50  75 109 140 174 220 267 314
#     4   8  17  35  54  74 103 136 172 218 268 318
#
# _framework density 20.472102
#
# number of rings (size 3 to 8) (size 9 to 14) (size 15 to 20)
#    0.000    2.500    0.000    2.625    1.750    2.500 
#    0.000    3.125    0.000    0.000    0.000    0.000 
#    0.000    0.000    0.000    0.000    0.000    0.000 
#
# Total GULP energy -178443.446889 kJ/mol
# GULP energy per Si atom -5576.357715 kJ/mol
# Density = 2.042551 g / cm^3
# Si number density = 20.472102 Si / 1000 Ang^3
#
#
#
# Elastic Constant Matrix: (Units=GPa)
#
#
# Indices 1 2 3 4 5 6 
#
# 1 181.5032 -2.5022 125.9290 0.0000 8.9870 0.0000
# 2 -2.5022 25.9998 7.9092 0.0000 -0.8286 0.0000
# 3 125.9290 7.9092 137.4709 0.0000 2.9360 0.0000
# 4 0.0000 0.0000 0.0000 4.0435 0.0000 4.3350
# 5 8.9870 -0.8286 2.9360 0.0000 11.0065 0.0000
# 6 0.0000 0.0000 0.0000 4.3350 0.0000 29.9684
#
#
#
# Elastic Compliance Matrix: (Units=1/GPa)
#
#
# Indices 1 2 3 4 5 6 
#
# 1 0.016887 0.006086 -0.015624 0.000000 -0.009163 0.000000
# 2 0.006086 0.041480 -0.007967 0.000000 0.000279 0.000000
# 3 -0.015624 -0.007967 0.021910 0.000000 0.006313 0.000000
# 4 0.000000 0.000000 0.000000 0.292707 0.000000 -0.042341
# 5 -0.009163 0.000279 0.006313 0.000000 0.096674 0.000000
# 6 0.000000 0.000000 0.000000 -0.042341 0.000000 0.039493
#
#
# Mechanical properties :
#
#
# Convention : Reuss Voigt Hill
#
# Bulk Modulus (GPa) = 22.09137 67.51623 44.80380
# Shear Modulus (GPa) = 8.94055 23.24619 16.09337
#
# Velocity S-wave (km/s) = 2.09205 3.37338 2.80681
# Velocity P-wave (km/s) = 4.08043 6.94436 5.69535
#
# Compressibility (1/GPa) = 0.04526654
#
# Stress axis : x y z
#
# Youngs Moduli (GPa) = 59.21728 24.10796 45.64189
#
# Poissons Ratio (x) = -0.14672 0.71309
# Poissons Ratio (y) = -0.36039 0.36365
# Poissons Ratio (z) = 0.92519 0.19208
#
# Static dielectric constant tensor:
#      x y z
#    x 1.710070 0.000000 -0.003710 
#    y 0.000000 1.740910 0.000000 
#    z -0.003710 0.000000 1.748730 
# 
# From -- ./inp_files/69969.got.cif
#   From: 2010.05.17/outbox.cif.g08.bks.cpg/sg11_35_cif.got.tgz:69969.got - 2010.06.03 12:22:45.
