data_PCOD9162351
_publ_section_title
;
Structure prediction by ZEFSAII (Michael W. Deem and Ramdas Pophale) SiO2 
 PCOD9162351
Probable space group: P 21/M
;
_chemical_formula_sum "Si O2"
_cell_formula_units_Z 28
_cell_length_a 9.569253
_cell_length_b 8.525298
_cell_length_c 30.024140
_cell_angle_alpha 90.000000
_cell_angle_beta 37.615148
_cell_angle_gamma 90.000000
_cell_volume 1494.997310
_symmetry_space_group_name_H-M "P 21/M"
_symmetry_group_IT_number 11
_symmetry_cell_setting 'monoclinic'
loop_
_space_group_symop_operation_xyz
x,y,z
-x,1/2+y,-z
-x,-y,-z
x,1/2-y,z
loop_
_atom_site_type_symbol
_atom_site_label
_atom_site_fract_x
_atom_site_fract_y
_atom_site_fract_z
Si Si1 0.978165 0.940259 0.368180
Si Si2 0.758320 0.936193 0.933969
Si Si3 0.837717 0.939228 0.502329
Si Si4 0.089763 0.562059 0.198952
Si Si5 0.312018 0.561801 0.639968
Si Si6 0.923462 0.938588 0.067436
Si Si7 0.597968 0.440331 0.797117
O O1 0.965351 0.750000 0.369202
O O2 0.926750 0.990607 0.431290
O O3 0.226843 0.987871 0.286160
O O4 0.793622 0.008881 0.380510
O O5 0.752169 0.750000 0.939485
O O6 0.868291 0.985942 0.859236
O O7 0.906171 0.003904 0.937296
O O8 0.500000 0.000000 0.000000
O O9 0.840540 0.750000 0.501709
O O10 0.575364 0.989015 0.576046
O O11 0.000000 0.000000 0.500000
O O12 0.099828 0.750000 0.192145
O O13 0.284684 0.512519 0.185669
O O14 0.849786 0.513189 0.281639
O O15 0.300057 0.750000 0.646447
O O16 0.924298 0.750000 0.066668
O O17 0.662163 0.993905 0.142027
O O18 0.000000 0.000000 0.000000
O O19 0.594520 0.250000 0.798108
#
# Coordination Sequence:
#
# PCOD9162351 Si02
#       7
#     4   4   4   4   4   4   4
#     4   9  18  36  58  80 106 145 191 234 278 336
#     4  12  25  41  60  86 118 153 193 239 287 341
#     4  10  22  36  53  79 113 148 189 236 285 337
#     4  10  20  38  62  87 113 148 190 233 282 341
#     4  10  20  35  55  84 115 145 184 234 284 339
#     4  11  22  38  59  85 116 153 193 238 288 341
#     4   8  17  34  58  83 108 138 183 234 280 333
#
# _framework density 18.729130000000001
#
# number of rings (size 3 to 8) (size 9 to 14) (size 15 to 20)
#    0.000    2.000    0.000    4.714    0.000    4.000 
#    0.000    7.857    0.000    0.000    0.000    0.000 
#    0.000    0.000    0.000    0.000    0.000    0.000 
#
# Total GULP energy -156408.408599 kJ/mol
# GULP energy per Si atom -5586.014593 kJ/mol
# Density = 1.868650 g / cm^3
# Si number density = 18.729130 Si / 1000 Ang^3
#
#
#
# Elastic Constant Matrix: (Units=GPa)
#
#
# Indices 1 2 3 4 5 6 
#
# 1 166.3480 36.7135 127.6146 0.0000 -11.1966 0.0000
# 2 36.7135 56.3948 34.0096 0.0000 -2.6875 0.0000
# 3 127.6146 34.0096 145.2262 0.0000 -7.4563 0.0000
# 4 0.0000 0.0000 0.0000 28.6469 0.0000 2.2583
# 5 -11.1966 -2.6875 -7.4563 0.0000 37.8403 0.0000
# 6 0.0000 0.0000 0.0000 2.2583 0.0000 32.9225
#
#
#
# Elastic Compliance Matrix: (Units=1/GPa)
#
#
# Indices 1 2 3 4 5 6 
#
# 1 0.018974 -0.002631 -0.015940 0.000000 0.002287 0.000000
# 2 -0.002631 0.021023 -0.002601 0.000000 0.000202 0.000000
# 3 -0.015940 -0.002601 0.021467 0.000000 -0.000671 0.000000
# 4 0.000000 0.000000 0.000000 0.035098 0.000000 -0.002407
# 5 0.002287 0.000202 -0.000671 0.000000 0.026986 0.000000
# 6 0.000000 0.000000 0.000000 -0.002407 0.000000 0.030540
#
#
# Mechanical properties :
#
#
# Convention : Reuss Voigt Hill
#
# Bulk Modulus (GPa) = 52.29792 84.96048 68.62920
# Shear Modulus (GPa) = 24.65428 31.19070 27.92249
#
# Velocity S-wave (km/s) = 3.63210 4.08531 3.86535
# Velocity P-wave (km/s) = 6.75081 8.22886 7.52621
#
# Compressibility (1/GPa) = 0.01912122
#
# Stress axis : x y z
#
# Youngs Moduli (GPa) = 52.70279 47.56680 46.58245
#
# Poissons Ratio (x) = 0.12514 0.74252
# Poissons Ratio (y) = 0.13865 0.12117
# Poissons Ratio (z) = 0.84007 0.12373
#
# Static dielectric constant tensor:
#      x y z
#    x 1.605220 0.000000 -0.009970 
#    y 0.000000 1.647770 0.000000 
#    z -0.009970 0.000000 1.644410 
# 
# From -- ./inp_files/23970.got.cif
#   From: 2010.05.17/outbox.cif.g08.bks.cpg/sg11_12_cif.got.tgz:23970.got - 2010.06.03 12:22:45.
