data_PCOD9162391
_publ_section_title
;
Structure prediction by ZEFSAII (Michael W. Deem and Ramdas Pophale) SiO2 
 PCOD9162391
Probable space group: P 21/M
;
_chemical_formula_sum "Si O2"
_cell_formula_units_Z 24
_cell_length_a 8.273030
_cell_length_b 9.245367
_cell_length_c 21.094998
_cell_angle_alpha 90.000000
_cell_angle_beta 45.583979
_cell_angle_gamma 90.000000
_cell_volume 1152.484031
_symmetry_space_group_name_H-M "P 21/M"
_symmetry_group_IT_number 11
_symmetry_cell_setting 'monoclinic'
loop_
_space_group_symop_operation_xyz
x,y,z
-x,1/2+y,-z
-x,-y,-z
x,1/2-y,z
loop_
_atom_site_type_symbol
_atom_site_label
_atom_site_fract_x
_atom_site_fract_y
_atom_site_fract_z
Si Si1 0.042438 0.079913 0.888997
Si Si2 0.943976 0.909314 0.668729
Si Si3 0.591230 0.410141 0.532720
Si Si4 0.175382 0.922342 0.185726
Si Si5 0.360668 0.920518 0.897506
Si Si6 0.773090 0.577643 0.589056
O O1 0.104785 0.250000 0.867661
O O2 0.947407 0.033271 0.846066
O O3 0.829061 0.067252 0.995348
O O4 0.245572 0.993014 0.867051
O O5 0.909642 0.750000 0.706991
O O6 0.749849 0.945587 0.670711
O O7 0.153246 0.894754 0.563793
O O8 0.975912 0.028447 0.712987
O O9 0.500000 0.500000 0.500000
O O10 0.495326 0.250000 0.566973
O O11 0.582606 0.500771 0.599457
O O12 0.210538 0.750000 0.173840
O O13 0.412681 0.001841 0.138130
O O14 0.400618 0.750000 0.875554
O O15 0.781636 0.750000 0.574919
O O16 0.000000 0.500000 0.500000
#
# Coordination Sequence:
#
# PCOD9162391 Si02
#       6
#     4   4   4   4   4   4
#     4   9  20  38  58  84 115 148 192 238 280 333
#     4   9  20  37  54  77 109 143 180 222 272 332
#     4  10  20  35  56  81 107 140 182 228 274 327
#     4  11  22  36  57  84 117 152 187 235 286 337
#     4  10  20  36  60  85 112 150 191 234 285 340
#     4   9  17  32  54  76 101 134 173 218 264 319
#
# _framework density 20.824584999999999
#
# number of rings (size 3 to 8) (size 9 to 14) (size 15 to 20)
#    0.000    2.333    0.000    3.500    0.000    6.000 
#    3.000    0.000    0.000    0.000    0.000    0.000 
#    0.000    0.000    0.000    0.000    0.000    0.000 
#
# Total GULP energy -133704.476722 kJ/mol
# GULP energy per Si atom -5571.019863 kJ/mol
# Density = 2.077719 g / cm^3
# Si number density = 20.824585 Si / 1000 Ang^3
#
#
#
# Elastic Constant Matrix: (Units=GPa)
#
#
# Indices 1 2 3 4 5 6 
#
# 1 150.0016 84.5672 27.3741 0.0000 50.0491 0.0000
# 2 84.5672 127.4265 29.1329 0.0000 35.9087 0.0000
# 3 27.3741 29.1329 30.6108 0.0000 13.2467 0.0000
# 4 0.0000 0.0000 0.0000 26.5913 0.0000 2.6778
# 5 50.0491 35.9087 13.2467 0.0000 37.1229 0.0000
# 6 0.0000 0.0000 0.0000 2.6778 0.0000 35.2235
#
#
#
# Elastic Compliance Matrix: (Units=1/GPa)
#
#
# Indices 1 2 3 4 5 6 
#
# 1 0.014708 -0.005382 -0.002013 0.000000 -0.013904 0.000000
# 2 -0.005382 0.014105 -0.006915 0.000000 -0.003920 0.000000
# 3 -0.002013 -0.006915 0.043733 0.000000 -0.006203 0.000000
# 4 0.000000 0.000000 0.000000 0.037896 0.000000 -0.002881
# 5 -0.013904 -0.003920 -0.006203 0.000000 0.051688 0.000000
# 6 0.000000 0.000000 0.000000 -0.002881 0.000000 0.028609
#
#
# Mechanical properties :
#
#
# Convention : Reuss Voigt Hill
#
# Bulk Modulus (GPa) = 22.76535 65.57637 44.17086
# Shear Modulus (GPa) = 21.36731 30.91852 26.14291
#
# Velocity S-wave (km/s) = 3.20669 3.85738 3.54699
# Velocity P-wave (km/s) = 4.96651 7.16920 6.16699
#
# Compressibility (1/GPa) = 0.04392640
#
# Stress axis : x y z
#
# Youngs Moduli (GPa) = 67.99192 70.89582 22.86578
#
# Poissons Ratio (x) = 0.38159 0.04603
# Poissons Ratio (y) = 0.36596 0.15811
# Poissons Ratio (z) = 0.13687 0.49021
#
# Static dielectric constant tensor:
#      x y z
#    x 1.860970 0.000000 -0.057580 
#    y 0.000000 1.731120 0.000000 
#    z -0.057580 0.000000 1.789310 
# 
# From -- ./inp_files/25740.got.cif
#   From: 2010.05.17/outbox.cif.g08.bks.cpg/sg11_13_cif.got.tgz:25740.got - 2010.06.03 12:22:45.
