data_PCOD9162094
_publ_section_title
;
Structure prediction by ZEFSAII (Michael W. Deem and Ramdas Pophale) SiO2 
 PCOD9162094
Probable space group: P 21/M
;
_chemical_formula_sum "Si O2"
_cell_formula_units_Z 28
_cell_length_a 9.247175
_cell_length_b 14.175964
_cell_length_c 12.770975
_cell_angle_alpha 90.000000
_cell_angle_beta 130.586206
_cell_angle_gamma 90.000000
_cell_volume 1271.371042
_symmetry_space_group_name_H-M "P 21/M"
_symmetry_group_IT_number 11
_symmetry_cell_setting 'monoclinic'
loop_
_space_group_symop_operation_xyz
x,y,z
-x,1/2+y,-z
-x,-y,-z
x,1/2-y,z
loop_
_atom_site_type_symbol
_atom_site_label
_atom_site_fract_x
_atom_site_fract_y
_atom_site_fract_z
Si Si1 0.210062 0.457170 0.108932
Si Si2 0.335899 0.854504 0.237007
Si Si3 0.360477 0.859844 0.926606
Si Si4 0.756423 0.858749 0.459763
Si Si5 0.296754 0.453543 0.785276
Si Si6 0.076309 0.357000 0.851352
Si Si7 0.073378 0.361103 0.245072
O O1 0.341029 0.549060 0.172832
O O2 0.203908 0.408072 0.218623
O O3 0.212616 0.385867 0.013129
O O4 0.000000 0.500000 0.000000
O O5 0.327747 0.750000 0.179417
O O6 0.534998 0.855657 0.391358
O O7 0.142951 0.860779 0.213606
O O8 0.376006 0.750000 0.903070
O O9 0.152294 0.871363 0.883096
O O10 0.352634 0.937431 0.829964
O O11 0.534065 0.890082 0.083130
O O12 0.809842 0.750000 0.458448
O O13 0.758710 0.920974 0.356513
O O14 0.880713 0.892558 0.615416
O O15 0.121821 0.427798 0.780060
O O16 0.115896 0.250000 0.838104
O O17 0.113520 0.250000 0.261657
#
# Coordination Sequence:
#
# PCOD9162094 Si02
#       7
#     4   4   4   4   4   4   4
#     4  10  20  34  58  87 118 153 200 248 303 360
#     4   9  20  36  58  84 116 160 204 246 295 359
#     4  10  22  38  61  89 120 160 204 253 306 360
#     4  10  22  40  63  91 121 162 209 248 296 365
#     4  11  23  38  63  92 123 158 203 254 307 365
#     4  10  20  35  57  90 125 156 197 255 312 361
#     4  10  22  41  64  91 123 159 205 256 300 357
#
# _framework density 22.02347
#
# number of rings (size 3 to 8) (size 9 to 14) (size 15 to 20)
#    0.000    2.000    0.000    3.429    8.000    1.714 
#    0.000    0.000    3.143    0.857    0.000    0.000 
#    0.000    0.000    0.000    0.000    0.000    0.000 
#
# Total GULP energy -156322.190538 kJ/mol
# GULP energy per Si atom -5582.935376 kJ/mol
# Density = 2.197334 g / cm^3
# Si number density = 22.023470 Si / 1000 Ang^3
#
#
#
# Elastic Constant Matrix: (Units=GPa)
#
#
# Indices 1 2 3 4 5 6 
#
# 1 52.0306 34.5818 20.5911 0.0000 -13.4798 0.0000
# 2 34.5818 153.0545 47.7886 0.0000 -11.4407 0.0000
# 3 20.5911 47.7886 101.1984 0.0000 -23.9265 0.0000
# 4 0.0000 0.0000 0.0000 30.7951 0.0000 -1.2439
# 5 -13.4798 -11.4407 -23.9265 0.0000 32.7556 0.0000
# 6 0.0000 0.0000 0.0000 -1.2439 0.0000 25.9439
#
#
#
# Elastic Compliance Matrix: (Units=1/GPa)
#
#
# Indices 1 2 3 4 5 6 
#
# 1 0.024761 -0.004708 -0.000960 0.000000 0.007844 0.000000
# 2 -0.004708 0.008559 -0.003427 0.000000 -0.001451 0.000000
# 3 -0.000960 -0.003427 0.013682 0.000000 0.008402 0.000000
# 4 0.000000 0.000000 0.000000 0.032536 0.000000 0.001560
# 5 0.007844 -0.001451 0.008402 0.000000 0.039387 0.000000
# 6 0.000000 0.000000 0.000000 0.001560 0.000000 0.038620
#
#
# Mechanical properties :
#
#
# Convention : Reuss Voigt Hill
#
# Bulk Modulus (GPa) = 34.70948 56.91183 45.81065
# Shear Modulus (GPa) = 26.97761 31.45371 29.21566
#
# Velocity S-wave (km/s) = 3.50372 3.78324 3.64616
# Velocity P-wave (km/s) = 5.67120 6.70682 6.21063
#
# Compressibility (1/GPa) = 0.02881058
#
# Stress axis : x y z
#
# Youngs Moduli (GPa) = 40.38598 116.83647 73.09056
#
# Poissons Ratio (x) = 0.55012 0.07018
# Poissons Ratio (y) = 0.19016 0.25047
# Poissons Ratio (z) = 0.03878 0.40038
#
# Static dielectric constant tensor:
#      x y z
#    x 1.897150 0.000000 -0.017990 
#    y 0.000000 1.852990 0.000000 
#    z -0.017990 0.000000 1.788850 
# 
# From -- ./inp_files/31969.got.cif
#   From: 2010.05.17/outbox.cif.g08.bks.cpg/sg11_16_cif.got.tgz:31969.got - 2010.06.03 12:22:45.
