data_PCOD9162141
_publ_section_title
;
Structure prediction by ZEFSAII (Michael W. Deem and Ramdas Pophale) SiO2 
 PCOD9162141
Probable space group: P 21/M
;
_chemical_formula_sum "Si O2"
_cell_formula_units_Z 32
_cell_length_a 12.392975
_cell_length_b 8.793126
_cell_length_c 26.275127
_cell_angle_alpha 90.000000
_cell_angle_beta 135.142238
_cell_angle_gamma 90.000000
_cell_volume 2019.611661
_symmetry_space_group_name_H-M "P 21/M"
_symmetry_group_IT_number 11
_symmetry_cell_setting 'monoclinic'
loop_
_space_group_symop_operation_xyz
x,y,z
-x,1/2+y,-z
-x,-y,-z
x,1/2-y,z
loop_
_atom_site_type_symbol
_atom_site_label
_atom_site_fract_x
_atom_site_fract_y
_atom_site_fract_z
Si Si1 0.466143 0.568535 0.196862
Si Si2 0.672277 0.431878 0.471271
Si Si3 0.110838 0.432049 0.370507
Si Si4 0.284075 0.068157 0.220728
Si Si5 0.200920 0.431671 0.700489
Si Si6 0.674068 0.935386 0.649588
Si Si7 0.133129 0.930216 0.078083
Si Si8 0.843085 0.068239 0.425655
O O1 0.471783 0.750000 0.208100
O O2 0.435047 0.485632 0.240301
O O3 0.626244 0.524760 0.225459
O O4 0.305709 0.538174 0.114319
O O5 0.681841 0.250000 0.483113
O O6 0.793016 0.511060 0.548656
O O7 0.498301 0.483645 0.422172
O O8 0.717988 0.458036 0.427875
O O9 0.106504 0.250000 0.369701
O O10 0.203330 0.483714 0.351359
O O11 0.939350 0.494638 0.316552
O O12 0.276381 0.250000 0.217001
O O13 0.287071 0.016056 0.279923
O O14 0.149624 0.999241 0.140460
O O15 0.184861 0.250000 0.697330
O O16 0.189574 0.486983 0.638363
O O17 0.671869 0.750000 0.649334
O O18 0.113381 0.750000 0.074543
O O19 0.000000 0.000000 0.000000
O O20 0.857130 0.250000 0.422465
O O21 0.000000 0.000000 0.500000
#
# Coordination Sequence:
#
# PCOD9162141 Si02
#       8
#     4   4   4   4   4   4   4   4
#     4   8  18  32  48  71 101 127 155 192 232 282
#     4  10  20  35  51  67  90 124 164 209 255 303
#     4  11  22  34  48  67  92 126 169 215 251 290
#     4   9  16  30  52  75  99 129 159 193 240 289
#     4  11  21  35  49  66  94 128 163 203 246 291
#     4   9  19  34  50  69  94 125 166 208 249 292
#     4   9  17  31  49  78 109 133 155 185 229 283
#     4  11  21  32  49  70  93 121 158 204 251 301
#
# _framework density 15.84463
#
# number of rings (size 3 to 8) (size 9 to 14) (size 15 to 20)
#    0.750    1.500    1.250    2.625    0.000    2.500 
#    0.000    4.375    0.000    0.000    0.000    0.875 
#    0.000    0.000    0.000    0.000    0.000    0.000 
#
# Total GULP energy -178202.573295 kJ/mol
# GULP energy per Si atom -5568.830415 kJ/mol
# Density = 1.580857 g / cm^3
# Si number density = 15.844630 Si / 1000 Ang^3
#
#
#
# Elastic Constant Matrix: (Units=GPa)
#
#
# Indices 1 2 3 4 5 6 
#
# 1 116.0284 35.8485 38.8291 0.0000 20.0603 0.0000
# 2 35.8485 34.0822 22.5077 0.0000 10.1115 0.0000
# 3 38.8291 22.5077 68.3870 0.0000 24.2714 0.0000
# 4 0.0000 0.0000 0.0000 16.2249 0.0000 2.0725
# 5 20.0603 10.1115 24.2714 0.0000 19.6910 0.0000
# 6 0.0000 0.0000 0.0000 2.0725 0.0000 19.0682
#
#
#
# Elastic Compliance Matrix: (Units=1/GPa)
#
#
# Indices 1 2 3 4 5 6 
#
# 1 0.013846 -0.011526 -0.002067 0.000000 -0.005640 0.000000
# 2 -0.011526 0.047664 -0.008220 0.000000 -0.002602 0.000000
# 3 -0.002067 -0.008220 0.028898 0.000000 -0.029294 0.000000
# 4 0.000000 0.000000 0.000000 0.062501 0.000000 -0.006793
# 5 -0.005640 -0.002602 -0.029294 0.000000 0.093975 0.000000
# 6 0.000000 0.000000 0.000000 -0.006793 0.000000 0.053182
#
#
# Mechanical properties :
#
#
# Convention : Reuss Voigt Hill
#
# Bulk Modulus (GPa) = 21.37446 45.87424 33.62435
# Shear Modulus (GPa) = 13.91649 19.08431 16.50040
#
# Velocity S-wave (km/s) = 2.96684 3.47431 3.23055
# Velocity P-wave (km/s) = 5.02549 6.71638 5.93150
#
# Compressibility (1/GPa) = 0.04678481
#
# Stress axis : x y z
#
# Youngs Moduli (GPa) = 72.22118 20.98006 34.60435
#
# Poissons Ratio (x) = 0.24181 0.07151
# Poissons Ratio (y) = 0.83241 0.28443
# Poissons Ratio (z) = 0.14925 0.17245
#
# Static dielectric constant tensor:
#      x y z
#    x 1.548230 0.000000 0.023900 
#    y 0.000000 1.531170 0.000000 
#    z 0.023900 0.000000 1.527380 
# 
# From -- ./inp_files/68321.got.cif
#   From: 2010.05.17/outbox.cif.g08.bks.cpg/sg11_35_cif.got.tgz:68321.got - 2010.06.03 12:22:45.
