data_PCOD9162880
_publ_section_title
;
Structure prediction by ZEFSAII (Michael W. Deem and Ramdas Pophale) SiO2 
 PCOD9162880
Probable space group: P 21/M
;
_chemical_formula_sum "Si O2"
_cell_formula_units_Z 32
_cell_length_a 30.724681
_cell_length_b 9.269312
_cell_length_c 5.004655
_cell_angle_alpha 90.000000
_cell_angle_beta 95.166776
_cell_angle_gamma 90.000000
_cell_volume 1419.517665
_symmetry_space_group_name_H-M "P 21/M"
_symmetry_group_IT_number 11
_symmetry_cell_setting 'monoclinic'
loop_
_space_group_symop_operation_xyz
x,y,z
-x,1/2+y,-z
-x,-y,-z
x,1/2-y,z
loop_
_atom_site_type_symbol
_atom_site_label
_atom_site_fract_x
_atom_site_fract_y
_atom_site_fract_z
Si Si1 0.959056 0.103922 0.672826
Si Si2 0.282730 0.918258 0.485408
Si Si3 0.415236 0.079364 0.847995
Si Si4 0.454808 0.926265 0.379826
Si Si5 0.184051 0.917763 0.210535
Si Si6 0.316052 0.082394 0.004119
Si Si7 0.941384 0.955481 0.168861
Si Si8 0.846049 0.910744 0.311762
O O1 0.940935 0.250000 0.784735
O O2 0.011598 0.108285 0.723297
O O3 0.944548 0.094090 0.361890
O O4 0.943818 0.975660 0.854180
O O5 0.295253 0.750000 0.517680
O O6 0.233363 0.924404 0.348580
O O7 0.287414 0.997975 0.769838
O O8 0.311559 0.001839 0.282933
O O9 0.428314 0.250000 0.828891
O O10 0.365524 0.078063 0.923072
O O11 0.420567 0.992717 0.574577
O O12 0.443207 0.992589 0.084404
O O13 0.456005 0.750000 0.380391
O O14 0.500000 0.000000 0.500000
O O15 0.171940 0.750000 0.174035
O O16 0.155365 0.999688 0.415969
O O17 0.179242 0.999940 0.928692
O O18 0.302992 0.250000 0.023489
O O19 0.895341 0.895017 0.230830
O O20 0.827684 0.750000 0.343102
#
# Coordination Sequence:
#
# PCOD9162880 Si02
#       8
#     4   4   4   4   4   4   4   4
#     4  10  20  36  56  80 111 150 193 238 291 353
#     4  11  24  43  66  93 127 165 206 255 314 375
#     4  11  24  43  64  94 132 168 212 266 320 376
#     4  12  25  42  65  93 128 174 222 269 320 376
#     4  11  26  45  65  92 127 165 206 255 308 369
#     4  11  24  41  67  98 130 166 207 261 319 375
#     4  10  22  36  55  83 114 148 191 242 295 350
#     4  12  25  42  65  93 124 162 205 254 307 362
#
# _framework density 22.542866
#
# number of rings (size 3 to 8) (size 9 to 14) (size 15 to 20)
#    0.000    1.000    0.000    6.375    0.000   13.000 
#    0.000    3.750    0.000    0.000    0.000    0.000 
#    0.000    0.000    0.000    0.000    0.000    0.000 
#
# Total GULP energy -178813.704450 kJ/mol
# GULP energy per Si atom -5587.928264 kJ/mol
# Density = 2.249156 g / cm^3
# Si number density = 22.542866 Si / 1000 Ang^3
#
#
#
# Elastic Constant Matrix: (Units=GPa)
#
#
# Indices 1 2 3 4 5 6 
#
# 1 59.3424 24.2848 -3.6841 0.0000 -2.3806 0.0000
# 2 24.2848 185.1492 35.2268 0.0000 4.8991 0.0000
# 3 -3.6841 35.2268 91.9497 0.0000 4.0016 0.0000
# 4 0.0000 0.0000 0.0000 19.7475 0.0000 4.2179
# 5 -2.3806 4.8991 4.0016 0.0000 41.7677 0.0000
# 6 0.0000 0.0000 0.0000 4.2179 0.0000 25.5367
#
#
#
# Elastic Compliance Matrix: (Units=1/GPa)
#
#
# Indices 1 2 3 4 5 6 
#
# 1 0.018126 -0.002737 0.001723 0.000000 0.001189 0.000000
# 2 -0.002737 0.006248 -0.002475 0.000000 -0.000652 0.000000
# 3 0.001723 -0.002475 0.011926 0.000000 -0.000754 0.000000
# 4 0.000000 0.000000 0.000000 0.052491 0.000000 -0.008670
# 5 0.001189 -0.000652 -0.000754 0.000000 0.024158 0.000000
# 6 0.000000 0.000000 0.000000 -0.008670 0.000000 0.040591
#
#
# Mechanical properties :
#
#
# Convention : Reuss Voigt Hill
#
# Bulk Modulus (GPa) = 34.10392 49.78847 41.94620
# Shear Modulus (GPa) = 29.36131 36.11798 32.73964
#
# Velocity S-wave (km/s) = 3.61288 4.00708 3.81508
# Velocity P-wave (km/s) = 5.70660 6.59871 6.16880
#
# Compressibility (1/GPa) = 0.02932214
#
# Stress axis : x y z
#
# Youngs Moduli (GPa) = 55.16943 160.04721 83.85343
#
# Poissons Ratio (x) = 0.43801 -0.14448
# Poissons Ratio (y) = 0.15098 0.20754
# Poissons Ratio (z) = -0.09506 0.39612
#
# Static dielectric constant tensor:
#      x y z
#    x 1.860720 0.000000 -0.013660 
#    y 0.000000 1.797480 0.000000 
#    z -0.013660 0.000000 1.780330 
# 
# From -- ./inp_files/9680.got.cif
#   From: 2010.05.17/outbox.cif.g08.bks.cpg/sg11_5_cif.got.tgz:9680.got - 2010.06.03 12:22:45.
