data_PCOD9162188
_publ_section_title
;
Structure prediction by ZEFSAII (Michael W. Deem and Ramdas Pophale) SiO2 
 PCOD9162188
Probable space group: P 21/M
;
_chemical_formula_sum "Si O2"
_cell_formula_units_Z 28
_cell_length_a 7.538388
_cell_length_b 8.031823
_cell_length_c 21.465060
_cell_angle_alpha 90.000000
_cell_angle_beta 98.817424
_cell_angle_gamma 90.000000
_cell_volume 1284.285499
_symmetry_space_group_name_H-M "P 21/M"
_symmetry_group_IT_number 11
_symmetry_cell_setting 'monoclinic'
loop_
_space_group_symop_operation_xyz
x,y,z
-x,1/2+y,-z
-x,-y,-z
x,1/2-y,z
loop_
_atom_site_type_symbol
_atom_site_label
_atom_site_fract_x
_atom_site_fract_y
_atom_site_fract_z
Si Si1 0.665008 0.451454 0.203709
Si Si2 0.924589 0.948006 0.807573
Si Si3 0.504016 0.049041 0.571865
Si Si4 0.762543 0.550296 0.339595
Si Si5 0.161795 0.549118 0.328173
Si Si6 0.437522 0.935849 0.929536
Si Si7 0.053358 0.056100 0.934571
O O1 0.656442 0.250000 0.201851
O O2 0.872261 0.502145 0.201021
O O3 0.639844 0.509334 0.272809
O O4 0.544511 0.514267 0.138968
O O5 0.917224 0.750000 0.813705
O O6 0.901230 0.027168 0.874299
O O7 0.807891 0.998913 0.742080
O O8 0.504276 0.250000 0.574772
O O9 0.333769 0.989136 0.603152
O O10 0.682634 0.990246 0.617436
O O11 0.500000 0.000000 0.500000
O O12 0.775378 0.750000 0.343616
O O13 0.964762 0.485749 0.339052
O O14 0.157996 0.750000 0.329644
O O15 0.510909 0.750000 0.928950
O O16 0.222169 0.942432 0.925384
O O17 0.500000 0.000000 0.000000
O O18 0.106213 0.250000 0.937029
O O19 0.000000 0.000000 0.000000
#
# Coordination Sequence:
#
# PCOD9162188 Si02
#       7
#     4   4   4   4   4   4   4
#     4   8  16  31  52  76 103 135 177 224 268 321
#     4   9  17  32  54  79 105 137 180 227 273 329
#     4  10  22  38  55  81 114 143 179 226 273 332
#     4   9  18  34  56  79 104 140 182 222 272 330
#     4   9  18  35  57  79 107 143 182 224 275 330
#     4  10  20  35  53  77 109 146 187 233 285 341
#     4  11  21  35  54  77 108 146 187 234 286 340
#
# _framework density 21.802004
#
# number of rings (size 3 to 8) (size 9 to 14) (size 15 to 20)
#    0.000    2.571    0.000    3.000    0.000    5.714 
#    2.571    0.000    0.000    0.000    0.000    0.000 
#    0.000    0.000    0.000    0.000    0.000    0.000 
#
# Total GULP energy -156105.973944 kJ/mol
# GULP energy per Si atom -5575.213355 kJ/mol
# Density = 2.175238 g / cm^3
# Si number density = 21.802004 Si / 1000 Ang^3
#
#
#
# Elastic Constant Matrix: (Units=GPa)
#
#
# Indices 1 2 3 4 5 6 
#
# 1 55.3309 -0.4616 32.0223 0.0000 10.3687 0.0000
# 2 -0.4616 31.0685 7.6119 0.0000 4.6678 0.0000
# 3 32.0223 7.6119 182.6058 0.0000 11.1203 0.0000
# 4 0.0000 0.0000 0.0000 38.9453 0.0000 3.1758
# 5 10.3687 4.6678 11.1203 0.0000 34.7857 0.0000
# 6 0.0000 0.0000 0.0000 3.1758 0.0000 7.4775
#
#
#
# Elastic Compliance Matrix: (Units=1/GPa)
#
#
# Indices 1 2 3 4 5 6 
#
# 1 0.021110 0.001979 -0.003452 0.000000 -0.005454 0.000000
# 2 0.001979 0.033262 -0.001454 0.000000 -0.004588 0.000000
# 3 -0.003452 -0.001454 0.006188 0.000000 -0.000754 0.000000
# 4 0.000000 0.000000 0.000000 0.026598 0.000000 -0.011296
# 5 -0.005454 -0.004588 -0.000754 0.000000 0.031230 0.000000
# 6 0.000000 0.000000 0.000000 -0.011296 0.000000 0.138532
#
#
# Mechanical properties :
#
#
# Convention : Reuss Voigt Hill
#
# Bulk Modulus (GPa) = 18.27987 38.59448 28.43717
# Shear Modulus (GPa) = 17.79300 31.56389 24.67845
#
# Velocity S-wave (km/s) = 2.85988 3.80906 3.36807
# Velocity P-wave (km/s) = 4.39407 6.08982 5.31008
#
# Compressibility (1/GPa) = 0.05470498
#
# Stress axis : x y z
#
# Youngs Moduli (GPa) = 47.37184 30.06434 161.59783
#
# Poissons Ratio (x) = -0.05949 0.55787
# Poissons Ratio (y) = -0.09374 0.23498
# Poissons Ratio (z) = 0.16354 0.04372
#
# Static dielectric constant tensor:
#      x y z
#    x 1.838780 0.000000 0.007180 
#    y 0.000000 1.774940 0.000000 
#    z 0.007180 0.000000 1.851640 
# 
# From -- ./inp_files/29102.got.cif
#   From: 2010.05.17/outbox.cif.g08.bks.cpg/sg11_15_cif.got.tgz:29102.got - 2010.06.03 12:22:45.
