data_PCOD9162441
_publ_section_title
;
Structure prediction by ZEFSAII (Michael W. Deem and Ramdas Pophale) SiO2 
 PCOD9162441
Probable space group: P 21/M
;
_chemical_formula_sum "Si O2"
_cell_formula_units_Z 28
_cell_length_a 30.051074
_cell_length_b 8.502823
_cell_length_c 9.444237
_cell_angle_alpha 90.000000
_cell_angle_beta 141.644797
_cell_angle_gamma 90.000000
_cell_volume 1497.463325
_symmetry_space_group_name_H-M "P 21/M"
_symmetry_group_IT_number 11
_symmetry_cell_setting 'monoclinic'
loop_
_space_group_symop_operation_xyz
x,y,z
-x,1/2+y,-z
-x,-y,-z
x,1/2-y,z
loop_
_atom_site_type_symbol
_atom_site_label
_atom_site_fract_x
_atom_site_fract_y
_atom_site_fract_z
Si Si1 0.497549 0.438612 0.654011
Si Si2 0.225386 0.941332 0.651382
Si Si3 0.934196 0.936981 0.426872
Si Si4 0.363224 0.942118 0.819990
Si Si5 0.066000 0.938158 0.254819
Si Si6 0.361752 0.940456 0.489715
Si Si7 0.779658 0.059963 0.032139
O O1 0.500000 0.500000 0.500000
O O2 0.497915 0.250000 0.651536
O O3 0.427115 0.496827 0.559582
O O4 0.567673 0.491475 0.917081
O O5 0.226817 0.750000 0.652941
O O6 0.290513 0.995838 0.716197
O O7 0.145677 0.990534 0.404269
O O8 0.234119 0.987486 0.838209
O O9 0.936156 0.750000 0.436228
O O10 0.940894 0.004934 0.601546
O O11 0.856404 0.992831 0.178098
O O12 0.000000 0.000000 0.500000
O O13 0.362346 0.750000 0.817461
O O14 0.367263 0.992407 0.666723
O O15 0.065188 0.750000 0.250139
O O16 0.000000 0.000000 0.000000
O O17 0.364286 0.750000 0.493415
O O18 0.286377 0.988312 0.230995
O O19 0.784486 0.250000 0.042200
#
# Coordination Sequence:
#
# PCOD9162441 Si02
#       7
#     4   4   4   4   4   4   4
#     4  11  22  36  56  80 109 144 185 229 273 325
#     4   8  15  30  51  74 103 140 182 222 264 320
#     4  11  22  37  57  81 112 148 187 234 284 338
#     4   9  18  33  54  81 109 140 179 224 271 323
#     4  10  20  35  56  83 113 147 188 234 283 336
#     4  10  20  35  57  83 112 144 179 221 274 333
#     4   9  18  34  55  78 107 145 186 226 270 329
#
# _framework density 18.698284999999998
#
# number of rings (size 3 to 8) (size 9 to 14) (size 15 to 20)
#    0.000    2.286    0.000    4.286    0.000    4.000 
#    0.000    3.571    0.000    6.857    0.000    0.000 
#    0.000    0.000    0.000    0.000    0.000    0.000 
#
# Total GULP energy -156304.388976 kJ/mol
# GULP energy per Si atom -5582.299606 kJ/mol
# Density = 1.865573 g / cm^3
# Si number density = 18.698285 Si / 1000 Ang^3
#
#
#
# Elastic Constant Matrix: (Units=GPa)
#
#
# Indices 1 2 3 4 5 6 
#
# 1 173.1914 28.3889 112.9442 0.0000 22.5315 0.0000
# 2 28.3889 34.5991 40.6151 0.0000 5.6989 0.0000
# 3 112.9442 40.6151 210.4307 0.0000 15.6378 0.0000
# 4 0.0000 0.0000 0.0000 26.1412 0.0000 3.2260
# 5 22.5315 5.6989 15.6378 0.0000 28.9207 0.0000
# 6 0.0000 0.0000 0.0000 3.2260 0.0000 26.7061
#
#
#
# Elastic Compliance Matrix: (Units=1/GPa)
#
#
# Indices 1 2 3 4 5 6 
#
# 1 0.009584 -0.001889 -0.004430 0.000000 -0.004699 0.000000
# 2 -0.001889 0.038107 -0.006139 0.000000 -0.002718 0.000000
# 3 -0.004430 -0.006139 0.008302 0.000000 0.000172 0.000000
# 4 0.000000 0.000000 0.000000 0.038833 0.000000 -0.004691
# 5 -0.004699 -0.002718 0.000172 0.000000 0.038681 0.000000
# 6 0.000000 0.000000 0.000000 -0.004691 0.000000 0.038011
#
#
# Mechanical properties :
#
#
# Convention : Reuss Voigt Hill
#
# Bulk Modulus (GPa) = 32.17931 86.90196 59.54063
# Shear Modulus (GPa) = 24.17879 32.10513 28.14196
#
# Velocity S-wave (km/s) = 3.59987 4.14818 3.88371
# Velocity P-wave (km/s) = 5.87588 8.33786 7.21269
#
# Compressibility (1/GPa) = 0.03107587
#
# Stress axis : x y z
#
# Youngs Moduli (GPa) = 104.34003 26.24213 120.45237
#
# Poissons Ratio (x) = 0.04958 0.53363
# Poissons Ratio (y) = 0.19714 0.73945
# Poissons Ratio (z) = 0.46224 0.16110
#
# Static dielectric constant tensor:
#      x y z
#    x 1.619700 0.000000 0.007580 
#    y 0.000000 1.646570 0.000000 
#    z 0.007580 0.000000 1.640790 
# 
# From -- ./inp_files/28634.got.cif
#   From: 2010.05.17/outbox.cif.g08.bks.cpg/sg11_15_cif.got.tgz:28634.got - 2010.06.03 12:22:45.
