data_PCOD9162910
_publ_section_title
;
Structure prediction by ZEFSAII (Michael W. Deem and Ramdas Pophale) SiO2 
 PCOD9162910
Probable space group: P 21/M
;
_chemical_formula_sum "Si O2"
_cell_formula_units_Z 28
_cell_length_a 15.374455
_cell_length_b 12.691288
_cell_length_c 7.563735
_cell_angle_alpha 90.000000
_cell_angle_beta 110.872317
_cell_angle_gamma 90.000000
_cell_volume 1378.998350
_symmetry_space_group_name_H-M "P 21/M"
_symmetry_group_IT_number 11
_symmetry_cell_setting 'monoclinic'
loop_
_space_group_symop_operation_xyz
x,y,z
-x,1/2+y,-z
-x,-y,-z
x,1/2-y,z
loop_
_atom_site_type_symbol
_atom_site_label
_atom_site_fract_x
_atom_site_fract_y
_atom_site_fract_z
Si Si1 0.651213 0.372121 0.696222
Si Si2 0.061766 0.362662 0.997577
Si Si3 0.477868 0.872781 0.078273
Si Si4 0.210395 0.870334 0.698758
Si Si5 0.145336 0.579798 0.047835
Si Si6 0.011484 0.626231 0.446482
Si Si7 0.390144 0.979295 0.691384
O O1 0.626555 0.250000 0.645846
O O2 0.605911 0.405915 0.849812
O O3 0.763101 0.378807 0.787821
O O4 0.610642 0.442387 0.509922
O O5 0.101855 0.250000 0.075982
O O6 0.956999 0.371048 0.998567
O O7 0.045234 0.369872 0.775437
O O8 0.126476 0.459834 0.093028
O O9 0.471234 0.750000 0.056468
O O10 0.573706 0.904337 0.243771
O O11 0.462829 0.918253 0.871731
O O12 0.247445 0.750000 0.737375
O O13 0.122573 0.869920 0.504709
O O14 0.289669 0.948438 0.693188
O O15 0.169907 0.903142 0.859690
O O16 0.993416 0.750000 0.515483
O O17 0.000000 0.500000 0.500000
#
# Coordination Sequence:
#
# PCOD9162910 Si02
#       7
#     4   4   4   4   4   4   4
#     4  11  21  37  63  90 116 150 196 244 291 347
#     4  10  21  37  55  80 119 157 195 243 299 354
#     4  10  22  40  61  88 119 152 189 240 295 354
#     4  11  20  34  59  85 114 150 197 244 289 344
#     4  11  21  35  58  84 114 150 200 240 294 343
#     4  10  20  36  56  84 115 153 201 248 298 350
#     4  11  22  38  62  89 119 149 193 242 295 351
#
# _framework density 20.304594000000002
#
# number of rings (size 3 to 8) (size 9 to 14) (size 15 to 20)
#    0.000    1.429    2.857    3.857    0.000    1.143 
#    0.000    2.143    0.000    0.000    0.000    0.000 
#    0.000    0.000    0.000    0.000    0.000    0.000 
#
# Total GULP energy -155906.985298 kJ/mol
# GULP energy per Si atom -5568.106618 kJ/mol
# Density = 2.025838 g / cm^3
# Si number density = 20.304594 Si / 1000 Ang^3
#
#
#
# Elastic Constant Matrix: (Units=GPa)
#
#
# Indices 1 2 3 4 5 6 
#
# 1 39.4763 15.5759 -12.3095 0.0000 3.7059 0.0000
# 2 15.5759 78.5519 -5.9222 0.0000 -1.7124 0.0000
# 3 -12.3095 -5.9222 41.1706 0.0000 5.2645 0.0000
# 4 0.0000 0.0000 0.0000 22.4349 0.0000 5.7596
# 5 3.7059 -1.7124 5.2645 0.0000 27.9858 0.0000
# 6 0.0000 0.0000 0.0000 5.7596 0.0000 12.6310
#
#
#
# Elastic Compliance Matrix: (Units=1/GPa)
#
#
# Indices 1 2 3 4 5 6 
#
# 1 0.031003 -0.005584 0.009257 0.000000 -0.006189 0.000000
# 2 -0.005584 0.013881 0.000127 0.000000 0.001565 0.000000
# 3 0.009257 0.000127 0.027902 0.000000 -0.006467 0.000000
# 4 0.000000 0.000000 0.000000 0.050483 0.000000 -0.023020
# 5 -0.006189 0.001565 -0.006467 0.000000 0.037864 0.000000
# 6 0.000000 0.000000 0.000000 -0.023020 0.000000 0.089667
#
#
# Mechanical properties :
#
#
# Convention : Reuss Voigt Hill
#
# Bulk Modulus (GPa) = 12.43990 17.09857 14.76924
# Shear Modulus (GPa) = 18.51877 23.40063 20.95970
#
# Velocity S-wave (km/s) = 3.02329 3.39850 3.21637
# Velocity P-wave (km/s) = 4.28100 4.88253 4.59163
#
# Compressibility (1/GPa) = 0.08038647
#
# Stress axis : x y z
#
# Youngs Moduli (GPa) = 32.25524 72.03864 35.83942
#
# Poissons Ratio (x) = 0.40229 -0.33178
# Poissons Ratio (y) = 0.18013 -0.00455
# Poissons Ratio (z) = -0.29860 -0.00915
#
# Static dielectric constant tensor:
#      x y z
#    x 1.734110 0.000000 -0.024300 
#    y 0.000000 1.843210 0.000000 
#    z -0.024300 0.000000 1.746550 
# 
# From -- ./inp_files/21631.got.cif
#   From: 2010.05.17/outbox.cif.g08.bks.cpg/sg11_11_cif.got.tgz:21631.got - 2010.06.03 12:22:45.
