data_PCOD9162611
_publ_section_title
;
Structure prediction by ZEFSAII (Michael W. Deem and Ramdas Pophale) SiO2 
 PCOD9162611
Probable space group: P 21/M
;
_chemical_formula_sum "Si O2"
_cell_formula_units_Z 28
_cell_length_a 9.388649
_cell_length_b 13.639831
_cell_length_c 17.485979
_cell_angle_alpha 90.000000
_cell_angle_beta 42.096604
_cell_angle_gamma 90.000000
_cell_volume 1501.152467
_symmetry_space_group_name_H-M "P 21/M"
_symmetry_group_IT_number 11
_symmetry_cell_setting 'monoclinic'
loop_
_space_group_symop_operation_xyz
x,y,z
-x,1/2+y,-z
-x,-y,-z
x,1/2-y,z
loop_
_atom_site_type_symbol
_atom_site_label
_atom_site_fract_x
_atom_site_fract_y
_atom_site_fract_z
Si Si1 0.355761 0.366720 0.011834
Si Si2 0.499613 0.634185 0.574243
Si Si3 0.302166 0.017966 0.186162
Si Si4 0.967464 0.135798 0.058670
Si Si5 0.752870 0.635939 0.205158
Si Si6 0.508840 0.043048 0.262036
Si Si7 0.167993 0.467535 0.670272
O O1 0.382723 0.250000 0.993303
O O2 0.344211 0.400664 0.104136
O O3 0.136796 0.395127 0.055811
O O4 0.544277 0.427001 0.896737
O O5 0.464347 0.750000 0.582364
O O6 0.562030 0.603216 0.635552
O O7 0.289998 0.569827 0.638702
O O8 0.679792 0.596516 0.444634
O O9 0.058810 0.986531 0.276300
O O10 0.365062 0.053292 0.245186
O O11 0.918633 0.250000 0.092032
O O12 0.747858 0.078896 0.147709
O O13 0.086308 0.127923 0.930260
O O14 0.702849 0.750000 0.235724
O O15 0.545145 0.570746 0.269934
O O16 0.853029 0.589958 0.241396
#
# Coordination Sequence:
#
# PCOD9162611 Si02
#       7
#     4   4   4   4   4   4   4
#     4  10  22  38  56  84 125 165 197 236 293 354
#     4  10  22  43  66  86 112 156 207 248 291 350
#     4  11  24  37  57  89 125 156 192 244 303 356
#     4  10  20  36  58  84 116 157 200 239 285 352
#     4  10  20  35  58  84 114 155 199 240 286 349
#     4  11  22  36  60  86 122 155 198 242 297 347
#     4  10  23  41  63  89 118 153 198 251 299 347
#
# _framework density 18.652335000000001
#
# number of rings (size 3 to 8) (size 9 to 14) (size 15 to 20)
#    0.000    1.714    1.429    3.000    4.000    4.571 
#    0.000    0.000    0.000    0.000    0.000    0.000 
#    0.000    0.000    0.000    0.000    0.000    0.000 
#
# Total GULP energy -156470.189668 kJ/mol
# GULP energy per Si atom -5588.221060 kJ/mol
# Density = 1.860988 g / cm^3
# Si number density = 18.652335 Si / 1000 Ang^3
#
#
#
# Elastic Constant Matrix: (Units=GPa)
#
#
# Indices 1 2 3 4 5 6 
#
# 1 162.8666 47.3574 43.5905 0.0000 10.3495 0.0000
# 2 47.3574 119.5794 34.9741 0.0000 14.2215 0.0000
# 3 43.5905 34.9741 38.8231 0.0000 7.0888 0.0000
# 4 0.0000 0.0000 0.0000 16.1252 0.0000 3.9184
# 5 10.3495 14.2215 7.0888 0.0000 22.5986 0.0000
# 6 0.0000 0.0000 0.0000 3.9184 0.0000 18.4732
#
#
#
# Elastic Compliance Matrix: (Units=1/GPa)
#
#
# Indices 1 2 3 4 5 6 
#
# 1 0.008846 -0.000749 -0.009127 0.000000 -0.000717 0.000000
# 2 -0.000749 0.011802 -0.009014 0.000000 -0.004257 0.000000
# 3 -0.009127 -0.009014 0.044898 0.000000 -0.004232 0.000000
# 4 0.000000 0.000000 0.000000 0.065385 0.000000 -0.013869
# 5 -0.000717 -0.004257 -0.004232 0.000000 0.048585 0.000000
# 6 0.000000 0.000000 0.000000 -0.013869 0.000000 0.057074
#
#
# Mechanical properties :
#
#
# Convention : Reuss Voigt Hill
#
# Bulk Modulus (GPa) = 36.01367 63.67924 49.84645
# Shear Modulus (GPa) = 17.62892 24.46255 21.04574
#
# Velocity S-wave (km/s) = 3.07764 3.62539 3.36269
# Velocity P-wave (km/s) = 5.65499 7.19297 6.46984
#
# Compressibility (1/GPa) = 0.02776724
#
# Stress axis : x y z
#
# Youngs Moduli (GPa) = 113.04508 84.73356 22.27248
#
# Poissons Ratio (x) = 0.06343 0.20328
# Poissons Ratio (y) = 0.08463 0.20076
# Poissons Ratio (z) = 1.03176 0.76378
#
# Static dielectric constant tensor:
#      x y z
#    x 1.626690 0.000000 0.021830 
#    y 0.000000 1.657910 0.000000 
#    z 0.021830 0.000000 1.634190 
# 
# From -- ./inp_files/58103.got.cif
#   From: 2010.05.17/outbox.cif.g08.bks.cpg/sg11_30_cif.got.tgz:58103.got - 2010.06.03 12:22:45.
