data_PCOD9162488
_publ_section_title
;
Structure prediction by ZEFSAII (Michael W. Deem and Ramdas Pophale) SiO2 
 PCOD9162488
Probable space group: P 21/M
;
_chemical_formula_sum "Si O2"
_cell_formula_units_Z 32
_cell_length_a 12.580701
_cell_length_b 7.705622
_cell_length_c 19.202922
_cell_angle_alpha 90.000000
_cell_angle_beta 48.826133
_cell_angle_gamma 90.000000
_cell_volume 1401.233727
_symmetry_space_group_name_H-M "P 21/M"
_symmetry_group_IT_number 11
_symmetry_cell_setting 'monoclinic'
loop_
_space_group_symop_operation_xyz
x,y,z
-x,1/2+y,-z
-x,-y,-z
x,1/2-y,z
loop_
_atom_site_type_symbol
_atom_site_label
_atom_site_fract_x
_atom_site_fract_y
_atom_site_fract_z
Si Si1 0.369650 0.541856 0.108060
Si Si2 0.455642 0.049121 0.843234
Si Si3 0.063964 0.543946 0.644395
Si Si4 0.917927 0.046192 0.207949
Si Si5 0.129454 0.544283 0.391798
Si Si6 0.790655 0.452527 0.950146
Si Si7 0.688184 0.037930 0.563943
Si Si8 0.385592 0.039827 0.720434
O O1 0.356486 0.750000 0.122327
O O2 0.419823 0.472826 0.161494
O O3 0.239935 0.481629 0.115968
O O4 0.500000 0.500000 0.000000
O O5 0.495223 0.250000 0.813041
O O6 0.413567 0.974828 0.786965
O O7 0.314595 0.044751 0.951489
O O8 0.085719 0.750000 0.640518
O O9 0.070103 0.470277 0.719119
O O10 0.194387 0.475638 0.541228
O O11 0.920646 0.519104 0.661916
O O12 0.947428 0.250000 0.198066
O O13 0.761565 0.021337 0.246614
O O14 0.044039 0.969421 0.107456
O O15 0.141512 0.750000 0.379950
O O16 0.263452 0.482425 0.378916
O O17 0.000000 0.500000 0.500000
O O18 0.751092 0.250000 0.969631
O O19 0.693814 0.250000 0.561727
O O20 0.527750 0.987757 0.618089
O O21 0.379010 0.250000 0.724161
#
# Coordination Sequence:
#
# PCOD9162488 Si02
#       8
#     4   4   4   4   4   4   4   4
#     4   8  15  29  51  79 107 132 163 205 255 313
#     4   9  18  34  56  81 109 138 167 209 266 317
#     4   9  19  36  55  77 108 143 177 217 267 317
#     4  11  24  39  53  73 105 142 181 227 271 309
#     4   9  16  29  53  83 113 142 173 212 260 316
#     4  10  20  35  57  82 107 137 174 215 259 317
#     4   8  16  33  56  80 107 138 171 212 262 313
#     4  10  21  37  56  77 102 137 182 222 257 311
#
# _framework density 22.837016999999999
#
# number of rings (size 3 to 8) (size 9 to 14) (size 15 to 20)
#    0.000    2.750    0.000    1.875    0.000    4.000 
#    0.000    5.625    0.000    0.000    0.000    0.000 
#    0.000    0.000    0.000    0.000    0.000    0.000 
#
# Total GULP energy -178541.857543 kJ/mol
# GULP energy per Si atom -5579.433048 kJ/mol
# Density = 2.278504 g / cm^3
# Si number density = 22.837017 Si / 1000 Ang^3
#
#
#
# Elastic Constant Matrix: (Units=GPa)
#
#
# Indices 1 2 3 4 5 6 
#
# 1 96.8597 -8.2771 33.3936 0.0000 -21.1156 0.0000
# 2 -8.2771 44.4482 -2.6357 0.0000 4.3839 0.0000
# 3 33.3936 -2.6357 68.4717 0.0000 -10.7533 0.0000
# 4 0.0000 0.0000 0.0000 6.0624 0.0000 0.9623
# 5 -21.1156 4.3839 -10.7533 0.0000 39.9478 0.0000
# 6 0.0000 0.0000 0.0000 0.9623 0.0000 22.7634
#
#
#
# Elastic Compliance Matrix: (Units=1/GPa)
#
#
# Indices 1 2 3 4 5 6 
#
# 1 0.013635 0.001659 -0.005725 0.000000 0.005484 0.000000
# 2 0.001659 0.022963 -0.000191 0.000000 -0.001695 0.000000
# 3 -0.005725 -0.000191 0.017664 0.000000 0.001750 0.000000
# 4 0.000000 0.000000 0.000000 0.166065 0.000000 -0.007020
# 5 0.005484 -0.001695 0.001750 0.000000 0.028589 0.000000
# 6 0.000000 0.000000 0.000000 -0.007020 0.000000 0.044227
#
#
# Mechanical properties :
#
#
# Convention : Reuss Voigt Hill
#
# Bulk Modulus (GPa) = 21.85905 28.30457 25.08181
# Shear Modulus (GPa) = 15.77756 26.24131 21.00943
#
# Velocity S-wave (km/s) = 2.63130 3.39347 3.03640
# Velocity P-wave (km/s) = 4.33869 5.27022 4.82698
#
# Compressibility (1/GPa) = 0.04574764
#
# Stress axis : x y z
#
# Youngs Moduli (GPa) = 73.33948 43.54865 56.61231
#
# Poissons Ratio (x) = -0.07224 0.32409
# Poissons Ratio (y) = -0.12165 0.01082
# Poissons Ratio (z) = 0.41985 0.00833
#
# Static dielectric constant tensor:
#      x y z
#    x 1.796980 0.000000 0.007300 
#    y 0.000000 1.850750 0.000000 
#    z 0.007300 0.000000 1.877650 
# 
# From -- ./inp_files/64346.got.cif
#   From: 2010.05.17/outbox.cif.g08.bks.cpg/sg11_33_cif.got.tgz:64346.got - 2010.06.03 12:22:45.
