data_PCOD9162719
_publ_section_title
;
Structure prediction by ZEFSAII (Michael W. Deem and Ramdas Pophale) SiO2 
 PCOD9162719
Probable space group: P 21/M
;
_chemical_formula_sum "Si O2"
_cell_formula_units_Z 32
_cell_length_a 15.332046
_cell_length_b 8.861967
_cell_length_c 12.508092
_cell_angle_alpha 90.000000
_cell_angle_beta 91.687401
_cell_angle_gamma 90.000000
_cell_volume 1698.763576
_symmetry_space_group_name_H-M "P 21/M"
_symmetry_group_IT_number 11
_symmetry_cell_setting 'monoclinic'
loop_
_space_group_symop_operation_xyz
x,y,z
-x,1/2+y,-z
-x,-y,-z
x,1/2-y,z
loop_
_atom_site_type_symbol
_atom_site_label
_atom_site_fract_x
_atom_site_fract_y
_atom_site_fract_z
Si Si1 0.590885 0.071039 0.543557
Si Si2 0.262989 0.430564 0.602386
Si Si3 0.033252 0.069316 0.836476
Si Si4 0.643332 0.070619 0.197572
Si Si5 0.558853 0.570626 0.762515
Si Si6 0.677817 0.929385 0.969472
Si Si7 0.861751 0.070936 0.969097
Si Si8 0.938112 0.931646 0.407722
O O1 0.587222 0.250000 0.530303
O O2 0.500000 0.000000 0.500000
O O3 0.670084 0.005026 0.477748
O O4 0.598594 0.023399 0.667057
O O5 0.270748 0.250000 0.597443
O O6 0.291309 0.486316 0.720612
O O7 0.162922 0.472939 0.577017
O O8 0.049965 0.250000 0.842797
O O9 0.037665 0.022706 0.713012
O O10 0.938851 0.041262 0.886596
O O11 0.102564 0.986088 0.914966
O O12 0.657292 0.250000 0.204408
O O13 0.544071 0.038845 0.230764
O O14 0.655057 0.014041 0.077864
O O15 0.568669 0.750000 0.740832
O O16 0.607750 0.537288 0.874799
O O17 0.678159 0.750000 0.988117
O O18 0.773482 0.984372 0.938383
O O19 0.846113 0.250000 0.972547
O O20 0.944781 0.750000 0.412171
O O21 0.000000 0.000000 0.500000
#
# Coordination Sequence:
#
# PCOD9162719 Si02
#       8
#     4   4   4   4   4   4   4   4
#     4  12  24  40  64  90 120 159 205 255 303 357
#     4  11  23  40  64  93 124 162 205 250 306 366
#     4   9  19  38  61  85 116 152 193 244 301 357
#     4  11  22  38  62  89 119 156 203 252 298 358
#     4  10  23  41  60  86 120 158 201 248 301 359
#     4  11  23  38  57  84 123 162 196 243 302 363
#     4  10  20  35  59  89 117 150 196 246 294 358
#     4  10  23  41  61  87 121 158 198 247 302 361
#
# _framework density 18.837230000000002
#
# number of rings (size 3 to 8) (size 9 to 14) (size 15 to 20)
#    0.000    1.500    1.250    3.750    0.000    5.500 
#    0.000    2.500    0.000    0.000    0.000    0.000 
#    0.000    0.000    0.000    0.000    0.000    0.000 
#
# Total GULP energy -178920.958506 kJ/mol
# GULP energy per Si atom -5591.279953 kJ/mol
# Density = 1.879436 g / cm^3
# Si number density = 18.837230 Si / 1000 Ang^3
#
#
#
# Elastic Constant Matrix: (Units=GPa)
#
#
# Indices 1 2 3 4 5 6 
#
# 1 104.4629 49.1629 77.0687 0.0000 14.3714 0.0000
# 2 49.1629 59.0791 51.0626 0.0000 2.1849 0.0000
# 3 77.0687 51.0626 100.2590 0.0000 -0.9867 0.0000
# 4 0.0000 0.0000 0.0000 27.9576 0.0000 0.2591
# 5 14.3714 2.1849 -0.9867 0.0000 28.7331 0.0000
# 6 0.0000 0.0000 0.0000 0.2591 0.0000 30.8250
#
#
#
# Elastic Compliance Matrix: (Units=1/GPa)
#
#
# Indices 1 2 3 4 5 6 
#
# 1 0.028529 -0.007385 -0.018310 0.000000 -0.014337 0.000000
# 2 -0.007385 0.032380 -0.010806 0.000000 0.000860 0.000000
# 3 -0.018310 -0.010806 0.029661 0.000000 0.010998 0.000000
# 4 0.000000 0.000000 0.000000 0.035771 0.000000 -0.000301
# 5 -0.014337 0.000860 0.010998 0.000000 0.042286 0.000000
# 6 0.000000 0.000000 0.000000 -0.000301 0.000000 0.032444
#
#
# Mechanical properties :
#
#
# Convention : Reuss Voigt Hill
#
# Bulk Modulus (GPa) = 56.92266 68.70995 62.81630
# Shear Modulus (GPa) = 17.86167 23.27026 20.56596
#
# Velocity S-wave (km/s) = 3.08264 3.51854 3.30778
# Velocity P-wave (km/s) = 6.55393 7.28434 6.92877
#
# Compressibility (1/GPa) = 0.01756770
#
# Stress axis : x y z
#
# Youngs Moduli (GPa) = 35.05186 30.88359 33.71426
#
# Poissons Ratio (x) = 0.22807 0.61732
# Poissons Ratio (y) = 0.25885 0.36432
# Poissons Ratio (z) = 0.64181 0.33373
#
# Static dielectric constant tensor:
#      x y z
#    x 1.638050 0.000000 -0.012690 
#    y 0.000000 1.628060 0.000000 
#    z -0.012690 0.000000 1.636350 
# 
# From -- ./inp_files/38142.got.cif
#   From: 2010.05.17/outbox.cif.g08.bks.cpg/sg11_20_cif.got.tgz:38142.got - 2010.06.03 12:22:45.
