data_PCOD9162840
_publ_section_title
;
Structure prediction by ZEFSAII (Michael W. Deem and Ramdas Pophale) SiO2 
 PCOD9162840
Probable space group: P 21/M
;
_chemical_formula_sum "Si O2"
_cell_formula_units_Z 32
_cell_length_a 14.701214
_cell_length_b 27.569609
_cell_length_c 8.260847
_cell_angle_alpha 90.000000
_cell_angle_beta 30.302762
_cell_angle_gamma 90.000000
_cell_volume 1689.387046
_symmetry_space_group_name_H-M "P 21/M"
_symmetry_group_IT_number 11
_symmetry_cell_setting 'monoclinic'
loop_
_space_group_symop_operation_xyz
x,y,z
-x,1/2+y,-z
-x,-y,-z
x,1/2-y,z
loop_
_atom_site_type_symbol
_atom_site_label
_atom_site_fract_x
_atom_site_fract_y
_atom_site_fract_z
Si Si1 0.125067 0.306354 0.475446
Si Si2 0.497454 0.092400 0.131447
Si Si3 0.142611 0.614115 0.260657
Si Si4 0.368621 0.010774 0.551330
Si Si5 0.161965 0.408769 0.049901
Si Si6 0.866170 0.858490 0.211783
Si Si7 0.786103 0.408786 0.208595
Si Si8 0.446081 0.127772 0.863917
O O1 0.108974 0.250000 0.464025
O O2 0.109504 0.315750 0.694044
O O3 0.970447 0.338468 0.623835
O O4 0.318523 0.327834 0.117707
O O5 0.475201 0.040283 0.249646
O O6 0.338777 0.124677 0.452008
O O7 0.686882 0.117421 0.883126
O O8 0.458213 0.093401 0.001894
O O9 0.996303 0.581959 0.579940
O O10 0.217547 0.591577 0.979891
O O11 0.500000 0.000000 0.500000
O O12 0.283543 0.960497 0.624542
O O13 0.212080 0.046060 0.860578
O O14 0.107743 0.362123 0.021821
O O15 0.338829 0.396165 0.880925
O O16 0.010875 0.897514 0.053659
O O17 0.651064 0.367603 0.486509
#
# Coordination Sequence:
#
# PCOD9162840 Si02
#       8
#     4   4   4   4   4   4   4   4
#     4   9  20  40  63  87 108 136 182 235 293 362
#     4  10  20  36  55  83 117 156 194 236 286 334
#     4  10  20  36  59  82 115 151 187 237 294 339
#     4  11  20  36  55  81 119 161 208 243 273 341
#     4  10  20  36  55  82 117 156 194 236 286 333
#     4   9  20  37  59  82 114 150 185 237 293 336
#     4  11  20  36  56  83 117 158 196 239 283 335
#     4  10  20  36  59  82 116 151 186 237 293 338
#
# _framework density 18.941780000000001
#
# number of rings (size 3 to 8) (size 9 to 14) (size 15 to 20)
#    0.000    2.000    2.500    2.250    0.000    3.000 
#    0.000    7.500    0.000    0.000    0.000    0.000 
#    0.000    0.000    0.000    0.000    0.000    0.000 
#
# Total GULP energy -178182.115402 kJ/mol
# GULP energy per Si atom -5568.191106 kJ/mol
# Density = 1.889867 g / cm^3
# Si number density = 18.941780 Si / 1000 Ang^3
#
#
#
# Elastic Constant Matrix: (Units=GPa)
#
#
# Indices 1 2 3 4 5 6 
#
# 1 74.2609 18.7819 -0.5975 0.0000 -1.6984 0.0000
# 2 18.7819 85.8621 31.1118 0.0000 -4.7503 0.0000
# 3 -0.5975 31.1118 77.5456 0.0000 -0.0407 0.0000
# 4 0.0000 0.0000 0.0000 16.7067 0.0000 2.4911
# 5 -1.6984 -4.7503 -0.0407 0.0000 40.4228 0.0000
# 6 0.0000 0.0000 0.0000 2.4911 0.0000 17.7380
#
#
#
# Elastic Compliance Matrix: (Units=1/GPa)
#
#
# Indices 1 2 3 4 5 6 
#
# 1 0.014426 -0.003729 0.001607 0.000000 0.000170 0.000000
# 2 -0.003729 0.014695 -0.005924 0.000000 0.001564 0.000000
# 3 0.001607 -0.005924 0.015284 0.000000 -0.000613 0.000000
# 4 0.000000 0.000000 0.000000 0.061137 0.000000 -0.008586
# 5 0.000170 0.001564 -0.000613 0.000000 0.024929 0.000000
# 6 0.000000 0.000000 0.000000 -0.008586 0.000000 0.057582
#
#
# Mechanical properties :
#
#
# Convention : Reuss Voigt Hill
#
# Bulk Modulus (GPa) = 35.31678 37.36235 36.33957
# Shear Modulus (GPa) = 23.41031 27.53166 25.47099
#
# Velocity S-wave (km/s) = 3.51936 3.81660 3.67099
# Velocity P-wave (km/s) = 5.93295 6.26016 6.09875
#
# Compressibility (1/GPa) = 0.02831515
#
# Stress axis : x y z
#
# Youngs Moduli (GPa) = 69.31997 68.04962 65.42649
#
# Poissons Ratio (x) = 0.25373 -0.10515
# Poissons Ratio (y) = 0.25846 0.38757
# Poissons Ratio (z) = -0.11141 0.40311
#
# Static dielectric constant tensor:
#      x y z
#    x 1.698680 0.000000 0.021400 
#    y 0.000000 1.641050 0.000000 
#    z 0.021400 0.000000 1.693340 
# 
# From -- ./inp_files/23458.got.cif
#   From: 2010.05.17/outbox.cif.g08.bks.cpg/sg11_12_cif.got.tgz:23458.got - 2010.06.03 12:22:45.
