data_PCOD9162865
_publ_section_title
;
Structure prediction by ZEFSAII (Michael W. Deem and Ramdas Pophale) SiO2 
 PCOD9162865
Probable space group: P 21/M
;
_chemical_formula_sum "Si O2"
_cell_formula_units_Z 32
_cell_length_a 14.036792
_cell_length_b 7.384408
_cell_length_c 32.749137
_cell_angle_alpha 90.000000
_cell_angle_beta 157.194240
_cell_angle_gamma 90.000000
_cell_volume 1315.759251
_symmetry_space_group_name_H-M "P 21/M"
_symmetry_group_IT_number 11
_symmetry_cell_setting 'monoclinic'
loop_
_space_group_symop_operation_xyz
x,y,z
-x,1/2+y,-z
-x,-y,-z
x,1/2-y,z
loop_
_atom_site_type_symbol
_atom_site_label
_atom_site_fract_x
_atom_site_fract_y
_atom_site_fract_z
Si Si1 0.095500 0.530732 0.445816
Si Si2 0.565755 0.527579 0.214830
Si Si3 0.886064 0.970113 0.086496
Si Si4 0.487833 0.536290 0.542460
Si Si5 0.713650 0.035896 0.396611
Si Si6 0.653651 0.959926 0.157056
Si Si7 0.249614 0.954383 0.160534
Si Si8 0.993285 0.956368 0.219634
O O1 0.079619 0.750000 0.442411
O O2 0.224278 0.476402 0.455009
O O3 0.284064 0.473957 0.555528
O O4 0.815836 0.468461 0.336729
O O5 0.554476 0.750000 0.210438
O O6 0.602778 0.467442 0.182720
O O7 0.332675 0.465510 0.149612
O O8 0.906960 0.750000 0.094490
O O9 0.959490 0.034387 0.160891
O O10 0.055373 0.036836 0.115618
O O11 0.608063 0.026120 0.968365
O O12 0.500000 0.500000 0.500000
O O13 0.503752 0.750000 0.556515
O O14 0.721014 0.453309 0.656750
O O15 0.668973 0.250000 0.376376
O O16 0.506155 0.947042 0.287286
O O17 0.000000 0.000000 0.500000
O O18 0.728497 0.750000 0.193668
O O19 0.850214 0.038120 0.202334
O O20 0.163748 0.750000 0.118282
O O21 0.897074 0.750000 0.178877
#
# Coordination Sequence:
#
# PCOD9162865 Si02
#       8
#     4   4   4   4   4   4   4   4
#     4   9  18  33  54  78 109 149 187 219 266 334
#     4   9  17  33  55  77 105 146 187 220 264 329
#     4  10  22  38  58  84 113 142 178 237 296 329
#     4  11  22  36  57  85 116 151 187 227 274 329
#     4  11  20  33  55  82 110 145 185 226 268 322
#     4  10  21  37  60  81 103 144 191 231 276 340
#     4  10  20  36  56  79 112 149 182 224 280 334
#     4  10  21  39  59  81 111 146 186 231 282 336
#
# _framework density 24.32056
#
# number of rings (size 3 to 8) (size 9 to 14) (size 15 to 20)
#    0.000    2.000    1.250    2.625    0.000    4.000 
#    0.000    2.500    0.000    0.000    0.000    0.000 
#    0.000    0.000    0.000    0.000    0.000    0.000 
#
# Total GULP energy -178702.792499 kJ/mol
# GULP energy per Si atom -5584.462266 kJ/mol
# Density = 2.426521 g / cm^3
# Si number density = 24.320560 Si / 1000 Ang^3
#
#
#
# Elastic Constant Matrix: (Units=GPa)
#
#
# Indices 1 2 3 4 5 6 
#
# 1 155.7099 11.7158 -2.7914 0.0000 11.8780 0.0000
# 2 11.7158 92.1013 -10.6374 0.0000 2.0023 0.0000
# 3 -2.7914 -10.6374 45.4004 0.0000 2.6682 0.0000
# 4 0.0000 0.0000 0.0000 17.6110 0.0000 -1.7490
# 5 11.8780 2.0023 2.6682 0.0000 41.6041 0.0000
# 6 0.0000 0.0000 0.0000 -1.7490 0.0000 -3.7603
#
#
#
# Elastic Compliance Matrix: (Units=1/GPa)
#
#
# Indices 1 2 3 4 5 6 
#
# 1 0.006629 -0.000763 0.000339 0.000000 -0.001878 0.000000
# 2 -0.000763 0.011268 0.002622 0.000000 -0.000493 0.000000
# 3 0.000339 0.002622 0.022760 0.000000 -0.001683 0.000000
# 4 0.000000 0.000000 0.000000 0.054276 0.000000 -0.025245
# 5 -0.001878 -0.000493 -0.001683 0.000000 0.024704 0.000000
# 6 0.000000 0.000000 0.000000 -0.025245 0.000000 -0.254192
#
#
# Mechanical properties :
#
#
# Convention : Reuss Voigt Hill
#
# Bulk Modulus (GPa) = 22.19576 32.19838 27.19707
# Shear Modulus (GPa) = -40.34422 30.75259 -4.79581
#
# Velocity S-wave (km/s) = -4.07732 3.55979 -1.40577
# Velocity P-wave (km/s) = 3.60831 5.49218 2.92781
#
# Compressibility (1/GPa) = 0.04505366
#
# Stress axis : x y z
#
# Youngs Moduli (GPa) = 150.85380 88.74480 43.93602
#
# Poissons Ratio (x) = 0.06773 -0.01490
# Poissons Ratio (y) = 0.11514 -0.11521
# Poissons Ratio (z) = -0.05115 -0.23271
#
# Static dielectric constant tensor:
#      x y z
#    x 2.027350 0.000000 -0.012820 
#    y 0.000000 1.932820 0.000000 
#    z -0.012820 0.000000 1.849620 
# 
# From -- ./inp_files/73192.got.cif
#   From: 2010.05.17/outbox.cif.g08.bks.cpg/sg11_37_cif.got.tgz:73192.got - 2010.06.03 12:22:45.
