data_PCOD9162252
_publ_section_title
;
Structure prediction by ZEFSAII (Michael W. Deem and Ramdas Pophale) SiO2 
 PCOD9162252
Probable space group: P 21/M
;
_chemical_formula_sum "Si O2"
_cell_formula_units_Z 32
_cell_length_a 15.088939
_cell_length_b 7.595463
_cell_length_c 23.242088
_cell_angle_alpha 90.000000
_cell_angle_beta 31.192410
_cell_angle_gamma 90.000000
_cell_volume 1379.575557
_symmetry_space_group_name_H-M "P 21/M"
_symmetry_group_IT_number 11
_symmetry_cell_setting 'monoclinic'
loop_
_space_group_symop_operation_xyz
x,y,z
-x,1/2+y,-z
-x,-y,-z
x,1/2-y,z
loop_
_atom_site_type_symbol
_atom_site_label
_atom_site_fract_x
_atom_site_fract_y
_atom_site_fract_z
Si Si1 0.107111 0.465685 0.293491
Si Si2 0.460415 0.455682 0.146143
Si Si3 0.642390 0.539686 0.469252
Si Si4 0.625163 0.037026 0.294849
Si Si5 0.528068 0.453269 0.229187
Si Si6 0.093047 0.459636 0.766137
Si Si7 0.860093 0.039388 0.527653
Si Si8 0.241140 0.451807 0.097451
O O1 0.100407 0.250000 0.296017
O O2 0.272878 0.526276 0.237439
O O3 0.153203 0.527863 0.203697
O O4 0.940397 0.521815 0.421755
O O5 0.432544 0.250000 0.173811
O O6 0.543453 0.534638 0.157417
O O7 0.585482 0.466903 0.022550
O O8 0.500000 0.500000 0.500000
O O9 0.663294 0.750000 0.463234
O O10 0.550963 0.471214 0.577156
O O11 0.811799 0.468353 0.344547
O O12 0.613779 0.250000 0.300027
O O13 0.626983 0.969152 0.228897
O O14 0.784793 0.994913 0.247333
O O15 0.585704 0.250000 0.193645
O O16 0.324807 0.458651 0.356374
O O17 0.078360 0.250000 0.769435
O O18 0.903747 0.535109 0.871100
O O19 0.838729 0.250000 0.537549
O O20 0.000000 0.000000 0.500000
O O21 0.281799 0.250000 0.087345
#
# Coordination Sequence:
#
# PCOD9162252 Si02
#       8
#     4   4   4   4   4   4   4   4
#     4   9  20  38  59  84 117 151 185 232 290 340
#     4  10  20  40  61  80 113 151 189 236 290 341
#     4   8  15  28  47  72 104 138 176 217 265 324
#     4   9  18  34  56  82 113 151 189 229 279 340
#     4  10  21  37  60  87 119 155 190 232 286 343
#     4  10  20  35  54  81 114 149 189 237 287 335
#     4  11  21  37  59  87 121 155 189 231 284 342
#     4  11  23  38  58  84 112 148 196 242 285 337
#
# _framework density 23.195542
#
# number of rings (size 3 to 8) (size 9 to 14) (size 15 to 20)
#    0.000    2.250    1.250    1.500    1.750    1.500 
#    0.000    3.125    0.000    0.000    0.000    0.000 
#    0.000    0.000    0.000    0.000    0.000    0.000 
#
# Total GULP energy -178621.804713 kJ/mol
# GULP energy per Si atom -5581.931397 kJ/mol
# Density = 2.314275 g / cm^3
# Si number density = 23.195542 Si / 1000 Ang^3
#
#
#
# Elastic Constant Matrix: (Units=GPa)
#
#
# Indices 1 2 3 4 5 6 
#
# 1 86.0911 -0.2133 9.2349 0.0000 25.8405 0.0000
# 2 -0.2133 61.7524 -7.4004 0.0000 3.3007 0.0000
# 3 9.2349 -7.4004 67.4470 0.0000 13.1670 0.0000
# 4 0.0000 0.0000 0.0000 19.3268 0.0000 0.4339
# 5 25.8405 3.3007 13.1670 0.0000 31.3568 0.0000
# 6 0.0000 0.0000 0.0000 0.4339 0.0000 9.2863
#
#
#
# Elastic Compliance Matrix: (Units=1/GPa)
#
#
# Indices 1 2 3 4 5 6 
#
# 1 0.015483 0.000814 0.000520 0.000000 -0.013063 0.000000
# 2 0.000814 0.016666 0.002386 0.000000 -0.003427 0.000000
# 3 0.000520 0.002386 0.016503 0.000000 -0.007609 0.000000
# 4 0.000000 0.000000 0.000000 0.051796 0.000000 -0.002420
# 5 -0.013063 -0.003427 -0.007609 0.000000 0.046212 0.000000
# 6 0.000000 0.000000 0.000000 -0.002420 0.000000 0.107798
#
#
# Mechanical properties :
#
#
# Convention : Reuss Voigt Hill
#
# Bulk Modulus (GPa) = 17.82842 24.28144 21.05493
# Shear Modulus (GPa) = 18.81721 26.23861 22.52791
#
# Velocity S-wave (km/s) = 2.85132 3.36697 3.11982
# Velocity P-wave (km/s) = 4.30614 5.06025 4.69835
#
# Compressibility (1/GPa) = 0.05609022
#
# Stress axis : x y z
#
# Youngs Moduli (GPa) = 64.58797 60.00367 60.59676
#
# Poissons Ratio (x) = -0.04884 -0.03148
# Poissons Ratio (y) = -0.05257 -0.14459
# Poissons Ratio (z) = -0.03356 -0.14318
#
# Static dielectric constant tensor:
#      x y z
#    x 1.919030 0.000000 0.040530 
#    y 0.000000 1.854790 0.000000 
#    z 0.040530 0.000000 1.850490 
# 
# From -- ./inp_files/68961.got.cif
#   From: 2010.05.17/outbox.cif.g08.bks.cpg/sg11_35_cif.got.tgz:68961.got - 2010.06.03 12:22:45.
