data_PCOD9162025
_publ_section_title
;
Structure prediction by ZEFSAII (Michael W. Deem and Ramdas Pophale) SiO2 
 PCOD9162025
Probable space group: P 21/M
;
_chemical_formula_sum "Si O2"
_cell_formula_units_Z 24
_cell_length_a 15.250046
_cell_length_b 13.932004
_cell_length_c 9.176834
_cell_angle_alpha 90.000000
_cell_angle_beta 38.859683
_cell_angle_gamma 90.000000
_cell_volume 1223.299255
_symmetry_space_group_name_H-M "P 21/M"
_symmetry_group_IT_number 11
_symmetry_cell_setting 'monoclinic'
loop_
_space_group_symop_operation_xyz
x,y,z
-x,1/2+y,-z
-x,-y,-z
x,1/2-y,z
loop_
_atom_site_type_symbol
_atom_site_label
_atom_site_fract_x
_atom_site_fract_y
_atom_site_fract_z
Si Si1 0.749922 0.250000 0.224975
Si Si2 0.215198 0.884377 0.374366
Si Si3 0.415316 0.750000 0.286257
Si Si4 0.107814 0.357641 0.161996
Si Si5 0.084182 0.950907 0.026807
Si Si6 0.624103 0.750000 0.776964
Si Si7 0.840783 0.599569 0.563894
Si Si8 0.671292 0.250000 0.999168
O O1 0.618057 0.250000 0.503275
O O2 0.833473 0.353259 0.131155
O O3 0.687506 0.250000 0.146375
O O4 0.331874 0.840284 0.327331
O O5 0.246134 0.838253 0.178625
O O6 0.061468 0.859293 0.631169
O O7 0.223959 0.995491 0.345054
O O8 0.566123 0.750000 0.018895
O O9 0.155747 0.250000 0.052789
O O10 0.156506 0.454266 0.011460
O O11 0.133061 0.367271 0.303935
O O12 0.979837 0.910429 0.287036
O O13 0.000000 0.000000 0.000000
O O14 0.727352 0.662018 0.627232
O O15 0.487127 0.750000 0.854782
#
# Coordination Sequence:
#
# PCOD9162025 Si02
#       8
#     2   4   2   4   4   2   4   2
#     4  12  21  40  59  84 128 158 206 239 298 378
#     4   9  18  34  58  82 115 146 196 237 296 354
#     4  10  22  37  59  78 111 167 199 247 279 350
#     4  11  19  35  61  91 123 154 198 249 302 364
#     4  11  25  36  63  97 126 161 185 245 327 374
#     4  10  23  39  57  88 112 159 211 251 297 322
#     4  11  20  37  60  90 118 148 195 255 302 355
#     4  10  20  34  57  82 109 162 204 243 280 348
#
# _framework density 19.619074999999999
#
# number of rings (size 3 to 8) (size 9 to 14) (size 15 to 20)
#    0.000    1.667    2.500    6.500    1.167    2.667 
#    0.000    1.667    0.000    4.000    0.000    0.000 
#    0.000    0.000    0.000    0.000    0.000    0.000 
#
# Total GULP energy -133669.652037 kJ/mol
# GULP energy per Si atom -5569.568835 kJ/mol
# Density = 1.957442 g / cm^3
# Si number density = 19.619075 Si / 1000 Ang^3
#
#
#
# Elastic Constant Matrix: (Units=GPa)
#
#
# Indices 1 2 3 4 5 6 
#
# 1 53.5062 18.2840 12.0956 0.0000 17.4811 0.0000
# 2 18.2840 152.3586 15.2142 0.0000 -7.9218 0.0000
# 3 12.0956 15.2142 32.9092 0.0000 13.3386 0.0000
# 4 0.0000 0.0000 0.0000 8.0014 0.0000 2.7129
# 5 17.4811 -7.9218 13.3386 0.0000 33.9473 0.0000
# 6 0.0000 0.0000 0.0000 2.7129 0.0000 39.2339
#
#
#
# Elastic Compliance Matrix: (Units=1/GPa)
#
#
# Indices 1 2 3 4 5 6 
#
# 1 0.024429 -0.003337 -0.002405 0.000000 -0.012413 0.000000
# 2 -0.003337 0.007683 -0.004459 0.000000 0.005263 0.000000
# 3 -0.002405 -0.004459 0.039550 0.000000 -0.015342 0.000000
# 4 0.000000 0.000000 0.000000 0.127978 0.000000 -0.008849
# 5 -0.012413 0.005263 -0.015342 0.000000 0.043106 0.000000
# 6 0.000000 0.000000 0.000000 -0.008849 0.000000 0.026100
#
#
# Mechanical properties :
#
#
# Convention : Reuss Voigt Hill
#
# Bulk Modulus (GPa) = 19.50780 36.66243 28.08511
# Shear Modulus (GPa) = 16.32206 29.11521 22.71863
#
# Velocity S-wave (km/s) = 2.88748 3.85648 3.40661
# Velocity P-wave (km/s) = 4.59147 6.20948 5.46074
#
# Compressibility (1/GPa) = 0.05126154
#
# Stress axis : x y z
#
# Youngs Moduli (GPa) = 40.93508 130.16115 25.28437
#
# Poissons Ratio (x) = 0.43434 0.06080
# Poissons Ratio (y) = 0.13660 0.11273
# Poissons Ratio (z) = 0.09844 0.58033
#
# Static dielectric constant tensor:
#      x y z
#    x 1.701210 0.000000 0.029360 
#    y 0.000000 1.751710 0.000000 
#    z 0.029360 0.000000 1.693040 
# 
# From -- ./inp_files/22071.got.cif
#   From: 2010.05.17/outbox.cif.g08.bks.cpg/sg11_12_cif.got.tgz:22071.got - 2010.06.03 12:22:45.
