data_PCOD9162542
_publ_section_title
;
Structure prediction by ZEFSAII (Michael W. Deem and Ramdas Pophale) SiO2 
 PCOD9162542
Probable space group: P 21/M
;
_chemical_formula_sum "Si O2"
_cell_formula_units_Z 28
_cell_length_a 14.114789
_cell_length_b 8.452191
_cell_length_c 19.102555
_cell_angle_alpha 90.000000
_cell_angle_beta 36.992914
_cell_angle_gamma 90.000000
_cell_volume 1371.282364
_symmetry_space_group_name_H-M "P 21/M"
_symmetry_group_IT_number 11
_symmetry_cell_setting 'monoclinic'
loop_
_space_group_symop_operation_xyz
x,y,z
-x,1/2+y,-z
-x,-y,-z
x,1/2-y,z
loop_
_atom_site_type_symbol
_atom_site_label
_atom_site_fract_x
_atom_site_fract_y
_atom_site_fract_z
Si Si1 0.498417 0.061603 0.702696
Si Si2 0.750673 0.058481 0.958190
Si Si3 0.584943 0.940160 0.804382
Si Si4 0.367848 0.560545 0.525130
Si Si5 0.835107 0.439134 0.068640
Si Si6 0.936387 0.560199 0.611509
Si Si7 0.037120 0.439275 0.696423
O O1 0.516882 0.250000 0.698811
O O2 0.585383 0.008215 0.581110
O O3 0.561168 0.982695 0.736767
O O4 0.314192 0.018482 0.805832
O O5 0.744893 0.250000 0.955347
O O6 0.877111 0.999833 0.827671
O O7 0.570091 0.999606 0.063177
O O8 0.814853 0.023551 0.998166
O O9 0.584875 0.750000 0.809930
O O10 0.755729 0.997421 0.727457
O O11 0.500000 0.500000 0.500000
O O12 0.366344 0.750000 0.527364
O O13 0.193315 0.497788 0.643259
O O14 0.824138 0.250000 0.082899
O O15 0.000000 0.500000 0.000000
O O16 0.938805 0.750000 0.609761
O O17 0.037166 0.499269 0.616957
O O18 0.000000 0.500000 0.500000
O O19 0.035720 0.250000 0.698204
#
# Coordination Sequence:
#
# PCOD9162542 Si02
#       7
#     4   4   4   4   4   4   4
#     4  10  21  37  57  83 114 148 192 244 297 353
#     4   8  18  37  58  82 117 156 194 240 295 352
#     4   9  19  38  62  86 116 156 198 242 295 354
#     4  11  25  42  60  84 117 157 202 250 303 362
#     4  10  20  35  57  84 115 152 196 244 293 350
#     4  11  23  39  62  91 122 158 202 250 299 356
#     4  11  23  40  62  88 121 159 197 245 304 361
#
# _framework density 20.418844
#
# number of rings (size 3 to 8) (size 9 to 14) (size 15 to 20)
#    0.000    2.000    0.000    3.857    2.000    6.286 
#    0.000    6.429    0.000    0.000    0.000    0.000 
#    0.000    0.000    0.000    0.000    0.000    0.000 
#
# Total GULP energy -156439.106044 kJ/mol
# GULP energy per Si atom -5587.110930 kJ/mol
# Density = 2.037237 g / cm^3
# Si number density = 20.418844 Si / 1000 Ang^3
#
#
#
# Elastic Constant Matrix: (Units=GPa)
#
#
# Indices 1 2 3 4 5 6 
#
# 1 77.0085 9.3767 45.3062 0.0000 -26.0101 0.0000
# 2 9.3767 21.2670 16.1361 0.0000 -1.4045 0.0000
# 3 45.3062 16.1361 117.1912 0.0000 -7.2496 0.0000
# 4 0.0000 0.0000 0.0000 26.6557 0.0000 -3.6161
# 5 -26.0101 -1.4045 -7.2496 0.0000 36.2869 0.0000
# 6 0.0000 0.0000 0.0000 -3.6161 0.0000 28.5082
#
#
#
# Elastic Compliance Matrix: (Units=1/GPa)
#
#
# Indices 1 2 3 4 5 6 
#
# 1 0.022711 -0.003430 -0.007401 0.000000 0.014668 0.000000
# 2 -0.003430 0.053037 -0.006077 0.000000 -0.001620 0.000000
# 3 -0.007401 -0.006077 0.012037 0.000000 -0.003135 0.000000
# 4 0.000000 0.000000 0.000000 0.038172 0.000000 0.004842
# 5 0.014668 -0.001620 -0.003135 0.000000 0.037383 0.000000
# 6 0.000000 0.000000 0.000000 0.004842 0.000000 0.035692
#
#
# Mechanical properties :
#
#
# Convention : Reuss Voigt Hill
#
# Bulk Modulus (GPa) = 18.52846 39.67829 29.10338
# Shear Modulus (GPa) = 19.93323 27.93336 23.93329
#
# Velocity S-wave (km/s) = 3.12784 3.70269 3.42733
# Velocity P-wave (km/s) = 4.70514 6.14445 5.47232
#
# Compressibility (1/GPa) = 0.05397101
#
# Stress axis : x y z
#
# Youngs Moduli (GPa) = 44.03086 18.85468 83.07749
#
# Poissons Ratio (x) = 0.06466 0.61482
# Poissons Ratio (y) = 0.15101 0.50486
# Poissons Ratio (z) = 0.32585 0.11458
#
# Static dielectric constant tensor:
#      x y z
#    x 1.693230 0.000000 -0.013430 
#    y 0.000000 1.697970 0.000000 
#    z -0.013430 0.000000 1.761120 
# 
# From -- ./inp_files/65159.got.cif
#   From: 2010.05.17/outbox.cif.g08.bks.cpg/sg11_33_cif.got.tgz:65159.got - 2010.06.03 12:22:45.
