data_PCOD9162598
_publ_section_title
;
Structure prediction by ZEFSAII (Michael W. Deem and Ramdas Pophale) SiO2 
 PCOD9162598
Probable space group: P 21/M
;
_chemical_formula_sum "Si O2"
_cell_formula_units_Z 32
_cell_length_a 27.114025
_cell_length_b 8.054300
_cell_length_c 21.676810
_cell_angle_alpha 90.000000
_cell_angle_beta 159.295574
_cell_angle_gamma 90.000000
_cell_volume 1673.649258
_symmetry_space_group_name_H-M "P 21/M"
_symmetry_group_IT_number 11
_symmetry_cell_setting 'monoclinic'
loop_
_space_group_symop_operation_xyz
x,y,z
-x,1/2+y,-z
-x,-y,-z
x,1/2-y,z
loop_
_atom_site_type_symbol
_atom_site_label
_atom_site_fract_x
_atom_site_fract_y
_atom_site_fract_z
Si Si1 0.934120 0.550384 0.987060
Si Si2 0.160374 0.549401 0.691377
Si Si3 0.654107 0.049397 0.343884
Si Si4 0.654179 0.447808 0.976066
Si Si5 0.356651 0.450074 0.300352
Si Si6 0.651463 0.049795 0.200689
Si Si7 0.941176 0.452893 0.738768
Si Si8 0.765087 0.549729 0.972041
O O1 0.930841 0.750000 0.985366
O O2 0.776174 0.491886 0.814768
O O3 0.000000 0.500000 0.000000
O O4 0.024625 0.494046 0.151628
O O5 0.167784 0.750000 0.700803
O O6 0.243660 0.488289 0.849624
O O7 0.238139 0.489229 0.720555
O O8 0.000000 0.500000 0.500000
O O9 0.658779 0.250000 0.348609
O O10 0.667661 0.988620 0.289331
O O11 0.790522 0.989640 0.540007
O O12 0.504439 0.002416 0.196446
O O13 0.656624 0.250000 0.982467
O O14 0.707156 0.497274 0.970333
O O15 0.500000 0.500000 0.500000
O O16 0.353453 0.250000 0.294888
O O17 0.326961 0.506511 0.194972
O O18 0.660886 0.250000 0.213399
O O19 0.500000 0.000000 0.000000
O O20 0.939963 0.250000 0.736231
O O21 0.074664 0.503848 0.853535
O O22 0.765044 0.750000 0.970802
#
# Coordination Sequence:
#
# PCOD9162598 Si02
#       8
#     4   4   4   4   4   4   4   4
#     4   9  18  34  54  78 108 138 172 217 264 311
#     4  10  23  39  55  80 110 140 178 222 269 321
#     4  10  20  35  58  82 102 138 184 219 262 320
#     4  11  23  38  53  78 115 144 172 221 275 319
#     4   9  19  35  55  81 110 143 182 222 265 315
#     4  10  20  36  57  80 107 139 177 220 266 318
#     4   8  17  35  57  79 103 134 178 225 260 302
#     4   9  19  37  59  79 105 144 186 223 262 316
#
# _framework density 19.119895
#
# number of rings (size 3 to 8) (size 9 to 14) (size 15 to 20)
#    0.000    2.500    1.250    1.875    1.750    3.500 
#    0.000    6.875    0.000    0.000    0.000    0.000 
#    0.000    0.000    0.000    0.000    0.000    0.000 
#
# Total GULP energy -178503.314900 kJ/mol
# GULP energy per Si atom -5578.228591 kJ/mol
# Density = 1.907638 g / cm^3
# Si number density = 19.119895 Si / 1000 Ang^3
#
#
#
# Elastic Constant Matrix: (Units=GPa)
#
#
# Indices 1 2 3 4 5 6 
#
# 1 216.4240 14.6154 129.0042 0.0000 6.3972 0.0000
# 2 14.6154 11.9250 13.3298 0.0000 -2.0129 0.0000
# 3 129.0042 13.3298 217.1915 0.0000 3.6451 0.0000
# 4 0.0000 0.0000 0.0000 25.4008 0.0000 0.0923
# 5 6.3972 -2.0129 3.6451 0.0000 22.1220 0.0000
# 6 0.0000 0.0000 0.0000 0.0923 0.0000 21.0225
#
#
#
# Elastic Compliance Matrix: (Units=1/GPa)
#
#
# Indices 1 2 3 4 5 6 
#
# 1 0.007445 -0.004877 -0.004090 0.000000 -0.001923 0.000000
# 2 -0.004877 0.095105 -0.003118 0.000000 0.010578 0.000000
# 3 -0.004090 -0.003118 0.007230 0.000000 -0.000292 0.000000
# 4 0.000000 0.000000 0.000000 0.039370 0.000000 -0.000173
# 5 -0.001923 0.010578 -0.000292 0.000000 0.046770 0.000000
# 6 0.000000 0.000000 0.000000 -0.000173 0.000000 0.047569
#
#
# Mechanical properties :
#
#
# Convention : Reuss Voigt Hill
#
# Bulk Modulus (GPa) = 11.68091 84.38214 48.03152
# Shear Modulus (GPa) = 16.88075 32.94846 24.91461
#
# Velocity S-wave (km/s) = 2.97457 4.15571 3.61373
# Velocity P-wave (km/s) = 4.23320 8.20095 6.52593
#
# Compressibility (1/GPa) = 0.08560976
#
# Stress axis : x y z
#
# Youngs Moduli (GPa) = 134.31960 10.51472 138.31128
#
# Poissons Ratio (x) = 0.05128 0.56576
# Poissons Ratio (y) = 0.65505 0.43122
# Poissons Ratio (z) = 0.54943 0.03278
#
# Static dielectric constant tensor:
#      x y z
#    x 1.615950 0.000000 -0.004520 
#    y 0.000000 1.727280 0.000000 
#    z -0.004520 0.000000 1.650900 
# 
# From -- ./inp_files/67157.got.cif
#   From: 2010.05.17/outbox.cif.g08.bks.cpg/sg11_34_cif.got.tgz:67157.got - 2010.06.03 12:22:45.
