data_PCOD9162526
_publ_section_title
;
Structure prediction by ZEFSAII (Michael W. Deem and Ramdas Pophale) SiO2 
 PCOD9162526
Probable space group: P 21/M
;
_chemical_formula_sum "Si O2"
_cell_formula_units_Z 28
_cell_length_a 23.466708
_cell_length_b 7.603141
_cell_length_c 22.256786
_cell_angle_alpha 90.000000
_cell_angle_beta 19.523721
_cell_angle_gamma 90.000000
_cell_volume 1327.120422
_symmetry_space_group_name_H-M "P 21/M"
_symmetry_group_IT_number 11
_symmetry_cell_setting 'monoclinic'
loop_
_space_group_symop_operation_xyz
x,y,z
-x,1/2+y,-z
-x,-y,-z
x,1/2-y,z
loop_
_atom_site_type_symbol
_atom_site_label
_atom_site_fract_x
_atom_site_fract_y
_atom_site_fract_z
Si Si1 0.990520 0.533618 0.357500
Si Si2 0.000009 0.542783 0.211796
Si Si3 0.678621 0.540483 0.186235
Si Si4 0.298147 0.039507 0.577754
Si Si5 0.683248 0.959987 0.745327
Si Si6 0.701533 0.038175 0.864411
Si Si7 0.799163 0.960919 0.195791
O O1 0.992131 0.750000 0.356170
O O2 0.996315 0.472321 0.283030
O O3 0.155043 0.476088 0.232132
O O4 0.820401 0.474736 0.561215
O O5 0.962778 0.750000 0.254320
O O6 0.855384 0.469056 0.310779
O O7 0.183180 0.524831 0.998575
O O8 0.695307 0.750000 0.171136
O O9 0.483527 0.495597 0.366763
O O10 0.724920 0.469585 0.206889
O O11 0.275867 0.250000 0.604186
O O12 0.285864 0.970389 0.658396
O O13 0.673934 0.750000 0.746806
O O14 0.742661 0.993685 0.754500
O O15 0.489855 0.029203 0.932200
O O16 0.696608 0.250000 0.873157
O O17 0.777218 0.750000 0.216384
O O18 0.000000 0.000000 0.000000
#
# Coordination Sequence:
#
# PCOD9162526 Si02
#       7
#     4   4   4   4   4   4   4
#     4   9  18  32  52  76 100 132 174 215 256 304
#     4  10  21  38  58  79 106 143 187 229 265 313
#     4  11  23  37  56  82 112 144 177 221 278 328
#     4  10  21  37  58  82 107 141 185 225 266 321
#     4   9  17  30  49  74 103 132 166 208 255 306
#     4   9  17  30  50  76 103 130 165 209 258 306
#     4  10  20  35  57  84 110 139 176 223 275 322
#
# _framework density 21.098310999999999
#
# number of rings (size 3 to 8) (size 9 to 14) (size 15 to 20)
#    0.000    2.286    1.429    1.286    0.000    2.857 
#    0.000    5.714    0.000    3.429    0.000    0.000 
#    0.000    0.000    0.000    0.000    0.000    0.000 
#
# Total GULP energy -156392.557880 kJ/mol
# GULP energy per Si atom -5585.448496 kJ/mol
# Density = 2.105029 g / cm^3
# Si number density = 21.098311 Si / 1000 Ang^3
#
#
#
# Elastic Constant Matrix: (Units=GPa)
#
#
# Indices 1 2 3 4 5 6 
#
# 1 81.4706 -1.4799 110.1766 0.0000 43.4042 0.0000
# 2 -1.4799 40.5432 -7.3955 0.0000 5.6787 0.0000
# 3 110.1766 -7.3955 151.1072 0.0000 15.0900 0.0000
# 4 0.0000 0.0000 0.0000 9.4023 0.0000 -4.0449
# 5 43.4042 5.6787 15.0900 0.0000 22.5539 0.0000
# 6 0.0000 0.0000 0.0000 -4.0449 0.0000 7.3046
#
#
#
# Elastic Compliance Matrix: (Units=1/GPa)
#
#
# Indices 1 2 3 4 5 6 
#
# 1 -0.020130 -0.003142 0.011333 0.000000 0.031949 0.000000
# 2 -0.003142 0.025671 0.003846 0.000000 -0.002989 0.000000
# 3 0.011333 0.003846 0.000876 0.000000 -0.023365 0.000000
# 4 0.000000 0.000000 0.000000 0.139616 0.000000 0.077311
# 5 0.031949 -0.002989 -0.023365 0.000000 -0.000761 0.000000
# 6 0.000000 0.000000 0.000000 0.077311 0.000000 0.179709
#
#
# Mechanical properties :
#
#
# Convention : Reuss Voigt Hill
#
# Bulk Modulus (GPa) = 32.79743 52.85814 42.82779
# Shear Modulus (GPa) = 16.07359 19.30683 17.69021
#
# Velocity S-wave (km/s) = 2.76314 3.02833 2.89877
# Velocity P-wave (km/s) = 5.07531 6.11026 5.61667
#
# Compressibility (1/GPa) = 0.03049020
#
# Stress axis : x y z
#
# Youngs Moduli (GPa) = -49.67598 38.95508 1141.75617
#
# Poissons Ratio (x) = 0.12241 -12.93998
# Poissons Ratio (y) = -0.15610 -4.39130
# Poissons Ratio (z) = 0.56300 -0.14982
#
# Static dielectric constant tensor:
#      x y z
#    x 1.746590 0.000000 -0.004750 
#    y 0.000000 1.779570 0.000000 
#    z -0.004750 0.000000 1.719970 
# 
# From -- ./inp_files/66676.got.cif
#   From: 2010.05.17/outbox.cif.g08.bks.cpg/sg11_34_cif.got.tgz:66676.got - 2010.06.03 12:22:45.
