data_PCOD9162797
_publ_section_title
;
Structure prediction by ZEFSAII (Michael W. Deem and Ramdas Pophale) SiO2 
 PCOD9162797
Probable space group: P 21/M
;
_chemical_formula_sum "Si O2"
_cell_formula_units_Z 20
_cell_length_a 5.266193
_cell_length_b 18.659572
_cell_length_c 12.226744
_cell_angle_alpha 90.000000
_cell_angle_beta 131.325403
_cell_angle_gamma 90.000000
_cell_volume 902.262044
_symmetry_space_group_name_H-M "P 21/M"
_symmetry_group_IT_number 11
_symmetry_cell_setting 'monoclinic'
loop_
_space_group_symop_operation_xyz
x,y,z
-x,1/2+y,-z
-x,-y,-z
x,1/2-y,z
loop_
_atom_site_type_symbol
_atom_site_label
_atom_site_fract_x
_atom_site_fract_y
_atom_site_fract_z
Si Si1 0.281748 0.121157 0.382702
Si Si2 0.291730 0.934618 0.894629
Si Si3 0.429299 0.672147 0.761798
Si Si4 0.376592 0.665936 0.115554
Si Si5 0.165530 0.664423 0.303347
O O1 0.440907 0.159099 0.322336
O O2 0.578048 0.116056 0.553994
O O3 0.979876 0.167266 0.351083
O O4 0.063278 0.054453 0.271068
O O5 0.221866 0.880901 0.974735
O O6 0.516217 0.890352 0.871445
O O7 0.500000 0.000000 0.000000
O O8 0.538293 0.750000 0.833527
O O9 0.334544 0.750000 0.078521
O O10 0.228125 0.651694 0.192886
O O11 0.779311 0.650980 0.227272
O O12 0.234930 0.750000 0.343343
#
# Coordination Sequence:
#
# PCOD9162797 Si02
#       5
#     4   4   4   4   4
#     4  10  22  37  64  90 118 156 201 247 301 361
#     4  10  25  43  61  88 126 166 206 246 297 361
#     4  10  20  35  63  91 115 148 204 256 294 345
#     4  10  22  38  61  90 122 154 196 252 310 353
#     4  10  20  37  60  91 122 151 194 255 308 356
#
# _framework density 22.166508
#
# number of rings (size 3 to 8) (size 9 to 14) (size 15 to 20)
#    1.200    0.800    0.000    3.600    2.800    2.400 
#    0.000    2.000    0.000    0.000    0.000    0.000 
#    0.000    0.000    0.000    0.000    0.000    0.000 
#
# Total GULP energy -111624.283409 kJ/mol
# GULP energy per Si atom -5581.214170 kJ/mol
# Density = 2.211606 g / cm^3
# Si number density = 22.166508 Si / 1000 Ang^3
#
#
#
# Elastic Constant Matrix: (Units=GPa)
#
#
# Indices 1 2 3 4 5 6 
#
# 1 129.9610 8.6894 20.2625 0.0000 15.4446 0.0000
# 2 8.6894 30.3847 14.9087 0.0000 -8.8865 0.0000
# 3 20.2625 14.9087 104.2590 0.0000 11.3038 0.0000
# 4 0.0000 0.0000 0.0000 23.5645 0.0000 -1.1251
# 5 15.4446 -8.8865 11.3038 0.0000 30.8248 0.0000
# 6 0.0000 0.0000 0.0000 -1.1251 0.0000 -27.4304
#
#
#
# Elastic Compliance Matrix: (Units=1/GPa)
#
#
# Indices 1 2 3 4 5 6 
#
# 1 0.008650 -0.003701 -0.000590 0.000000 -0.005185 0.000000
# 2 -0.003701 0.042356 -0.007147 0.000000 0.016686 0.000000
# 3 -0.000590 -0.007147 0.011372 0.000000 -0.005935 0.000000
# 4 0.000000 0.000000 0.000000 0.042354 0.000000 -0.001737
# 5 -0.005185 0.016686 -0.005935 0.000000 0.042026 0.000000
# 6 0.000000 0.000000 0.000000 -0.001737 0.000000 -0.036385
#
#
# Mechanical properties :
#
#
# Convention : Reuss Voigt Hill
#
# Bulk Modulus (GPa) = 25.31419 39.14734 32.23076
# Shear Modulus (GPa) = 34.14945 20.10804 27.12875
#
# Velocity S-wave (km/s) = 3.92929 3.01514 3.50217
# Velocity P-wave (km/s) = 5.65956 5.46080 5.56107
#
# Compressibility (1/GPa) = 0.03950354
#
# Stress axis : x y z
#
# Youngs Moduli (GPa) = 115.60486 23.60928 87.93880
#
# Poissons Ratio (x) = 0.08737 0.05187
# Poissons Ratio (y) = 0.42782 0.62847
# Poissons Ratio (z) = 0.06819 0.16873
#
# Static dielectric constant tensor:
#      x y z
#    x 1.801100 0.000000 0.060180 
#    y 0.000000 1.838720 0.000000 
#    z 0.060180 0.000000 1.845700 
# 
# From -- ./inp_files/1882.got.cif
#   From: 2010.05.17/outbox.cif.g08.bks.cpg/sg11_1_cif.got.tgz:1882.got - 2010.06.03 12:22:45.
