data_PCOD9162211
_publ_section_title
;
Structure prediction by ZEFSAII (Michael W. Deem and Ramdas Pophale) SiO2 
 PCOD9162211
Probable space group: P 21/M
;
_chemical_formula_sum "Si O2"
_cell_formula_units_Z 28
_cell_length_a 27.266742
_cell_length_b 7.688307
_cell_length_c 8.242536
_cell_angle_alpha 90.000000
_cell_angle_beta 38.506568
_cell_angle_gamma 90.000000
_cell_volume 1075.813440
_symmetry_space_group_name_H-M "P 21/M"
_symmetry_group_IT_number 11
_symmetry_cell_setting 'monoclinic'
loop_
_space_group_symop_operation_xyz
x,y,z
-x,1/2+y,-z
-x,-y,-z
x,1/2-y,z
loop_
_atom_site_type_symbol
_atom_site_label
_atom_site_fract_x
_atom_site_fract_y
_atom_site_fract_z
Si Si1 0.372596 0.048888 0.394932
Si Si2 0.811998 0.462030 0.454669
Si Si3 0.234676 0.949865 0.957102
Si Si4 0.477553 0.045564 0.823140
Si Si5 0.899728 0.041926 0.904232
Si Si6 0.338042 0.539724 0.983793
Si Si7 0.953549 0.044168 0.287397
O O1 0.352941 0.250000 0.417434
O O2 0.293339 0.951748 0.650237
O O3 0.437477 0.037675 0.371551
O O4 0.421185 0.977962 0.115166
O O5 0.814745 0.250000 0.443852
O O6 0.853672 0.524944 0.183704
O O7 0.722253 0.511393 0.715640
O O8 0.865994 0.518553 0.468608
O O9 0.219991 0.750000 0.045858
O O10 0.151104 0.026038 0.115939
O O11 0.290351 0.027963 0.951357
O O12 0.490280 0.250000 0.814629
O O13 0.425105 0.021292 0.799638
O O14 0.890290 0.250000 0.922008
O O15 0.991387 0.013758 0.706973
O O16 0.342796 0.750000 0.960001
O O17 0.949147 0.250000 0.315701
O O18 0.000000 0.000000 0.000000
#
# Coordination Sequence:
#
# PCOD9162211 Si02
#       7
#     4   4   4   4   4   4   4
#     4  10  21  37  58  81 104 133 170 212 258 307
#     4   8  15  29  50  72  97 131 169 209 253 300
#     4  10  21  35  53  77 106 140 175 211 255 307
#     4  10  21  37  57  81 105 131 168 213 259 306
#     4   9  17  31  50  73 101 134 171 212 257 303
#     4  10  20  35  54  76 104 140 177 211 253 306
#     4   9  16  28  48  74 100 129 168 214 261 304
#
# _framework density 26.026817999999999
#
# number of rings (size 3 to 8) (size 9 to 14) (size 15 to 20)
#    0.000    2.571    0.000    3.000    0.000    4.571 
#    0.000    5.714    0.000    0.000    0.000    0.000 
#    0.000    0.000    0.000    0.000    0.000    0.000 
#
# Total GULP energy -156487.612932 kJ/mol
# GULP energy per Si atom -5588.843319 kJ/mol
# Density = 2.596758 g / cm^3
# Si number density = 26.026818 Si / 1000 Ang^3
#
#
#
# Elastic Constant Matrix: (Units=GPa)
#
#
# Indices 1 2 3 4 5 6 
#
# 1 202.8701 4.0628 31.7106 0.0000 -34.7776 0.0000
# 2 4.0628 57.7336 -4.5491 0.0000 0.3740 0.0000
# 3 31.7106 -4.5491 101.6568 0.0000 -28.8941 0.0000
# 4 0.0000 0.0000 0.0000 1.2819 0.0000 -7.2068
# 5 -34.7776 0.3740 -28.8941 0.0000 47.7329 0.0000
# 6 0.0000 0.0000 0.0000 -7.2068 0.0000 25.5716
#
#
#
# Elastic Compliance Matrix: (Units=1/GPa)
#
#
# Indices 1 2 3 4 5 6 
#
# 1 0.005689 -0.000483 -0.000745 0.000000 0.003698 0.000000
# 2 -0.000483 0.017430 0.000956 0.000000 0.000090 0.000000
# 3 -0.000745 0.000956 0.012025 0.000000 0.006728 0.000000
# 4 0.000000 0.000000 0.000000 -1.334747 0.000000 -0.376168
# 5 0.003698 0.000090 0.006728 0.000000 0.027716 0.000000
# 6 0.000000 0.000000 0.000000 -0.376168 0.000000 -0.066908
#
#
# Mechanical properties :
#
#
# Convention : Reuss Voigt Hill
#
# Bulk Modulus (GPa) = 28.90192 47.18990 38.04591
# Shear Modulus (GPa) = -3.76870 36.98634 16.60882
#
# Velocity S-wave (km/s) = -1.20464 3.77382 2.52889
# Velocity P-wave (km/s) = 3.03215 6.09586 4.81422
#
# Compressibility (1/GPa) = 0.03459977
#
# Stress axis : x y z
#
# Youngs Moduli (GPa) = 175.76718 57.37331 83.16186
#
# Poissons Ratio (x) = 0.02771 0.06198
# Poissons Ratio (y) = 0.08490 -0.07953
# Poissons Ratio (z) = 0.13100 -0.05487
#
# Static dielectric constant tensor:
#      x y z
#    x 2.116800 0.000000 0.069160 
#    y 0.000000 1.968640 0.000000 
#    z 0.069160 0.000000 2.053520 
# 
# From -- ./inp_files/28414.got.cif
#   From: 2010.05.17/outbox.cif.g08.bks.cpg/sg11_15_cif.got.tgz:28414.got - 2010.06.03 12:22:45.
