data_PCOD9162523
_publ_section_title
;
Structure prediction by ZEFSAII (Michael W. Deem and Ramdas Pophale) SiO2 
 PCOD9162523
Probable space group: P 21/M
;
_chemical_formula_sum "Si O2"
_cell_formula_units_Z 32
_cell_length_a 9.427893
_cell_length_b 13.521999
_cell_length_c 24.005085
_cell_angle_alpha 90.000000
_cell_angle_beta 149.334513
_cell_angle_gamma 90.000000
_cell_volume 1560.810417
_symmetry_space_group_name_H-M "P 21/M"
_symmetry_group_IT_number 11
_symmetry_cell_setting 'monoclinic'
loop_
_space_group_symop_operation_xyz
x,y,z
-x,1/2+y,-z
-x,-y,-z
x,1/2-y,z
loop_
_atom_site_type_symbol
_atom_site_label
_atom_site_fract_x
_atom_site_fract_y
_atom_site_fract_z
Si Si1 0.683264 0.634953 0.273246
Si Si2 0.695514 0.643660 0.564637
Si Si3 0.132263 0.935478 0.337095
Si Si4 0.760997 0.050317 0.956465
Si Si5 0.591857 0.010883 0.346319
Si Si6 0.043451 0.137359 0.162185
Si Si7 0.679748 0.475063 0.115143
Si Si8 0.094573 0.361593 0.479895
O O1 0.722340 0.750000 0.301002
O O2 0.420793 0.621852 0.143614
O O3 0.626205 0.563783 0.306043
O O4 0.948808 0.594222 0.329024
O O5 0.704214 0.750000 0.596572
O O6 0.746503 0.546701 0.617610
O O7 0.399974 0.634219 0.432622
O O8 0.925101 0.640508 0.593378
O O9 0.909193 0.942291 0.211357
O O10 0.538346 0.971816 0.907559
O O11 0.884515 0.108494 0.051218
O O12 0.000000 0.000000 0.000000
O O13 0.294801 0.060149 0.250423
O O14 0.816322 0.097873 0.414139
O O15 0.676613 0.942920 0.426642
O O16 0.137877 0.250000 0.191350
O O17 0.849561 0.119225 0.150705
O O18 0.500000 0.500000 0.000000
O O19 0.162011 0.250000 0.520685
#
# Coordination Sequence:
#
# PCOD9162523 Si02
#       8
#     4   4   4   4   4   4   4   4
#     4  11  21  36  59  88 118 156 204 251 307 370
#     4  10  20  35  57  83 116 157 201 249 308 370
#     4  10  20  37  58  86 119 160 199 257 309 368
#     4  10  20  40  65  89 123 162 199 257 309 361
#     4  11  21  36  58  83 120 161 198 260 300 362
#     4  11  22  39  62  90 125 167 206 248 310 371
#     4   9  21  39  63  86 121 162 203 254 309 367
#     4  10  21  37  55  82 115 157 203 249 310 368
#
# _framework density 20.50217
#
# number of rings (size 3 to 8) (size 9 to 14) (size 15 to 20)
#    0.000    1.750    2.500    2.250    0.000    0.500 
#    0.000    1.875    0.000    1.500    0.000    0.000 
#    0.000    0.000    0.000    0.000    0.000    0.000 
#
# Total GULP energy -178458.557738 kJ/mol
# GULP energy per Si atom -5576.829929 kJ/mol
# Density = 2.045551 g / cm^3
# Si number density = 20.502170 Si / 1000 Ang^3
#
#
#
# Elastic Constant Matrix: (Units=GPa)
#
#
# Indices 1 2 3 4 5 6 
#
# 1 81.8855 23.0608 2.9473 0.0000 11.5236 0.0000
# 2 23.0608 118.6625 10.1718 0.0000 9.6930 0.0000
# 3 2.9473 10.1718 64.9803 0.0000 4.3095 0.0000
# 4 0.0000 0.0000 0.0000 12.9409 0.0000 -3.7818
# 5 11.5236 9.6930 4.3095 0.0000 26.0798 0.0000
# 6 0.0000 0.0000 0.0000 -3.7818 0.0000 16.3138
#
#
#
# Elastic Compliance Matrix: (Units=1/GPa)
#
#
# Indices 1 2 3 4 5 6 
#
# 1 0.013564 -0.002219 0.000076 0.000000 -0.005181 0.000000
# 2 -0.002219 0.009141 -0.001183 0.000000 -0.002222 0.000000
# 3 0.000076 -0.001183 0.015716 0.000000 -0.002191 0.000000
# 4 0.000000 0.000000 0.000000 0.082890 0.000000 0.019215
# 5 -0.005181 -0.002222 -0.002191 0.000000 0.041821 0.000000
# 6 0.000000 0.000000 0.000000 0.019215 0.000000 0.065752
#
#
# Mechanical properties :
#
#
# Convention : Reuss Voigt Hill
#
# Bulk Modulus (GPa) = 31.47780 37.54313 34.51046
# Shear Modulus (GPa) = 20.31478 26.35680 23.33579
#
# Velocity S-wave (km/s) = 3.15121 3.58936 3.37740
# Velocity P-wave (km/s) = 5.35041 5.96067 5.66376
#
# Compressibility (1/GPa) = 0.03176842
#
# Stress axis : x y z
#
# Youngs Moduli (GPa) = 73.72718 109.39221 63.62814
#
# Poissons Ratio (x) = 0.24277 -0.00482
# Poissons Ratio (y) = 0.16362 0.07527
# Poissons Ratio (z) = -0.00559 0.12941
#
# Static dielectric constant tensor:
#      x y z
#    x 1.756080 0.000000 -0.013420 
#    y 0.000000 1.708780 0.000000 
#    z -0.013420 0.000000 1.769690 
# 
# From -- ./inp_files/68150.got.cif
#   From: 2010.05.17/outbox.cif.g08.bks.cpg/sg11_35_cif.got.tgz:68150.got - 2010.06.03 12:22:45.
