data_PCOD9162260
_publ_section_title
;
Structure prediction by ZEFSAII (Michael W. Deem and Ramdas Pophale) SiO2 
 PCOD9162260
Probable space group: P 21/M
;
_chemical_formula_sum "Si O2"
_cell_formula_units_Z 32
_cell_length_a 14.833960
_cell_length_b 16.218190
_cell_length_c 12.629385
_cell_angle_alpha 90.000000
_cell_angle_beta 30.597795
_cell_angle_gamma 90.000000
_cell_volume 1546.559190
_symmetry_space_group_name_H-M "P 21/M"
_symmetry_group_IT_number 11
_symmetry_cell_setting 'monoclinic'
loop_
_space_group_symop_operation_xyz
x,y,z
-x,1/2+y,-z
-x,-y,-z
x,1/2-y,z
loop_
_atom_site_type_symbol
_atom_site_label
_atom_site_fract_x
_atom_site_fract_y
_atom_site_fract_z
Si Si1 0.982784 0.659543 0.500432
Si Si2 0.242093 0.515857 0.973341
Si Si3 0.785704 0.340488 0.315499
Si Si4 0.914249 0.842934 0.818448
Si Si5 0.294685 0.450970 0.320283
Si Si6 0.341208 0.590166 0.099183
Si Si7 0.626460 0.516095 0.515404
Si Si8 0.967931 0.915940 0.096899
O O1 0.913397 0.750000 0.543386
O O2 0.888743 0.590320 0.525752
O O3 0.942387 0.643489 0.664931
O O4 0.192197 0.657225 0.269083
O O5 0.417073 0.531511 0.725883
O O6 0.287706 0.541956 0.046339
O O7 0.078611 0.567926 0.092136
O O8 0.196095 0.418840 0.022704
O O9 0.699041 0.250000 0.396086
O O10 0.898530 0.344410 0.310001
O O11 0.667687 0.423055 0.434337
O O12 0.933622 0.348312 0.072932
O O13 0.840138 0.750000 0.908116
O O14 0.325144 0.529892 0.215629
O O15 0.315493 0.476855 0.420163
O O16 0.453918 0.388559 0.126556
O O17 0.757121 0.582145 0.327572
O O18 0.000000 0.000000 0.000000
#
# Coordination Sequence:
#
# PCOD9162260 Si02
#       8
#     4   4   4   4   4   4   4   4
#     4  11  22  35  56  82 117 156 186 229 284 333
#     4  11  20  36  58  85 111 143 185 236 270 326
#     4  10  21  39  59  82 113 142 178 230 287 339
#     4  10  20  35  54  84 116 143 179 229 285 330
#     4  10  20  36  57  86 114 150 192 232 270 334
#     4  10  21  34  58  84 114 151 194 229 271 330
#     4  10  21  35  61  85 108 146 188 226 278 327
#     4  10  20  36  56  80 109 142 182 227 273 330
#
# _framework density 20.691094
#
# number of rings (size 3 to 8) (size 9 to 14) (size 15 to 20)
#    0.000    1.750    3.750    1.875    0.000    3.000 
#    0.000    2.500    0.000    1.500    0.000    0.000 
#    0.000    0.000    0.000    0.000    0.000    0.000 
#
# Total GULP energy -178505.169032 kJ/mol
# GULP energy per Si atom -5578.286532 kJ/mol
# Density = 2.064400 g / cm^3
# Si number density = 20.691094 Si / 1000 Ang^3
#
#
#
# Elastic Constant Matrix: (Units=GPa)
#
#
# Indices 1 2 3 4 5 6 
#
# 1 49.6931 1.8851 -4.4123 0.0000 8.0717 0.0000
# 2 1.8851 49.0787 16.2597 0.0000 -0.1221 0.0000
# 3 -4.4123 16.2597 90.6004 0.0000 -11.4400 0.0000
# 4 0.0000 0.0000 0.0000 20.3640 0.0000 -4.9966
# 5 8.0717 -0.1221 -11.4400 0.0000 29.9795 0.0000
# 6 0.0000 0.0000 0.0000 -4.9966 0.0000 4.0777
#
#
#
# Elastic Compliance Matrix: (Units=1/GPa)
#
#
# Indices 1 2 3 4 5 6 
#
# 1 0.021098 -0.000994 0.000513 0.000000 -0.005489 0.000000
# 2 -0.000994 0.021772 -0.004109 0.000000 -0.001212 0.000000
# 3 0.000513 -0.004109 0.012377 0.000000 0.004568 0.000000
# 4 0.000000 0.000000 0.000000 0.070218 0.000000 0.086042
# 5 -0.005489 -0.001212 0.004568 0.000000 0.036572 0.000000
# 6 0.000000 0.000000 0.000000 0.086042 0.000000 0.350669
#
#
# Mechanical properties :
#
#
# Convention : Reuss Voigt Hill
#
# Bulk Modulus (GPa) = 21.70745 24.09302 22.90024
# Shear Modulus (GPa) = 9.30681 22.59356 15.95019
#
# Velocity S-wave (km/s) = 2.12314 3.30805 2.77947
# Velocity P-wave (km/s) = 4.06501 5.12448 4.62518
#
# Compressibility (1/GPa) = 0.04606713
#
# Stress axis : x y z
#
# Youngs Moduli (GPa) = 47.39715 45.93093 80.79754
#
# Poissons Ratio (x) = 0.04565 -0.04143
# Poissons Ratio (y) = 0.04711 0.33197
# Poissons Ratio (z) = -0.02431 0.18872
#
# Static dielectric constant tensor:
#      x y z
#    x 1.761130 0.000000 -0.002870 
#    y 0.000000 1.912630 0.000000 
#    z -0.002870 0.000000 1.779200 
# 
# From -- ./inp_files/39984.got.cif
#   From: 2010.05.17/outbox.cif.g08.bks.cpg/sg11_20_cif.got.tgz:39984.got - 2010.06.03 12:22:45.
