data_PCOD9162683
_publ_section_title
;
Structure prediction by ZEFSAII (Michael W. Deem and Ramdas Pophale) SiO2 
 PCOD9162683
Probable space group: P 21/M
;
_chemical_formula_sum "Si O2"
_cell_formula_units_Z 24
_cell_length_a 10.250138
_cell_length_b 9.007274
_cell_length_c 14.248270
_cell_angle_alpha 90.000000
_cell_angle_beta 89.172342
_cell_angle_gamma 90.000000
_cell_volume 1315.345700
_symmetry_space_group_name_H-M "P 21/M"
_symmetry_group_IT_number 11
_symmetry_cell_setting 'monoclinic'
loop_
_space_group_symop_operation_xyz
x,y,z
-x,1/2+y,-z
-x,-y,-z
x,1/2-y,z
loop_
_atom_site_type_symbol
_atom_site_label
_atom_site_fract_x
_atom_site_fract_y
_atom_site_fract_z
Si Si1 0.742995 0.924758 0.286336
Si Si2 0.758824 0.573815 0.714914
Si Si3 0.639907 0.073585 0.108767
Si Si4 0.025938 0.926479 0.600394
Si Si5 0.645463 0.426437 0.892435
Si Si6 0.528041 0.074893 0.599338
O O1 0.770585 0.750000 0.277166
O O2 0.601268 0.941258 0.336048
O O3 0.732792 0.001332 0.185067
O O4 0.849756 0.001385 0.350786
O O5 0.736651 0.750000 0.722816
O O6 0.899254 0.549253 0.666886
O O7 0.741640 0.498634 0.816356
O O8 0.648628 0.503049 0.649391
O O9 0.628951 0.250000 0.124328
O O10 0.496988 0.999722 0.119729
O O11 0.682995 0.048902 0.000649
O O12 0.044665 0.750000 0.588878
O O13 0.000000 0.000000 0.500000
O O14 0.634598 0.250000 0.876238
O O15 0.554428 0.250000 0.587491
O O16 0.500000 0.000000 0.500000
#
# Coordination Sequence:
#
# PCOD9162683 Si02
#       6
#     4   4   4   4   4   4
#     4  11  23  39  60  88 119 155 201 245 294 354
#     4  11  23  39  60  87 118 155 199 245 296 355
#     4  10  20  35  59  89 122 157 194 241 296 352
#     4  11  25  43  62  86 118 159 204 245 298 359
#     4  10  20  35  58  90 122 155 196 241 295 355
#     4  11  23  37  57  86 117 149 194 247 297 354
#
# _framework density 18.246154000000001
#
# number of rings (size 3 to 8) (size 9 to 14) (size 15 to 20)
#    0.000    1.333    1.667    4.000    0.000   10.667 
#    0.000    0.833    0.000    0.000    0.000    0.000 
#    0.000    0.000    0.000    0.000    0.000    0.000 
#
# Total GULP energy -134186.326926 kJ/mol
# GULP energy per Si atom -5591.096955 kJ/mol
# Density = 1.820462 g / cm^3
# Si number density = 18.246154 Si / 1000 Ang^3
#
#
#
# Elastic Constant Matrix: (Units=GPa)
#
#
# Indices 1 2 3 4 5 6 
#
# 1 20.1011 22.8038 -3.4110 0.0000 14.6880 0.0000
# 2 22.8038 93.8886 47.7242 0.0000 -0.9690 0.0000
# 3 -3.4110 47.7242 100.4562 0.0000 9.7850 0.0000
# 4 0.0000 0.0000 0.0000 39.3921 0.0000 0.4414
# 5 14.6880 -0.9690 9.7850 0.0000 32.8632 0.0000
# 6 0.0000 0.0000 0.0000 0.4414 0.0000 29.4999
#
#
#
# Elastic Compliance Matrix: (Units=1/GPa)
#
#
# Indices 1 2 3 4 5 6 
#
# 1 0.402940 -0.155310 0.108604 0.000000 -0.217008 0.000000
# 2 -0.155310 0.074103 -0.048870 0.000000 0.086151 0.000000
# 3 0.108604 -0.048870 0.042974 0.000000 -0.062776 0.000000
# 4 0.000000 0.000000 0.000000 0.025390 0.000000 -0.000380
# 5 -0.217008 0.086151 -0.062776 0.000000 0.148651 0.000000
# 6 0.000000 0.000000 0.000000 -0.000380 0.000000 0.033904
#
#
# Mechanical properties :
#
#
# Convention : Reuss Voigt Hill
#
# Bulk Modulus (GPa) = 3.04077 38.74220 20.89149
# Shear Modulus (GPa) = 4.86034 30.17294 17.51664
#
# Velocity S-wave (km/s) = 1.63387 4.07093 3.10178
# Velocity P-wave (km/s) = 2.28682 6.58603 4.92978
#
# Compressibility (1/GPa) = 0.32886369
#
# Stress axis : x y z
#
# Youngs Moduli (GPa) = 2.48176 13.49475 23.27005
#
# Poissons Ratio (x) = 2.09588 -2.52721
# Poissons Ratio (y) = 0.38544 1.13720
# Poissons Ratio (z) = -0.26953 0.65948
#
# Static dielectric constant tensor:
#      x y z
#    x 1.591990 0.000000 -0.010880 
#    y 0.000000 1.607790 0.000000 
#    z -0.010880 0.000000 1.626020 
# 
# From -- ./inp_files/46561.got.cif
#   From: 2010.05.17/outbox.cif.g08.bks.cpg/sg11_24_cif.got.tgz:46561.got - 2010.06.03 12:22:45.
