data_PCOD9162851
_publ_section_title
;
Structure prediction by ZEFSAII (Michael W. Deem and Ramdas Pophale) SiO2 
 PCOD9162851
Probable space group: P 21/M
;
_chemical_formula_sum "Si O2"
_cell_formula_units_Z 32
_cell_length_a 21.844414
_cell_length_b 9.158887
_cell_length_c 27.213769
_cell_angle_alpha 90.000000
_cell_angle_beta 19.967180
_cell_angle_gamma 90.000000
_cell_volume 1859.256785
_symmetry_space_group_name_H-M "P 21/M"
_symmetry_group_IT_number 11
_symmetry_cell_setting 'monoclinic'
loop_
_space_group_symop_operation_xyz
x,y,z
-x,1/2+y,-z
-x,-y,-z
x,1/2-y,z
loop_
_atom_site_type_symbol
_atom_site_label
_atom_site_fract_x
_atom_site_fract_y
_atom_site_fract_z
Si Si1 0.218989 0.417828 0.206352
Si Si2 0.424855 0.917719 0.131492
Si Si3 0.324111 0.573684 0.862900
Si Si4 0.645098 0.424914 0.046038
Si Si5 0.995940 0.075778 0.056158
Si Si6 0.606122 0.572756 0.567076
Si Si7 0.414577 0.924201 0.611148
Si Si8 0.012006 0.574120 0.278720
O O1 0.168532 0.250000 0.252583
O O2 0.272448 0.497360 0.216383
O O3 0.074497 0.502589 0.282586
O O4 0.399804 0.418654 0.036441
O O5 0.375127 0.750000 0.177567
O O6 0.491704 0.996292 0.130287
O O7 0.300700 0.750000 0.877077
O O8 0.356070 0.537342 0.895721
O O9 0.148196 0.495245 0.974903
O O10 0.489117 0.531740 0.702906
O O11 0.623090 0.250000 0.057867
O O12 0.836893 0.462317 0.876105
O O13 0.022105 0.250000 0.031599
O O14 0.797588 0.049634 0.226819
O O15 0.000000 0.000000 0.000000
O O16 0.607314 0.750000 0.565038
O O17 0.506409 0.524034 0.592684
O O18 0.812635 0.525733 0.414425
O O19 0.442505 0.750000 0.587068
O O20 0.500000 0.000000 0.500000
O O21 0.012513 0.750000 0.283600
#
# Coordination Sequence:
#
# PCOD9162851 Si02
#       8
#     4   4   4   4   4   4   4   4
#     4   9  16  27  45  71 102 133 165 207 255 303
#     4   9  16  27  46  71 102 134 165 207 254 301
#     4  10  20  36  56  77 105 140 176 215 262 314
#     4   9  18  30  49  76 101 132 171 210 254 305
#     4  11  22  38  58  80 106 138 179 223 265 316
#     4   9  18  35  54  73 103 138 172 211 257 312
#     4  10  22  38  56  80 108 138 175 220 268 316
#     4   9  17  30  49  73 100 133 172 209 252 308
#
# _framework density 17.211179000000001
#
# number of rings (size 3 to 8) (size 9 to 14) (size 15 to 20)
#    0.000    2.500    1.250    1.125    1.750    4.500 
#    0.000    1.250    0.000    0.750    0.000    0.000 
#    0.000    0.000    0.000    0.000    0.000    0.000 
#
# Total GULP energy -178437.324372 kJ/mol
# GULP energy per Si atom -5576.166387 kJ/mol
# Density = 1.717201 g / cm^3
# Si number density = 17.211179 Si / 1000 Ang^3
#
#
#
# Elastic Constant Matrix: (Units=GPa)
#
#
# Indices 1 2 3 4 5 6 
#
# 1 151.0347 38.4161 52.4303 0.0000 14.0318 0.0000
# 2 38.4161 29.3358 22.5675 0.0000 13.5262 0.0000
# 3 52.4303 22.5675 68.0981 0.0000 10.0032 0.0000
# 4 0.0000 0.0000 0.0000 19.8117 0.0000 -4.6802
# 5 14.0318 13.5262 10.0032 0.0000 16.8739 0.0000
# 6 0.0000 0.0000 0.0000 -4.6802 0.0000 32.6416
#
#
#
# Elastic Compliance Matrix: (Units=1/GPa)
#
#
# Indices 1 2 3 4 5 6 
#
# 1 0.011203 -0.012507 -0.005022 0.000000 0.003687 0.000000
# 2 -0.012507 0.080240 -0.009903 0.000000 -0.048049 0.000000
# 3 -0.005022 -0.009903 0.021967 0.000000 -0.000907 0.000000
# 4 0.000000 0.000000 0.000000 0.052245 0.000000 0.007491
# 5 0.003687 -0.048049 -0.000907 0.000000 0.095251 0.000000
# 6 0.000000 0.000000 0.000000 0.007491 0.000000 0.031710
#
#
# Mechanical properties :
#
#
# Convention : Reuss Voigt Hill
#
# Bulk Modulus (GPa) = 17.08126 52.81071 34.94599
# Shear Modulus (GPa) = 13.62410 22.86909 18.24660
#
# Velocity S-wave (km/s) = 2.81656 3.64914 3.25954
# Velocity P-wave (km/s) = 4.53028 6.96459 5.87490
#
# Compressibility (1/GPa) = 0.05854368
#
# Stress axis : x y z
#
# Youngs Moduli (GPa) = 89.26025 12.46261 45.52343
#
# Poissons Ratio (x) = 0.15588 0.22863
# Poissons Ratio (y) = 1.11642 0.45084
# Poissons Ratio (z) = 0.44829 0.12342
#
# Static dielectric constant tensor:
#      x y z
#    x 1.564740 0.000000 -0.006290 
#    y 0.000000 1.580330 0.000000 
#    z -0.006290 0.000000 1.598700 
# 
# From -- ./inp_files/72036.got.cif
#   From: 2010.05.17/outbox.cif.g08.bks.cpg/sg11_37_cif.got.tgz:72036.got - 2010.06.03 12:22:45.
