data_PCOD9162751
_publ_section_title
;
Structure prediction by ZEFSAII (Michael W. Deem and Ramdas Pophale) SiO2 
 PCOD9162751
Probable space group: P 21/M
;
_chemical_formula_sum "Si O2"
_cell_formula_units_Z 28
_cell_length_a 10.329559
_cell_length_b 18.358774
_cell_length_c 17.269816
_cell_angle_alpha 90.000000
_cell_angle_beta 155.692595
_cell_angle_gamma 90.000000
_cell_volume 1348.101060
_symmetry_space_group_name_H-M "P 21/M"
_symmetry_group_IT_number 11
_symmetry_cell_setting 'monoclinic'
loop_
_space_group_symop_operation_xyz
x,y,z
-x,1/2+y,-z
-x,-y,-z
x,1/2-y,z
loop_
_atom_site_type_symbol
_atom_site_label
_atom_site_fract_x
_atom_site_fract_y
_atom_site_fract_z
Si Si1 0.817327 0.060767 0.489705
Si Si2 0.509836 0.834298 0.386758
Si Si3 0.293214 0.553336 0.156984
Si Si4 0.538364 0.048959 0.921035
Si Si5 0.315742 0.664893 0.444717
Si Si6 0.359166 0.112188 0.976011
Si Si7 0.145910 0.667541 0.635012
O O1 0.657456 0.110344 0.468797
O O2 0.864767 0.111197 0.440779
O O3 0.161535 0.035600 0.705891
O O4 0.596363 0.994296 0.346372
O O5 0.411776 0.750000 0.333328
O O6 0.270238 0.882661 0.206673
O O7 0.527509 0.856319 0.486212
O O8 0.839904 0.840063 0.522355
O O9 0.340379 0.579144 0.094378
O O10 0.000000 0.500000 0.000000
O O11 0.695992 0.971221 0.025681
O O12 0.560203 0.101832 0.006478
O O13 0.364865 0.750000 0.491720
O O14 0.959759 0.652989 0.219608
O O15 0.554390 0.152042 0.148254
O O16 0.150979 0.750000 0.607350
#
# Coordination Sequence:
#
# PCOD9162751 Si02
#       7
#     4   4   4   4   4   4   4
#     4  11  22  39  63  88 121 159 207 256 298 365
#     4  10  23  40  59  85 125 162 196 247 314 368
#     4  12  23  38  62  92 123 158 209 251 306 359
#     4  10  20  37  59  86 122 155 198 255 303 353
#     4  10  22  41  60  87 124 161 199 250 307 363
#     4  10  20  35  60  89 115 156 202 250 302 356
#     4  11  21  37  62  90 119 161 207 250 307 366
#
# _framework density 20.769957000000002
#
# number of rings (size 3 to 8) (size 9 to 14) (size 15 to 20)
#    0.000    1.429    2.857    3.000    0.000    1.714 
#    0.000    1.429    0.000    0.000    0.000    0.000 
#    0.000    0.000    0.000    0.000    0.000    0.000 
#
# Total GULP energy -156558.491611 kJ/mol
# GULP energy per Si atom -5591.374700 kJ/mol
# Density = 2.072268 g / cm^3
# Si number density = 20.769957 Si / 1000 Ang^3
#
#
#
# Elastic Constant Matrix: (Units=GPa)
#
#
# Indices 1 2 3 4 5 6 
#
# 1 121.7883 32.2376 -5.1407 0.0000 -25.6052 0.0000
# 2 32.2376 57.5200 0.0809 0.0000 -6.9973 0.0000
# 3 -5.1407 0.0809 34.9055 0.0000 -9.8836 0.0000
# 4 0.0000 0.0000 0.0000 10.9986 0.0000 -1.7472
# 5 -25.6052 -6.9973 -9.8836 0.0000 25.6123 0.0000
# 6 0.0000 0.0000 0.0000 -1.7472 0.0000 22.9598
#
#
#
# Elastic Compliance Matrix: (Units=1/GPa)
#
#
# Indices 1 2 3 4 5 6 
#
# 1 0.012730 -0.005511 0.005686 0.000000 0.013415 0.000000
# 2 -0.005511 0.020440 -0.000940 0.000000 -0.000288 0.000000
# 3 0.005686 -0.000940 0.034831 0.000000 0.018869 0.000000
# 4 0.000000 0.000000 0.000000 0.092033 0.000000 0.007004
# 5 0.013415 -0.000288 0.018869 0.000000 0.059658 0.000000
# 6 0.000000 0.000000 0.000000 0.007004 0.000000 0.044087
#
#
# Mechanical properties :
#
#
# Convention : Reuss Voigt Hill
#
# Bulk Modulus (GPa) = 15.04405 29.84105 22.44255
# Shear Modulus (GPa) = 17.39328 24.38321 20.88825
#
# Velocity S-wave (km/s) = 2.89697 3.43004 3.17471
# Velocity P-wave (km/s) = 4.29521 5.48502 4.92617
#
# Compressibility (1/GPa) = 0.06647146
#
# Stress axis : x y z
#
# Youngs Moduli (GPa) = 78.55337 48.92335 28.70991
#
# Poissons Ratio (x) = 0.26961 -0.16325
# Poissons Ratio (y) = 0.43289 0.02700
# Poissons Ratio (z) = -0.44667 0.04601
#
# Static dielectric constant tensor:
#      x y z
#    x 1.770400 0.000000 0.013660 
#    y 0.000000 1.724700 0.000000 
#    z 0.013660 0.000000 1.723750 
# 
# From -- ./inp_files/23245.got.cif
#   From: 2010.05.17/outbox.cif.g08.bks.cpg/sg11_12_cif.got.tgz:23245.got - 2010.06.03 12:22:45.
