data_PCOD9162469
_publ_section_title
;
Structure prediction by ZEFSAII (Michael W. Deem and Ramdas Pophale) SiO2 
 PCOD9162469
Probable space group: P 21/M
;
_chemical_formula_sum "Si O2"
_cell_formula_units_Z 28
_cell_length_a 15.128324
_cell_length_b 8.657818
_cell_length_c 20.360746
_cell_angle_alpha 90.000000
_cell_angle_beta 147.837376
_cell_angle_gamma 90.000000
_cell_volume 1419.610276
_symmetry_space_group_name_H-M "P 21/M"
_symmetry_group_IT_number 11
_symmetry_cell_setting 'monoclinic'
loop_
_space_group_symop_operation_xyz
x,y,z
-x,1/2+y,-z
-x,-y,-z
x,1/2-y,z
loop_
_atom_site_type_symbol
_atom_site_label
_atom_site_fract_x
_atom_site_fract_y
_atom_site_fract_z
Si Si1 0.388983 0.065959 0.792357
Si Si2 0.868559 0.434157 0.264719
Si Si3 0.293957 0.066771 0.065203
Si Si4 0.325818 0.936761 0.362658
Si Si5 0.014111 0.433451 0.792989
Si Si6 0.816445 0.562956 0.864978
Si Si7 0.129567 0.064163 0.528691
O O1 0.380478 0.250000 0.792115
O O2 0.302940 0.014352 0.669026
O O3 0.281124 0.999513 0.784822
O O4 0.575691 0.012197 0.901196
O O5 0.856842 0.250000 0.260561
O O6 0.881568 0.488927 0.198949
O O7 0.045992 0.485629 0.408362
O O8 0.323611 0.250000 0.080663
O O9 0.296625 0.019344 0.142808
O O10 0.110625 0.037212 0.921508
O O11 0.331747 0.750000 0.363591
O O12 0.175625 0.983764 0.317383
O O13 0.500000 0.000000 0.500000
O O14 0.266730 0.998081 0.253874
O O15 0.015478 0.250000 0.782077
O O16 0.825809 0.750000 0.866893
O O17 0.000000 0.500000 0.000000
O O18 0.129275 0.250000 0.528666
O O19 0.000000 0.000000 0.500000
#
# Coordination Sequence:
#
# PCOD9162469 Si02
#       7
#     4   4   4   4   4   4   4
#     4  10  20  35  56  85 117 154 199 248 300 359
#     4  10  20  35  57  84 116 157 199 245 301 363
#     4  10  22  40  60  85 118 157 203 252 303 365
#     4  11  24  44  67  97 131 166 209 266 324 383
#     4  10  22  41  60  82 118 160 202 250 307 369
#     4  11  22  41  68  95 124 165 210 260 320 382
#     4   8  16  31  50  74 106 141 184 234 287 344
#
# _framework density 19.723724000000001
#
# number of rings (size 3 to 8) (size 9 to 14) (size 15 to 20)
#    0.000    2.000    1.429    1.714    0.000    5.714 
#    0.000    2.857    0.000    0.000    0.000    0.000 
#    0.000    0.000    0.000    0.000    0.000    0.000 
#
# Total GULP energy -156037.352948 kJ/mol
# GULP energy per Si atom -5572.762605 kJ/mol
# Density = 1.967883 g / cm^3
# Si number density = 19.723724 Si / 1000 Ang^3
#
#
#
# Elastic Constant Matrix: (Units=GPa)
#
#
# Indices 1 2 3 4 5 6 
#
# 1 129.9657 40.3713 54.1108 0.0000 1.0294 0.0000
# 2 40.3713 36.0554 45.9492 0.0000 0.7024 0.0000
# 3 54.1108 45.9492 99.1412 0.0000 9.1097 0.0000
# 4 0.0000 0.0000 0.0000 28.4081 0.0000 0.1360
# 5 1.0294 0.7024 9.1097 0.0000 35.6400 0.0000
# 6 0.0000 0.0000 0.0000 0.1360 0.0000 29.9238
#
#
#
# Elastic Compliance Matrix: (Units=1/GPa)
#
#
# Indices 1 2 3 4 5 6 
#
# 1 0.011822 -0.012225 -0.000796 0.000000 0.000103 0.000000
# 2 -0.012225 0.082070 -0.032000 0.000000 0.006915 0.000000
# 3 -0.000796 -0.032000 0.025901 0.000000 -0.005967 0.000000
# 4 0.000000 0.000000 0.000000 0.035202 0.000000 -0.000160
# 5 0.000103 0.006915 -0.005967 0.000000 0.029444 0.000000
# 6 0.000000 0.000000 0.000000 -0.000160 0.000000 0.033419
#
#
# Mechanical properties :
#
#
# Convention : Reuss Voigt Hill
#
# Bulk Modulus (GPa) = 33.61298 60.66943 47.14120
# Shear Modulus (GPa) = 15.73223 27.10976 21.42099
#
# Velocity S-wave (km/s) = 2.82730 3.71141 3.29911
# Velocity P-wave (km/s) = 5.26660 7.01374 6.20200
#
# Compressibility (1/GPa) = 0.02975041
#
# Stress axis : x y z
#
# Youngs Moduli (GPa) = 84.58479 12.18465 38.60892
#
# Poissons Ratio (x) = 0.14896 0.03074
# Poissons Ratio (y) = 1.03405 1.23550
# Poissons Ratio (z) = 0.06734 0.38991
#
# Static dielectric constant tensor:
#      x y z
#    x 1.686270 0.000000 -0.019030 
#    y 0.000000 1.672470 0.000000 
#    z -0.019030 0.000000 1.774380 
# 
# From -- ./inp_files/65471.got.cif
#   From: 2010.05.17/outbox.cif.g08.bks.cpg/sg11_33_cif.got.tgz:65471.got - 2010.06.03 12:22:45.
