data_PCOD9162832
_publ_section_title
;
Structure prediction by ZEFSAII (Michael W. Deem and Ramdas Pophale) SiO2 
 PCOD9162832
Probable space group: P 21/M
;
_chemical_formula_sum "Si O2"
_cell_formula_units_Z 32
_cell_length_a 7.511205
_cell_length_b 16.087076
_cell_length_c 12.272808
_cell_angle_alpha 90.000000
_cell_angle_beta 90.366192
_cell_angle_gamma 90.000000
_cell_volume 1482.933918
_symmetry_space_group_name_H-M "P 21/M"
_symmetry_group_IT_number 11
_symmetry_cell_setting 'monoclinic'
loop_
_space_group_symop_operation_xyz
x,y,z
-x,1/2+y,-z
-x,-y,-z
x,1/2-y,z
loop_
_atom_site_type_symbol
_atom_site_label
_atom_site_fract_x
_atom_site_fract_y
_atom_site_fract_z
Si Si1 0.534733 0.498011 0.871870
Si Si2 0.962063 0.998623 0.872617
Si Si3 0.043033 0.848340 0.499374
Si Si4 0.989485 0.156443 0.739608
Si Si5 0.446542 0.657844 0.269552
Si Si6 0.932019 0.657411 0.739697
Si Si7 0.433049 0.906194 0.504816
Si Si8 0.512661 0.841731 0.744691
O O1 0.748410 0.499693 0.857460
O O2 0.481065 0.413933 0.808823
O O3 0.451063 0.579231 0.814427
O O4 0.500000 0.500000 0.000000
O O5 0.039955 0.081323 0.817822
O O6 0.020075 0.914687 0.811181
O O7 0.000000 0.000000 0.000000
O O8 0.095993 0.750000 0.498693
O O9 0.947687 0.861280 0.383754
O O10 0.219062 0.903531 0.501694
O O11 0.941946 0.863302 0.611199
O O12 0.043393 0.250000 0.771968
O O13 0.771409 0.156874 0.734308
O O14 0.504118 0.750000 0.237320
O O15 0.494400 0.639854 0.395229
O O16 0.008765 0.750000 0.755713
O O17 0.724035 0.662299 0.766668
O O18 0.486732 0.862027 0.617169
O O19 0.500000 0.000000 0.500000
O O20 0.437823 0.750000 0.769016
#
# Coordination Sequence:
#
# PCOD9162832 Si02
#       8
#     4   4   4   4   4   4   4   4
#     4  10  21  37  54  75 104 137 184 225 260 318
#     4  10  21  36  52  76 102 137 179 220 268 308
#     4   9  18  34  56  82 107 138 180 220 259 319
#     4   8  16  32  54  76 102 134 172 216 261 311
#     4   9  17  33  54  76 105 139 172 214 266 314
#     4   9  20  37  55  77 109 144 177 215 267 323
#     4  11  19  32  54  85 112 138 173 217 269 320
#     4  10  20  36  55  78 112 147 174 217 276 325
#
# _framework density 21.578844
#
# number of rings (size 3 to 8) (size 9 to 14) (size 15 to 20)
#    0.000    2.500    1.250    1.875    1.750    2.500 
#    0.000    0.000    0.000    1.500    0.000    0.000 
#    0.000    0.000    0.000    0.000    0.000    0.000 
#
# Total GULP energy -178682.782859 kJ/mol
# GULP energy per Si atom -5583.836964 kJ/mol
# Density = 2.152973 g / cm^3
# Si number density = 21.578844 Si / 1000 Ang^3
#
#
#
# Elastic Constant Matrix: (Units=GPa)
#
#
# Indices 1 2 3 4 5 6 
#
# 1 44.7940 3.0972 -11.3795 0.0000 -3.3088 0.0000
# 2 3.0972 190.6272 117.2732 0.0000 3.7538 0.0000
# 3 -11.3795 117.2732 163.9630 0.0000 0.5762 0.0000
# 4 0.0000 0.0000 0.0000 11.8792 0.0000 -12.3562
# 5 -3.3088 3.7538 0.5762 0.0000 25.1500 0.0000
# 6 0.0000 0.0000 0.0000 -12.3562 0.0000 -16.6647
#
#
#
# Elastic Compliance Matrix: (Units=1/GPa)
#
#
# Indices 1 2 3 4 5 6 
#
# 1 0.023642 -0.002596 0.003485 0.000000 0.003418 0.000000
# 2 -0.002596 0.009692 -0.007106 0.000000 -0.001625 0.000000
# 3 0.003485 -0.007106 0.011419 0.000000 0.001258 0.000000
# 4 0.000000 0.000000 0.000000 0.047526 0.000000 -0.035239
# 5 0.003418 -0.001625 0.001258 0.000000 0.040425 0.000000
# 6 0.000000 0.000000 0.000000 -0.035239 0.000000 -0.033879
#
#
# Mechanical properties :
#
#
# Convention : Reuss Voigt Hill
#
# Bulk Modulus (GPa) = 30.94127 68.59624 49.76876
# Shear Modulus (GPa) = 40.97276 23.43244 32.20260
#
# Velocity S-wave (km/s) = 4.36219 3.29887 3.86725
# Velocity P-wave (km/s) = 6.30408 6.80939 6.56160
#
# Compressibility (1/GPa) = 0.03231929
#
# Stress axis : x y z
#
# Youngs Moduli (GPa) = 42.29813 103.17891 87.57135
#
# Poissons Ratio (x) = 0.26780 -0.30520
# Poissons Ratio (y) = 0.10979 0.62232
# Poissons Ratio (z) = -0.14742 0.73324
#
# Static dielectric constant tensor:
#      x y z
#    x 1.815280 0.000000 -0.001780 
#    y 0.000000 1.793910 0.000000 
#    z -0.001780 0.000000 1.742980 
# 
# From -- ./inp_files/31870.got.cif
#   From: 2010.05.17/outbox.cif.g08.bks.cpg/sg11_16_cif.got.tgz:31870.got - 2010.06.03 12:22:45.
