data_PCOD9162226
_publ_section_title
;
Structure prediction by ZEFSAII (Michael W. Deem and Ramdas Pophale) SiO2 
 PCOD9162226
Probable space group: P 21/M
;
_chemical_formula_sum "Si O2"
_cell_formula_units_Z 32
_cell_length_a 12.538847
_cell_length_b 9.556508
_cell_length_c 32.590778
_cell_angle_alpha 90.000000
_cell_angle_beta 26.771103
_cell_angle_gamma 90.000000
_cell_volume 1759.042259
_symmetry_space_group_name_H-M "P 21/M"
_symmetry_group_IT_number 11
_symmetry_cell_setting 'monoclinic'
loop_
_space_group_symop_operation_xyz
x,y,z
-x,1/2+y,-z
-x,-y,-z
x,1/2-y,z
loop_
_atom_site_type_symbol
_atom_site_label
_atom_site_fract_x
_atom_site_fract_y
_atom_site_fract_z
Si Si1 0.597399 0.089278 0.816547
Si Si2 0.639766 0.091317 0.309341
Si Si3 0.859613 0.419205 0.011330
Si Si4 0.832752 0.597667 0.583122
Si Si5 0.626782 0.398784 0.710978
Si Si6 0.465309 0.585933 0.447255
Si Si7 0.139131 0.413332 0.617658
Si Si8 0.868203 0.907715 0.166256
O O1 0.567027 0.250000 0.842447
O O2 0.550304 0.093925 0.783923
O O3 0.874647 0.049677 0.723562
O O4 0.405878 0.981152 0.899135
O O5 0.705239 0.250000 0.299326
O O6 0.413557 0.104329 0.356910
O O7 0.552726 0.997171 0.377167
O O8 0.842808 0.013854 0.212882
O O9 0.867852 0.250000 0.015283
O O10 0.000000 0.500000 0.000000
O O11 0.975155 0.448106 0.927009
O O12 0.937775 0.750000 0.551122
O O13 0.782849 0.527756 0.643778
O O14 0.000000 0.500000 0.500000
O O15 0.753642 0.250000 0.660552
O O16 0.394674 0.398671 0.762803
O O17 0.418796 0.750000 0.454784
O O18 0.244929 0.508802 0.545112
O O19 0.677956 0.578369 0.407510
O O20 0.129153 0.250000 0.607640
O O21 0.934966 0.750000 0.156745
#
# Coordination Sequence:
#
# PCOD9162226 Si02
#       8
#     4   4   4   4   4   4   4   4
#     4  10  20  35  54  78 108 143 177 219 270 317
#     4  10  21  35  53  76 101 136 177 219 266 317
#     4  11  21  34  54  80 111 147 183 220 265 316
#     4  10  21  33  45  67  99 135 174 213 257 310
#     4   9  17  31  48  68 100 138 172 207 254 304
#     4  10  20  36  58  82 107 140 179 223 273 323
#     4   9  20  37  57  81 110 141 178 223 271 322
#     4   9  18  34  52  74 104 138 176 214 255 307
#
# _framework density 18.191718999999999
#
# number of rings (size 3 to 8) (size 9 to 14) (size 15 to 20)
#    0.000    2.250    1.250    1.500    1.750    4.000 
#    0.000    0.000    0.000    0.750    0.000    0.000 
#    0.000    0.000    0.000    0.000    0.000    0.000 
#
# Total GULP energy -178346.221199 kJ/mol
# GULP energy per Si atom -5573.319412 kJ/mol
# Density = 1.815031 g / cm^3
# Si number density = 18.191719 Si / 1000 Ang^3
#
#
#
# Elastic Constant Matrix: (Units=GPa)
#
#
# Indices 1 2 3 4 5 6 
#
# 1 41.8998 29.8986 24.6754 0.0000 3.5049 0.0000
# 2 29.8986 142.8389 85.5948 0.0000 14.5682 0.0000
# 3 24.6754 85.5948 116.7850 0.0000 6.4863 0.0000
# 4 0.0000 0.0000 0.0000 34.3363 0.0000 3.5834
# 5 3.5049 14.5682 6.4863 0.0000 24.9222 0.0000
# 6 0.0000 0.0000 0.0000 3.5834 0.0000 19.5642
#
#
#
# Elastic Compliance Matrix: (Units=1/GPa)
#
#
# Indices 1 2 3 4 5 6 
#
# 1 0.028634 -0.004120 -0.002984 0.000000 -0.000842 0.000000
# 2 -0.004120 0.013719 -0.008900 0.000000 -0.005124 0.000000
# 3 -0.002984 -0.008900 0.015630 0.000000 0.001554 0.000000
# 4 0.000000 0.000000 0.000000 0.029691 0.000000 -0.005438
# 5 -0.000842 -0.005124 0.001554 0.000000 0.042834 0.000000
# 6 0.000000 0.000000 0.000000 -0.005438 0.000000 0.052110
#
#
# Mechanical properties :
#
#
# Convention : Reuss Voigt Hill
#
# Bulk Modulus (GPa) = 38.49741 64.65125 51.57433
# Shear Modulus (GPa) = 22.39307 26.52153 24.45730
#
# Velocity S-wave (km/s) = 3.51229 3.82238 3.67061
# Velocity P-wave (km/s) = 6.13647 7.42272 6.81003
#
# Compressibility (1/GPa) = 0.02597578
#
# Stress axis : x y z
#
# Youngs Moduli (GPa) = 34.92377 72.89148 63.97971
#
# Poissons Ratio (x) = 0.30028 0.19091
# Poissons Ratio (y) = 0.14387 0.56942
# Poissons Ratio (z) = 0.10421 0.64874
#
# Static dielectric constant tensor:
#      x y z
#    x 1.629430 0.000000 -0.015660 
#    y 0.000000 1.794660 0.000000 
#    z -0.015660 0.000000 1.640970 
# 
# From -- ./inp_files/56481.got.cif
#   From: 2010.05.17/outbox.cif.g08.bks.cpg/sg11_29_cif.got.tgz:56481.got - 2010.06.03 12:22:45.
