data_PCOD9162288
_publ_section_title
;
Structure prediction by ZEFSAII (Michael W. Deem and Ramdas Pophale) SiO2 
 PCOD9162288
Probable space group: P 21/M
;
_chemical_formula_sum "Si O2"
_cell_formula_units_Z 28
_cell_length_a 9.601096
_cell_length_b 8.952859
_cell_length_c 25.266515
_cell_angle_alpha 90.000000
_cell_angle_beta 139.783065
_cell_angle_gamma 90.000000
_cell_volume 1402.321307
_symmetry_space_group_name_H-M "P 21/M"
_symmetry_group_IT_number 11
_symmetry_cell_setting 'monoclinic'
loop_
_space_group_symop_operation_xyz
x,y,z
-x,1/2+y,-z
-x,-y,-z
x,1/2-y,z
loop_
_atom_site_type_symbol
_atom_site_label
_atom_site_fract_x
_atom_site_fract_y
_atom_site_fract_z
Si Si1 0.729130 0.423571 0.074664
Si Si2 0.844962 0.424047 0.836602
Si Si3 0.054544 0.570961 0.572260
Si Si4 0.643237 0.427343 0.495716
Si Si5 0.107655 0.925022 0.757201
Si Si6 0.567907 0.428991 0.242411
Si Si7 0.315810 0.576557 0.331011
O O1 0.714768 0.250000 0.056826
O O2 0.793463 0.435234 0.155267
O O3 0.922885 0.497752 0.097782
O O4 0.500000 0.500000 0.000000
O O5 0.871243 0.250000 0.855805
O O6 0.664357 0.495765 0.821510
O O7 0.750881 0.438796 0.749455
O O8 0.039765 0.750000 0.564886
O O9 0.873306 0.506833 0.558986
O O10 0.000000 0.500000 0.500000
O O11 0.285991 0.530927 0.664093
O O12 0.500000 0.500000 0.500000
O O13 0.662593 0.250000 0.506803
O O14 0.512403 0.471078 0.404552
O O15 0.048944 0.750000 0.730508
O O16 0.286179 0.968974 0.765978
O O17 0.893342 0.024954 0.696230
O O18 0.540899 0.250000 0.234333
O O19 0.369443 0.750000 0.357206
#
# Coordination Sequence:
#
# PCOD9162288 Si02
#       7
#     4   4   4   4   4   4   4
#     4  10  20  37  62  88 115 144 178 221 271 328
#     4  10  21  36  57  84 112 143 181 222 267 324
#     4  11  23  38  56  80 112 151 193 238 287 339
#     4  12  24  37  54  77 107 144 189 241 292 340
#     4   9  19  36  58  83 111 146 185 228 278 330
#     4  10  21  37  56  79 109 145 186 229 275 327
#     4  10  20  35  55  79 107 141 185 233 279 334
#
# _framework density 19.966892999999999
#
# number of rings (size 3 to 8) (size 9 to 14) (size 15 to 20)
#    0.000    1.714    0.000    4.714    0.000    7.429 
#    0.000    0.714    0.000    0.000    0.000    0.000 
#    0.000    0.000    0.000    0.000    0.000    0.000 
#
# Total GULP energy -156540.485063 kJ/mol
# GULP energy per Si atom -5590.731609 kJ/mol
# Density = 1.992145 g / cm^3
# Si number density = 19.966893 Si / 1000 Ang^3
#
#
#
# Elastic Constant Matrix: (Units=GPa)
#
#
# Indices 1 2 3 4 5 6 
#
# 1 101.3805 25.1656 7.8406 0.0000 31.0815 0.0000
# 2 25.1656 77.3020 34.9862 0.0000 21.3288 0.0000
# 3 7.8406 34.9862 52.1201 0.0000 36.1723 0.0000
# 4 0.0000 0.0000 0.0000 31.4988 0.0000 7.8696
# 5 31.0815 21.3288 36.1723 0.0000 35.5827 0.0000
# 6 0.0000 0.0000 0.0000 7.8696 0.0000 34.3623
#
#
#
# Elastic Compliance Matrix: (Units=1/GPa)
#
#
# Indices 1 2 3 4 5 6 
#
# 1 0.042420 -0.021717 0.084481 0.000000 -0.109917 0.000000
# 2 -0.021717 0.029992 -0.059610 0.000000 0.061591 0.000000
# 3 0.084481 -0.059610 0.247583 0.000000 -0.289748 0.000000
# 4 0.000000 0.000000 0.000000 0.033674 0.000000 -0.007712
# 5 -0.109917 0.061591 -0.289748 0.000000 0.381747 0.000000
# 6 0.000000 0.000000 0.000000 -0.007712 0.000000 0.030868
#
#
# Mechanical properties :
#
#
# Convention : Reuss Voigt Hill
#
# Bulk Modulus (GPa) = 3.06466 40.75416 21.90941
# Shear Modulus (GPa) = 5.75544 31.14278 18.44911
#
# Velocity S-wave (km/s) = 1.69963 3.95361 3.04301
# Velocity P-wave (km/s) = 2.32161 6.42624 4.83148
#
# Compressibility (1/GPa) = 0.32630080
#
# Stress axis : x y z
#
# Youngs Moduli (GPa) = 23.57403 33.34268 4.03905
#
# Poissons Ratio (x) = 0.72411 -0.34122
# Poissons Ratio (y) = 0.51196 0.24077
# Poissons Ratio (z) = -1.99156 1.98757
#
# Static dielectric constant tensor:
#      x y z
#    x 1.775140 0.000000 -0.025940 
#    y 0.000000 1.408610 0.000000 
#    z -0.025940 0.000000 1.706920 
# 
# From -- ./inp_files/28417.got.cif
#   From: 2010.05.17/outbox.cif.g08.bks.cpg/sg11_15_cif.got.tgz:28417.got - 2010.06.03 12:22:45.
