data_PCOD9162164
_publ_section_title
;
Structure prediction by ZEFSAII (Michael W. Deem and Ramdas Pophale) SiO2 
 PCOD9162164
Probable space group: P 21/M
;
_chemical_formula_sum "Si O2"
_cell_formula_units_Z 28
_cell_length_a 14.025090
_cell_length_b 8.602589
_cell_length_c 16.336538
_cell_angle_alpha 90.000000
_cell_angle_beta 130.411329
_cell_angle_gamma 90.000000
_cell_volume 1500.767842
_symmetry_space_group_name_H-M "P 21/M"
_symmetry_group_IT_number 11
_symmetry_cell_setting 'monoclinic'
loop_
_space_group_symop_operation_xyz
x,y,z
-x,1/2+y,-z
-x,-y,-z
x,1/2-y,z
loop_
_atom_site_type_symbol
_atom_site_label
_atom_site_fract_x
_atom_site_fract_y
_atom_site_fract_z
Si Si1 0.969800 0.064690 0.239166
Si Si2 0.773516 0.063593 0.557423
Si Si3 0.670000 0.438015 0.674641
Si Si4 0.303086 0.063657 0.884491
Si Si5 0.495991 0.064593 0.130460
Si Si6 0.555410 0.564016 0.339710
Si Si7 0.940378 0.063522 0.884326
O O1 0.966166 0.250000 0.238390
O O2 0.087546 0.004839 0.357834
O O3 0.995600 0.005716 0.161077
O O4 0.837996 0.996131 0.194750
O O5 0.781793 0.250000 0.563838
O O6 0.700125 0.009462 0.599261
O O7 0.690035 0.007958 0.435549
O O8 0.662283 0.250000 0.667602
O O9 0.544977 0.495146 0.648693
O O10 0.793233 0.477543 0.795823
O O11 0.306671 0.250000 0.877808
O O12 0.387425 0.987954 0.860739
O O13 0.372247 0.023689 0.008877
O O14 0.498381 0.250000 0.142649
O O15 0.506056 0.983471 0.223370
O O16 0.563736 0.750000 0.349665
O O17 0.951121 0.250000 0.886959
O O18 0.000000 0.000000 0.000000
#
# Coordination Sequence:
#
# PCOD9162164 Si02
#       7
#     4   4   4   4   4   4   4
#     4  11  22  37  59  84 112 152 191 232 287 345
#     4  10  20  38  58  81 115 153 194 240 282 335
#     4   8  18  34  53  78 112 152 191 232 279 330
#     4  10  21  40  63  86 114 148 187 235 288 344
#     4  10  22  39  59  87 116 147 188 234 285 342
#     4  11  21  35  57  85 116 151 192 237 285 338
#     4  10  20  35  52  80 116 152 192 237 281 335
#
# _framework density 18.657115999999998
#
# number of rings (size 3 to 8) (size 9 to 14) (size 15 to 20)
#    0.000    2.000    0.000    4.714    2.000    1.714 
#    0.000    7.857    0.000    0.000    0.000    0.000 
#    0.000    0.000    0.000    0.000    0.000    0.000 
#
# Total GULP energy -156376.195987 kJ/mol
# GULP energy per Si atom -5584.864142 kJ/mol
# Density = 1.861465 g / cm^3
# Si number density = 18.657116 Si / 1000 Ang^3
#
#
#
# Elastic Constant Matrix: (Units=GPa)
#
#
# Indices 1 2 3 4 5 6 
#
# 1 65.0268 3.4133 19.9490 0.0000 28.8208 0.0000
# 2 3.4133 46.1783 7.0230 0.0000 8.2965 0.0000
# 3 19.9490 7.0230 60.9908 0.0000 14.5341 0.0000
# 4 0.0000 0.0000 0.0000 32.3903 0.0000 -1.3270
# 5 28.8208 8.2965 14.5341 0.0000 20.0500 0.0000
# 6 0.0000 0.0000 0.0000 -1.3270 0.0000 26.5381
#
#
#
# Elastic Compliance Matrix: (Units=1/GPa)
#
#
# Indices 1 2 3 4 5 6 
#
# 1 0.045678 0.009081 0.000672 0.000000 -0.069905 0.000000
# 2 0.009081 0.025211 -0.000334 0.000000 -0.023243 0.000000
# 3 0.000672 -0.000334 0.019839 0.000000 -0.015209 0.000000
# 4 0.000000 0.000000 0.000000 0.030937 0.000000 0.001547
# 5 -0.069905 -0.023243 -0.015209 0.000000 0.171004 0.000000
# 6 0.000000 0.000000 0.000000 0.001547 0.000000 0.037759
#
#
# Mechanical properties :
#
#
# Convention : Reuss Voigt Hill
#
# Bulk Modulus (GPa) = 9.12699 25.88516 17.50608
# Shear Modulus (GPa) = 14.36320 25.24971 19.80645
#
# Velocity S-wave (km/s) = 2.77763 3.68279 3.26176
# Velocity P-wave (km/s) = 3.89738 5.65581 4.85684
#
# Compressibility (1/GPa) = 0.10956517
#
# Stress axis : x y z
#
# Youngs Moduli (GPa) = 21.89215 39.66573 50.40615
#
# Poissons Ratio (x) = -0.36019 -0.03388
# Poissons Ratio (y) = -0.19880 0.01685
# Poissons Ratio (z) = -0.01472 0.01326
#
# Static dielectric constant tensor:
#      x y z
#    x 1.630300 0.000000 0.005510 
#    y 0.000000 1.625470 0.000000 
#    z 0.005510 0.000000 1.634320 
# 
# From -- ./inp_files/48921.got.cif
#   From: 2010.05.17/outbox.cif.g08.bks.cpg/sg11_25_cif.got.tgz:48921.got - 2010.06.03 12:22:45.
