data_PCOD9162460
_publ_section_title
;
Structure prediction by ZEFSAII (Michael W. Deem and Ramdas Pophale) SiO2 
 PCOD9162460
Probable space group: P 21/M
;
_chemical_formula_sum "Si O2"
_cell_formula_units_Z 28
_cell_length_a 14.742087
_cell_length_b 8.960280
_cell_length_c 13.367009
_cell_angle_alpha 90.000000
_cell_angle_beta 55.598305
_cell_angle_gamma 90.000000
_cell_volume 1456.866262
_symmetry_space_group_name_H-M "P 21/M"
_symmetry_group_IT_number 11
_symmetry_cell_setting 'monoclinic'
loop_
_space_group_symop_operation_xyz
x,y,z
-x,1/2+y,-z
-x,-y,-z
x,1/2-y,z
loop_
_atom_site_type_symbol
_atom_site_label
_atom_site_fract_x
_atom_site_fract_y
_atom_site_fract_z
Si Si1 0.836972 0.426897 0.765827
Si Si2 0.231550 0.428749 0.716147
Si Si3 0.404683 0.573739 0.994043
Si Si4 0.610733 0.574752 0.569568
Si Si5 0.954468 0.071999 0.289578
Si Si6 0.395726 0.072168 0.782385
Si Si7 0.172830 0.427371 0.444012
O O1 0.858689 0.250000 0.746265
O O2 0.713061 0.449920 0.880403
O O3 0.849251 0.500810 0.649187
O O4 0.923909 0.504046 0.785369
O O5 0.211456 0.250000 0.725033
O O6 0.322359 0.460247 0.573210
O O7 0.121881 0.514349 0.753078
O O8 0.287731 0.468963 0.785736
O O9 0.425027 0.750000 0.974316
O O10 0.500000 0.500000 0.000000
O O11 0.401002 0.505025 0.886092
O O12 0.580847 0.750000 0.585599
O O13 0.503555 0.477696 0.653929
O O14 0.699686 0.552963 0.602950
O O15 0.956657 0.250000 0.291817
O O16 0.897850 0.006039 0.425469
O O17 0.396550 0.250000 0.793324
O O18 0.850202 0.750000 0.541956
#
# Coordination Sequence:
#
# PCOD9162460 Si02
#       7
#     4   4   4   4   4   4   4
#     4  11  23  39  58  81 111 149 190 232 279 333
#     4   9  20  38  57  82 116 152 187 229 279 331
#     4  11  25  43  63  85 112 147 187 231 278 329
#     4   9  18  33  55  83 117 153 188 228 276 330
#     4  11  22  36  58  86 114 147 186 232 281 332
#     4  11  22  36  58  85 115 150 188 232 282 332
#     4  10  20  35  56  84 118 152 185 228 280 335
#
# _framework density 19.219335000000001
#
# number of rings (size 3 to 8) (size 9 to 14) (size 15 to 20)
#    0.000    1.714    0.000    5.571    0.000    8.571 
#    0.000    0.714    0.000    0.000    0.000    0.000 
#    0.000    0.000    0.000    0.000    0.000    0.000 
#
# Total GULP energy -156537.228041 kJ/mol
# GULP energy per Si atom -5590.615287 kJ/mol
# Density = 1.917559 g / cm^3
# Si number density = 19.219335 Si / 1000 Ang^3
#
#
#
# Elastic Constant Matrix: (Units=GPa)
#
#
# Indices 1 2 3 4 5 6 
#
# 1 177.3172 100.4691 55.9825 0.0000 14.8370 0.0000
# 2 100.4691 111.1842 39.8475 0.0000 -3.9239 0.0000
# 3 55.9825 39.8475 29.7915 0.0000 15.3176 0.0000
# 4 0.0000 0.0000 0.0000 25.8869 0.0000 0.7615
# 5 14.8370 -3.9239 15.3176 0.0000 24.8098 0.0000
# 6 0.0000 0.0000 0.0000 0.7615 0.0000 35.8717
#
#
#
# Elastic Compliance Matrix: (Units=1/GPa)
#
#
# Indices 1 2 3 4 5 6 
#
# 1 0.016862 -0.004075 -0.030356 0.000000 0.008013 0.000000
# 2 -0.004075 0.045048 -0.084261 0.000000 0.061584 0.000000
# 3 -0.030356 -0.084261 0.294233 0.000000 -0.176833 0.000000
# 4 0.000000 0.000000 0.000000 0.038654 0.000000 -0.000821
# 5 0.008013 0.061584 -0.176833 0.000000 0.154431 0.000000
# 6 0.000000 0.000000 0.000000 -0.000821 0.000000 0.027895
#
#
# Mechanical properties :
#
#
# Convention : Reuss Voigt Hill
#
# Bulk Modulus (GPa) = 8.42038 78.98792 43.70415
# Shear Modulus (GPa) = 5.85417 25.44660 15.65038
#
# Velocity S-wave (km/s) = 1.74717 3.64264 2.85670
# Velocity P-wave (km/s) = 2.90875 7.67328 5.80259
#
# Compressibility (1/GPa) = 0.11875950
#
# Stress axis : x y z
#
# Youngs Moduli (GPa) = 59.30588 22.19854 3.39867
#
# Poissons Ratio (x) = 0.09045 0.10317
# Poissons Ratio (y) = 0.24165 0.28638
# Poissons Ratio (z) = 1.80028 1.87048
#
# Static dielectric constant tensor:
#      x y z
#    x 1.682160 0.000000 -0.004600 
#    y 0.000000 1.635760 0.000000 
#    z -0.004600 0.000000 1.651660 
# 
# From -- ./inp_files/37847.got.cif
#   From: 2010.05.17/outbox.cif.g08.bks.cpg/sg11_19_cif.got.tgz:37847.got - 2010.06.03 12:22:45.
