data_PCOD9162337
_publ_section_title
;
Structure prediction by ZEFSAII (Michael W. Deem and Ramdas Pophale) SiO2 
 PCOD9162337
Probable space group: P 21/M
;
_chemical_formula_sum "Si O2"
_cell_formula_units_Z 32
_cell_length_a 15.941291
_cell_length_b 11.302941
_cell_length_c 19.664763
_cell_angle_alpha 90.000000
_cell_angle_beta 28.948822
_cell_angle_gamma 90.000000
_cell_volume 1715.040292
_symmetry_space_group_name_H-M "P 21/M"
_symmetry_group_IT_number 11
_symmetry_cell_setting 'monoclinic'
loop_
_space_group_symop_operation_xyz
x,y,z
-x,1/2+y,-z
-x,-y,-z
x,1/2-y,z
loop_
_atom_site_type_symbol
_atom_site_label
_atom_site_fract_x
_atom_site_fract_y
_atom_site_fract_z
Si Si1 0.588160 0.619758 0.469346
Si Si2 0.017353 0.387395 0.286337
Si Si3 0.920728 0.617971 0.139796
Si Si4 0.535342 0.885008 0.797563
Si Si5 0.804559 0.963621 0.978078
Si Si6 0.625283 0.609470 0.886405
Si Si7 0.667602 0.530946 0.560217
Si Si8 0.325289 0.120796 0.796440
O O1 0.500000 0.500000 0.500000
O O2 0.502052 0.750000 0.517576
O O3 0.773703 0.623488 0.301601
O O4 0.624282 0.608384 0.524249
O O5 0.964729 0.250000 0.329717
O O6 0.086741 0.412775 0.161130
O O7 0.186343 0.406889 0.213569
O O8 0.855154 0.470927 0.418897
O O9 0.977103 0.750000 0.078970
O O10 0.817937 0.558825 0.149694
O O11 0.079372 0.553273 0.061125
O O12 0.472848 0.750000 0.837366
O O13 0.637169 0.897741 0.796146
O O14 0.641356 0.911592 0.653288
O O15 0.369413 0.970010 0.921668
O O16 0.744172 0.873070 0.078234
O O17 0.571457 0.750000 0.940013
O O18 0.500000 0.500000 0.000000
O O19 0.511577 0.437035 0.666460
O O20 0.345889 0.250000 0.750764
#
# Coordination Sequence:
#
# PCOD9162337 Si02
#       8
#     4   4   4   4   4   4   4   4
#     4  11  22  38  59  86 121 163 209 256 307 364
#     4  11  23  38  61  92 125 158 202 257 310 371
#     4  10  20  35  55  82 117 155 204 257 303 353
#     4  10  22  40  63  87 119 160 203 254 312 371
#     4  11  20  36  59  86 119 152 208 250 311 364
#     4  10  21  42  66  95 128 160 198 251 313 377
#     4  11  22  39  59  86 122 162 210 251 303 362
#     4  10  21  36  55  80 119 163 202 250 306 357
#
# _framework density 18.658455
#
# number of rings (size 3 to 8) (size 9 to 14) (size 15 to 20)
#    0.000    1.500    3.750    1.875    0.000    1.000 
#    0.000    1.875    0.000    0.000    0.000    0.000 
#    0.000    0.000    0.000    0.000    0.000    0.000 
#
# Total GULP energy -178203.927655 kJ/mol
# GULP energy per Si atom -5568.872739 kJ/mol
# Density = 1.861599 g / cm^3
# Si number density = 18.658455 Si / 1000 Ang^3
#
#
#
# Elastic Constant Matrix: (Units=GPa)
#
#
# Indices 1 2 3 4 5 6 
#
# 1 115.8217 33.9600 28.6771 0.0000 5.8372 0.0000
# 2 33.9600 94.2171 23.1663 0.0000 -6.5230 0.0000
# 3 28.6771 23.1663 67.9221 0.0000 5.4438 0.0000
# 4 0.0000 0.0000 0.0000 277.4346 0.0000 -37.0073
# 5 5.8372 -6.5230 5.4438 0.0000 34.5455 0.0000
# 6 0.0000 0.0000 0.0000 -37.0073 0.0000 29.3626
#
#
#
# Elastic Compliance Matrix: (Units=1/GPa)
#
#
# Indices 1 2 3 4 5 6 
#
# 1 0.010427 -0.003100 -0.003197 0.000000 -0.001843 0.000000
# 2 -0.003100 0.012790 -0.003331 0.000000 0.003464 0.000000
# 3 -0.003197 -0.003331 0.017436 0.000000 -0.002836 0.000000
# 4 0.000000 0.000000 0.000000 0.004333 0.000000 0.005461
# 5 -0.001843 0.003464 -0.002836 0.000000 0.030360 0.000000
# 6 0.000000 0.000000 0.000000 0.005461 0.000000 0.040940
#
#
# Mechanical properties :
#
#
# Convention : Reuss Voigt Hill
#
# Bulk Modulus (GPa) = 46.73633 49.95194 48.34413
# Shear Modulus (GPa) = 35.04456 81.07904 58.06180
#
# Velocity S-wave (km/s) = 4.33854 6.59914 5.58442
# Velocity P-wave (km/s) = 7.08519 9.21383 8.21872
#
# Compressibility (1/GPa) = 0.02139663
#
# Stress axis : x y z
#
# Youngs Moduli (GPa) = 95.90034 78.18604 57.35185
#
# Poissons Ratio (x) = 0.24237 0.18338
# Poissons Ratio (y) = 0.29729 0.19104
# Poissons Ratio (z) = 0.30664 0.26045
#
# Static dielectric constant tensor:
#      x y z
#    x 1.654320 0.000000 0.020360 
#    y 0.000000 1.724200 0.000000 
#    z 0.020360 0.000000 1.623260 
# 
# From -- ./inp_files/60384.got.cif
#   From: 2010.05.17/outbox.cif.g08.bks.cpg/sg11_31_cif.got.tgz:60384.got - 2010.06.03 12:22:45.
