data_PCOD9162097
_publ_section_title
;
Structure prediction by ZEFSAII (Michael W. Deem and Ramdas Pophale) SiO2 
 PCOD9162097
Probable space group: P 21/M
;
_chemical_formula_sum "Si O2"
_cell_formula_units_Z 28
_cell_length_a 11.814944
_cell_length_b 8.747582
_cell_length_c 15.374504
_cell_angle_alpha 90.000000
_cell_angle_beta 114.802899
_cell_angle_gamma 90.000000
_cell_volume 1442.414413
_symmetry_space_group_name_H-M "P 21/M"
_symmetry_group_IT_number 11
_symmetry_cell_setting 'monoclinic'
loop_
_space_group_symop_operation_xyz
x,y,z
-x,1/2+y,-z
-x,-y,-z
x,1/2-y,z
loop_
_atom_site_type_symbol
_atom_site_label
_atom_site_fract_x
_atom_site_fract_y
_atom_site_fract_z
Si Si1 0.547661 0.434181 0.607093
Si Si2 0.378106 0.933906 0.706040
Si Si3 0.173312 0.933053 0.340954
Si Si4 0.972118 0.567937 0.855076
Si Si5 0.135545 0.565778 0.526491
Si Si6 0.522488 0.066149 0.911684
Si Si7 0.803060 0.434172 0.952402
O O1 0.500000 0.500000 0.500000
O O2 0.534742 0.250000 0.603827
O O3 0.471497 0.506862 0.661322
O O4 0.694227 0.472162 0.659632
O O5 0.382972 0.750000 0.711380
O O6 0.240082 0.981077 0.629834
O O7 0.421951 0.003407 0.811032
O O8 0.161490 0.750000 0.335109
O O9 0.176274 0.981645 0.442398
O O10 0.061836 0.004232 0.249999
O O11 0.965847 0.750000 0.851614
O O12 0.869308 0.505164 0.889707
O O13 0.106902 0.524008 0.937564
O O14 0.130428 0.750000 0.526111
O O15 0.000000 0.500000 0.500000
O O16 0.518428 0.250000 0.912747
O O17 0.660771 0.020017 0.922599
O O18 0.500000 0.000000 0.000000
O O19 0.805929 0.250000 0.943577
#
# Coordination Sequence:
#
# PCOD9162097 Si02
#       7
#     4   4   4   4   4   4   4
#     4  11  21  36  60  89 122 157 197 243 298 358
#     4  11  23  42  63  89 124 157 196 251 306 356
#     4  10  21  38  56  82 120 156 188 234 295 348
#     4  10  20  34  58  89 115 147 192 238 289 349
#     4  10  23  42  60  82 116 157 197 241 291 349
#     4  11  24  42  63  88 118 158 204 250 301 356
#     4   9  20  39  58  81 118 154 188 238 299 349
#
# _framework density 19.411898000000001
#
# number of rings (size 3 to 8) (size 9 to 14) (size 15 to 20)
#    0.000    1.714    1.429    2.571    0.000    9.143 
#    0.000    4.286    0.000    0.000    0.000    0.000 
#    0.000    0.000    0.000    0.000    0.000    0.000 
#
# Total GULP energy -156465.810155 kJ/mol
# GULP energy per Si atom -5588.064648 kJ/mol
# Density = 1.936772 g / cm^3
# Si number density = 19.411898 Si / 1000 Ang^3
#
#
#
# Elastic Constant Matrix: (Units=GPa)
#
#
# Indices 1 2 3 4 5 6 
#
# 1 94.5728 26.7431 54.0110 0.0000 18.5256 0.0000
# 2 26.7431 32.2901 40.0837 0.0000 7.3770 0.0000
# 3 54.0110 40.0837 178.2236 0.0000 16.8738 0.0000
# 4 0.0000 0.0000 0.0000 38.6960 0.0000 -1.3926
# 5 18.5256 7.3770 16.8738 0.0000 27.6322 0.0000
# 6 0.0000 0.0000 0.0000 -1.3926 0.0000 29.5182
#
#
#
# Elastic Compliance Matrix: (Units=1/GPa)
#
#
# Indices 1 2 3 4 5 6 
#
# 1 0.015586 -0.008723 -0.002115 0.000000 -0.006829 0.000000
# 2 -0.008723 0.048776 -0.008117 0.000000 -0.002217 0.000000
# 3 -0.002115 -0.008117 0.008213 0.000000 -0.001430 0.000000
# 4 0.000000 0.000000 0.000000 0.025886 0.000000 0.001221
# 5 -0.006829 -0.002217 -0.001430 0.000000 0.042233 0.000000
# 6 0.000000 0.000000 0.000000 0.001221 0.000000 0.033935
#
#
# Mechanical properties :
#
#
# Convention : Reuss Voigt Hill
#
# Bulk Modulus (GPa) = 28.84703 60.75136 44.79919
# Shear Modulus (GPa) = 22.31204 31.45251 26.88227
#
# Velocity S-wave (km/s) = 3.39396 4.02962 3.72537
# Velocity P-wave (km/s) = 5.50012 7.28110 6.45235
#
# Compressibility (1/GPa) = 0.03466562
#
# Stress axis : x y z
#
# Youngs Moduli (GPa) = 64.15941 20.50193 121.76146
#
# Poissons Ratio (x) = 0.17884 0.25752
# Poissons Ratio (y) = 0.55967 0.98829
# Poissons Ratio (z) = 0.13570 0.16641
#
# Static dielectric constant tensor:
#      x y z
#    x 1.659340 0.000000 0.011740 
#    y 0.000000 1.652230 0.000000 
#    z 0.011740 0.000000 1.685000 
# 
# From -- ./inp_files/37651.got.cif
#   From: 2010.05.17/outbox.cif.g08.bks.cpg/sg11_19_cif.got.tgz:37651.got - 2010.06.03 12:22:45.
