data_PCOD9162759
_publ_section_title
;
Structure prediction by ZEFSAII (Michael W. Deem and Ramdas Pophale) SiO2 
 PCOD9162759
Probable space group: P 21/M
;
_chemical_formula_sum "Si O2"
_cell_formula_units_Z 32
_cell_length_a 12.201619
_cell_length_b 8.995124
_cell_length_c 31.642658
_cell_angle_alpha 90.000000
_cell_angle_beta 149.743431
_cell_angle_gamma 90.000000
_cell_volume 1749.921916
_symmetry_space_group_name_H-M "P 21/M"
_symmetry_group_IT_number 11
_symmetry_cell_setting 'monoclinic'
loop_
_space_group_symop_operation_xyz
x,y,z
-x,1/2+y,-z
-x,-y,-z
x,1/2-y,z
loop_
_atom_site_type_symbol
_atom_site_label
_atom_site_fract_x
_atom_site_fract_y
_atom_site_fract_z
Si Si1 0.440186 0.572814 0.024760
Si Si2 0.333457 0.927635 0.761411
Si Si3 0.018683 0.572987 0.120197
Si Si4 0.204964 0.573255 0.091650
Si Si5 0.851734 0.927936 0.220915
Si Si6 0.121891 0.571694 0.601617
Si Si7 0.688085 0.072445 0.426129
Si Si8 0.774290 0.429139 0.720844
O O1 0.429110 0.750000 0.016338
O O2 0.208770 0.509901 0.962023
O O3 0.500000 0.500000 0.000000
O O4 0.633228 0.538700 0.121589
O O5 0.354371 0.750000 0.770773
O O6 0.245600 0.968377 0.685669
O O7 0.568095 0.002045 0.846591
O O8 0.169176 0.986749 0.742199
O O9 0.975036 0.750000 0.108313
O O10 0.170894 0.547477 0.130493
O O11 0.125847 0.526683 0.200276
O O12 0.206818 0.750000 0.084423
O O13 0.000000 0.500000 0.000000
O O14 0.858543 0.750000 0.230363
O O15 0.055723 0.968578 0.259386
O O16 0.089032 0.750000 0.590352
O O17 0.259823 0.533344 0.605608
O O18 0.889977 0.492406 0.519666
O O19 0.681898 0.250000 0.427658
O O20 0.459186 0.002695 0.362580
O O21 0.752598 0.250000 0.714066
#
# Coordination Sequence:
#
# PCOD9162759 Si02
#       8
#     4   4   4   4   4   4   4   4
#     4  11  21  35  55  79 110 148 190 236 281 330
#     4  11  23  39  60  84 115 152 192 233 279 339
#     4  10  21  37  56  81 110 146 191 233 282 338
#     4  11  23  38  58  83 115 151 190 235 282 336
#     4  10  22  39  57  79 112 153 194 235 280 334
#     4   9  20  39  60  85 117 150 181 223 282 338
#     4  10  20  35  60  91 116 140 181 231 279 337
#     4  10  20  37  57  80 113 147 182 230 287 336
#
# _framework density 18.286529999999999
#
# number of rings (size 3 to 8) (size 9 to 14) (size 15 to 20)
#    0.000    1.750    1.250    3.000    0.000    6.500 
#    0.000    0.625    0.000    0.000    0.000    0.000 
#    0.000    0.000    0.000    0.000    0.000    0.000 
#
# Total GULP energy -178819.763832 kJ/mol
# GULP energy per Si atom -5588.117620 kJ/mol
# Density = 1.824491 g / cm^3
# Si number density = 18.286530 Si / 1000 Ang^3
#
#
#
# Elastic Constant Matrix: (Units=GPa)
#
#
# Indices 1 2 3 4 5 6 
#
# 1 99.7267 42.3350 58.7132 0.0000 8.9955 0.0000
# 2 42.3350 29.0901 38.0528 0.0000 2.8426 0.0000
# 3 58.7132 38.0528 105.2694 0.0000 13.0277 0.0000
# 4 0.0000 0.0000 0.0000 30.0094 0.0000 2.9103
# 5 8.9955 2.8426 13.0277 0.0000 33.6506 0.0000
# 6 0.0000 0.0000 0.0000 2.9103 0.0000 30.7684
#
#
#
# Elastic Compliance Matrix: (Units=1/GPa)
#
#
# Indices 1 2 3 4 5 6 
#
# 1 0.026785 -0.037315 -0.001002 0.000000 -0.003620 0.000000
# 2 -0.037315 0.117662 -0.022818 0.000000 0.008870 0.000000
# 3 -0.001002 -0.022818 0.018943 0.000000 -0.005138 0.000000
# 4 0.000000 0.000000 0.000000 0.033631 0.000000 -0.003181
# 5 -0.003620 0.008870 -0.005138 0.000000 0.031925 0.000000
# 6 0.000000 0.000000 0.000000 -0.003181 0.000000 0.032802
#
#
# Mechanical properties :
#
#
# Convention : Reuss Voigt Hill
#
# Bulk Modulus (GPa) = 24.31984 56.92090 40.62037
# Shear Modulus (GPa) = 12.57155 25.21801 18.89478
#
# Velocity S-wave (km/s) = 2.62482 3.71758 3.21793
# Velocity P-wave (km/s) = 4.74494 7.04429 6.00568
#
# Compressibility (1/GPa) = 0.04111869
#
# Stress axis : x y z
#
# Youngs Moduli (GPa) = 37.33497 8.49894 52.79094
#
# Poissons Ratio (x) = 0.31714 0.05292
# Poissons Ratio (y) = 1.39314 1.20458
# Poissons Ratio (z) = 0.03742 0.19393
#
# Static dielectric constant tensor:
#      x y z
#    x 1.632680 0.000000 -0.013600 
#    y 0.000000 1.608850 0.000000 
#    z -0.013600 0.000000 1.597310 
# 
# From -- ./inp_files/45224.got.cif
#   From: 2010.05.17/outbox.cif.g08.bks.cpg/sg11_23_cif.got.tgz:45224.got - 2010.06.03 12:22:45.
