data_PCOD9162762
_publ_section_title
;
Structure prediction by ZEFSAII (Michael W. Deem and Ramdas Pophale) SiO2 
 PCOD9162762
Probable space group: P 21/M
;
_chemical_formula_sum "Si O2"
_cell_formula_units_Z 28
_cell_length_a 10.074537
_cell_length_b 8.734297
_cell_length_c 28.377062
_cell_angle_alpha 90.000000
_cell_angle_beta 37.730246
_cell_angle_gamma 90.000000
_cell_volume 1528.032576
_symmetry_space_group_name_H-M "P 21/M"
_symmetry_group_IT_number 11
_symmetry_cell_setting 'monoclinic'
loop_
_space_group_symop_operation_xyz
x,y,z
-x,1/2+y,-z
-x,-y,-z
x,1/2-y,z
loop_
_atom_site_type_symbol
_atom_site_label
_atom_site_fract_x
_atom_site_fract_y
_atom_site_fract_z
Si Si1 0.368523 0.933696 0.625418
Si Si2 0.917406 0.566720 0.378457
Si Si3 0.722699 0.431719 0.957143
Si Si4 0.966689 0.930893 0.805592
Si Si5 0.777797 0.932304 0.044609
Si Si6 0.310421 0.932914 0.199456
Si Si7 0.845896 0.433606 0.501858
O O1 0.389143 0.750000 0.614425
O O2 0.192556 0.965761 0.715871
O O3 0.266523 0.001096 0.605537
O O4 0.598271 0.006036 0.574529
O O5 0.887140 0.750000 0.391153
O O6 0.915519 0.491115 0.430253
O O7 0.147626 0.536467 0.288123
O O8 0.708484 0.250000 0.964105
O O9 0.914649 0.479559 0.867761
O O10 0.500000 0.500000 0.000000
O O11 0.749744 0.505230 0.000219
O O12 0.955441 0.750000 0.817705
O O13 0.784370 0.979045 0.818900
O O14 0.790687 0.750000 0.040662
O O15 0.561724 0.974344 0.134840
O O16 0.000000 0.000000 0.000000
O O17 0.297739 0.750000 0.193249
O O18 0.850781 0.250000 0.502612
O O19 0.000000 0.500000 0.500000
#
# Coordination Sequence:
#
# PCOD9162762 Si02
#       7
#     4   4   4   4   4   4   4
#     4  10  21  39  63  92 122 154 196 244 290 348
#     4  10  20  38  64  92 118 153 197 244 293 347
#     4  12  23  37  60  88 119 158 201 246 296 349
#     4  10  20  35  60  91 120 151 195 247 297 343
#     4  11  23  40  59  85 119 160 202 246 297 352
#     4   9  19  36  60  86 117 154 197 243 292 349
#     4  12  25  42  62  87 120 159 196 240 296 353
#
# _framework density 18.324216
#
# number of rings (size 3 to 8) (size 9 to 14) (size 15 to 20)
#    0.000    1.429    1.429    4.714    0.000    2.857 
#    2.571    0.000    0.000    0.000    0.000    0.000 
#    0.000    0.000    0.000    0.000    0.000    0.000 
#
# Total GULP energy -156417.904822 kJ/mol
# GULP energy per Si atom -5586.353744 kJ/mol
# Density = 1.828251 g / cm^3
# Si number density = 18.324216 Si / 1000 Ang^3
#
#
#
# Elastic Constant Matrix: (Units=GPa)
#
#
# Indices 1 2 3 4 5 6 
#
# 1 140.5144 53.3211 78.1611 0.0000 -22.5033 0.0000
# 2 53.3211 88.0687 60.8316 0.0000 -16.0621 0.0000
# 3 78.1611 60.8316 123.1213 0.0000 -19.9574 0.0000
# 4 0.0000 0.0000 0.0000 28.9389 0.0000 0.6899
# 5 -22.5033 -16.0621 -19.9574 0.0000 24.8546 0.0000
# 6 0.0000 0.0000 0.0000 0.6899 0.0000 36.0143
#
#
#
# Elastic Compliance Matrix: (Units=1/GPa)
#
#
# Indices 1 2 3 4 5 6 
#
# 1 0.011917 -0.002518 -0.005560 0.000000 0.004698 0.000000
# 2 -0.002518 0.018315 -0.006784 0.000000 0.004108 0.000000
# 3 -0.005560 -0.006784 0.015494 0.000000 0.003023 0.000000
# 4 0.000000 0.000000 0.000000 0.034571 0.000000 -0.000662
# 5 0.004698 0.004108 0.003023 0.000000 0.049570 0.000000
# 6 0.000000 0.000000 0.000000 -0.000662 0.000000 0.027779
#
#
# Mechanical properties :
#
#
# Convention : Reuss Voigt Hill
#
# Bulk Modulus (GPa) = 62.49590 81.81467 72.15529
# Shear Modulus (GPa) = 25.94642 28.58758 27.26700
#
# Velocity S-wave (km/s) = 3.76701 3.95409 3.86169
# Velocity P-wave (km/s) = 7.28699 8.09888 7.70363
#
# Compressibility (1/GPa) = 0.01600105
#
# Stress axis : x y z
#
# Youngs Moduli (GPa) = 83.91168 54.60039 64.54292
#
# Poissons Ratio (x) = 0.13749 0.35884
# Poissons Ratio (y) = 0.21130 0.43789
# Poissons Ratio (z) = 0.46653 0.37043
#
# Static dielectric constant tensor:
#      x y z
#    x 1.563230 0.000000 -0.000530 
#    y 0.000000 1.614640 0.000000 
#    z -0.000530 0.000000 1.659340 
# 
# From -- ./inp_files/70796.got.cif
#   From: 2010.05.17/outbox.cif.g08.bks.cpg/sg11_36_cif.got.tgz:70796.got - 2010.06.03 12:22:45.
