data_PCOD9162053
_publ_section_title
;
Structure prediction by ZEFSAII (Michael W. Deem and Ramdas Pophale) SiO2 
 PCOD9162053
Probable space group: P 21/M
;
_chemical_formula_sum "Si O2"
_cell_formula_units_Z 32
_cell_length_a 22.032446
_cell_length_b 14.593918
_cell_length_c 15.191980
_cell_angle_alpha 90.000000
_cell_angle_beta 20.196601
_cell_angle_gamma 90.000000
_cell_volume 1686.449257
_symmetry_space_group_name_H-M "P 21/M"
_symmetry_group_IT_number 11
_symmetry_cell_setting 'monoclinic'
loop_
_space_group_symop_operation_xyz
x,y,z
-x,1/2+y,-z
-x,-y,-z
x,1/2-y,z
loop_
_atom_site_type_symbol
_atom_site_label
_atom_site_fract_x
_atom_site_fract_y
_atom_site_fract_z
Si Si1 0.102214 0.030906 0.446401
Si Si2 0.433606 0.144444 0.924613
Si Si3 0.182682 0.961443 0.035673
Si Si4 0.922181 0.530138 0.237480
Si Si5 0.518957 0.856426 0.530451
Si Si6 0.671980 0.040119 0.719069
Si Si7 0.367232 0.141812 0.817376
Si Si8 0.909171 0.858409 0.078767
O O1 0.267035 0.089648 0.189104
O O2 0.185668 0.952665 0.396720
O O3 0.000000 0.000000 0.500000
O O4 0.956082 0.079268 0.706303
O O5 0.389770 0.250000 0.988873
O O6 0.601074 0.123423 0.757502
O O7 0.458203 0.122222 0.787446
O O8 0.374543 0.917435 0.774829
O O9 0.209909 0.068929 0.021530
O O10 0.095224 0.949446 0.059586
O O11 0.761780 0.526310 0.524681
O O12 0.896936 0.603034 0.194678
O O13 0.955466 0.428314 0.152345
O O14 0.476008 0.750000 0.603343
O O15 0.518054 0.873771 0.426544
O O16 0.717683 0.870673 0.294029
O O17 0.500000 0.000000 0.000000
O O18 0.315853 0.250000 0.885345
O O19 0.953756 0.750000 0.014080
#
# Coordination Sequence:
#
# PCOD9162053 Si02
#       8
#     4   4   4   4   4   4   4   4
#     4  10  20  38  61  86 113 148 194 243 290 347
#     4  10  21  38  60  85 117 154 193 241 296 350
#     4  11  21  36  61  85 116 156 190 242 294 349
#     4  10  22  36  60  88 113 155 198 238 302 352
#     4  10  22  37  57  85 118 156 198 239 289 349
#     4   9  21  39  58  84 115 150 192 236 291 355
#     4  10  20  34  57  87 115 150 192 238 287 341
#     4  10  22  39  57  82 119 155 194 247 293 347
#
# _framework density 18.974777
#
# number of rings (size 3 to 8) (size 9 to 14) (size 15 to 20)
#    0.000    2.000    2.500    0.375    1.750    2.500 
#    0.000    8.750    0.000    0.000    0.000    0.000 
#    0.000    0.000    0.000    0.000    0.000    0.000 
#
# Total GULP energy -178267.454214 kJ/mol
# GULP energy per Si atom -5570.857944 kJ/mol
# Density = 1.893159 g / cm^3
# Si number density = 18.974777 Si / 1000 Ang^3
#
#
#
# Elastic Constant Matrix: (Units=GPa)
#
#
# Indices 1 2 3 4 5 6 
#
# 1 144.7754 38.9170 30.2810 0.0000 0.0528 0.0000
# 2 38.9170 49.9997 24.3848 0.0000 -5.1075 0.0000
# 3 30.2810 24.3848 70.1768 0.0000 1.9760 0.0000
# 4 0.0000 0.0000 0.0000 14.3483 0.0000 -2.5681
# 5 0.0528 -5.1075 1.9760 0.0000 21.8991 0.0000
# 6 0.0000 0.0000 0.0000 -2.5681 0.0000 26.8669
#
#
#
# Elastic Compliance Matrix: (Units=1/GPa)
#
#
# Indices 1 2 3 4 5 6 
#
# 1 0.008943 -0.006303 -0.001631 0.000000 -0.001344 0.000000
# 2 -0.006303 0.029448 -0.007727 0.000000 0.007581 0.000000
# 3 -0.001631 -0.007727 0.017734 0.000000 -0.003398 0.000000
# 4 0.000000 0.000000 0.000000 0.070908 0.000000 0.006778
# 5 -0.001344 0.007581 -0.003398 0.000000 0.047742 0.000000
# 6 0.000000 0.000000 0.000000 0.006778 0.000000 0.037868
#
#
# Mechanical properties :
#
#
# Convention : Reuss Voigt Hill
#
# Bulk Modulus (GPa) = 40.31442 50.23527 45.27485
# Shear Modulus (GPa) = 19.82302 24.04748 21.93525
#
# Velocity S-wave (km/s) = 3.23569 3.56383 3.40372
# Velocity P-wave (km/s) = 5.93734 6.59293 6.27371
#
# Compressibility (1/GPa) = 0.02480502
#
# Stress axis : x y z
#
# Youngs Moduli (GPa) = 111.81798 33.95772 56.38895
#
# Poissons Ratio (x) = 0.21403 0.09197
# Poissons Ratio (y) = 0.70476 0.43569
# Poissons Ratio (z) = 0.18238 0.26237
#
# Static dielectric constant tensor:
#      x y z
#    x 1.692130 0.000000 0.005440 
#    y 0.000000 1.649940 0.000000 
#    z 0.005440 0.000000 1.668960 
# 
# From -- ./inp_files/54991.got.cif
#   From: 2010.05.17/outbox.cif.g08.bks.cpg/sg11_28_cif.got.tgz:54991.got - 2010.06.03 12:22:45.
