data_PCOD9162724
_publ_section_title
;
Structure prediction by ZEFSAII (Michael W. Deem and Ramdas Pophale) SiO2 
 PCOD9162724
Probable space group: P 21/M
;
_chemical_formula_sum "Si O2"
_cell_formula_units_Z 28
_cell_length_a 18.255012
_cell_length_b 13.644801
_cell_length_c 5.214063
_cell_angle_alpha 90.000000
_cell_angle_beta 111.656156
_cell_angle_gamma 90.000000
_cell_volume 1207.078159
_symmetry_space_group_name_H-M "P 21/M"
_symmetry_group_IT_number 11
_symmetry_cell_setting 'monoclinic'
loop_
_space_group_symop_operation_xyz
x,y,z
-x,1/2+y,-z
-x,-y,-z
x,1/2-y,z
loop_
_atom_site_type_symbol
_atom_site_label
_atom_site_fract_x
_atom_site_fract_y
_atom_site_fract_z
Si Si1 0.555900 0.856767 0.177450
Si Si2 0.307755 0.078364 0.330168
Si Si3 0.911928 0.423454 0.845315
Si Si4 0.000922 0.361183 0.469775
Si Si5 0.157295 0.067910 0.880823
Si Si6 0.237002 0.930049 0.611393
Si Si7 0.391735 0.554818 0.053789
O O1 0.555144 0.750000 0.046954
O O2 0.621882 0.855605 0.483053
O O3 0.469645 0.881091 0.177059
O O4 0.580649 0.951201 0.039767
O O5 0.349904 0.983876 0.255459
O O6 0.261412 0.032668 0.509693
O O7 0.238968 0.120607 0.061247
O O8 0.960534 0.425428 0.643058
O O9 0.826513 0.378123 0.653579
O O10 0.961704 0.375912 0.140305
O O11 0.888828 0.530343 0.926436
O O12 0.984231 0.250000 0.527242
O O13 0.094618 0.378361 0.621484
O O14 0.188281 0.966269 0.795105
O O15 0.322052 0.890635 0.805982
#
# Coordination Sequence:
#
# PCOD9162724 Si02
#       7
#     4   4   4   4   4   4   4
#     4  10  20  35  59  89 123 162 207 255 316 383
#     4   9  19  35  60  87 116 154 201 261 312 374
#     4  11  22  41  64  88 116 165 215 252 308 380
#     4  12  26  39  57  90 129 162 202 266 323 369
#     4  10  21  38  66  88 114 159 215 254 307 377
#     4   9  19  37  64  88 112 156 212 258 302 371
#     4   9  19  38  59  89 122 161 208 260 315 377
#
# _framework density 23.196511999999998
#
# number of rings (size 3 to 8) (size 9 to 14) (size 15 to 20)
#    0.000    2.000    1.429    1.714    4.000    1.143 
#    0.000    7.143    0.000    0.000    0.000    0.000 
#    0.000    0.000    0.000    0.000    0.000    0.000 
#
# Total GULP energy -155987.699988 kJ/mol
# GULP energy per Si atom -5570.989285 kJ/mol
# Density = 2.314372 g / cm^3
# Si number density = 23.196512 Si / 1000 Ang^3
#
#
#
# Elastic Constant Matrix: (Units=GPa)
#
#
# Indices 1 2 3 4 5 6 
#
# 1 116.4907 12.3055 70.3372 0.0000 28.6319 0.0000
# 2 12.3055 46.9613 29.2295 0.0000 18.3219 0.0000
# 3 70.3372 29.2295 128.1531 0.0000 29.3833 0.0000
# 4 0.0000 0.0000 0.0000 8.1770 0.0000 -6.3723
# 5 28.6319 18.3219 29.3833 0.0000 59.5124 0.0000
# 6 0.0000 0.0000 0.0000 -6.3723 0.0000 -8.0069
#
#
#
# Elastic Compliance Matrix: (Units=1/GPa)
#
#
# Indices 1 2 3 4 5 6 
#
# 1 0.013549 0.002330 -0.007114 0.000000 -0.003723 0.000000
# 2 0.002330 0.026901 -0.005930 0.000000 -0.006475 0.000000
# 3 -0.007114 -0.005930 0.013371 0.000000 -0.001353 0.000000
# 4 0.000000 0.000000 0.000000 0.075480 0.000000 -0.060071
# 5 -0.003723 -0.006475 -0.001353 0.000000 0.021256 0.000000
# 6 0.000000 0.000000 0.000000 -0.060071 0.000000 -0.077084
#
#
# Mechanical properties :
#
#
# Convention : Reuss Voigt Hill
#
# Bulk Modulus (GPa) = 30.87118 57.26105 44.06612
# Shear Modulus (GPa) = 47.30472 23.91870 35.61171
#
# Velocity S-wave (km/s) = 4.52076 3.21461 3.92244
# Velocity P-wave (km/s) = 6.37081 6.20621 6.28905
#
# Compressibility (1/GPa) = 0.03239267
#
# Stress axis : x y z
#
# Youngs Moduli (GPa) = 73.80659 37.17381 74.79100
#
# Poissons Ratio (x) = -0.08663 0.53208
# Poissons Ratio (y) = -0.17200 0.44351
# Poissons Ratio (z) = 0.52507 0.22044
#
# Static dielectric constant tensor:
#      x y z
#    x 1.949860 0.000000 -0.009830 
#    y 0.000000 2.143050 0.000000 
#    z -0.009830 0.000000 1.979540 
# 
# From -- ./inp_files/8134.got.cif
#   From: 2010.05.17/outbox.cif.g08.bks.cpg/sg11_5_cif.got.tgz:8134.got - 2010.06.03 12:22:45.
