data_PCOD9162104
_publ_section_title
;
Structure prediction by ZEFSAII (Michael W. Deem and Ramdas Pophale) SiO2 
 PCOD9162104
Probable space group: P 21/M
;
_chemical_formula_sum "Si O2"
_cell_formula_units_Z 32
_cell_length_a 11.395584
_cell_length_b 9.022635
_cell_length_c 19.634678
_cell_angle_alpha 90.000000
_cell_angle_beta 126.803660
_cell_angle_gamma 90.000000
_cell_volume 1616.440962
_symmetry_space_group_name_H-M "P 21/M"
_symmetry_group_IT_number 11
_symmetry_cell_setting 'monoclinic'
loop_
_space_group_symop_operation_xyz
x,y,z
-x,1/2+y,-z
-x,-y,-z
x,1/2-y,z
loop_
_atom_site_type_symbol
_atom_site_label
_atom_site_fract_x
_atom_site_fract_y
_atom_site_fract_z
Si Si1 0.170754 0.579558 0.248160
Si Si2 0.495703 0.920584 0.426568
Si Si3 0.062130 0.072443 0.589773
Si Si4 0.369857 0.076945 0.043711
Si Si5 0.391257 0.429771 0.674080
Si Si6 0.302230 0.571702 0.151611
Si Si7 0.318947 0.077208 0.868756
Si Si8 0.967435 0.075501 0.283724
O O1 0.116238 0.750000 0.232874
O O2 0.331946 0.577607 0.338412
O O3 0.195022 0.539192 0.177567
O O4 0.068349 0.474741 0.256227
O O5 0.599969 0.750000 0.326251
O O6 0.594228 0.983702 0.399034
O O7 0.500000 0.000000 0.500000
O O8 0.048618 0.250000 0.583151
O O9 0.235439 0.032709 0.651483
O O10 0.987477 0.007380 0.631199
O O11 0.000000 0.000000 0.500000
O O12 0.401468 0.250000 0.067064
O O13 0.273646 0.010040 0.071018
O O14 0.520368 0.983511 0.093117
O O15 0.302000 0.066217 0.944708
O O16 0.461037 0.250000 0.547175
O O17 0.534290 0.475549 0.766299
O O18 0.303065 0.750000 0.142697
O O19 0.306622 0.250000 0.844189
O O20 0.194676 0.980737 0.790850
O O21 0.972548 0.250000 0.295705
#
# Coordination Sequence:
#
# PCOD9162104 Si02
#       8
#     4   4   4   4   4   4   4   4
#     4   9  20  38  57  80 111 151 193 234 286 350
#     4   9  18  33  54  79 104 135 179 229 279 329
#     4  11  23  39  58  82 114 151 188 231 285 346
#     4  10  20  34  58  91 122 147 186 239 286 340
#     4   8  17  34  54  76 105 140 179 223 273 330
#     4   9  17  34  60  84 110 149 192 233 286 343
#     4  10  21  38  59  85 118 157 191 230 288 345
#     4  12  25  40  59  83 114 151 194 242 290 346
#
# _framework density 19.796578
#
# number of rings (size 3 to 8) (size 9 to 14) (size 15 to 20)
#    0.000    2.250    0.000    4.500    1.750    3.500 
#    0.000    3.750    0.000    0.000    0.000    0.000 
#    0.000    0.000    0.000    0.000    0.000    0.000 
#
# Total GULP energy -178700.794378 kJ/mol
# GULP energy per Si atom -5584.399824 kJ/mol
# Density = 1.975152 g / cm^3
# Si number density = 19.796578 Si / 1000 Ang^3
#
#
#
# Elastic Constant Matrix: (Units=GPa)
#
#
# Indices 1 2 3 4 5 6 
#
# 1 73.8887 42.0935 26.0532 0.0000 -29.5248 0.0000
# 2 42.0935 86.1063 27.7810 0.0000 -17.1248 0.0000
# 3 26.0532 27.7810 39.6557 0.0000 -25.8117 0.0000
# 4 0.0000 0.0000 0.0000 28.8480 0.0000 -6.3192
# 5 -29.5248 -17.1248 -25.8117 0.0000 34.8412 0.0000
# 6 0.0000 0.0000 0.0000 -6.3192 0.0000 28.0600
#
#
#
# Elastic Compliance Matrix: (Units=1/GPa)
#
#
# Indices 1 2 3 4 5 6 
#
# 1 0.025642 -0.009437 0.001717 0.000000 0.018363 0.000000
# 2 -0.009437 0.018490 -0.011671 0.000000 -0.007556 0.000000
# 3 0.001717 -0.011671 0.056931 0.000000 0.037896 0.000000
# 4 0.000000 0.000000 0.000000 0.036463 0.000000 0.008212
# 5 0.018363 -0.007556 0.037896 0.000000 0.068624 0.000000
# 6 0.000000 0.000000 0.000000 0.008212 0.000000 0.037487
#
#
# Mechanical properties :
#
#
# Convention : Reuss Voigt Hill
#
# Bulk Modulus (GPa) = 16.05615 43.50070 29.77843
# Shear Modulus (GPa) = 16.49185 25.26468 20.87826
#
# Velocity S-wave (km/s) = 2.88942 3.57629 3.25105
# Velocity P-wave (km/s) = 4.38860 6.25097 5.40067
#
# Compressibility (1/GPa) = 0.06228141
#
# Stress axis : x y z
#
# Youngs Moduli (GPa) = 38.99781 54.08360 17.56515
#
# Poissons Ratio (x) = 0.51041 -0.03017
# Poissons Ratio (y) = 0.36804 0.20500
# Poissons Ratio (z) = -0.06698 0.63120
#
# Static dielectric constant tensor:
#      x y z
#    x 1.729850 0.000000 -0.011180 
#    y 0.000000 1.661300 0.000000 
#    z -0.011180 0.000000 1.705970 
# 
# From -- ./inp_files/64464.got.cif
#   From: 2010.05.17/outbox.cif.g08.bks.cpg/sg11_33_cif.got.tgz:64464.got - 2010.06.03 12:22:45.
