data_PCOD9162632
_publ_section_title
;
Structure prediction by ZEFSAII (Michael W. Deem and Ramdas Pophale) SiO2 
 PCOD9162632
Probable space group: P 21/M
;
_chemical_formula_sum "Si O2"
_cell_formula_units_Z 20
_cell_length_a 9.273031
_cell_length_b 19.171398
_cell_length_c 7.646265
_cell_angle_alpha 90.000000
_cell_angle_beta 130.733338
_cell_angle_gamma 90.000000
_cell_volume 1030.038659
_symmetry_space_group_name_H-M "P 21/M"
_symmetry_group_IT_number 11
_symmetry_cell_setting 'monoclinic'
loop_
_space_group_symop_operation_xyz
x,y,z
-x,1/2+y,-z
-x,-y,-z
x,1/2-y,z
loop_
_atom_site_type_symbol
_atom_site_label
_atom_site_fract_x
_atom_site_fract_y
_atom_site_fract_z
Si Si1 0.233505 0.668114 0.233291
Si Si2 0.816057 0.960531 0.283208
Si Si3 0.415923 0.669980 0.748110
Si Si4 0.585472 0.427852 0.913192
Si Si5 0.856137 0.670498 0.089069
O O1 0.272900 0.750000 0.228147
O O2 0.292566 0.653943 0.480524
O O3 0.344796 0.618507 0.191211
O O4 0.006191 0.656401 0.053976
O O5 0.636151 0.950289 0.271208
O O6 0.876408 0.885432 0.258545
O O7 0.000000 0.000000 0.500000
O O8 0.719336 0.005313 0.050223
O O9 0.377042 0.750000 0.772924
O O10 0.393052 0.618185 0.892296
O O11 0.636037 0.667013 0.862188
O O12 0.894736 0.750000 0.179580
#
# Coordination Sequence:
#
# PCOD9162632 Si02
#       5
#     4   4   4   4   4
#     4  10  20  35  58  86 112 144 187 228 270 322
#     4  10  21  38  56  80 114 147 182 226 277 329
#     4   9  18  35  56  79 113 151 184 226 275 320
#     4  10  21  36  56  83 112 145 187 228 270 326
#     4   9  19  36  56  79 109 145 185 227 273 327
#
# _framework density 19.416747999999998
#
# number of rings (size 3 to 8) (size 9 to 14) (size 15 to 20)
#    0.000    2.400    0.000    1.800    0.000    3.200 
#    0.000   15.000    0.000    9.600    0.000    0.000 
#    0.000    0.000    0.000    0.000    0.000    0.000 
#
# Total GULP energy -111565.842512 kJ/mol
# GULP energy per Si atom -5578.292126 kJ/mol
# Density = 1.937255 g / cm^3
# Si number density = 19.416748 Si / 1000 Ang^3
#
#
#
# Elastic Constant Matrix: (Units=GPa)
#
#
# Indices 1 2 3 4 5 6 
#
# 1 68.0305 43.2092 31.2383 0.0000 17.8353 0.0000
# 2 43.2092 82.0337 25.8949 0.0000 11.0057 0.0000
# 3 31.2383 25.8949 41.0895 0.0000 15.5163 0.0000
# 4 0.0000 0.0000 0.0000 26.7049 0.0000 6.1081
# 5 17.8353 11.0057 15.5163 0.0000 20.5152 0.0000
# 6 0.0000 0.0000 0.0000 6.1081 0.0000 0.9051
#
#
#
# Elastic Compliance Matrix: (Units=1/GPa)
#
#
# Indices 1 2 3 4 5 6 
#
# 1 0.029657 -0.010404 -0.011705 0.000000 -0.011349 0.000000
# 2 -0.010404 0.018891 -0.005017 0.000000 0.002705 0.000000
# 3 -0.011705 -0.005017 0.044147 0.000000 -0.020523 0.000000
# 4 0.000000 0.000000 0.000000 -0.068878 0.000000 0.464851
# 5 -0.011349 0.002705 -0.020523 0.000000 0.072682 0.000000
# 6 0.000000 0.000000 0.000000 0.464851 0.000000 -2.032334
#
#
# Mechanical properties :
#
#
# Convention : Reuss Voigt Hill
#
# Bulk Modulus (GPa) = 26.01180 43.53761 34.77470
# Shear Modulus (GPa) = -2.67556 15.67912 6.50178
#
# Velocity S-wave (km/s) = -1.17514 2.84475 1.83189
# Velocity P-wave (km/s) = 3.40358 5.76728 4.73529
#
# Compressibility (1/GPa) = 0.03844410
#
# Stress axis : x y z
#
# Youngs Moduli (GPa) = 33.71880 52.93572 22.65149
#
# Poissons Ratio (x) = 0.55073 0.26513
# Poissons Ratio (y) = 0.35080 0.11364
# Poissons Ratio (z) = 0.39467 0.26558
#
# Static dielectric constant tensor:
#      x y z
#    x 1.666270 0.000000 0.038250 
#    y 0.000000 1.704540 0.000000 
#    z 0.038250 0.000000 1.677000 
# 
# From -- ./inp_files/2465.got.cif
#   From: 2010.05.17/outbox.cif.g08.bks.cpg/sg11_2_cif.got.tgz:2465.got - 2010.06.03 12:22:45.
