data_PCOD9162590
_publ_section_title
;
Structure prediction by ZEFSAII (Michael W. Deem and Ramdas Pophale) SiO2 
 PCOD9162590
Probable space group: P 21/M
;
_chemical_formula_sum "Si O2"
_cell_formula_units_Z 28
_cell_length_a 7.352582
_cell_length_b 13.680857
_cell_length_c 11.952232
_cell_angle_alpha 90.000000
_cell_angle_beta 79.591130
_cell_angle_gamma 90.000000
_cell_volume 1182.485361
_symmetry_space_group_name_H-M "P 21/M"
_symmetry_group_IT_number 11
_symmetry_cell_setting 'monoclinic'
loop_
_space_group_symop_operation_xyz
x,y,z
-x,1/2+y,-z
-x,-y,-z
x,1/2-y,z
loop_
_atom_site_type_symbol
_atom_site_label
_atom_site_fract_x
_atom_site_fract_y
_atom_site_fract_z
Si Si1 0.713876 0.867920 0.594106
Si Si2 0.029355 0.364547 0.032124
Si Si3 0.371925 0.861119 0.025828
Si Si4 0.937691 0.368638 0.592937
Si Si5 0.477709 0.631063 0.406121
Si Si6 0.694047 0.949957 0.840982
Si Si7 0.822927 0.630718 0.223927
O O1 0.711060 0.750000 0.607249
O O2 0.912479 0.894012 0.518328
O O3 0.559651 0.893360 0.518810
O O4 0.682121 0.915272 0.716640
O O5 0.069933 0.250000 0.045454
O O6 0.107908 0.422885 0.127640
O O7 0.812793 0.371492 0.028581
O O8 0.135131 0.398334 0.907420
O O9 0.382462 0.750000 0.066175
O O10 0.547252 0.888824 0.931977
O O11 0.352168 0.937876 0.127754
O O12 0.933894 0.250000 0.597073
O O13 0.021261 0.399869 0.703314
O O14 0.731283 0.401697 0.589327
O O15 0.477988 0.750000 0.400368
O O16 0.628227 0.598289 0.297586
O O17 0.825779 0.750000 0.222283
#
# Coordination Sequence:
#
# PCOD9162590 Si02
#       7
#     4   4   4   4   4   4   4
#     4   9  17  29  48  79 115 150 191 235 284 343
#     4  10  20  35  57  87 123 159 194 237 292 351
#     4  10  23  41  60  85 115 153 202 243 284 349
#     4   8  14  26  46  74 110 153 196 236 277 324
#     4   8  14  26  46  74 111 155 198 238 282 332
#     4  11  22  38  60  86 121 156 188 239 300 351
#     4   8  15  27  46  77 114 151 193 235 278 337
#
# _framework density 23.678941999999999
#
# number of rings (size 3 to 8) (size 9 to 14) (size 15 to 20)
#    0.000    2.857    0.000    3.429    0.000    2.286 
#    0.000    7.143    0.000    3.429    0.000   18.000 
#    0.000   13.714    0.000    0.286    0.000    0.000 
#
# Total GULP energy -156921.054874 kJ/mol
# GULP energy per Si atom -5604.323388 kJ/mol
# Density = 2.362505 g / cm^3
# Si number density = 23.678942 Si / 1000 Ang^3
#
#
#
# Elastic Constant Matrix: (Units=GPa)
#
#
# Indices 1 2 3 4 5 6 
#
# 1 153.5034 33.3738 45.9962 0.0000 17.5963 0.0000
# 2 33.3738 121.9177 25.4710 0.0000 8.3676 0.0000
# 3 45.9962 25.4710 50.4376 0.0000 14.9158 0.0000
# 4 0.0000 0.0000 0.0000 33.3783 0.0000 0.7368
# 5 17.5963 8.3676 14.9158 0.0000 22.6977 0.0000
# 6 0.0000 0.0000 0.0000 0.7368 0.0000 26.4732
#
#
#
# Elastic Compliance Matrix: (Units=1/GPa)
#
#
# Indices 1 2 3 4 5 6 
#
# 1 0.009110 -0.000833 -0.007310 0.000000 -0.001952 0.000000
# 2 -0.000833 0.009249 -0.003840 0.000000 -0.000241 0.000000
# 3 -0.007310 -0.003840 0.032691 0.000000 -0.014400 0.000000
# 4 0.000000 0.000000 0.000000 0.029978 0.000000 -0.000834
# 5 -0.001952 -0.000241 -0.014400 0.000000 0.055122 0.000000
# 6 0.000000 0.000000 0.000000 -0.000834 0.000000 0.037797
#
#
# Mechanical properties :
#
#
# Convention : Reuss Voigt Hill
#
# Bulk Modulus (GPa) = 36.92276 59.50451 48.21364
# Shear Modulus (GPa) = 24.16165 31.24437 27.70301
#
# Velocity S-wave (km/s) = 3.19781 3.63643 3.42415
# Velocity P-wave (km/s) = 5.40940 6.54338 6.00322
#
# Compressibility (1/GPa) = 0.02708357
#
# Stress axis : x y z
#
# Youngs Moduli (GPa) = 109.77468 108.11989 30.58993
#
# Poissons Ratio (x) = 0.09002 0.22361
# Poissons Ratio (y) = 0.09139 0.11748
# Poissons Ratio (z) = 0.80244 0.41522
#
# Static dielectric constant tensor:
#      x y z
#    x 1.886890 0.000000 0.001700 
#    y 0.000000 1.926720 0.000000 
#    z 0.001700 0.000000 1.826210 
# 
# From -- ./inp_files/34363.got.cif
#   From: 2010.05.17/outbox.cif.g08.bks.cpg/sg11_18_cif.got.tgz:34363.got - 2010.06.03 12:22:45.
