data_PCOD9162655
_publ_section_title
;
Structure prediction by ZEFSAII (Michael W. Deem and Ramdas Pophale) SiO2 
 PCOD9162655
Probable space group: P 21/M
;
_chemical_formula_sum "Si O2"
_cell_formula_units_Z 32
_cell_length_a 28.494594
_cell_length_b 9.080482
_cell_length_c 14.576646
_cell_angle_alpha 90.000000
_cell_angle_beta 29.320626
_cell_angle_gamma 90.000000
_cell_volume 1846.953051
_symmetry_space_group_name_H-M "P 21/M"
_symmetry_group_IT_number 11
_symmetry_cell_setting 'monoclinic'
loop_
_space_group_symop_operation_xyz
x,y,z
-x,1/2+y,-z
-x,-y,-z
x,1/2-y,z
loop_
_atom_site_type_symbol
_atom_site_label
_atom_site_fract_x
_atom_site_fract_y
_atom_site_fract_z
Si Si1 0.197060 0.425823 0.965763
Si Si2 0.002950 0.927939 0.595936
Si Si3 0.311258 0.580501 0.932222
Si Si4 0.695093 0.075411 0.374137
Si Si5 0.597230 0.072338 0.726743
Si Si6 0.496619 0.423837 0.604649
Si Si7 0.790933 0.079640 0.703778
Si Si8 0.621398 0.573988 0.882635
O O1 0.207595 0.250000 0.947569
O O2 0.270091 0.496396 0.914755
O O3 0.224228 0.489855 0.820104
O O4 0.091636 0.463173 0.184000
O O5 0.006942 0.750000 0.577645
O O6 0.099461 0.973384 0.485335
O O7 0.000000 0.000000 0.500000
O O8 0.331793 0.750000 0.872419
O O9 0.406489 0.501064 0.805596
O O10 0.235699 0.577369 0.143096
O O11 0.716523 0.250000 0.337063
O O12 0.668378 0.029719 0.523081
O O13 0.595492 0.054307 0.488848
O O14 0.602466 0.250000 0.728211
O O15 0.622144 0.994131 0.779368
O O16 0.485142 0.037584 0.896372
O O17 0.500000 0.500000 0.500000
O O18 0.479516 0.250000 0.625442
O O19 0.786265 0.250000 0.680761
O O20 0.710259 0.989928 0.787828
O O21 0.628118 0.750000 0.867504
#
# Coordination Sequence:
#
# PCOD9162655 Si02
#       8
#     4   4   4   4   4   4   4   4
#     4  11  22  34  52  76 105 141 181 226 270 314
#     4  10  21  37  55  78 107 143 185 228 277 325
#     4  11  21  33  50  73 104 143 182 219 263 318
#     4  10  21  36  54  74 105 147 184 218 264 325
#     4   9  19  37  58  81 111 146 178 216 269 326
#     4  11  21  32  47  71 105 142 178 216 259 313
#     4  10  21  36  55  78 108 143 179 223 275 330
#     4  10  20  35  58  87 112 137 176 225 272 324
#
# _framework density 17.325834
#
# number of rings (size 3 to 8) (size 9 to 14) (size 15 to 20)
#    0.000    1.750    2.500    2.250    0.000    4.500 
#    0.000    0.000    0.000    0.750    0.000    0.000 
#    0.000    0.000    0.000    0.000    0.000    0.000 
#
# Total GULP energy -178593.393003 kJ/mol
# GULP energy per Si atom -5581.043531 kJ/mol
# Density = 1.728640 g / cm^3
# Si number density = 17.325834 Si / 1000 Ang^3
#
#
#
# Elastic Constant Matrix: (Units=GPa)
#
#
# Indices 1 2 3 4 5 6 
#
# 1 73.7581 28.3392 44.4905 0.0000 3.9968 0.0000
# 2 28.3392 46.8489 49.4673 0.0000 2.5610 0.0000
# 3 44.4905 49.4673 129.2462 0.0000 6.5350 0.0000
# 4 0.0000 0.0000 0.0000 25.4680 0.0000 1.8027
# 5 3.9968 2.5610 6.5350 0.0000 27.3601 0.0000
# 6 0.0000 0.0000 0.0000 1.8027 0.0000 26.2375
#
#
#
# Elastic Compliance Matrix: (Units=1/GPa)
#
#
# Indices 1 2 3 4 5 6 
#
# 1 0.018605 -0.007536 -0.003460 0.000000 -0.001186 0.000000
# 2 -0.007536 0.038874 -0.012305 0.000000 0.000401 0.000000
# 3 -0.003460 -0.012305 0.013720 0.000000 -0.001620 0.000000
# 4 0.000000 0.000000 0.000000 0.039457 0.000000 -0.002711
# 5 -0.001186 0.000401 -0.001620 0.000000 0.037072 0.000000
# 6 0.000000 0.000000 0.000000 -0.002711 0.000000 0.038300
#
#
# Mechanical properties :
#
#
# Convention : Reuss Voigt Hill
#
# Bulk Modulus (GPa) = 40.65511 54.93857 47.79684
# Shear Modulus (GPa) = 20.76174 24.31687 22.53931
#
# Velocity S-wave (km/s) = 3.46542 3.75040 3.61072
# Velocity P-wave (km/s) = 6.28714 7.10858 6.71044
#
# Compressibility (1/GPa) = 0.02459715
#
# Stress axis : x y z
#
# Youngs Moduli (GPa) = 53.75026 25.72394 72.88803
#
# Poissons Ratio (x) = 0.19385 0.25220
# Poissons Ratio (y) = 0.40505 0.89688
# Poissons Ratio (z) = 0.18598 0.31653
#
# Static dielectric constant tensor:
#      x y z
#    x 1.566110 0.000000 0.011480 
#    y 0.000000 1.582190 0.000000 
#    z 0.011480 0.000000 1.641740 
# 
# From -- ./inp_files/51613.got.cif
#   From: 2010.05.17/outbox.cif.g08.bks.cpg/sg11_26_cif.got.tgz:51613.got - 2010.06.03 12:22:45.
