data_PCOD9162264
_publ_section_title
;
Structure prediction by ZEFSAII (Michael W. Deem and Ramdas Pophale) SiO2 
 PCOD9162264
Probable space group: P 21/M
;
_chemical_formula_sum "Si O2"
_cell_formula_units_Z 32
_cell_length_a 22.144403
_cell_length_b 9.107147
_cell_length_c 11.949440
_cell_angle_alpha 90.000000
_cell_angle_beta 50.667577
_cell_angle_gamma 90.000000
_cell_volume 1863.991375
_symmetry_space_group_name_H-M "P 21/M"
_symmetry_group_IT_number 11
_symmetry_cell_setting 'monoclinic'
loop_
_space_group_symop_operation_xyz
x,y,z
-x,1/2+y,-z
-x,-y,-z
x,1/2-y,z
loop_
_atom_site_type_symbol
_atom_site_label
_atom_site_fract_x
_atom_site_fract_y
_atom_site_fract_z
Si Si1 0.272128 0.076827 0.838302
Si Si2 0.752249 0.924690 0.647709
Si Si3 0.666446 0.081571 0.560915
Si Si4 0.092041 0.425344 0.678130
Si Si5 0.174434 0.919384 0.775297
Si Si6 0.203867 0.075770 0.158667
Si Si7 0.037797 0.926093 0.346092
Si Si8 0.579477 0.072346 0.448006
O O1 0.280469 0.250000 0.802471
O O2 0.198626 0.011827 0.855528
O O3 0.348555 0.989637 0.709069
O O4 0.257201 0.059418 0.987270
O O5 0.743801 0.750000 0.654610
O O6 0.835520 0.959298 0.490917
O O7 0.756560 0.971763 0.771424
O O8 0.684988 0.993077 0.650479
O O9 0.651192 0.250000 0.608039
O O10 0.746381 0.077379 0.393368
O O11 0.600156 0.030563 0.552440
O O12 0.093394 0.250000 0.697031
O O13 0.108632 0.509640 0.773880
O O14 0.014036 0.463639 0.702133
O O15 0.157428 0.750000 0.822748
O O16 0.184445 0.250000 0.192856
O O17 0.124856 0.986048 0.234022
O O18 0.035861 0.750000 0.360755
O O19 0.000000 0.000000 0.500000
O O20 0.577492 0.250000 0.444413
O O21 0.500000 0.000000 0.500000
#
# Coordination Sequence:
#
# PCOD9162264 Si02
#       8
#     4   4   4   4   4   4   4   4
#     4  10  20  35  55  76 105 140 172 208 256 311
#     4   9  16  29  48  70  99 132 169 212 253 297
#     4   8  16  29  46  74 104 128 160 205 250 295
#     4   9  17  30  48  70  97 129 171 219 266 311
#     4   9  17  30  49  72  99 129 169 217 261 306
#     4  10  21  36  51  73 104 139 177 216 260 310
#     4  11  21  33  50  73 102 136 176 223 268 313
#     4  10  20  35  57  84 111 134 166 207 252 303
#
# _framework density 17.167462
#
# number of rings (size 3 to 8) (size 9 to 14) (size 15 to 20)
#    0.000    2.500    1.250    2.250    0.000    6.000 
#    0.000    0.625    0.000    0.750    0.000    0.000 
#    0.000    0.000    0.000    0.000    0.000    0.000 
#
# Total GULP energy -178406.905295 kJ/mol
# GULP energy per Si atom -5575.215790 kJ/mol
# Density = 1.712839 g / cm^3
# Si number density = 17.167462 Si / 1000 Ang^3
#
#
#
# Elastic Constant Matrix: (Units=GPa)
#
#
# Indices 1 2 3 4 5 6 
#
# 1 171.6625 64.0995 43.3668 0.0000 17.0306 0.0000
# 2 64.0995 62.5194 32.2875 0.0000 9.2725 0.0000
# 3 43.3668 32.2875 39.1769 0.0000 11.7582 0.0000
# 4 0.0000 0.0000 0.0000 17.4550 0.0000 1.1246
# 5 17.0306 9.2725 11.7582 0.0000 21.1693 0.0000
# 6 0.0000 0.0000 0.0000 1.1246 0.0000 33.7602
#
#
#
# Elastic Compliance Matrix: (Units=1/GPa)
#
#
# Indices 1 2 3 4 5 6 
#
# 1 0.009981 -0.007911 -0.003791 0.000000 -0.002459 0.000000
# 2 -0.007911 0.034125 -0.020150 0.000000 0.002609 0.000000
# 3 -0.003791 -0.020150 0.051319 0.000000 -0.016629 0.000000
# 4 0.000000 0.000000 0.000000 0.057413 0.000000 -0.001912
# 5 -0.002459 0.002609 -0.016629 0.000000 0.057310 0.000000
# 6 0.000000 0.000000 0.000000 -0.001912 0.000000 0.029684
#
#
# Mechanical properties :
#
#
# Convention : Reuss Voigt Hill
#
# Bulk Modulus (GPa) = 31.52449 61.42958 46.47703
# Shear Modulus (GPa) = 15.91801 23.38392 19.65097
#
# Velocity S-wave (km/s) = 3.04833 3.69468 3.38696
# Velocity P-wave (km/s) = 5.54910 7.35263 6.51359
#
# Compressibility (1/GPa) = 0.03172137
#
# Stress axis : x y z
#
# Youngs Moduli (GPa) = 100.19147 29.30387 19.48605
#
# Poissons Ratio (x) = 0.23182 0.07386
# Poissons Ratio (y) = 0.79259 0.39265
# Poissons Ratio (z) = 0.37979 0.59048
#
# Static dielectric constant tensor:
#      x y z
#    x 1.587560 0.000000 0.012710 
#    y 0.000000 1.579860 0.000000 
#    z 0.012710 0.000000 1.573580 
# 
# From -- ./inp_files/42736.got.cif
#   From: 2010.05.17/outbox.cif.g08.bks.cpg/sg11_22_cif.got.tgz:42736.got - 2010.06.03 12:22:45.
