data_PCOD9162179
_publ_section_title
;
Structure prediction by ZEFSAII (Michael W. Deem and Ramdas Pophale) SiO2 
 PCOD9162179
Probable space group: P 21/M
;
_chemical_formula_sum "Si O2"
_cell_formula_units_Z 28
_cell_length_a 15.503549
_cell_length_b 7.843958
_cell_length_c 17.384874
_cell_angle_alpha 90.000000
_cell_angle_beta 134.503038
_cell_angle_gamma 90.000000
_cell_volume 1507.847279
_symmetry_space_group_name_H-M "P 21/M"
_symmetry_group_IT_number 11
_symmetry_cell_setting 'monoclinic'
loop_
_space_group_symop_operation_xyz
x,y,z
-x,1/2+y,-z
-x,-y,-z
x,1/2-y,z
loop_
_atom_site_type_symbol
_atom_site_label
_atom_site_fract_x
_atom_site_fract_y
_atom_site_fract_z
Si Si1 0.313468 0.543471 0.917162
Si Si2 0.164613 0.551690 0.236434
Si Si3 0.383044 0.955300 0.477400
Si Si4 0.560800 0.454511 0.156163
Si Si5 0.097494 0.552864 0.883733
Si Si6 0.523174 0.458780 0.301814
Si Si7 0.756431 0.552093 0.878428
O O1 0.309308 0.750000 0.913595
O O2 0.349037 0.481573 0.854055
O O3 0.188261 0.482372 0.875494
O O4 0.425470 0.493894 0.041947
O O5 0.192468 0.750000 0.239377
O O6 0.264002 0.482724 0.358530
O O7 0.178056 0.462124 0.162585
O O8 0.030172 0.536809 0.185012
O O9 0.374352 0.750000 0.476465
O O10 0.406198 0.018471 0.578480
O O11 0.500000 0.000000 0.500000
O O12 0.573015 0.250000 0.165699
O O13 0.574559 0.517185 0.251780
O O14 0.071873 0.750000 0.850273
O O15 0.171422 0.542643 0.009844
O O16 0.524631 0.250000 0.303459
O O17 0.381775 0.508907 0.217702
O O18 0.751719 0.750000 0.899072
#
# Coordination Sequence:
#
# PCOD9162179 Si02
#       7
#     4   4   4   4   4   4   4
#     4   9  18  30  48  74 102 129 161 201 246 293
#     4  11  23  36  51  72 100 136 174 208 246 295
#     4  10  20  35  53  74  98 128 168 210 248 291
#     4   9  16  30  51  75 100 128 160 199 248 301
#     4  11  22  35  50  72 105 138 169 205 247 298
#     4   9  17  30  52  77 101 128 160 199 249 298
#     4  11  20  33  53  76 103 134 167 203 248 302
#
# _framework density 18.569519
#
# number of rings (size 3 to 8) (size 9 to 14) (size 15 to 20)
#    0.000    2.000    2.857    1.714    0.000    1.143 
#    0.000    0.714    0.000    0.857    0.000    0.000 
#    0.000    0.000    0.000    0.000    0.000    0.286 
#
# Total GULP energy -156279.792379 kJ/mol
# GULP energy per Si atom -5581.421156 kJ/mol
# Density = 1.852725 g / cm^3
# Si number density = 18.569519 Si / 1000 Ang^3
#
#
#
# Elastic Constant Matrix: (Units=GPa)
#
#
# Indices 1 2 3 4 5 6 
#
# 1 141.5483 -6.2054 53.9102 0.0000 -12.8326 0.0000
# 2 -6.2054 23.7115 -3.3019 0.0000 -0.4824 0.0000
# 3 53.9102 -3.3019 70.1062 0.0000 -3.3134 0.0000
# 4 0.0000 0.0000 0.0000 6.3329 0.0000 3.9039
# 5 -12.8326 -0.4824 -3.3134 0.0000 31.1997 0.0000
# 6 0.0000 0.0000 0.0000 3.9039 0.0000 12.0144
#
#
#
# Elastic Compliance Matrix: (Units=1/GPa)
#
#
# Indices 1 2 3 4 5 6 
#
# 1 0.010412 0.001715 -0.007761 0.000000 0.003485 0.000000
# 2 0.001715 0.042758 0.000764 0.000000 0.001447 0.000000
# 3 -0.007761 0.000764 0.020219 0.000000 -0.001033 0.000000
# 4 0.000000 0.000000 0.000000 0.197458 0.000000 -0.064161
# 5 0.003485 0.001447 -0.001033 0.000000 0.033398 0.000000
# 6 0.000000 0.000000 0.000000 -0.064161 0.000000 0.104082
#
#
# Mechanical properties :
#
#
# Convention : Reuss Voigt Hill
#
# Bulk Modulus (GPa) = 15.91743 36.01907 25.96825
# Shear Modulus (GPa) = 11.36798 22.64029 17.00413
#
# Velocity S-wave (km/s) = 2.47692 3.49552 3.02934
# Velocity P-wave (km/s) = 4.09519 5.97750 5.12353
#
# Compressibility (1/GPa) = 0.06282423
#
# Stress axis : x y z
#
# Youngs Moduli (GPa) = 96.04647 23.38730 49.45808
#
# Poissons Ratio (x) = -0.04011 0.38384
# Poissons Ratio (y) = -0.16471 -0.03776
# Poissons Ratio (z) = 0.74540 -0.01786
#
# Static dielectric constant tensor:
#      x y z
#    x 1.656360 0.000000 -0.015950 
#    y 0.000000 1.655760 0.000000 
#    z -0.015950 0.000000 1.619940 
# 
# From -- ./inp_files/37453.got.cif
#   From: 2010.05.17/outbox.cif.g08.bks.cpg/sg11_19_cif.got.tgz:37453.got - 2010.06.03 12:22:45.
