data_PCOD9162294
_publ_section_title
;
Structure prediction by ZEFSAII (Michael W. Deem and Ramdas Pophale) SiO2 
 PCOD9162294
Probable space group: P 21/M
;
_chemical_formula_sum "Si O2"
_cell_formula_units_Z 32
_cell_length_a 16.049050
_cell_length_b 18.300485
_cell_length_c 5.381087
_cell_angle_alpha 90.000000
_cell_angle_beta 94.049951
_cell_angle_gamma 90.000000
_cell_volume 1576.507683
_symmetry_space_group_name_H-M "P 21/M"
_symmetry_group_IT_number 11
_symmetry_cell_setting 'monoclinic'
loop_
_space_group_symop_operation_xyz
x,y,z
-x,1/2+y,-z
-x,-y,-z
x,1/2-y,z
loop_
_atom_site_type_symbol
_atom_site_label
_atom_site_fract_x
_atom_site_fract_y
_atom_site_fract_z
Si Si1 0.864461 0.329408 0.821313
Si Si2 0.596499 0.012770 0.580391
Si Si3 0.084774 0.336802 0.292682
Si Si4 0.682999 0.962607 0.079724
Si Si5 0.943837 0.429671 0.481449
Si Si6 0.812530 0.837534 0.181784
Si Si7 0.219202 0.593670 0.803962
Si Si8 0.677034 0.334194 0.545045
O O1 0.899166 0.250000 0.777990
O O2 0.928547 0.388582 0.736884
O O3 0.771610 0.335174 0.677181
O O4 0.838454 0.343903 0.094352
O O5 0.619945 0.099051 0.630548
O O6 0.500000 0.000000 0.500000
O O7 0.646408 0.985980 0.342814
O O8 0.620283 0.967602 0.834111
O O9 0.071868 0.250000 0.291538
O O10 0.143863 0.354295 0.543941
O O11 0.997730 0.376348 0.319948
O O12 0.127671 0.355697 0.039734
O O13 0.730345 0.886447 0.124649
O O14 0.748945 0.027111 0.023599
O O15 0.848229 0.445958 0.385935
O O16 0.000000 0.500000 0.500000
O O17 0.796182 0.750000 0.171475
O O18 0.299816 0.637571 0.725714
O O19 0.647176 0.250000 0.554417
#
# Coordination Sequence:
#
# PCOD9162294 Si02
#       8
#     4   4   4   4   4   4   4   4
#     4  10  20  35  55  79 109 150 201 247 297 356
#     4  11  23  41  65  97 126 159 189 240 306 367
#     4  10  22  39  56  82 118 159 204 258 309 347
#     4  11  22  41  66  88 123 158 201 247 294 364
#     4  11  24  35  51  80 116 155 201 259 308 359
#     4  10  22  40  63  85 114 161 212 252 296 355
#     4  10  21  35  59  83 112 158 205 250 300 358
#     4   9  19  38  59  87 120 155 196 240 295 364
#
# _framework density 20.298031000000002
#
# number of rings (size 3 to 8) (size 9 to 14) (size 15 to 20)
#    0.000    1.750    1.250    2.625    3.500    2.000 
#    0.000    1.250    0.000    0.000    0.000    0.000 
#    0.000    0.000    0.000    0.000    0.000    0.000 
#
# Total GULP energy -178257.452461 kJ/mol
# GULP energy per Si atom -5570.545389 kJ/mol
# Density = 2.025183 g / cm^3
# Si number density = 20.298031 Si / 1000 Ang^3
#
#
#
# Elastic Constant Matrix: (Units=GPa)
#
#
# Indices 1 2 3 4 5 6 
#
# 1 64.0316 34.7810 11.5149 0.0000 13.4224 0.0000
# 2 34.7810 70.8224 11.0582 0.0000 1.4233 0.0000
# 3 11.5149 11.0582 64.9465 0.0000 10.1178 0.0000
# 4 0.0000 0.0000 0.0000 14.8219 0.0000 -1.9034
# 5 13.4224 1.4233 10.1178 0.0000 32.9982 0.0000
# 6 0.0000 0.0000 0.0000 -1.9034 0.0000 24.8366
#
#
#
# Elastic Compliance Matrix: (Units=1/GPa)
#
#
# Indices 1 2 3 4 5 6 
#
# 1 0.023835 -0.011386 -0.000896 0.000000 -0.008929 0.000000
# 2 -0.011386 0.019945 -0.002063 0.000000 0.004404 0.000000
# 3 -0.000896 -0.002063 0.016631 0.000000 -0.004646 0.000000
# 4 0.000000 0.000000 0.000000 0.068138 0.000000 0.005222
# 5 -0.008929 0.004404 -0.004646 0.000000 0.035171 0.000000
# 6 0.000000 0.000000 0.000000 0.005222 0.000000 0.040663
#
#
# Mechanical properties :
#
#
# Convention : Reuss Voigt Hill
#
# Bulk Modulus (GPa) = 31.52549 34.94540 33.23545
# Shear Modulus (GPa) = 20.52136 24.02777 22.27457
#
# Velocity S-wave (km/s) = 3.18308 3.44430 3.31626
# Velocity P-wave (km/s) = 5.39206 5.75075 5.57429
#
# Compressibility (1/GPa) = 0.03172037
#
# Stress axis : x y z
#
# Youngs Moduli (GPa) = 41.95529 50.13745 60.12776
#
# Poissons Ratio (x) = 0.57086 0.05389
# Poissons Ratio (y) = 0.47770 0.12406
# Poissons Ratio (z) = 0.03760 0.10345
#
# Static dielectric constant tensor:
#      x y z
#    x 1.725640 0.000000 0.036810 
#    y 0.000000 1.740260 0.000000 
#    z 0.036810 0.000000 1.931440 
# 
# From -- ./inp_files/6818.got.cif
#   From: 2010.05.17/outbox.cif.g08.bks.cpg/sg11_4_cif.got.tgz:6818.got - 2010.06.03 12:22:45.
