data_PCOD9162267
_publ_section_title
;
Structure prediction by ZEFSAII (Michael W. Deem and Ramdas Pophale) SiO2 
 PCOD9162267
Probable space group: P 21/M
;
_chemical_formula_sum "Si O2"
_cell_formula_units_Z 32
_cell_length_a 14.900155
_cell_length_b 8.173756
_cell_length_c 28.855706
_cell_angle_alpha 90.000000
_cell_angle_beta 28.956175
_cell_angle_gamma 90.000000
_cell_volume 1701.435795
_symmetry_space_group_name_H-M "P 21/M"
_symmetry_group_IT_number 11
_symmetry_cell_setting 'monoclinic'
loop_
_space_group_symop_operation_xyz
x,y,z
-x,1/2+y,-z
-x,-y,-z
x,1/2-y,z
loop_
_atom_site_type_symbol
_atom_site_label
_atom_site_fract_x
_atom_site_fract_y
_atom_site_fract_z
Si Si1 0.927462 0.560279 0.817579
Si Si2 0.718436 0.945642 0.292791
Si Si3 0.970974 0.051275 0.694609
Si Si4 0.270951 0.052248 0.908093
Si Si5 0.385078 0.941049 0.192300
Si Si6 0.603149 0.946046 0.500705
Si Si7 0.573822 0.061319 0.016167
Si Si8 0.112266 0.447337 0.881210
O O1 0.880448 0.750000 0.843849
O O2 0.903051 0.506227 0.775704
O O3 0.137711 0.527206 0.736775
O O4 0.794400 0.458844 0.911480
O O5 0.739108 0.750000 0.286463
O O6 0.780813 0.999929 0.213362
O O7 0.515613 0.992243 0.402070
O O8 0.968716 0.250000 0.695636
O O9 0.821063 0.992159 0.724425
O O10 0.183468 0.996437 0.593359
O O11 0.279136 0.250000 0.903893
O O12 0.468370 0.987850 0.837186
O O13 0.214241 0.995701 0.882240
O O14 0.100324 0.004436 0.018568
O O15 0.361860 0.750000 0.214352
O O16 0.490676 0.957665 0.095462
O O17 0.605283 0.750000 0.499708
O O18 0.500000 0.000000 0.500000
O O19 0.524221 0.250000 0.045869
O O20 0.500000 0.000000 0.000000
O O21 0.111195 0.250000 0.882132
#
# Coordination Sequence:
#
# PCOD9162267 Si02
#       8
#     4   4   4   4   4   4   4   4
#     4  12  23  34  51  75 104 141 180 220 265 319
#     4  11  22  36  55  78 108 143 179 225 275 325
#     4  10  21  36  53  73 103 140 177 220 268 320
#     4   9  18  34  57  83 109 138 177 221 267 325
#     4  10  20  35  55  77 104 140 180 221 269 323
#     4  11  22  36  55  78 106 140 183 228 276 327
#     4  12  23  34  48  71 106 143 179 216 257 314
#     4   9  19  35  55  81 110 141 176 219 272 323
#
# _framework density 18.807645999999998
#
# number of rings (size 3 to 8) (size 9 to 14) (size 15 to 20)
#    0.000    1.500    2.500    3.750    0.000    4.000 
#    0.000    0.000    0.000    0.750    0.000    0.000 
#    0.000    0.000    0.000    0.000    0.000    0.250 
#
# Total GULP energy -178688.280792 kJ/mol
# GULP energy per Si atom -5584.008775 kJ/mol
# Density = 1.876484 g / cm^3
# Si number density = 18.807646 Si / 1000 Ang^3
#
#
#
# Elastic Constant Matrix: (Units=GPa)
#
#
# Indices 1 2 3 4 5 6 
#
# 1 112.7032 8.6468 47.6532 0.0000 -21.6456 0.0000
# 2 8.6468 28.4332 5.8804 0.0000 0.0409 0.0000
# 3 47.6532 5.8804 102.6357 0.0000 -16.0651 0.0000
# 4 0.0000 0.0000 0.0000 24.6003 0.0000 -1.6149
# 5 -21.6456 0.0409 -16.0651 0.0000 32.6112 0.0000
# 6 0.0000 0.0000 0.0000 -1.6149 0.0000 13.2774
#
#
#
# Elastic Compliance Matrix: (Units=1/GPa)
#
#
# Indices 1 2 3 4 5 6 
#
# 1 0.012129 -0.002753 -0.004565 0.000000 0.005805 0.000000
# 2 -0.002753 0.036256 -0.001183 0.000000 -0.002456 0.000000
# 3 -0.004565 -0.001183 0.012414 0.000000 0.003087 0.000000
# 4 0.000000 0.000000 0.000000 0.040977 0.000000 0.004984
# 5 0.005805 -0.002456 0.003087 0.000000 0.036041 0.000000
# 6 0.000000 0.000000 0.000000 0.004984 0.000000 0.075922
#
#
# Mechanical properties :
#
#
# Convention : Reuss Voigt Hill
#
# Bulk Modulus (GPa) = 22.83331 40.90367 31.86849
# Shear Modulus (GPa) = 20.37981 26.20389 23.29185
#
# Velocity S-wave (km/s) = 3.29537 3.73669 3.52294
# Velocity P-wave (km/s) = 5.16198 6.35710 5.79046
#
# Compressibility (1/GPa) = 0.04379567
#
# Stress axis : x y z
#
# Youngs Moduli (GPa) = 82.44526 27.58194 80.55599
#
# Poissons Ratio (x) = 0.07593 0.36775
# Poissons Ratio (y) = 0.22696 0.09533
# Poissons Ratio (z) = 0.37638 0.03264
#
# Static dielectric constant tensor:
#      x y z
#    x 1.690670 0.000000 -0.038980 
#    y 0.000000 1.665430 0.000000 
#    z -0.038980 0.000000 1.653160 
# 
# From -- ./inp_files/71618.got.cif
#   From: 2010.05.17/outbox.cif.g08.bks.cpg/sg11_36_cif.got.tgz:71618.got - 2010.06.03 12:22:45.
