data_PCOD9162170
_publ_section_title
;
Structure prediction by ZEFSAII (Michael W. Deem and Ramdas Pophale) SiO2 
 PCOD9162170
Probable space group: P 21/M
;
_chemical_formula_sum "Si O2"
_cell_formula_units_Z 32
_cell_length_a 11.151551
_cell_length_b 9.440059
_cell_length_c 21.045938
_cell_angle_alpha 90.000000
_cell_angle_beta 54.291047
_cell_angle_gamma 90.000000
_cell_volume 1798.996005
_symmetry_space_group_name_H-M "P 21/M"
_symmetry_group_IT_number 11
_symmetry_cell_setting 'monoclinic'
loop_
_space_group_symop_operation_xyz
x,y,z
-x,1/2+y,-z
-x,-y,-z
x,1/2-y,z
loop_
_atom_site_type_symbol
_atom_site_label
_atom_site_fract_x
_atom_site_fract_y
_atom_site_fract_z
Si Si1 0.956755 0.418756 0.417344
Si Si2 0.670068 0.917353 0.025702
Si Si3 0.784051 0.583474 0.133937
Si Si4 0.230385 0.419977 0.425755
Si Si5 0.514557 0.416205 0.263391
Si Si6 0.927282 0.081213 0.882724
Si Si7 0.597367 0.587264 0.846742
Si Si8 0.948182 0.916779 0.753259
O O1 0.932433 0.250000 0.430487
O O2 0.109858 0.449934 0.407543
O O3 0.976847 0.452377 0.337102
O O4 0.829714 0.503076 0.493261
O O5 0.667786 0.750000 0.012688
O O6 0.742544 0.940643 0.073273
O O7 0.506642 0.982270 0.081721
O O8 0.775569 0.000990 0.945360
O O9 0.764299 0.750000 0.152096
O O10 0.667399 0.498734 0.212580
O O11 0.951348 0.548146 0.100640
O O12 0.232220 0.250000 0.433732
O O13 0.391388 0.465435 0.351552
O O14 0.542090 0.250000 0.265605
O O15 0.442856 0.429653 0.215240
O O16 0.905444 0.250000 0.886334
O O17 0.990608 0.017835 0.797826
O O18 0.561609 0.750000 0.875590
O O19 0.771427 0.566856 0.799639
O O20 0.975930 0.750000 0.758753
#
# Coordination Sequence:
#
# PCOD9162170 Si02
#       8
#     4   4   4   4   4   4   4   4
#     4   9  17  30  48  73 105 137 165 198 241 292
#     4  10  20  35  55  77  99 125 164 211 254 300
#     4   9  20  36  53  75 101 127 163 213 257 294
#     4   9  16  28  48  77 107 132 162 199 244 295
#     4   9  16  29  52  78 103 131 163 203 250 298
#     4  11  23  37  52  72  99 133 170 208 253 298
#     4   9  17  32  52  74 102 134 164 201 251 296
#     4  10  20  35  53  72 102 139 172 204 241 296
#
# _framework density 17.787699
#
# number of rings (size 3 to 8) (size 9 to 14) (size 15 to 20)
#    0.000    2.500    1.250    1.125    0.000    3.500 
#    0.000    0.000    0.000    0.750    0.000    0.000 
#    0.000    0.000    0.000    0.000    0.000    0.000 
#
# Total GULP energy -178521.203259 kJ/mol
# GULP energy per Si atom -5578.787602 kJ/mol
# Density = 1.774721 g / cm^3
# Si number density = 17.787699 Si / 1000 Ang^3
#
#
#
# Elastic Constant Matrix: (Units=GPa)
#
#
# Indices 1 2 3 4 5 6 
#
# 1 18.2344 14.4048 6.4111 0.0000 -0.1517 0.0000
# 2 14.4048 39.2772 50.6829 0.0000 -0.5754 0.0000
# 3 6.4111 50.6829 117.7171 0.0000 -7.8846 0.0000
# 4 0.0000 0.0000 0.0000 35.6730 0.0000 -3.3876
# 5 -0.1517 -0.5754 -7.8846 0.0000 20.6857 0.0000
# 6 0.0000 0.0000 0.0000 -3.3876 0.0000 20.1413
#
#
#
# Elastic Compliance Matrix: (Units=1/GPa)
#
#
# Indices 1 2 3 4 5 6 
#
# 1 0.100130 -0.068111 0.024418 0.000000 0.008147 0.000000
# 2 -0.068111 0.104943 -0.042394 0.000000 -0.013739 0.000000
# 3 0.024418 -0.042394 0.026015 0.000000 0.008916 0.000000
# 4 0.000000 0.000000 0.000000 0.028487 0.000000 0.004791
# 5 0.008147 -0.013739 0.008916 0.000000 0.051418 0.000000
# 6 0.000000 0.000000 0.000000 0.004791 0.000000 0.050455
#
#
# Mechanical properties :
#
#
# Convention : Reuss Voigt Hill
#
# Bulk Modulus (GPa) = 16.97416 35.35847 26.16632
# Shear Modulus (GPa) = 9.03732 22.21533 15.62632
#
# Velocity S-wave (km/s) = 2.25648 3.53783 2.96715
# Velocity P-wave (km/s) = 4.04379 6.05058 5.14596
#
# Compressibility (1/GPa) = 0.05891307
#
# Stress axis : x y z
#
# Youngs Moduli (GPa) = 9.98698 9.52899 38.43963
#
# Poissons Ratio (x) = 0.64903 -0.93860
# Poissons Ratio (y) = 0.68023 1.62960
# Poissons Ratio (z) = -0.24386 0.40397
#
# Static dielectric constant tensor:
#      x y z
#    x 1.619060 0.000000 0.017740 
#    y 0.000000 1.594620 0.000000 
#    z 0.017740 0.000000 1.602140 
# 
# From -- ./inp_files/42769.got.cif
#   From: 2010.05.17/outbox.cif.g08.bks.cpg/sg11_22_cif.got.tgz:42769.got - 2010.06.03 12:22:45.
