data_PCOD9162278
_publ_section_title
;
Structure prediction by ZEFSAII (Michael W. Deem and Ramdas Pophale) SiO2 
 PCOD9162278
Probable space group: P 21/M
;
_chemical_formula_sum "Si O2"
_cell_formula_units_Z 32
_cell_length_a 28.263777
_cell_length_b 11.858193
_cell_length_c 8.926598
_cell_angle_alpha 90.000000
_cell_angle_beta 147.138353
_cell_angle_gamma 90.000000
_cell_volume 1623.395443
_symmetry_space_group_name_H-M "P 21/M"
_symmetry_group_IT_number 11
_symmetry_cell_setting 'monoclinic'
loop_
_space_group_symop_operation_xyz
x,y,z
-x,1/2+y,-z
-x,-y,-z
x,1/2-y,z
loop_
_atom_site_type_symbol
_atom_site_label
_atom_site_fract_x
_atom_site_fract_y
_atom_site_fract_z
Si Si1 0.953862 0.415651 0.595824
Si Si2 0.205327 0.954468 0.662042
Si Si3 0.293298 0.119569 0.127696
Si Si4 0.777276 0.523839 0.749099
Si Si5 0.494254 0.384942 0.589481
Si Si6 0.047578 0.875214 0.752167
Si Si7 0.118836 0.130766 0.225315
Si Si8 0.336105 0.876353 0.763026
O O1 0.856628 0.389228 0.388208
O O2 0.972268 0.372442 0.477859
O O3 0.973221 0.549544 0.631140
O O4 0.023455 0.373686 0.900358
O O5 0.268095 0.885912 0.720518
O O6 0.139178 0.024239 0.381213
O O7 0.260651 0.044183 0.903100
O O8 0.267771 0.250000 0.042530
O O9 0.398155 0.113210 0.404974
O O10 0.252198 0.070659 0.170297
O O11 0.814568 0.618701 0.736941
O O12 0.698534 0.461855 0.454049
O O13 0.859852 0.438851 0.984539
O O14 0.500000 0.500000 0.500000
O O15 0.504744 0.250000 0.559061
O O16 0.569937 0.398758 0.914290
O O17 0.052308 0.750000 0.826640
O O18 0.132536 0.250000 0.340337
O O19 0.334505 0.750000 0.697187
#
# Coordination Sequence:
#
# PCOD9162278 Si02
#       8
#     4   4   4   4   4   4   4   4
#     4  10  21  36  51  82 113 147 197 246 288 354
#     4  11  21  38  58  87 117 149 205 247 298 362
#     4  11  22  38  63  90 121 157 200 255 304 364
#     4  10  21  39  57  86 119 150 202 241 292 357
#     4  10  21  41  65  94 127 163 201 250 314 373
#     4  10  20  35  55  78 114 155 191 240 297 348
#     4  10  21  36  55  79 115 156 191 242 299 347
#     4  10  22  40  63  87 123 161 195 249 309 365
#
# _framework density 19.711770999999999
#
# number of rings (size 3 to 8) (size 9 to 14) (size 15 to 20)
#    0.000    1.750    2.500    1.875    0.000    2.500 
#    0.000    1.875    0.000    0.000    0.000    0.000 
#    0.000    0.000    0.000    0.000    0.000    0.000 
#
# Total GULP energy -178517.937994 kJ/mol
# GULP energy per Si atom -5578.685562 kJ/mol
# Density = 1.966691 g / cm^3
# Si number density = 19.711771 Si / 1000 Ang^3
#
#
#
# Elastic Constant Matrix: (Units=GPa)
#
#
# Indices 1 2 3 4 5 6 
#
# 1 43.6512 -2.3661 -6.5221 0.0000 0.4848 0.0000
# 2 -2.3661 98.2898 8.9249 0.0000 2.2696 0.0000
# 3 -6.5221 8.9249 89.4278 0.0000 7.0887 0.0000
# 4 0.0000 0.0000 0.0000 -9.9239 0.0000 5.4902
# 5 0.4848 2.2696 7.0887 0.0000 20.2764 0.0000
# 6 0.0000 0.0000 0.0000 5.4902 0.0000 -4.8483
#
#
#
# Elastic Compliance Matrix: (Units=1/GPa)
#
#
# Indices 1 2 3 4 5 6 
#
# 1 0.023206 0.000428 0.001746 0.000000 -0.001213 0.000000
# 2 0.000428 0.010288 -0.000929 0.000000 -0.000837 0.000000
# 3 0.001746 -0.000929 0.011722 0.000000 -0.004036 0.000000
# 4 0.000000 0.000000 0.000000 -0.269776 0.000000 -0.305493
# 5 -0.001213 -0.000837 -0.004036 0.000000 0.050852 0.000000
# 6 0.000000 0.000000 0.000000 -0.305493 0.000000 -0.552196
#
#
# Mechanical properties :
#
#
# Convention : Reuss Voigt Hill
#
# Bulk Modulus (GPa) = 20.96158 25.71580 23.33869
# Shear Modulus (GPa) = -7.01763 16.52298 4.75268
#
# Velocity S-wave (km/s) = -1.88888 2.89836 1.55445
# Velocity P-wave (km/s) = 2.42899 4.92695 3.88426
#
# Compressibility (1/GPa) = 0.04770633
#
# Stress axis : x y z
#
# Youngs Moduli (GPa) = 43.09155 97.20062 85.30836
#
# Poissons Ratio (x) = -0.04161 -0.14894
# Poissons Ratio (y) = -0.01845 0.07927
# Poissons Ratio (z) = -0.07523 0.09032
#
# Static dielectric constant tensor:
#      x y z
#    x 1.674220 0.000000 -0.003860 
#    y 0.000000 1.738090 0.000000 
#    z -0.003860 0.000000 1.674400 
# 
# From -- ./inp_files/21532.got.cif
#   From: 2010.05.17/outbox.cif.g08.bks.cpg/sg11_11_cif.got.tgz:21532.got - 2010.06.03 12:22:45.
