data_PCOD9162872
_publ_section_title
;
Structure prediction by ZEFSAII (Michael W. Deem and Ramdas Pophale) SiO2 
 PCOD9162872
Probable space group: P 21/M
;
_chemical_formula_sum "Si O2"
_cell_formula_units_Z 28
_cell_length_a 9.769010
_cell_length_b 8.595123
_cell_length_c 26.499768
_cell_angle_alpha 90.000000
_cell_angle_beta 40.016724
_cell_angle_gamma 90.000000
_cell_volume 1430.748329
_symmetry_space_group_name_H-M "P 21/M"
_symmetry_group_IT_number 11
_symmetry_cell_setting 'monoclinic'
loop_
_space_group_symop_operation_xyz
x,y,z
-x,1/2+y,-z
-x,-y,-z
x,1/2-y,z
loop_
_atom_site_type_symbol
_atom_site_label
_atom_site_fract_x
_atom_site_fract_y
_atom_site_fract_z
Si Si1 0.560587 0.065251 0.928255
Si Si2 0.776652 0.936935 0.582590
Si Si3 0.336932 0.437081 0.681774
Si Si4 0.657307 0.563377 0.730476
Si Si5 0.856601 0.433257 0.995757
Si Si6 0.086963 0.937210 0.246887
Si Si7 0.804889 0.063951 0.170087
O O1 0.572751 0.250000 0.929659
O O2 0.777015 0.008323 0.840440
O O3 0.500000 0.000000 0.000000
O O4 0.368496 0.017298 0.945618
O O5 0.771354 0.750000 0.581996
O O6 0.739547 0.984496 0.651654
O O7 0.576938 0.003593 0.607535
O O8 0.000000 0.000000 0.500000
O O9 0.337944 0.250000 0.686966
O O10 0.254885 0.514919 0.756678
O O11 0.160146 0.480554 0.690090
O O12 0.668034 0.750000 0.729737
O O13 0.797154 0.496182 0.735868
O O14 0.406124 0.522993 0.803067
O O15 0.825042 0.250000 0.010583
O O16 0.992220 0.472307 0.907398
O O17 0.000000 0.500000 0.000000
O O18 0.097497 0.750000 0.244230
O O19 0.839976 0.250000 0.156779
#
# Coordination Sequence:
#
# PCOD9162872 Si02
#       7
#     4   4   4   4   4   4   4
#     4  11  23  39  57  81 113 152 196 244 293 346
#     4  10  21  39  62  90 117 146 184 226 273 333
#     4  10  20  36  58  85 114 146 182 225 273 331
#     4   9  20  36  57  84 113 143 182 229 280 335
#     4  12  24  37  53  77 108 146 192 244 297 347
#     4  10  22  37  55  81 113 147 189 231 276 335
#     4  10  20  36  56  80 107 142 190 239 285 341
#
# _framework density 19.570179
#
# number of rings (size 3 to 8) (size 9 to 14) (size 15 to 20)
#    0.000    1.714    0.000    5.571    0.000    9.143 
#    0.000    0.714    0.000    0.000    0.000    0.000 
#    0.000    0.000    0.000    0.000    0.000    0.000 
#
# Total GULP energy -156457.724505 kJ/mol
# GULP energy per Si atom -5587.775875 kJ/mol
# Density = 1.952564 g / cm^3
# Si number density = 19.570179 Si / 1000 Ang^3
#
#
#
# Elastic Constant Matrix: (Units=GPa)
#
#
# Indices 1 2 3 4 5 6 
#
# 1 111.3296 18.1440 24.5172 0.0000 -24.6555 0.0000
# 2 18.1440 40.8932 15.1524 0.0000 -4.4793 0.0000
# 3 24.5172 15.1524 85.7976 0.0000 -25.4350 0.0000
# 4 0.0000 0.0000 0.0000 29.7923 0.0000 0.1548
# 5 -24.6555 -4.4793 -25.4350 0.0000 29.8321 0.0000
# 6 0.0000 0.0000 0.0000 0.1548 0.0000 35.1701
#
#
#
# Elastic Compliance Matrix: (Units=1/GPa)
#
#
# Indices 1 2 3 4 5 6 
#
# 1 0.011660 -0.004218 0.000110 0.000000 0.009097 0.000000
# 2 -0.004218 0.027692 -0.004665 0.000000 -0.003306 0.000000
# 3 0.000110 -0.004665 0.016417 0.000000 0.013387 0.000000
# 4 0.000000 0.000000 0.000000 0.033567 0.000000 -0.000148
# 5 0.009097 -0.003306 0.013387 0.000000 0.051957 0.000000
# 6 0.000000 0.000000 0.000000 -0.000148 0.000000 0.028434
#
#
# Mechanical properties :
#
#
# Convention : Reuss Voigt Hill
#
# Bulk Modulus (GPa) = 26.16279 39.29419 32.72849
# Shear Modulus (GPa) = 24.99830 30.97267 27.98549
#
# Velocity S-wave (km/s) = 3.57790 3.98256 3.78565
# Velocity P-wave (km/s) = 5.51963 6.42417 5.98900
#
# Compressibility (1/GPa) = 0.03822222
#
# Stress axis : x y z
#
# Youngs Moduli (GPa) = 85.76124 36.11165 60.91426
#
# Poissons Ratio (x) = 0.15231 -0.00669
# Poissons Ratio (y) = 0.36172 0.28418
# Poissons Ratio (z) = -0.00942 0.16847
#
# Static dielectric constant tensor:
#      x y z
#    x 1.698830 0.000000 0.003420 
#    y 0.000000 1.659000 0.000000 
#    z 0.003420 0.000000 1.700010 
# 
# From -- ./inp_files/28527.got.cif
#   From: 2010.05.17/outbox.cif.g08.bks.cpg/sg11_15_cif.got.tgz:28527.got - 2010.06.03 12:22:45.
