data_PCOD9162711
_publ_section_title
;
Structure prediction by ZEFSAII (Michael W. Deem and Ramdas Pophale) SiO2 
 PCOD9162711
Probable space group: P 21/M
;
_chemical_formula_sum "Si O2"
_cell_formula_units_Z 32
_cell_length_a 12.086099
_cell_length_b 8.964746
_cell_length_c 27.467137
_cell_angle_alpha 90.000000
_cell_angle_beta 151.602180
_cell_angle_gamma 90.000000
_cell_volume 1415.373043
_symmetry_space_group_name_H-M "P 21/M"
_symmetry_group_IT_number 11
_symmetry_cell_setting 'monoclinic'
loop_
_space_group_symop_operation_xyz
x,y,z
-x,1/2+y,-z
-x,-y,-z
x,1/2-y,z
loop_
_atom_site_type_symbol
_atom_site_label
_atom_site_fract_x
_atom_site_fract_y
_atom_site_fract_z
Si Si1 0.608238 0.928260 0.612425
Si Si2 0.304589 0.924070 0.663168
Si Si3 0.719703 0.913013 0.101138
Si Si4 0.813936 0.426675 0.489572
Si Si5 0.071506 0.570413 0.976191
Si Si6 0.850489 0.081367 0.799783
Si Si7 0.023049 0.931068 0.309457
Si Si8 0.420841 0.428011 0.802541
O O1 0.642497 0.750000 0.624938
O O2 0.334410 0.952609 0.518952
O O3 0.722381 0.000359 0.705178
O O4 0.731704 0.999384 0.613060
O O5 0.340971 0.750000 0.685999
O O6 0.337124 0.952336 0.618252
O O7 0.448586 0.015578 0.758194
O O8 0.037025 0.970776 0.569421
O O9 0.644860 0.750000 0.089355
O O10 0.891974 0.901918 0.122848
O O11 0.865454 0.976843 0.201881
O O12 0.500000 0.000000 0.000000
O O13 0.880345 0.250000 0.514569
O O14 0.056419 0.750000 0.971801
O O15 0.348264 0.529079 0.077543
O O16 0.000000 0.500000 0.000000
O O17 0.900308 0.509855 0.867996
O O18 0.756276 0.250000 0.771468
O O19 0.053523 0.750000 0.322982
O O20 0.837931 0.976194 0.279600
O O21 0.413105 0.250000 0.799953
#
# Coordination Sequence:
#
# PCOD9162711 Si02
#       8
#     4   4   4   4   4   4   4   4
#     4  10  20  35  59  88 117 151 192 241 292 339
#     4  10  21  37  61  90 115 147 189 235 286 343
#     4   9  17  29  48  72 100 136 183 232 276 322
#     4   9  20  39  60  86 118 147 184 236 290 343
#     4  11  24  40  57  81 113 153 197 239 286 341
#     4  10  21  36  52  77 111 149 190 233 280 332
#     4   9  19  36  54  78 112 150 191 234 283 340
#     4  10  22  40  60  82 116 157 192 233 289 346
#
# _framework density 22.608879000000002
#
# number of rings (size 3 to 8) (size 9 to 14) (size 15 to 20)
#    0.000    2.250    0.000    3.000    1.750    6.500 
#    0.000    0.625    0.000    0.000    0.000    0.000 
#    0.000    0.000    0.000    0.000    0.000    0.000 
#
# Total GULP energy -178529.284589 kJ/mol
# GULP energy per Si atom -5579.040143 kJ/mol
# Density = 2.255742 g / cm^3
# Si number density = 22.608879 Si / 1000 Ang^3
#
#
#
# Elastic Constant Matrix: (Units=GPa)
#
#
# Indices 1 2 3 4 5 6 
#
# 1 128.5695 40.4980 20.8323 0.0000 7.9910 0.0000
# 2 40.4980 31.9912 8.0466 0.0000 10.9538 0.0000
# 3 20.8323 8.0466 60.8738 0.0000 9.3889 0.0000
# 4 0.0000 0.0000 0.0000 22.1734 0.0000 1.1329
# 5 7.9910 10.9538 9.3889 0.0000 45.0698 0.0000
# 6 0.0000 0.0000 0.0000 1.1329 0.0000 31.0370
#
#
#
# Elastic Compliance Matrix: (Units=1/GPa)
#
#
# Indices 1 2 3 4 5 6 
#
# 1 0.013487 -0.017199 -0.002705 0.000000 0.002352 0.000000
# 2 -0.017199 0.056696 0.000048 0.000000 -0.010740 0.000000
# 3 -0.002705 0.000048 0.017848 0.000000 -0.003250 0.000000
# 4 0.000000 0.000000 0.000000 0.045183 0.000000 -0.001649
# 5 0.002352 -0.010740 -0.003250 0.000000 0.025058 0.000000
# 6 0.000000 0.000000 0.000000 -0.001649 0.000000 0.032280
#
#
# Mechanical properties :
#
#
# Convention : Reuss Voigt Hill
#
# Bulk Modulus (GPa) = 20.69549 40.02093 30.35821
# Shear Modulus (GPa) = 20.29455 29.79324 25.04390
#
# Velocity S-wave (km/s) = 2.99931 3.63404 3.33183
# Velocity P-wave (km/s) = 4.60087 5.94544 5.31584
#
# Compressibility (1/GPa) = 0.04831971
#
# Stress axis : x y z
#
# Youngs Moduli (GPa) = 74.14278 17.63786 56.02840
#
# Poissons Ratio (x) = 0.30335 0.15156
# Poissons Ratio (y) = 1.27518 -0.00269
# Poissons Ratio (z) = 0.20056 -0.00085
#
# Static dielectric constant tensor:
#      x y z
#    x 1.870240 0.000000 0.050120 
#    y 0.000000 1.815760 0.000000 
#    z 0.050120 0.000000 1.861090 
# 
# From -- ./inp_files/73205.got.cif
#   From: 2010.05.17/outbox.cif.g08.bks.cpg/sg11_37_cif.got.tgz:73205.got - 2010.06.03 12:22:45.
