data_PCOD9162532
_publ_section_title
;
Structure prediction by ZEFSAII (Michael W. Deem and Ramdas Pophale) SiO2 
 PCOD9162532
Probable space group: P 21/M
;
_chemical_formula_sum "Si O2"
_cell_formula_units_Z 32
_cell_length_a 28.640748
_cell_length_b 8.826343
_cell_length_c 22.237018
_cell_angle_alpha 90.000000
_cell_angle_beta 18.867695
_cell_angle_gamma 90.000000
_cell_volume 1817.858804
_symmetry_space_group_name_H-M "P 21/M"
_symmetry_group_IT_number 11
_symmetry_cell_setting 'monoclinic'
loop_
_space_group_symop_operation_xyz
x,y,z
-x,1/2+y,-z
-x,-y,-z
x,1/2-y,z
loop_
_atom_site_type_symbol
_atom_site_label
_atom_site_fract_x
_atom_site_fract_y
_atom_site_fract_z
Si Si1 0.687201 0.069776 0.139724
Si Si2 0.585654 0.431351 0.951353
Si Si3 0.838030 0.931463 0.844909
Si Si4 0.919173 0.067629 0.541248
Si Si5 0.547379 0.569357 0.125468
Si Si6 0.340543 0.431064 0.701027
Si Si7 0.401899 0.932118 0.426396
Si Si8 0.159222 0.068583 0.801740
O O1 0.674235 0.250000 0.158791
O O2 0.723520 0.001176 0.160166
O O3 0.533961 0.000630 0.304372
O O4 0.801355 0.018826 0.950316
O O5 0.580546 0.250000 0.954849
O O6 0.753296 0.480834 0.742413
O O7 0.500000 0.500000 0.000000
O O8 0.527397 0.486409 0.086899
O O9 0.833815 0.750000 0.861328
O O10 0.987844 0.973168 0.630881
O O11 0.706910 0.964053 0.958130
O O12 0.923218 0.250000 0.540959
O O13 0.000000 0.000000 0.500000
O O14 0.539211 0.750000 0.125604
O O15 0.437712 0.529669 0.313232
O O16 0.500000 0.500000 0.500000
O O17 0.351345 0.250000 0.693467
O O18 0.245997 0.466013 0.757564
O O19 0.405413 0.750000 0.427732
O O20 0.253807 0.997585 0.632702
O O21 0.152673 0.250000 0.803101
O O22 0.000000 0.000000 0.000000
#
# Coordination Sequence:
#
# PCOD9162532 Si02
#       8
#     4   4   4   4   4   4   4   4
#     4  11  21  33  54  86 118 149 190 239 290 342
#     4  11  23  37  56  83 115 153 192 234 283 340
#     4   9  18  34  55  81 114 148 184 234 292 344
#     4  10  20  35  57  84 111 144 186 232 286 338
#     4   9  18  34  57  83 111 146 186 231 286 341
#     4  11  22  37  59  86 115 150 191 235 286 341
#     4  10  20  36  59  84 115 152 191 236 287 341
#     4  11  24  40  60  87 118 154 196 238 289 346
#
# _framework density 17.603127000000001
#
# number of rings (size 3 to 8) (size 9 to 14) (size 15 to 20)
#    0.000    1.750    2.500    3.375    0.000    5.000 
#    0.000    1.250    0.000    3.000    0.000    0.000 
#    0.000    0.000    0.000    0.000    0.000    0.000 
#
# Total GULP energy -178705.086698 kJ/mol
# GULP energy per Si atom -5584.533959 kJ/mol
# Density = 1.756306 g / cm^3
# Si number density = 17.603127 Si / 1000 Ang^3
#
#
#
# Elastic Constant Matrix: (Units=GPa)
#
#
# Indices 1 2 3 4 5 6 
#
# 1 128.7175 63.4582 76.1918 0.0000 14.6510 0.0000
# 2 63.4582 65.0969 53.4419 0.0000 5.4874 0.0000
# 3 76.1918 53.4419 142.1685 0.0000 13.3033 0.0000
# 4 0.0000 0.0000 0.0000 28.6560 0.0000 5.4380
# 5 14.6510 5.4874 13.3033 0.0000 28.1966 0.0000
# 6 0.0000 0.0000 0.0000 5.4380 0.0000 31.0868
#
#
#
# Elastic Compliance Matrix: (Units=1/GPa)
#
#
# Indices 1 2 3 4 5 6 
#
# 1 0.016933 -0.013051 -0.003749 0.000000 -0.004490 0.000000
# 2 -0.013051 0.032281 -0.005427 0.000000 0.003059 0.000000
# 3 -0.003749 -0.005427 0.011301 0.000000 -0.002328 0.000000
# 4 0.000000 0.000000 0.000000 0.036095 0.000000 -0.006314
# 5 -0.004490 0.003059 -0.002328 0.000000 0.038301 0.000000
# 6 0.000000 0.000000 0.000000 -0.006314 0.000000 0.033272
#
#
# Mechanical properties :
#
#
# Convention : Reuss Voigt Hill
#
# Bulk Modulus (GPa) = 62.25730 80.24076 71.24903
# Shear Modulus (GPa) = 22.93680 27.11395 25.02538
#
# Velocity S-wave (km/s) = 3.61362 3.92891 3.77456
# Velocity P-wave (km/s) = 7.27014 8.14027 7.71748
#
# Compressibility (1/GPa) = 0.01606237
#
# Stress axis : x y z
#
# Youngs Moduli (GPa) = 59.05581 30.97793 88.48913
#
# Poissons Ratio (x) = 0.40428 0.33174
# Poissons Ratio (y) = 0.77072 0.48020
# Poissons Ratio (z) = 0.22140 0.16811
#
# Static dielectric constant tensor:
#      x y z
#    x 1.580630 0.000000 0.020620 
#    y 0.000000 1.589520 0.000000 
#    z 0.020620 0.000000 1.603420 
# 
# From -- ./inp_files/66924.got.cif
#   From: 2010.05.17/outbox.cif.g08.bks.cpg/sg11_34_cif.got.tgz:66924.got - 2010.06.03 12:22:45.
