data_PCOD9162912
_publ_section_title
;
Structure prediction by ZEFSAII (Michael W. Deem and Ramdas Pophale) SiO2 
 PCOD9162912
Probable space group: P 21/M
;
_chemical_formula_sum "Si O2"
_cell_formula_units_Z 32
_cell_length_a 23.025445
_cell_length_b 8.014987
_cell_length_c 15.038454
_cell_angle_alpha 90.000000
_cell_angle_beta 148.568582
_cell_angle_gamma 90.000000
_cell_volume 1447.270471
_symmetry_space_group_name_H-M "P 21/M"
_symmetry_group_IT_number 11
_symmetry_cell_setting 'monoclinic'
loop_
_space_group_symop_operation_xyz
x,y,z
-x,1/2+y,-z
-x,-y,-z
x,1/2-y,z
loop_
_atom_site_type_symbol
_atom_site_label
_atom_site_fract_x
_atom_site_fract_y
_atom_site_fract_z
Si Si1 0.971482 0.950038 0.361857
Si Si2 0.013224 0.951716 0.120427
Si Si3 0.349388 0.558411 0.448383
Si Si4 0.268962 0.448416 0.913363
Si Si5 0.781162 0.941259 0.883428
Si Si6 0.417159 0.936871 0.254570
Si Si7 0.255112 0.952994 0.506292
Si Si8 0.212859 0.952378 0.640441
O O1 0.966380 0.750000 0.346803
O O2 0.845011 0.010151 0.186269
O O3 0.082726 0.003962 0.456455
O O4 0.000000 0.000000 0.500000
O O5 0.010660 0.750000 0.121836
O O6 0.132333 0.006824 0.313297
O O7 0.906346 0.010161 0.038032
O O8 0.000000 0.000000 0.000000
O O9 0.309412 0.750000 0.389795
O O10 0.270405 0.450906 0.282689
O O11 0.477321 0.550485 0.586370
O O12 0.338826 0.501846 0.536816
O O13 0.277886 0.250000 0.937754
O O14 0.255266 0.482763 0.790657
O O15 0.372486 0.531823 0.096849
O O16 0.787407 0.750000 0.922952
O O17 0.689234 0.031742 0.822467
O O18 0.457531 0.750000 0.318912
O O19 0.253902 0.750000 0.508904
O O20 0.276466 0.008885 0.634954
O O21 0.214634 0.750000 0.648760
#
# Coordination Sequence:
#
# PCOD9162912 Si02
#       8
#     4   4   4   4   4   4   4   4
#     4   8  15  27  49  75 108 146 181 223 274 335
#     4  10  20  36  60  90 125 160 194 238 292 350
#     4  11  22  41  64  86 118 156 200 248 297 353
#     4  10  20  36  56  84 118 152 194 244 297 347
#     4  11  23  39  63  92 123 156 194 242 299 356
#     4  12  26  42  61  85 115 154 204 252 299 353
#     4   9  19  35  60  89 120 158 197 237 289 349
#     4   9  17  33  57  84 116 156 195 233 286 350
#
# _framework density 22.110588
#
# number of rings (size 3 to 8) (size 9 to 14) (size 15 to 20)
#    0.000    2.000    1.250    2.625    1.750    1.000 
#    0.000    2.500    0.000    0.000    0.000    0.000 
#    0.000    0.000    0.000    0.000    0.000    0.000 
#
# Total GULP energy -178668.097849 kJ/mol
# GULP energy per Si atom -5583.378058 kJ/mol
# Density = 2.206026 g / cm^3
# Si number density = 22.110588 Si / 1000 Ang^3
#
#
#
# Elastic Constant Matrix: (Units=GPa)
#
#
# Indices 1 2 3 4 5 6 
#
# 1 100.9527 5.0831 5.9503 0.0000 -6.9234 0.0000
# 2 5.0831 32.8062 -1.0053 0.0000 -0.5644 0.0000
# 3 5.9503 -1.0053 41.5233 0.0000 5.6688 0.0000
# 4 0.0000 0.0000 0.0000 14.7283 0.0000 -2.6309
# 5 -6.9234 -0.5644 5.6688 0.0000 31.8567 0.0000
# 6 0.0000 0.0000 0.0000 -2.6309 0.0000 16.2516
#
#
#
# Elastic Compliance Matrix: (Units=1/GPa)
#
#
# Indices 1 2 3 4 5 6 
#
# 1 0.010270 -0.001605 -0.001856 0.000000 0.002534 0.000000
# 2 -0.001605 0.030761 0.000971 0.000000 0.000023 0.000000
# 3 -0.001856 0.000971 0.025033 0.000000 -0.004841 0.000000
# 4 0.000000 0.000000 0.000000 0.069918 0.000000 0.011319
# 5 0.002534 0.000023 -0.004841 0.000000 0.032803 0.000000
# 6 0.000000 0.000000 0.000000 0.011319 0.000000 0.063365
#
#
# Mechanical properties :
#
#
# Convention : Reuss Voigt Hill
#
# Bulk Modulus (GPa) = 16.37067 21.70426 19.03747
# Shear Modulus (GPa) = 19.41818 23.58425 21.50122
#
# Velocity S-wave (km/s) = 2.96671 3.26950 3.12178
# Velocity P-wave (km/s) = 4.37667 4.90820 4.65003
#
# Compressibility (1/GPa) = 0.06108485
#
# Stress axis : x y z
#
# Youngs Moduli (GPa) = 97.37471 32.50885 39.94682
#
# Poissons Ratio (x) = 0.05216 0.07416
# Poissons Ratio (y) = 0.15624 -0.03881
# Poissons Ratio (z) = 0.18077 -0.03158
#
# Static dielectric constant tensor:
#      x y z
#    x 1.848800 0.000000 -0.000790 
#    y 0.000000 1.773050 0.000000 
#    z -0.000790 0.000000 1.791070 
# 
# From -- ./inp_files/55737.got.cif
#   From: 2010.05.17/outbox.cif.g08.bks.cpg/sg11_28_cif.got.tgz:55737.got - 2010.06.03 12:22:45.
