data_PCOD9162468
_publ_section_title
;
Structure prediction by ZEFSAII (Michael W. Deem and Ramdas Pophale) SiO2 
 PCOD9162468
Probable space group: P 21/M
;
_chemical_formula_sum "Si O2"
_cell_formula_units_Z 24
_cell_length_a 19.425606
_cell_length_b 8.454530
_cell_length_c 23.785211
_cell_angle_alpha 90.000000
_cell_angle_beta 162.405606
_cell_angle_gamma 90.000000
_cell_volume 1180.798030
_symmetry_space_group_name_H-M "P 21/M"
_symmetry_group_IT_number 11
_symmetry_cell_setting 'monoclinic'
loop_
_space_group_symop_operation_xyz
x,y,z
-x,1/2+y,-z
-x,-y,-z
x,1/2-y,z
loop_
_atom_site_type_symbol
_atom_site_label
_atom_site_fract_x
_atom_site_fract_y
_atom_site_fract_z
Si Si1 0.990913 0.938340 0.344659
Si Si2 0.943653 0.559397 0.782595
Si Si3 0.674425 0.058778 0.999748
Si Si4 0.379386 0.060517 0.574796
Si Si5 0.102370 0.061884 0.021419
Si Si6 0.216685 0.440488 0.700920
O O1 0.014809 0.750000 0.368144
O O2 0.839532 0.995957 0.279670
O O3 0.236853 0.008314 0.519462
O O4 0.842869 0.990293 0.176933
O O5 0.928736 0.750000 0.773442
O O6 0.757913 0.508961 0.589887
O O7 0.198312 0.515024 0.958465
O O8 0.944073 0.493665 0.845872
O O9 0.673629 0.250000 0.000942
O O10 0.430254 0.001245 0.830714
O O11 0.379799 0.250000 0.574099
O O12 0.636953 0.999964 0.778681
O O13 0.107267 0.250000 0.025104
O O14 0.000000 0.000000 0.000000
O O15 0.232530 0.250000 0.714991
O O16 0.000000 0.500000 0.500000
#
# Coordination Sequence:
#
# PCOD9162468 Si02
#       6
#     4   4   4   4   4   4
#     4  10  20  35  56  85 117 151 199 251 297 350
#     4   9  20  40  65  92 122 160 207 253 303 362
#     4   9  19  37  58  81 112 156 202 243 296 356
#     4  10  22  42  67  92 123 164 206 249 304 365
#     4  12  26  43  66  95 127 160 198 247 304 366
#     4  10  22  35  50  80 117 155 201 247 295 348
#
# _framework density 20.325237999999999
#
# number of rings (size 3 to 8) (size 9 to 14) (size 15 to 20)
#    0.000    2.000    0.000    4.000    2.333    6.000 
#    0.000    0.000    0.000    0.000    0.000    0.000 
#    0.000    0.000    0.000    0.000    0.000    0.000 
#
# Total GULP energy -133727.132188 kJ/mol
# GULP energy per Si atom -5571.963841 kJ/mol
# Density = 2.027898 g / cm^3
# Si number density = 20.325238 Si / 1000 Ang^3
#
#
#
# Elastic Constant Matrix: (Units=GPa)
#
#
# Indices 1 2 3 4 5 6 
#
# 1 69.1916 10.1641 -25.0111 0.0000 -12.9216 0.0000
# 2 10.1641 49.8607 5.9251 0.0000 -4.4359 0.0000
# 3 -25.0111 5.9251 46.3580 0.0000 4.5943 0.0000
# 4 0.0000 0.0000 0.0000 30.4700 0.0000 -2.5136
# 5 -12.9216 -4.4359 4.5943 0.0000 24.9808 0.0000
# 6 0.0000 0.0000 0.0000 -2.5136 0.0000 26.7176
#
#
#
# Elastic Compliance Matrix: (Units=1/GPa)
#
#
# Indices 1 2 3 4 5 6 
#
# 1 0.020563 -0.004800 0.010937 0.000000 0.007773 0.000000
# 2 -0.004800 0.021921 -0.005634 0.000000 0.002446 0.000000
# 3 0.010937 -0.005634 0.028246 0.000000 -0.000538 0.000000
# 4 0.000000 0.000000 0.000000 0.033076 0.000000 0.003112
# 5 0.007773 0.002446 -0.000538 0.000000 0.044584 0.000000
# 6 0.000000 0.000000 0.000000 0.003112 0.000000 0.037721
#
#
# Mechanical properties :
#
#
# Convention : Reuss Voigt Hill
#
# Bulk Modulus (GPa) = 13.93989 16.39628 15.16809
# Shear Modulus (GPa) = 23.92153 28.05581 25.98867
#
# Velocity S-wave (km/s) = 3.43437 3.71933 3.57969
# Velocity P-wave (km/s) = 4.75393 5.15063 4.95625
#
# Compressibility (1/GPa) = 0.07173658
#
# Stress axis : x y z
#
# Youngs Moduli (GPa) = 48.63152 45.61744 35.40385
#
# Poissons Ratio (x) = 0.21896 -0.38722
# Poissons Ratio (y) = 0.23343 0.19946
# Poissons Ratio (z) = -0.53190 0.25700
#
# Static dielectric constant tensor:
#      x y z
#    x 2.151920 0.000000 0.141780 
#    y 0.000000 1.687250 0.000000 
#    z 0.141780 0.000000 1.751740 
# 
# From -- ./inp_files/69536.got.cif
#   From: 2010.05.17/outbox.cif.g08.bks.cpg/sg11_35_cif.got.tgz:69536.got - 2010.06.03 12:22:45.
