data_PCOD9162237
_publ_section_title
;
Structure prediction by ZEFSAII (Michael W. Deem and Ramdas Pophale) SiO2 
 PCOD9162237
Probable space group: P 21/M
;
_chemical_formula_sum "Si O2"
_cell_formula_units_Z 28
_cell_length_a 22.796356
_cell_length_b 8.427517
_cell_length_c 24.975859
_cell_angle_alpha 90.000000
_cell_angle_beta 162.767827
_cell_angle_gamma 90.000000
_cell_volume 1421.463376
_symmetry_space_group_name_H-M "P 21/M"
_symmetry_group_IT_number 11
_symmetry_cell_setting 'monoclinic'
loop_
_space_group_symop_operation_xyz
x,y,z
-x,1/2+y,-z
-x,-y,-z
x,1/2-y,z
loop_
_atom_site_type_symbol
_atom_site_label
_atom_site_fract_x
_atom_site_fract_y
_atom_site_fract_z
Si Si1 0.057892 0.429985 0.493249
Si Si2 0.204117 0.063126 0.895240
Si Si3 0.706624 0.561000 0.704025
Si Si4 0.121513 0.061620 0.032660
Si Si5 0.636332 0.436968 0.855743
Si Si6 0.796713 0.556399 0.488204
Si Si7 0.331820 0.060238 0.892983
O O1 0.118306 0.250000 0.555921
O O2 0.203842 0.498828 0.574963
O O3 0.000000 0.500000 0.500000
O O4 0.852869 0.450496 0.283022
O O5 0.202510 0.250000 0.906069
O O6 0.354916 0.038424 0.976711
O O7 0.987209 0.013197 0.684524
O O8 0.265001 0.968907 0.000732
O O9 0.500000 0.500000 0.500000
O O10 0.693444 0.750000 0.694012
O O11 0.901954 0.512465 0.840958
O O12 0.759680 0.503582 0.810732
O O13 0.097117 0.250000 0.016583
O O14 0.244361 0.022290 0.086990
O O15 0.638382 0.250000 0.846306
O O16 0.407724 0.489042 0.661906
O O17 0.811433 0.750000 0.500134
O O18 0.293392 0.250000 0.851031
O O19 0.500000 0.000000 0.000000
#
# Coordination Sequence:
#
# PCOD9162237 Si02
#       7
#     4   4   4   4   4   4   4
#     4  10  20  35  54  79 107 141 185 239 297 358
#     4  10  22  39  58  83 114 150 193 245 301 358
#     4  10  21  39  65  94 128 167 203 245 294 344
#     4  10  22  40  61  91 126 160 204 251 291 344
#     4  11  23  39  62  88 118 160 201 244 299 357
#     4   9  21  40  58  80 112 152 196 243 297 358
#     4  10  21  36  54  79 107 142 185 237 298 360
#
# _framework density 19.69801
#
# number of rings (size 3 to 8) (size 9 to 14) (size 15 to 20)
#    0.000    2.000    0.000    2.571    2.000    6.286 
#    0.000    2.857    0.000    0.000    0.000    0.000 
#    0.000    0.000    0.000    0.000    0.000    0.000 
#
# Total GULP energy -156154.246287 kJ/mol
# GULP energy per Si atom -5576.937367 kJ/mol
# Density = 1.965318 g / cm^3
# Si number density = 19.698010 Si / 1000 Ang^3
#
#
#
# Elastic Constant Matrix: (Units=GPa)
#
#
# Indices 1 2 3 4 5 6 
#
# 1 97.0558 6.1907 40.1178 0.0000 23.0574 0.0000
# 2 6.1907 28.4503 8.8891 0.0000 4.2103 0.0000
# 3 40.1178 8.8891 106.7175 0.0000 12.1448 0.0000
# 4 0.0000 0.0000 0.0000 26.8256 0.0000 0.3414
# 5 23.0574 4.2103 12.1448 0.0000 26.2798 0.0000
# 6 0.0000 0.0000 0.0000 0.3414 0.0000 30.3753
#
#
#
# Elastic Compliance Matrix: (Units=1/GPa)
#
#
# Indices 1 2 3 4 5 6 
#
# 1 0.014656 -0.000254 -0.004253 0.000000 -0.010852 0.000000
# 2 -0.000254 0.036636 -0.002442 0.000000 -0.004518 0.000000
# 3 -0.004253 -0.002442 0.011298 0.000000 -0.001098 0.000000
# 4 0.000000 0.000000 0.000000 0.037283 0.000000 -0.000419
# 5 -0.010852 -0.004518 -0.001098 0.000000 0.048805 0.000000
# 6 0.000000 0.000000 0.000000 -0.000419 0.000000 0.032926
#
#
# Mechanical properties :
#
#
# Convention : Reuss Voigt Hill
#
# Bulk Modulus (GPa) = 20.53772 38.06875 29.30324
# Shear Modulus (GPa) = 23.61464 28.49786 26.05625
#
# Velocity S-wave (km/s) = 3.46617 3.80773 3.64096
# Velocity P-wave (km/s) = 5.14471 6.22092 5.70824
#
# Compressibility (1/GPa) = 0.04869090
#
# Stress axis : x y z
#
# Youngs Moduli (GPa) = 68.23212 27.29563 88.51257
#
# Poissons Ratio (x) = 0.00694 0.37647
# Poissons Ratio (y) = 0.01734 0.21614
# Poissons Ratio (z) = 0.29021 0.06665
#
# Static dielectric constant tensor:
#      x y z
#    x 1.741990 0.000000 -0.003520 
#    y 0.000000 1.680620 0.000000 
#    z -0.003520 0.000000 1.688510 
# 
# From -- ./inp_files/69818.got.cif
#   From: 2010.05.17/outbox.cif.g08.bks.cpg/sg11_35_cif.got.tgz:69818.got - 2010.06.03 12:22:45.
