data_PCOD9162565
_publ_section_title
;
Structure prediction by ZEFSAII (Michael W. Deem and Ramdas Pophale) SiO2 
 PCOD9162565
Probable space group: P 21/M
;
_chemical_formula_sum "Si O2"
_cell_formula_units_Z 32
_cell_length_a 19.064350
_cell_length_b 8.483906
_cell_length_c 14.548855
_cell_angle_alpha 90.000000
_cell_angle_beta 135.630168
_cell_angle_gamma 90.000000
_cell_volume 1645.516164
_symmetry_space_group_name_H-M "P 21/M"
_symmetry_group_IT_number 11
_symmetry_cell_setting 'monoclinic'
loop_
_space_group_symop_operation_xyz
x,y,z
-x,1/2+y,-z
-x,-y,-z
x,1/2-y,z
loop_
_atom_site_type_symbol
_atom_site_label
_atom_site_fract_x
_atom_site_fract_y
_atom_site_fract_z
Si Si1 0.044017 0.060156 0.946224
Si Si2 0.801467 0.938544 0.201627
Si Si3 0.793601 0.438890 0.401483
Si Si4 0.600577 0.941013 0.329247
Si Si5 0.402449 0.060449 0.462277
Si Si6 0.377555 0.562369 0.091945
Si Si7 0.725606 0.940113 0.825827
Si Si8 0.010373 0.942405 0.303569
O O1 0.041608 0.250000 0.945479
O O2 0.987949 0.006443 0.801259
O O3 0.160448 0.012572 0.048356
O O4 0.000000 0.000000 0.000000
O O5 0.804519 0.750000 0.207136
O O6 0.904929 0.993007 0.250020
O O7 0.795651 0.002983 0.298980
O O8 0.704670 0.988411 0.052233
O O9 0.794456 0.250000 0.402803
O O10 0.694376 0.497324 0.360175
O O11 0.893395 0.495420 0.548690
O O12 0.603121 0.750000 0.331560
O O13 0.605049 0.995707 0.439956
O O14 0.492675 0.990170 0.186976
O O15 0.408501 0.250000 0.471327
O O16 0.309087 0.017851 0.309397
O O17 0.500000 0.000000 0.500000
O O18 0.373961 0.750000 0.077758
O O19 0.345901 0.518057 0.165969
O O20 0.718299 0.750000 0.829108
O O21 0.010308 0.750000 0.304018
#
# Coordination Sequence:
#
# PCOD9162565 Si02
#       8
#     4   4   4   4   4   4   4   4
#     4  10  21  38  57  86 122 158 195 237 290 349
#     4  11  22  42  68  89 116 154 193 246 310 363
#     4  11  24  41  62  90 119 153 200 250 297 356
#     4  10  23  41  58  85 125 163 198 244 299 353
#     4  10  20  35  57  85 116 154 198 239 283 343
#     4  11  22  38  62  90 120 154 202 253 293 350
#     4  10  20  36  59  84 118 160 200 242 296 356
#     4   9  20  40  63  87 121 157 194 242 296 353
#
# _framework density 19.446784999999998
#
# number of rings (size 3 to 8) (size 9 to 14) (size 15 to 20)
#    0.000    1.750    2.500    1.500    1.750    2.500 
#    0.000    2.500    0.000    0.000    0.000    0.000 
#    0.000    0.000    0.000    0.000    0.000    0.000 
#
# Total GULP energy -178752.724990 kJ/mol
# GULP energy per Si atom -5586.022656 kJ/mol
# Density = 1.940252 g / cm^3
# Si number density = 19.446785 Si / 1000 Ang^3
#
#
#
# Elastic Constant Matrix: (Units=GPa)
#
#
# Indices 1 2 3 4 5 6 
#
# 1 144.3822 23.3507 90.9345 0.0000 -10.3948 0.0000
# 2 23.3507 15.2088 24.1279 0.0000 4.3438 0.0000
# 3 90.9345 24.1279 156.7710 0.0000 5.1518 0.0000
# 4 0.0000 0.0000 0.0000 24.3816 0.0000 -4.1487
# 5 -10.3948 4.3438 5.1518 0.0000 30.3323 0.0000
# 6 0.0000 0.0000 0.0000 -4.1487 0.0000 30.1689
#
#
#
# Elastic Compliance Matrix: (Units=1/GPa)
#
#
# Indices 1 2 3 4 5 6 
#
# 1 0.013349 -0.013173 -0.005961 0.000000 0.007474 0.000000
# 2 -0.013173 0.103273 -0.007662 0.000000 -0.018002 0.000000
# 3 -0.005961 -0.007662 0.011109 0.000000 -0.002833 0.000000
# 4 0.000000 0.000000 0.000000 0.041997 0.000000 0.005775
# 5 0.007474 -0.018002 -0.002833 0.000000 0.038589 0.000000
# 6 0.000000 0.000000 0.000000 0.005775 0.000000 0.033941
#
#
# Mechanical properties :
#
#
# Convention : Reuss Voigt Hill
#
# Bulk Modulus (GPa) = 13.48816 65.90979 39.69898
# Shear Modulus (GPa) = 15.59759 28.83981 22.21870
#
# Velocity S-wave (km/s) = 2.83515 3.85517 3.38381
# Velocity P-wave (km/s) = 4.20338 7.33365 5.97707
#
# Compressibility (1/GPa) = 0.07413907
#
# Stress axis : x y z
#
# Youngs Moduli (GPa) = 74.91142 9.68309 90.01802
#
# Poissons Ratio (x) = 0.12755 0.53663
# Poissons Ratio (y) = 0.98678 0.68971
# Poissons Ratio (z) = 0.44657 0.07419
#
# Static dielectric constant tensor:
#      x y z
#    x 1.643300 0.000000 0.005860 
#    y 0.000000 1.670350 0.000000 
#    z 0.005860 0.000000 1.689530 
# 
# From -- ./inp_files/54299.got.cif
#   From: 2010.05.17/outbox.cif.g08.bks.cpg/sg11_28_cif.got.tgz:54299.got - 2010.06.03 12:22:45.
