data_PCOD9162445
_publ_section_title
;
Structure prediction by ZEFSAII (Michael W. Deem and Ramdas Pophale) SiO2 
 PCOD9162445
Probable space group: P 21/M
;
_chemical_formula_sum "Si O2"
_cell_formula_units_Z 32
_cell_length_a 13.597677
_cell_length_b 18.733959
_cell_length_c 9.488189
_cell_angle_alpha 90.000000
_cell_angle_beta 133.578943
_cell_angle_gamma 90.000000
_cell_volume 1750.939729
_symmetry_space_group_name_H-M "P 21/M"
_symmetry_group_IT_number 11
_symmetry_cell_setting 'monoclinic'
loop_
_space_group_symop_operation_xyz
x,y,z
-x,1/2+y,-z
-x,-y,-z
x,1/2-y,z
loop_
_atom_site_type_symbol
_atom_site_label
_atom_site_fract_x
_atom_site_fract_y
_atom_site_fract_z
Si Si1 0.371095 0.167334 0.329562
Si Si2 0.945154 0.165309 0.841202
Si Si3 0.453963 0.501508 0.792092
Si Si4 0.833367 0.943300 0.445821
Si Si5 0.699183 0.511659 0.835524
Si Si6 0.879493 0.831934 0.716694
Si Si7 0.648929 0.099389 0.544437
Si Si8 0.938341 0.551218 0.241828
O O1 0.358557 0.250000 0.263956
O O2 0.319298 0.097738 0.191765
O O3 0.272855 0.164674 0.368418
O O4 0.529707 0.146541 0.497901
O O5 0.958808 0.250000 0.842226
O O6 0.789155 0.141593 0.682868
O O7 0.022024 0.124273 0.793523
O O8 0.019329 0.143067 0.059641
O O9 0.321346 0.452485 0.660493
O O10 0.583797 0.481557 0.825820
O O11 0.400480 0.573753 0.659715
O O12 0.500000 0.500000 0.000000
O O13 0.892266 0.877517 0.589967
O O14 0.850941 0.937050 0.296159
O O15 0.923187 0.011227 0.580456
O O16 0.674200 0.472469 0.662420
O O17 0.848332 0.503183 0.047094
O O18 0.910935 0.750000 0.718826
#
# Coordination Sequence:
#
# PCOD9162445 Si02
#       8
#     4   4   4   4   4   4   4   4
#     4  10  20  35  56  83 115 148 186 233 287 343
#     4  11  23  39  59  87 118 154 194 236 290 348
#     4  11  21  36  57  86 117 148 192 241 287 343
#     4  11  22  39  57  84 116 152 191 236 293 338
#     4  11  21  36  60  91 110 148 195 243 293 340
#     4  10  21  37  60  85 114 148 188 238 289 346
#     4  11  22  37  60  86 116 155 190 243 290 341
#     4  11  23  36  59  86 115 151 193 244 284 347
#
# _framework density 18.2759
#
# number of rings (size 3 to 8) (size 9 to 14) (size 15 to 20)
#    0.000    1.250    3.750    4.125    0.000    1.500 
#    0.000    0.000    0.000    0.000    0.000    3.500 
#    0.000    0.000    0.000    0.000    0.000    0.000 
#
# Total GULP energy -178359.220235 kJ/mol
# GULP energy per Si atom -5573.725632 kJ/mol
# Density = 1.823430 g / cm^3
# Si number density = 18.275900 Si / 1000 Ang^3
#
#
#
# Elastic Constant Matrix: (Units=GPa)
#
#
# Indices 1 2 3 4 5 6 
#
# 1 48.4383 22.6137 23.7148 0.0000 6.5661 0.0000
# 2 22.6137 69.2503 33.3154 0.0000 -13.5946 0.0000
# 3 23.7148 33.3154 68.3786 0.0000 -0.1394 0.0000
# 4 0.0000 0.0000 0.0000 24.8406 0.0000 2.9026
# 5 6.5661 -13.5946 -0.1394 0.0000 35.2122 0.0000
# 6 0.0000 0.0000 0.0000 2.9026 0.0000 19.8115
#
#
#
# Elastic Compliance Matrix: (Units=1/GPa)
#
#
# Indices 1 2 3 4 5 6 
#
# 1 0.028487 -0.008102 -0.005950 0.000000 -0.008463 0.000000
# 2 -0.008102 0.023215 -0.008480 0.000000 0.010440 0.000000
# 3 -0.005950 -0.008480 0.020815 0.000000 -0.002082 0.000000
# 4 0.000000 0.000000 0.000000 0.040958 0.000000 -0.006001
# 5 -0.008463 0.010440 -0.002082 0.000000 0.034000 0.000000
# 6 0.000000 0.000000 0.000000 -0.006001 0.000000 0.051355
#
#
# Mechanical properties :
#
#
# Convention : Reuss Voigt Hill
#
# Bulk Modulus (GPa) = 36.42311 38.37277 37.39794
# Shear Modulus (GPa) = 19.75942 23.06775 21.41359
#
# Velocity S-wave (km/s) = 3.29169 3.55659 3.42670
# Velocity P-wave (km/s) = 5.86684 6.15693 6.01363
#
# Compressibility (1/GPa) = 0.02745510
#
# Stress axis : x y z
#
# Youngs Moduli (GPa) = 35.10329 43.07588 48.04184
#
# Poissons Ratio (x) = 0.34898 0.28584
# Poissons Ratio (y) = 0.28439 0.40738
# Poissons Ratio (z) = 0.20886 0.36527
#
# Static dielectric constant tensor:
#      x y z
#    x 1.632920 0.000000 0.021820 
#    y 0.000000 1.622790 0.000000 
#    z 0.021820 0.000000 1.648690 
# 
# From -- ./inp_files/19439.got.cif
#   From: 2010.05.17/outbox.cif.g08.bks.cpg/sg11_10_cif.got.tgz:19439.got - 2010.06.03 12:22:45.
