data_PCOD9162574
_publ_section_title
;
Structure prediction by ZEFSAII (Michael W. Deem and Ramdas Pophale) SiO2 
 PCOD9162574
Probable space group: P 21/M
;
_chemical_formula_sum "Si O2"
_cell_formula_units_Z 32
_cell_length_a 7.817755
_cell_length_b 25.495452
_cell_length_c 13.308059
_cell_angle_alpha 90.000000
_cell_angle_beta 146.040281
_cell_angle_gamma 90.000000
_cell_volume 1481.726796
_symmetry_space_group_name_H-M "P 21/M"
_symmetry_group_IT_number 11
_symmetry_cell_setting 'monoclinic'
loop_
_space_group_symop_operation_xyz
x,y,z
-x,1/2+y,-z
-x,-y,-z
x,1/2-y,z
loop_
_atom_site_type_symbol
_atom_site_label
_atom_site_fract_x
_atom_site_fract_y
_atom_site_fract_z
Si Si1 0.585018 0.891041 0.755125
Si Si2 0.246151 0.190223 0.515207
Si Si3 0.887854 0.995786 0.329366
Si Si4 0.191326 0.109109 0.823053
Si Si5 0.815417 0.395516 0.231836
Si Si6 0.867146 0.190813 0.538720
Si Si7 0.797526 0.384271 0.831400
Si Si8 0.644766 0.495760 0.809180
O O1 0.377913 0.890491 0.756907
O O2 0.426544 0.847297 0.610194
O O3 0.563228 0.951663 0.707528
O O4 0.940214 0.879242 0.954834
O O5 0.281012 0.250000 0.496042
O O6 0.568488 0.163820 0.702935
O O7 0.061967 0.151006 0.351768
O O8 0.037072 0.191907 0.513842
O O9 0.927413 0.939355 0.301338
O O10 0.979230 0.047603 0.313944
O O11 0.521649 0.000958 0.165169
O O12 0.000000 0.000000 0.500000
O O13 0.104565 0.163402 0.728735
O O14 0.003027 0.106654 0.833771
O O15 0.553193 0.106218 0.020103
O O16 0.787697 0.250000 0.528148
O O17 0.593741 0.436780 0.747203
O O18 0.000000 0.500000 0.000000
#
# Coordination Sequence:
#
# PCOD9162574 Si02
#       8
#     4   4   4   4   4   4   4   4
#     4   8  17  35  57  80 108 146 185 224 274 335
#     4  10  21  39  60  80 107 147 193 235 278 332
#     4  11  20  36  60  82 114 152 186 221 270 340
#     4  11  22  36  57  85 117 148 182 229 280 333
#     4   9  19  35  56  84 112 144 184 227 278 330
#     4  10  21  38  58  78 104 147 197 231 268 332
#     4  10  20  35  57  86 115 141 180 233 289 331
#     4   9  17  32  55  81 111 143 177 220 272 333
#
# _framework density 21.596423999999999
#
# number of rings (size 3 to 8) (size 9 to 14) (size 15 to 20)
#    0.000    2.250    0.000    4.875    0.000    1.500 
#    0.000   13.125    0.000    0.000    0.000    0.000 
#    0.000    0.000    0.000    0.000    0.000    0.000 
#
# Total GULP energy -178532.231009 kJ/mol
# GULP energy per Si atom -5579.132219 kJ/mol
# Density = 2.154727 g / cm^3
# Si number density = 21.596424 Si / 1000 Ang^3
#
#
#
# Elastic Constant Matrix: (Units=GPa)
#
#
# Indices 1 2 3 4 5 6 
#
# 1 19.7334 -0.0559 -10.9448 0.0000 7.8724 0.0000
# 2 -0.0559 175.1751 46.6300 0.0000 1.5344 0.0000
# 3 -10.9448 46.6300 97.3032 0.0000 4.9168 0.0000
# 4 0.0000 0.0000 0.0000 27.2119 0.0000 8.1901
# 5 7.8724 1.5344 4.9168 0.0000 27.1171 0.0000
# 6 0.0000 0.0000 0.0000 8.1901 0.0000 20.1961
#
#
#
# Elastic Compliance Matrix: (Units=1/GPa)
#
#
# Indices 1 2 3 4 5 6 
#
# 1 0.063832 -0.002275 0.009285 0.000000 -0.020086 0.000000
# 2 -0.002275 0.006625 -0.003477 0.000000 0.000916 0.000000
# 3 0.009285 -0.003477 0.013236 0.000000 -0.004899 0.000000
# 4 0.000000 0.000000 0.000000 0.041858 0.000000 -0.016975
# 5 -0.020086 0.000916 -0.004899 0.000000 0.043545 0.000000
# 6 0.000000 0.000000 0.000000 -0.016975 0.000000 0.056398
#
#
# Mechanical properties :
#
#
# Convention : Reuss Voigt Hill
#
# Bulk Modulus (GPa) = 11.01826 40.38557 25.70192
# Shear Modulus (GPa) = 20.10607 32.01051 26.05829
#
# Velocity S-wave (km/s) = 3.05452 3.85413 3.47739
# Velocity P-wave (km/s) = 4.18965 6.20858 5.29621
#
# Compressibility (1/GPa) = 0.09075840
#
# Stress axis : x y z
#
# Youngs Moduli (GPa) = 15.66610 150.93325 75.55431
#
# Poissons Ratio (x) = 0.34342 -0.70154
# Poissons Ratio (y) = 0.03565 0.26272
# Poissons Ratio (z) = -0.14546 0.52484
#
# Static dielectric constant tensor:
#      x y z
#    x 1.830370 0.000000 0.019700 
#    y 0.000000 1.816040 0.000000 
#    z 0.019700 0.000000 1.857170 
# 
# From -- ./inp_files/48489.got.cif
#   From: 2010.05.17/outbox.cif.g08.bks.cpg/sg11_25_cif.got.tgz:48489.got - 2010.06.03 12:22:45.
