data_PCOD9162996
_publ_section_title
;
Structure prediction by ZEFSAII (Michael W. Deem and Ramdas Pophale) SiO2 
 PCOD9162996
Probable space group: P 21/M
;
_chemical_formula_sum "Si O2"
_cell_formula_units_Z 28
_cell_length_a 22.046600
_cell_length_b 7.790033
_cell_length_c 14.950104
_cell_angle_alpha 90.000000
_cell_angle_beta 150.917473
_cell_angle_gamma 90.000000
_cell_volume 1248.024067
_symmetry_space_group_name_H-M "P 21/M"
_symmetry_group_IT_number 11
_symmetry_cell_setting 'monoclinic'
loop_
_space_group_symop_operation_xyz
x,y,z
-x,1/2+y,-z
-x,-y,-z
x,1/2-y,z
loop_
_atom_site_type_symbol
_atom_site_label
_atom_site_fract_x
_atom_site_fract_y
_atom_site_fract_z
Si Si1 0.045301 0.449199 0.306089
Si Si2 0.405651 0.957082 0.959399
Si Si3 0.880454 0.443289 0.405283
Si Si4 0.764690 0.954076 0.931632
Si Si5 0.120205 0.456061 0.213143
Si Si6 0.641792 0.540470 0.593427
Si Si7 0.431129 0.956742 0.189747
O O1 0.080362 0.250000 0.365256
O O2 0.074222 0.546930 0.434004
O O3 0.112049 0.521227 0.303796
O O4 0.898454 0.459692 0.095882
O O5 0.399709 0.750000 0.950797
O O6 0.260611 0.022455 0.772768
O O7 0.458329 0.013768 0.124139
O O8 0.500000 0.000000 0.000000
O O9 0.858899 0.250000 0.346296
O O10 0.000000 0.500000 0.500000
O O11 0.781977 0.750000 0.943041
O O12 0.671987 0.016653 0.733092
O O13 0.704961 0.991910 0.950658
O O14 0.125549 0.250000 0.227149
O O15 0.239793 0.512027 0.312702
O O16 0.000000 0.500000 0.000000
O O17 0.634327 0.750000 0.586587
O O18 0.524646 0.475424 0.386249
O O19 0.438961 0.750000 0.200126
#
# Coordination Sequence:
#
# PCOD9162996 Si02
#       7
#     4   4   4   4   4   4   4
#     4  11  23  37  61  91 119 159 204 247 306 369
#     4  10  24  43  65  91 123 162 206 257 311 367
#     4  11  24  43  66  96 129 164 210 264 316 371
#     4  11  21  36  59  88 124 159 195 246 300 358
#     4  10  20  36  57  84 118 156 198 245 300 361
#     4   9  19  35  57  85 119 156 195 240 296 356
#     4  10  21  39  62  85 117 157 199 245 297 363
#
# _framework density 22.435464
#
# number of rings (size 3 to 8) (size 9 to 14) (size 15 to 20)
#    0.000    1.714    1.429    2.571    2.000    3.429 
#    0.000    1.429    0.000    0.000    0.000    0.000 
#    0.000    0.000    0.000    0.000    0.000    0.000 
#
# Total GULP energy -156314.648192 kJ/mol
# GULP energy per Si atom -5582.666007 kJ/mol
# Density = 2.238440 g / cm^3
# Si number density = 22.435464 Si / 1000 Ang^3
#
#
#
# Elastic Constant Matrix: (Units=GPa)
#
#
# Indices 1 2 3 4 5 6 
#
# 1 180.3659 -0.9093 40.5109 0.0000 11.4788 0.0000
# 2 -0.9093 32.7105 -2.6095 0.0000 1.2282 0.0000
# 3 40.5109 -2.6095 88.5751 0.0000 5.8668 0.0000
# 4 0.0000 0.0000 0.0000 8.6619 0.0000 8.7426
# 5 11.4788 1.2282 5.8668 0.0000 34.8639 0.0000
# 6 0.0000 0.0000 0.0000 8.7426 0.0000 18.9856
#
#
#
# Elastic Compliance Matrix: (Units=1/GPa)
#
#
# Indices 1 2 3 4 5 6 
#
# 1 0.006266 0.000014 -0.002759 0.000000 -0.001599 0.000000
# 2 0.000014 0.030697 0.000981 0.000000 -0.001251 0.000000
# 3 -0.002759 0.000981 0.012664 0.000000 -0.001257 0.000000
# 4 0.000000 0.000000 0.000000 0.215702 0.000000 -0.099328
# 5 -0.001599 -0.001251 -0.001257 0.000000 0.029465 0.000000
# 6 0.000000 0.000000 0.000000 -0.099328 0.000000 0.098411
#
#
# Mechanical properties :
#
#
# Convention : Reuss Voigt Hill
#
# Bulk Modulus (GPa) = 21.69309 41.73732 31.71521
# Shear Modulus (GPa) = 12.13299 30.14622 21.13961
#
# Velocity S-wave (km/s) = 2.32802 3.66961 3.07292
# Velocity P-wave (km/s) = 4.11295 6.04966 5.17275
#
# Compressibility (1/GPa) = 0.04609762
#
# Stress axis : x y z
#
# Youngs Moduli (GPa) = 159.59359 32.57666 78.96348
#
# Poissons Ratio (x) = -0.00046 0.21790
# Poissons Ratio (y) = -0.00225 -0.07745
# Poissons Ratio (z) = 0.44039 -0.03195
#
# Static dielectric constant tensor:
#      x y z
#    x 1.807430 0.000000 0.008890 
#    y 0.000000 1.874670 0.000000 
#    z 0.008890 0.000000 1.841800 
# 
# From -- ./inp_files/54493.got.cif
#   From: 2010.05.17/outbox.cif.g08.bks.cpg/sg11_28_cif.got.tgz:54493.got - 2010.06.03 12:22:45.
