data_PCOD9162641
_publ_section_title
;
Structure prediction by ZEFSAII (Michael W. Deem and Ramdas Pophale) SiO2 
 PCOD9162641
Probable space group: P 21/M
;
_chemical_formula_sum "Si O2"
_cell_formula_units_Z 28
_cell_length_a 19.170997
_cell_length_b 9.788281
_cell_length_c 12.825065
_cell_angle_alpha 90.000000
_cell_angle_beta 34.662949
_cell_angle_gamma 90.000000
_cell_volume 1368.769748
_symmetry_space_group_name_H-M "P 21/M"
_symmetry_group_IT_number 11
_symmetry_cell_setting 'monoclinic'
loop_
_space_group_symop_operation_xyz
x,y,z
-x,1/2+y,-z
-x,-y,-z
x,1/2-y,z
loop_
_atom_site_type_symbol
_atom_site_label
_atom_site_fract_x
_atom_site_fract_y
_atom_site_fract_z
Si Si1 0.125288 0.912073 0.354921
Si Si2 0.969276 0.903141 0.879449
Si Si3 0.645409 0.905532 0.544473
Si Si4 0.414391 0.968683 0.704405
Si Si5 0.774544 0.602516 0.933508
Si Si6 0.232552 0.592539 0.453890
Si Si7 0.786793 0.403420 0.205384
O O1 0.102502 0.750000 0.367937
O O2 0.187480 0.929897 0.391410
O O3 0.213773 0.976742 0.158933
O O4 0.000000 0.000000 0.500000
O O5 0.950990 0.750000 0.946798
O O6 0.889778 0.903647 0.870489
O O7 0.109536 0.922303 0.675271
O O8 0.911881 0.022906 0.018712
O O9 0.690610 0.750000 0.493124
O O10 0.505235 0.903419 0.676721
O O11 0.669514 0.985795 0.622098
O O12 0.717596 0.996320 0.370036
O O13 0.298936 0.895297 0.792484
O O14 0.500000 0.000000 0.500000
O O15 0.347016 0.091974 0.846424
O O16 0.778792 0.750000 0.873993
O O17 0.275018 0.750000 0.411246
O O18 0.801181 0.250000 0.228292
#
# Coordination Sequence:
#
# PCOD9162641 Si02
#       7
#     4   4   4   4   4   4   4
#     4  11  22  39  63  91 122 157 199 250 302 357
#     4   9  18  35  56  82 117 152 191 243 297 352
#     4  11  23  38  57  83 117 157 199 246 298 353
#     4   9  21  39  61  89 120 156 199 245 292 351
#     4  10  20  37  63  94 122 154 198 250 305 354
#     4  10  22  40  58  81 117 158 197 242 297 355
#     4  10  20  35  58  86 115 151 196 244 297 358
#
# _framework density 20.456326000000001
#
# number of rings (size 3 to 8) (size 9 to 14) (size 15 to 20)
#    0.000    2.000    1.429    1.714    0.000   11.429 
#    0.000    0.714    0.000    0.000    0.000    0.000 
#    0.000    0.000    0.000    0.000    0.000    0.000 
#
# Total GULP energy -156187.972137 kJ/mol
# GULP energy per Si atom -5578.141862 kJ/mol
# Density = 2.040977 g / cm^3
# Si number density = 20.456326 Si / 1000 Ang^3
#
#
#
# Elastic Constant Matrix: (Units=GPa)
#
#
# Indices 1 2 3 4 5 6 
#
# 1 121.1832 75.1760 24.1398 0.0000 -12.5119 0.0000
# 2 75.1760 162.5732 28.4679 0.0000 -1.0540 0.0000
# 3 24.1398 28.4679 55.6576 0.0000 -1.3246 0.0000
# 4 0.0000 0.0000 0.0000 18.1434 0.0000 10.5853
# 5 -12.5119 -1.0540 -1.3246 0.0000 15.4362 0.0000
# 6 0.0000 0.0000 0.0000 10.5853 0.0000 20.7788
#
#
#
# Elastic Compliance Matrix: (Units=1/GPa)
#
#
# Indices 1 2 3 4 5 6 
#
# 1 0.013327 -0.005631 -0.002657 0.000000 0.010189 0.000000
# 2 -0.005631 0.009136 -0.002329 0.000000 -0.004140 0.000000
# 3 -0.002657 -0.002329 0.020297 0.000000 -0.000571 0.000000
# 4 0.000000 0.000000 0.000000 0.078425 0.000000 -0.039952
# 5 0.010189 -0.004140 -0.000571 0.000000 0.072710 0.000000
# 6 0.000000 0.000000 0.000000 -0.039952 0.000000 0.068478
#
#
# Mechanical properties :
#
#
# Convention : Reuss Voigt Hill
#
# Bulk Modulus (GPa) = 46.45801 66.10906 56.28353
# Shear Modulus (GPa) = 17.19494 24.98038 21.08766
#
# Velocity S-wave (km/s) = 2.90240 3.49830 3.21419
# Velocity P-wave (km/s) = 5.83027 6.97888 6.43027
#
# Compressibility (1/GPa) = 0.02152481
#
# Stress axis : x y z
#
# Youngs Moduli (GPa) = 75.03845 109.45806 49.26774
#
# Poissons Ratio (x) = 0.61636 0.13092
# Poissons Ratio (y) = 0.42254 0.11475
# Poissons Ratio (z) = 0.19940 0.25494
#
# Static dielectric constant tensor:
#      x y z
#    x 1.774790 0.000000 0.009330 
#    y 0.000000 1.715480 0.000000 
#    z 0.009330 0.000000 1.750480 
# 
# From -- ./inp_files/54529.got.cif
#   From: 2010.05.17/outbox.cif.g08.bks.cpg/sg11_28_cif.got.tgz:54529.got - 2010.06.03 12:22:45.
