data_PCOD9162815
_publ_section_title
;
Structure prediction by ZEFSAII (Michael W. Deem and Ramdas Pophale) SiO2 
 PCOD9162815
Probable space group: P 21/M
;
_chemical_formula_sum "Si O2"
_cell_formula_units_Z 32
_cell_length_a 14.032565
_cell_length_b 7.342766
_cell_length_c 14.632737
_cell_angle_alpha 90.000000
_cell_angle_beta 50.784181
_cell_angle_gamma 90.000000
_cell_volume 1168.140527
_symmetry_space_group_name_H-M "P 21/M"
_symmetry_group_IT_number 11
_symmetry_cell_setting 'monoclinic'
loop_
_space_group_symop_operation_xyz
x,y,z
-x,1/2+y,-z
-x,-y,-z
x,1/2-y,z
loop_
_atom_site_type_symbol
_atom_site_label
_atom_site_fract_x
_atom_site_fract_y
_atom_site_fract_z
Si Si1 0.871954 0.465582 0.128998
Si Si2 0.308325 0.969663 0.617387
Si Si3 0.784067 0.472593 0.996037
Si Si4 0.264699 0.028967 0.239367
Si Si5 0.479609 0.972321 0.869107
Si Si6 0.510990 0.537972 0.641485
Si Si7 0.967452 0.040837 0.747072
Si Si8 0.883421 0.533321 0.503956
O O1 0.863476 0.250000 0.141564
O O2 0.819874 0.532320 0.257898
O O3 0.779005 0.525329 0.104810
O O4 0.000000 0.500000 0.000000
O O5 0.309776 0.750000 0.612816
O O6 0.413115 0.034778 0.626464
O O7 0.355994 0.028555 0.489024
O O8 0.789284 0.250000 0.989757
O O9 0.909545 0.542361 0.873465
O O10 0.658501 0.532104 0.024291
O O11 0.257820 0.250000 0.239324
O O12 0.404560 0.967827 0.141138
O O13 0.228196 0.972594 0.365323
O O14 0.157371 0.958231 0.239501
O O15 0.480559 0.750000 0.870406
O O16 0.503459 0.030924 0.749196
O O17 0.478703 0.750000 0.669891
O O18 0.998053 0.250000 0.746016
O O19 0.073472 0.956094 0.619817
O O20 0.870700 0.750000 0.499467
O O21 0.000000 0.500000 0.500000
#
# Coordination Sequence:
#
# PCOD9162815 Si02
#       8
#     4   4   4   4   4   4   4   4
#     4  10  20  36  55  74 100 133 168 205 249 300
#     4   9  17  31  51  72  98 128 160 201 252 299
#     4   9  17  32  52  71  95 131 166 198 242 295
#     4   9  17  29  47  71  98 126 158 201 246 283
#     4   9  16  29  49  72  99 131 165 200 241 291
#     4   9  16  29  51  75  96 125 166 203 239 294
#     4   9  17  30  49  70  94 127 166 199 233 285
#     4   8  14  26  43  63  87 116 151 192 235 275
#
# _framework density 27.393965000000001
#
# number of rings (size 3 to 8) (size 9 to 14) (size 15 to 20)
#    0.000    3.000    1.250    0.000    0.000    1.000 
#    2.250    1.250    0.000    1.500    0.000    0.000 
#    0.000    0.000    0.000    0.000    0.000    0.000 
#
# Total GULP energy -178799.832097 kJ/mol
# GULP energy per Si atom -5587.494753 kJ/mol
# Density = 2.733161 g / cm^3
# Si number density = 27.393965 Si / 1000 Ang^3
#
#
#
# Elastic Constant Matrix: (Units=GPa)
#
#
# Indices 1 2 3 4 5 6 
#
# 1 80.7466 6.3762 17.8673 0.0000 -2.6633 0.0000
# 2 6.3762 117.9299 -6.0038 0.0000 0.6684 0.0000
# 3 17.8673 -6.0038 152.6682 0.0000 3.7644 0.0000
# 4 0.0000 0.0000 0.0000 9.6028 0.0000 -1.5406
# 5 -2.6633 0.6684 3.7644 0.0000 57.6635 0.0000
# 6 0.0000 0.0000 0.0000 -1.5406 0.0000 13.2095
#
#
#
# Elastic Compliance Matrix: (Units=1/GPa)
#
#
# Indices 1 2 3 4 5 6 
#
# 1 0.012811 -0.000775 -0.001547 0.000000 0.000702 0.000000
# 2 -0.000775 0.008544 0.000431 0.000000 -0.000163 0.000000
# 3 -0.001547 0.000431 0.006761 0.000000 -0.000518 0.000000
# 4 0.000000 0.000000 0.000000 0.106123 0.000000 0.012377
# 5 0.000702 -0.000163 -0.000518 0.000000 0.017410 0.000000
# 6 0.000000 0.000000 0.000000 0.012377 0.000000 0.077147
#
#
# Mechanical properties :
#
#
# Convention : Reuss Voigt Hill
#
# Bulk Modulus (GPa) = 41.09656 43.09158 42.09407
# Shear Modulus (GPa) = 20.77358 38.30215 29.53787
#
# Velocity S-wave (km/s) = 2.75676 3.74330 3.28725
# Velocity P-wave (km/s) = 5.01673 5.86920 5.45963
#
# Compressibility (1/GPa) = 0.02433294
#
# Stress axis : x y z
#
# Youngs Moduli (GPa) = 78.05710 117.03584 147.90870
#
# Poissons Ratio (x) = 0.09075 0.22883
# Poissons Ratio (y) = 0.06053 -0.06372
# Poissons Ratio (z) = 0.12076 -0.05042
#
# Static dielectric constant tensor:
#      x y z
#    x 2.216770 0.000000 -0.002390 
#    y 0.000000 2.003460 0.000000 
#    z -0.002390 0.000000 2.204080 
# 
# From -- ./inp_files/52280.got.cif
#   From: 2010.05.17/outbox.cif.g08.bks.cpg/sg11_27_cif.got.tgz:52280.got - 2010.06.03 12:22:45.
