data_PCOD9162703
_publ_section_title
;
Structure prediction by ZEFSAII (Michael W. Deem and Ramdas Pophale) SiO2 
 PCOD9162703
Probable space group: P 21/M
;
_chemical_formula_sum "Si O2"
_cell_formula_units_Z 28
_cell_length_a 11.900393
_cell_length_b 8.524885
_cell_length_c 15.464639
_cell_angle_alpha 90.000000
_cell_angle_beta 65.325639
_cell_angle_gamma 90.000000
_cell_volume 1425.633178
_symmetry_space_group_name_H-M "P 21/M"
_symmetry_group_IT_number 11
_symmetry_cell_setting 'monoclinic'
loop_
_space_group_symop_operation_xyz
x,y,z
-x,1/2+y,-z
-x,-y,-z
x,1/2-y,z
loop_
_atom_site_type_symbol
_atom_site_label
_atom_site_fract_x
_atom_site_fract_y
_atom_site_fract_z
Si Si1 0.864146 0.939451 0.024427
Si Si2 0.194069 0.560722 0.461379
Si Si3 0.022176 0.937843 0.356279
Si Si4 0.444557 0.937637 0.107439
Si Si5 0.180215 0.437394 0.158294
Si Si6 0.472876 0.560162 0.413181
Si Si7 0.372490 0.058616 0.797792
O O1 0.864894 0.750000 0.025251
O O2 0.762077 0.993607 0.126699
O O3 0.825670 0.988493 0.939852
O O4 0.000000 0.000000 0.000000
O O5 0.191564 0.750000 0.463674
O O6 0.124443 0.511330 0.395453
O O7 0.336078 0.510423 0.424986
O O8 0.108874 0.497592 0.566357
O O9 0.021463 0.750000 0.352975
O O10 0.064187 0.005050 0.251177
O O11 0.447103 0.750000 0.104740
O O12 0.529298 0.989142 0.160162
O O13 0.304413 0.994037 0.160011
O O14 0.500000 0.000000 0.000000
O O15 0.186306 0.250000 0.158040
O O16 0.500000 0.500000 0.500000
O O17 0.473283 0.750000 0.414023
O O18 0.576327 0.506789 0.311169
O O19 0.370847 0.250000 0.797313
#
# Coordination Sequence:
#
# PCOD9162703 Si02
#       7
#     4   4   4   4   4   4   4
#     4  10  22  40  58  79 111 151 193 233 281 340
#     4   9  19  37  57  82 116 150 186 237 298 346
#     4  10  20  35  59  87 113 149 192 234 286 350
#     4  11  20  35  60  88 117 149 191 237 289 351
#     4  11  22  37  56  85 121 153 187 235 291 343
#     4  10  21  38  60  82 110 150 194 239 287 339
#     4   9  19  39  61  81 113 153 187 231 292 346
#
# _framework density 19.640394000000001
#
# number of rings (size 3 to 8) (size 9 to 14) (size 15 to 20)
#    0.000    2.000    1.429    2.143    0.000    5.714 
#    0.000    6.429    0.000    0.000    0.000    0.000 
#    0.000    0.000    0.000    0.000    0.000    0.000 
#
# Total GULP energy -156394.038514 kJ/mol
# GULP energy per Si atom -5585.501376 kJ/mol
# Density = 1.959569 g / cm^3
# Si number density = 19.640394 Si / 1000 Ang^3
#
#
#
# Elastic Constant Matrix: (Units=GPa)
#
#
# Indices 1 2 3 4 5 6 
#
# 1 101.0688 12.8646 60.1576 0.0000 -19.9314 0.0000
# 2 12.8646 11.6680 20.1177 0.0000 -3.8718 0.0000
# 3 60.1576 20.1177 181.1331 0.0000 -18.6019 0.0000
# 4 0.0000 0.0000 0.0000 28.7213 0.0000 -2.9179
# 5 -19.9314 -3.8718 -18.6019 0.0000 27.3702 0.0000
# 6 0.0000 0.0000 0.0000 -2.9179 0.0000 30.2376
#
#
#
# Elastic Compliance Matrix: (Units=1/GPa)
#
#
# Indices 1 2 3 4 5 6 
#
# 1 0.014135 -0.007911 -0.003089 0.000000 0.007075 0.000000
# 2 -0.007911 0.111890 -0.009424 0.000000 0.003663 0.000000
# 3 -0.003089 -0.009424 0.007768 0.000000 0.001696 0.000000
# 4 0.000000 0.000000 0.000000 0.035162 0.000000 0.003393
# 5 0.007075 0.003663 0.001696 0.000000 0.043359 0.000000
# 6 0.000000 0.000000 0.000000 0.003393 0.000000 0.033399
#
#
# Mechanical properties :
#
#
# Convention : Reuss Voigt Hill
#
# Bulk Modulus (GPa) = 10.75895 53.34995 32.05445
# Shear Modulus (GPa) = 15.74590 30.64783 23.19687
#
# Velocity S-wave (km/s) = 2.83452 3.95454 3.44041
# Velocity P-wave (km/s) = 4.02524 6.93351 5.66904
#
# Compressibility (1/GPa) = 0.09294591
#
# Stress axis : x y z
#
# Youngs Moduli (GPa) = 70.74545 8.93731 128.73785
#
# Poissons Ratio (x) = 0.07070 0.39772
# Poissons Ratio (y) = 0.55964 1.21320
# Poissons Ratio (z) = 0.21856 0.08422
#
# Static dielectric constant tensor:
#      x y z
#    x 1.674540 0.000000 -0.004290 
#    y 0.000000 1.672210 0.000000 
#    z -0.004290 0.000000 1.689980 
# 
# From -- ./inp_files/37508.got.cif
#   From: 2010.05.17/outbox.cif.g08.bks.cpg/sg11_19_cif.got.tgz:37508.got - 2010.06.03 12:22:45.
