data_PCOD9162731
_publ_section_title
;
Structure prediction by ZEFSAII (Michael W. Deem and Ramdas Pophale) SiO2 
 PCOD9162731
Probable space group: P 21/M
;
_chemical_formula_sum "Si O2"
_cell_formula_units_Z 28
_cell_length_a 15.334269
_cell_length_b 8.843037
_cell_length_c 11.708478
_cell_angle_alpha 90.000000
_cell_angle_beta 64.576927
_cell_angle_gamma 90.000000
_cell_volume 1433.939588
_symmetry_space_group_name_H-M "P 21/M"
_symmetry_group_IT_number 11
_symmetry_cell_setting 'monoclinic'
loop_
_space_group_symop_operation_xyz
x,y,z
-x,1/2+y,-z
-x,-y,-z
x,1/2-y,z
loop_
_atom_site_type_symbol
_atom_site_label
_atom_site_fract_x
_atom_site_fract_y
_atom_site_fract_z
Si Si1 0.342781 0.930220 0.833968
Si Si2 0.051760 0.930169 0.794799
Si Si3 0.393680 0.930721 0.552548
Si Si4 0.854634 0.570428 0.031262
Si Si5 0.521081 0.430967 0.865378
Si Si6 0.289146 0.932249 0.378162
Si Si7 0.085805 0.069528 0.526974
O O1 0.345021 0.750000 0.848392
O O2 0.339093 0.964523 0.700883
O O3 0.247761 0.999714 0.944243
O O4 0.440749 0.001863 0.826113
O O5 0.068980 0.750000 0.777191
O O6 0.110577 0.995659 0.869414
O O7 0.077823 0.007274 0.660953
O O8 0.939539 0.956216 0.891675
O O9 0.404742 0.750000 0.537970
O O10 0.334598 0.979615 0.474777
O O11 0.500000 0.000000 0.500000
O O12 0.845455 0.750000 0.052187
O O13 0.512403 0.250000 0.872097
O O14 0.628411 0.467600 0.760638
O O15 0.500000 0.500000 0.000000
O O16 0.274518 0.750000 0.388214
O O17 0.188000 0.014077 0.419444
O O18 0.079895 0.250000 0.530100
O O19 0.000000 0.000000 0.500000
#
# Coordination Sequence:
#
# PCOD9162731 Si02
#       7
#     4   4   4   4   4   4   4
#     4  11  22  36  59  91 125 162 202 249 304 363
#     4  10  21  40  63  90 125 160 202 256 309 366
#     4  10  20  35  59  90 123 157 196 245 300 357
#     4  10  21  37  62  93 124 162 204 250 306 365
#     4  11  24  42  63  86 120 163 205 251 301 362
#     4  10  22  42  65  91 124 162 201 253 313 365
#     4  12  26  43  66  92 121 162 209 259 312 371
#
# _framework density 19.526624999999999
#
# number of rings (size 3 to 8) (size 9 to 14) (size 15 to 20)
#    0.000    1.429    1.429    3.857    0.000    6.286 
#    0.000    0.000    0.000    0.000    0.000    0.000 
#    0.000    0.000    0.000    0.000    0.000    0.000 
#
# Total GULP energy -156570.160417 kJ/mol
# GULP energy per Si atom -5591.791443 kJ/mol
# Density = 1.948218 g / cm^3
# Si number density = 19.526625 Si / 1000 Ang^3
#
#
#
# Elastic Constant Matrix: (Units=GPa)
#
#
# Indices 1 2 3 4 5 6 
#
# 1 105.1662 49.6695 53.8350 0.0000 -30.5165 0.0000
# 2 49.6695 89.2926 69.2730 0.0000 -21.4098 0.0000
# 3 53.8350 69.2730 114.5817 0.0000 -15.1864 0.0000
# 4 0.0000 0.0000 0.0000 31.4421 0.0000 -2.4405
# 5 -30.5165 -21.4098 -15.1864 0.0000 34.7314 0.0000
# 6 0.0000 0.0000 0.0000 -2.4405 0.0000 37.8910
#
#
#
# Elastic Compliance Matrix: (Units=1/GPa)
#
#
# Indices 1 2 3 4 5 6 
#
# 1 0.016254 -0.003181 -0.004332 0.000000 0.010427 0.000000
# 2 -0.003181 0.023964 -0.012108 0.000000 0.006684 0.000000
# 3 -0.004332 -0.012108 0.017610 0.000000 -0.003570 0.000000
# 4 0.000000 0.000000 0.000000 0.031964 0.000000 0.002059
# 5 0.010427 0.006684 -0.003570 0.000000 0.040513 0.000000
# 6 0.000000 0.000000 0.000000 0.002059 0.000000 0.026524
#
#
# Mechanical properties :
#
#
# Convention : Reuss Voigt Hill
#
# Bulk Modulus (GPa) = 53.80126 72.73283 63.26704
# Shear Modulus (GPa) = 24.71996 29.89709 27.30853
#
# Velocity S-wave (km/s) = 3.56190 3.91716 3.74375
# Velocity P-wave (km/s) = 6.67298 7.60183 7.15250
#
# Compressibility (1/GPa) = 0.01858693
#
# Stress axis : x y z
#
# Youngs Moduli (GPa) = 61.52303 41.72882 56.78717
#
# Poissons Ratio (x) = 0.13273 0.24600
# Poissons Ratio (y) = 0.19569 0.68757
# Poissons Ratio (z) = 0.26651 0.50525
#
# Static dielectric constant tensor:
#      x y z
#    x 1.641260 0.000000 -0.030650 
#    y 0.000000 1.651130 0.000000 
#    z -0.030650 0.000000 1.666120 
# 
# From -- ./inp_files/37928.got.cif
#   From: 2010.05.17/outbox.cif.g08.bks.cpg/sg11_19_cif.got.tgz:37928.got - 2010.06.03 12:22:45.
