data_PCOD9162176
_publ_section_title
;
Structure prediction by ZEFSAII (Michael W. Deem and Ramdas Pophale) SiO2 
 PCOD9162176
Probable space group: P 21/M
;
_chemical_formula_sum "Si O2"
_cell_formula_units_Z 32
_cell_length_a 12.083826
_cell_length_b 8.602519
_cell_length_c 34.709345
_cell_angle_alpha 90.000000
_cell_angle_beta 29.320253
_cell_angle_gamma 90.000000
_cell_volume 1766.844633
_symmetry_space_group_name_H-M "P 21/M"
_symmetry_group_IT_number 11
_symmetry_cell_setting 'monoclinic'
loop_
_space_group_symop_operation_xyz
x,y,z
-x,1/2+y,-z
-x,-y,-z
x,1/2-y,z
loop_
_atom_site_type_symbol
_atom_site_label
_atom_site_fract_x
_atom_site_fract_y
_atom_site_fract_z
Si Si1 0.025604 0.936130 0.666307
Si Si2 0.222225 0.436435 0.531640
Si Si3 0.353837 0.937367 0.725065
Si Si4 0.688854 0.439306 0.348949
Si Si5 0.877004 0.562895 0.575479
Si Si6 0.526945 0.064058 0.812921
Si Si7 0.843379 0.937086 0.138444
Si Si8 0.187863 0.563444 0.972589
O O1 0.017016 0.750000 0.668108
O O2 0.116432 0.987477 0.680535
O O3 0.198387 0.993348 0.581216
O O4 0.778703 0.001748 0.732190
O O5 0.221358 0.250000 0.534177
O O6 0.448104 0.485886 0.440396
O O7 0.008402 0.493731 0.571884
O O8 0.346431 0.750000 0.727357
O O9 0.290398 0.992491 0.701366
O O10 0.614155 0.983023 0.654160
O O11 0.200133 0.998204 0.806188
O O12 0.687578 0.250000 0.348501
O O13 0.889599 0.750000 0.572222
O O14 0.000000 0.500000 0.500000
O O15 0.527076 0.250000 0.812634
O O16 0.359894 0.011494 0.828847
O O17 0.418839 0.005253 0.885940
O O18 0.835014 0.750000 0.142123
O O19 0.081762 0.980959 0.046085
O O20 0.197356 0.750000 0.967630
O O21 0.000000 0.500000 0.000000
#
# Coordination Sequence:
#
# PCOD9162176 Si02
#       8
#     4   4   4   4   4   4   4   4
#     4  11  22  36  55  77 102 136 182 224 267 319
#     4  11  21  37  56  75 106 138 175 226 273 316
#     4  10  20  35  53  74 103 140 177 213 259 314
#     4   9  20  38  54  71 101 141 180 224 269 310
#     4  11  21  34  53  77 105 138 176 216 265 318
#     4  10  20  35  54  79 111 140 172 214 268 317
#     4   9  19  33  51  80 111 137 164 206 259 310
#     4   9  17  31  52  79 112 142 171 208 259 316
#
# _framework density 18.111384000000001
#
# number of rings (size 3 to 8) (size 9 to 14) (size 15 to 20)
#    0.000    2.000    1.250    3.750    0.000    6.000 
#    0.000    3.125    0.000    0.750    0.000    0.000 
#    0.000    0.000    0.000    0.000    0.000    0.000 
#
# Total GULP energy -178587.730591 kJ/mol
# GULP energy per Si atom -5580.866581 kJ/mol
# Density = 1.807016 g / cm^3
# Si number density = 18.111384 Si / 1000 Ang^3
#
#
#
# Elastic Constant Matrix: (Units=GPa)
#
#
# Indices 1 2 3 4 5 6 
#
# 1 77.9364 12.7440 35.0175 0.0000 20.0747 0.0000
# 2 12.7440 34.2873 19.3235 0.0000 4.4770 0.0000
# 3 35.0175 19.3235 115.7167 0.0000 33.1776 0.0000
# 4 0.0000 0.0000 0.0000 32.1948 0.0000 6.7429
# 5 20.0747 4.4770 33.1776 0.0000 23.2369 0.0000
# 6 0.0000 0.0000 0.0000 6.7429 0.0000 19.1743
#
#
#
# Elastic Compliance Matrix: (Units=1/GPa)
#
#
# Indices 1 2 3 4 5 6 
#
# 1 0.017211 -0.004264 -0.000794 0.000000 -0.012914 0.000000
# 2 -0.004264 0.033337 -0.005911 0.000000 0.005700 0.000000
# 3 -0.000794 -0.005911 0.015824 0.000000 -0.020768 0.000000
# 4 0.000000 0.000000 0.000000 0.033531 0.000000 -0.011792
# 5 -0.012914 0.005700 -0.020768 0.000000 0.082747 0.000000
# 6 0.000000 0.000000 0.000000 -0.011792 0.000000 0.056300
#
#
# Mechanical properties :
#
#
# Convention : Reuss Voigt Hill
#
# Bulk Modulus (GPa) = 22.50458 40.23450 31.36954
# Shear Modulus (GPa) = 18.13584 25.64490 21.89037
#
# Velocity S-wave (km/s) = 3.16784 3.76700 3.48034
# Velocity P-wave (km/s) = 5.08261 6.41745 5.78864
#
# Compressibility (1/GPa) = 0.04443539
#
# Stress axis : x y z
#
# Youngs Moduli (GPa) = 58.10171 29.99668 63.19659
#
# Poissons Ratio (x) = 0.12789 0.05016
# Poissons Ratio (y) = 0.24772 0.37356
# Poissons Ratio (z) = 0.04611 0.17731
#
# Static dielectric constant tensor:
#      x y z
#    x 1.482950 0.000000 -0.020550 
#    y 0.000000 1.613570 0.000000 
#    z -0.020550 0.000000 1.617750 
# 
# From -- ./inp_files/73050.got.cif
#   From: 2010.05.17/outbox.cif.g08.bks.cpg/sg11_37_cif.got.tgz:73050.got - 2010.06.03 12:22:45.
