data_PCOD9162773
_publ_section_title
;
Structure prediction by ZEFSAII (Michael W. Deem and Ramdas Pophale) SiO2 
 PCOD9162773
Probable space group: P 21/M
;
_chemical_formula_sum "Si O2"
_cell_formula_units_Z 32
_cell_length_a 14.762320
_cell_length_b 18.295210
_cell_length_c 11.674369
_cell_angle_alpha 90.000000
_cell_angle_beta 31.364196
_cell_angle_gamma 90.000000
_cell_volume 1641.066811
_symmetry_space_group_name_H-M "P 21/M"
_symmetry_group_IT_number 11
_symmetry_cell_setting 'monoclinic'
loop_
_space_group_symop_operation_xyz
x,y,z
-x,1/2+y,-z
-x,-y,-z
x,1/2-y,z
loop_
_atom_site_type_symbol
_atom_site_label
_atom_site_fract_x
_atom_site_fract_y
_atom_site_fract_z
Si Si1 0.372406 0.579852 0.054139
Si Si2 0.931287 0.051418 0.769590
Si Si3 0.322137 0.336106 0.726517
Si Si4 0.749011 0.333621 0.591866
Si Si5 0.856184 0.877092 0.843892
Si Si6 0.020084 0.081998 0.931672
Si Si7 0.302976 0.661941 0.604881
Si Si8 0.269243 0.079820 0.252066
O O1 0.242820 0.591633 0.088050
O O2 0.308668 0.621833 0.235802
O O3 0.338611 0.494779 0.119302
O O4 0.576535 0.598594 0.825727
O O5 0.086470 0.064751 0.511201
O O6 0.896083 0.964104 0.815424
O O7 0.990865 0.079980 0.827893
O O8 0.305582 0.250000 0.718086
O O9 0.524835 0.357140 0.510179
O O10 0.252304 0.349402 0.931113
O O11 0.203502 0.384065 0.771480
O O12 0.692457 0.250000 0.664860
O O13 0.679436 0.364016 0.545964
O O14 0.957529 0.338220 0.358410
O O15 0.762635 0.867529 0.821945
O O16 0.869541 0.129203 0.154456
O O17 0.000000 0.000000 0.000000
O O18 0.289154 0.750000 0.615060
#
# Coordination Sequence:
#
# PCOD9162773 Si02
#       8
#     4   4   4   4   4   4   4   4
#     4  10  20  36  58  87 115 153 186 230 296 351
#     4  11  21  38  57  84 122 152 193 237 291 353
#     4  11  23  41  64  89 118 157 202 252 306 355
#     4  11  19  34  61  88 119 152 189 244 298 350
#     4  11  18  37  60  91 118 148 189 242 303 354
#     4  12  24  40  60  89 122 161 203 251 298 350
#     4  10  23  41  62  87 119 159 204 254 306 354
#     4  10  20  35  61  85 117 149 187 236 289 356
#
# _framework density 19.499510999999998
#
# number of rings (size 3 to 8) (size 9 to 14) (size 15 to 20)
#    0.000    1.250    5.000    2.250    0.000    1.500 
#    0.000    1.875    0.000    0.000    0.000    0.000 
#    0.000    0.000    0.000    0.000    0.000    0.000 
#
# Total GULP energy -178691.696265 kJ/mol
# GULP energy per Si atom -5584.115508 kJ/mol
# Density = 1.945513 g / cm^3
# Si number density = 19.499511 Si / 1000 Ang^3
#
#
#
# Elastic Constant Matrix: (Units=GPa)
#
#
# Indices 1 2 3 4 5 6 
#
# 1 155.2921 29.3138 11.7416 0.0000 -21.7956 0.0000
# 2 29.3138 25.9124 -1.2554 0.0000 -9.9012 0.0000
# 3 11.7416 -1.2554 18.1890 0.0000 -19.8426 0.0000
# 4 0.0000 0.0000 0.0000 27.2699 0.0000 3.7204
# 5 -21.7956 -9.9012 -19.8426 0.0000 35.3587 0.0000
# 6 0.0000 0.0000 0.0000 3.7204 0.0000 27.3379
#
#
#
# Elastic Compliance Matrix: (Units=1/GPa)
#
#
# Indices 1 2 3 4 5 6 
#
# 1 0.009041 -0.012412 -0.011359 0.000000 -0.004277 0.000000
# 2 -0.012412 0.077421 0.073903 0.000000 0.055501 0.000000
# 3 -0.011359 0.073903 0.212347 0.000000 0.132857 0.000000
# 4 0.000000 0.000000 0.000000 0.037364 0.000000 -0.005085
# 5 -0.004277 0.055501 0.132857 0.000000 0.115743 0.000000
# 6 0.000000 0.000000 0.000000 -0.005085 0.000000 0.037271
#
#
# Mechanical properties :
#
#
# Convention : Reuss Voigt Hill
#
# Bulk Modulus (GPa) = 2.50581 30.99927 16.75254
# Shear Modulus (GPa) = 9.57948 28.63288 19.10618
#
# Velocity S-wave (km/s) = 2.21886 3.83611 3.13362
# Velocity P-wave (km/s) = 2.80220 5.96263 4.65861
#
# Compressibility (1/GPa) = 0.39907182
#
# Stress axis : x y z
#
# Youngs Moduli (GPa) = 110.60634 12.91644 4.70926
#
# Poissons Ratio (x) = 0.16032 0.05349
# Poissons Ratio (y) = 1.37290 -0.34803
# Poissons Ratio (z) = 1.25638 -0.95456
#
# Static dielectric constant tensor:
#      x y z
#    x 1.734980 0.000000 -0.038110 
#    y 0.000000 1.669810 0.000000 
#    z -0.038110 0.000000 1.671350 
# 
# From -- ./inp_files/39938.got.cif
#   From: 2010.05.17/outbox.cif.g08.bks.cpg/sg11_20_cif.got.tgz:39938.got - 2010.06.03 12:22:45.
