data_PCOD9162111
_publ_section_title
;
Structure prediction by ZEFSAII (Michael W. Deem and Ramdas Pophale) SiO2 
 PCOD9162111
Probable space group: P 21/M
;
_chemical_formula_sum "Si O2"
_cell_formula_units_Z 24
_cell_length_a 5.177635
_cell_length_b 16.839333
_cell_length_c 13.970729
_cell_angle_alpha 90.000000
_cell_angle_beta 111.552517
_cell_angle_gamma 90.000000
_cell_volume 1132.912247
_symmetry_space_group_name_H-M "P 21/M"
_symmetry_group_IT_number 11
_symmetry_cell_setting 'monoclinic'
loop_
_space_group_symop_operation_xyz
x,y,z
-x,1/2+y,-z
-x,-y,-z
x,1/2-y,z
loop_
_atom_site_type_symbol
_atom_site_label
_atom_site_fract_x
_atom_site_fract_y
_atom_site_fract_z
Si Si1 0.706473 0.043278 0.453524
Si Si2 0.169435 0.838451 0.381679
Si Si3 0.956385 0.435339 0.078385
Si Si4 0.343086 0.971270 0.254728
Si Si5 0.388510 0.340640 0.023699
Si Si6 0.380581 0.162582 0.808895
O O1 0.763465 0.130657 0.503156
O O2 0.500000 0.000000 0.500000
O O3 0.572222 0.029726 0.331566
O O4 0.000000 0.000000 0.500000
O O5 0.278469 0.750000 0.380934
O O6 0.288295 0.903547 0.325745
O O7 0.847085 0.837864 0.306214
O O8 0.077219 0.478225 0.188891
O O9 0.165488 0.366429 0.071715
O O10 0.651661 0.399920 0.054435
O O11 0.000000 0.500000 0.000000
O O12 0.443836 0.916848 0.180786
O O13 0.481830 0.250000 0.052283
O O14 0.254176 0.342349 0.898391
O O15 0.524185 0.250000 0.824884
#
# Coordination Sequence:
#
# PCOD9162111 Si02
#       6
#     4   4   4   4   4   4
#     4  10  21  38  60  86 120 155 192 244 304 365
#     4  10  21  38  60  90 122 156 197 254 317 370
#     4  12  24  39  66  92 127 166 215 260 309 368
#     4  11  22  36  62  88 124 155 212 249 309 356
#     4  11  25  43  60  89 128 171 209 258 313 370
#     4  10  20  34  59  88 121 156 199 253 312 363
#
# _framework density 21.184342999999998
#
# number of rings (size 3 to 8) (size 9 to 14) (size 15 to 20)
#    0.000    1.333    3.333    2.500    2.333    0.000 
#    0.000    1.667    0.000    0.000    0.000    0.000 
#    0.000    0.000    0.000    0.000    0.000    0.000 
#
# Total GULP energy -133936.545425 kJ/mol
# GULP energy per Si atom -5580.689393 kJ/mol
# Density = 2.113613 g / cm^3
# Si number density = 21.184343 Si / 1000 Ang^3
#
#
#
# Elastic Constant Matrix: (Units=GPa)
#
#
# Indices 1 2 3 4 5 6 
#
# 1 64.2457 5.8470 1.0635 0.0000 5.6864 0.0000
# 2 5.8470 99.7484 46.1041 0.0000 4.8445 0.0000
# 3 1.0635 46.1041 73.3448 0.0000 14.0570 0.0000
# 4 0.0000 0.0000 0.0000 47.8028 0.0000 -17.8371
# 5 5.6864 4.8445 14.0570 0.0000 27.6284 0.0000
# 6 0.0000 0.0000 0.0000 -17.8371 0.0000 55.6380
#
#
#
# Elastic Compliance Matrix: (Units=1/GPa)
#
#
# Indices 1 2 3 4 5 6 
#
# 1 0.016000 -0.001382 0.001353 0.000000 -0.003739 0.000000
# 2 -0.001382 0.014379 -0.009518 0.000000 0.002606 0.000000
# 3 0.001353 -0.009518 0.021420 0.000000 -0.009508 0.000000
# 4 0.000000 0.000000 0.000000 0.023762 0.000000 0.007618
# 5 -0.003739 0.002606 -0.009508 0.000000 0.041345 0.000000
# 6 0.000000 0.000000 0.000000 0.007618 0.000000 0.020416
#
#
# Mechanical properties :
#
#
# Convention : Reuss Voigt Hill
#
# Bulk Modulus (GPa) = 30.57602 38.15202 34.36402
# Shear Modulus (GPa) = 29.88384 38.50215 34.19299
#
# Velocity S-wave (km/s) = 3.75995 4.26782 4.02191
# Velocity P-wave (km/s) = 5.77185 6.50648 6.15014
#
# Compressibility (1/GPa) = 0.03270537
#
# Stress axis : x y z
#
# Youngs Moduli (GPa) = 62.50181 69.54671 46.68610
#
# Poissons Ratio (x) = 0.09609 -0.06317
# Poissons Ratio (y) = 0.08636 0.44435
# Poissons Ratio (z) = -0.08458 0.66193
#
# Static dielectric constant tensor:
#      x y z
#    x 1.811840 0.000000 -0.014530 
#    y 0.000000 1.788930 0.000000 
#    z -0.014530 0.000000 1.789910 
# 
# From -- ./inp_files/6470.got.cif
#   From: 2010.05.17/outbox.cif.g08.bks.cpg/sg11_4_cif.got.tgz:6470.got - 2010.06.03 12:22:45.
