data_PCOD9162582
_publ_section_title
;
Structure prediction by ZEFSAII (Michael W. Deem and Ramdas Pophale) SiO2 
 PCOD9162582
Probable space group: P 21/M
;
_chemical_formula_sum "Si O2"
_cell_formula_units_Z 28
_cell_length_a 12.159881
_cell_length_b 21.943294
_cell_length_c 5.198110
_cell_angle_alpha 90.000000
_cell_angle_beta 78.522523
_cell_angle_gamma 90.000000
_cell_volume 1359.264635
_symmetry_space_group_name_H-M "P 21/M"
_symmetry_group_IT_number 11
_symmetry_cell_setting 'monoclinic'
loop_
_space_group_symop_operation_xyz
x,y,z
-x,1/2+y,-z
-x,-y,-z
x,1/2-y,z
loop_
_atom_site_type_symbol
_atom_site_label
_atom_site_fract_x
_atom_site_fract_y
_atom_site_fract_z
Si Si1 0.300484 0.929504 0.641507
Si Si2 0.468501 0.682412 0.000173
Si Si3 0.465322 0.114377 0.526334
Si Si4 0.111232 0.580515 0.083817
Si Si5 0.079414 0.444198 0.179692
Si Si6 0.222948 0.679560 0.325027
Si Si7 0.221106 0.058652 0.590220
O O1 0.434173 0.932967 0.581451
O O2 0.239734 0.932940 0.944106
O O3 0.264618 0.865220 0.533069
O O4 0.249328 0.987670 0.521573
O O5 0.506426 0.750000 0.053556
O O6 0.516648 0.636344 0.190146
O O7 0.333296 0.681799 0.090073
O O8 0.507109 0.666277 0.696417
O O9 0.340526 0.091248 0.543068
O O10 0.036885 0.585642 0.858888
O O11 0.063368 0.517580 0.223220
O O12 0.121406 0.642354 0.239036
O O13 0.139248 0.418767 0.403449
O O14 0.160655 0.436616 0.894191
O O15 0.198118 0.750000 0.406950
#
# Coordination Sequence:
#
# PCOD9162582 Si02
#       7
#     4   4   4   4   4   4   4
#     4  10  21  35  56  89 121 150 190 243 303 348
#     4  10  21  37  58  86 116 151 197 244 294 351
#     4  11  21  36  59  87 119 155 191 240 297 348
#     4  10  20  37  58  84 117 152 195 242 291 348
#     4  10  23  36  61  84 118 158 196 236 285 346
#     4  10  20  35  57  86 120 150 189 245 302 350
#     4  11  22  38  57  88 121 156 195 236 286 355
#
# _framework density 20.599375999999999
#
# number of rings (size 3 to 8) (size 9 to 14) (size 15 to 20)
#    0.000    1.714    2.857    1.714    2.000    2.857 
#    0.000    4.286    0.000    5.143    0.000    0.000 
#    0.000    0.000    0.000    0.000    0.000    0.000 
#
# Total GULP energy -156235.531991 kJ/mol
# GULP energy per Si atom -5579.840428 kJ/mol
# Density = 2.055249 g / cm^3
# Si number density = 20.599376 Si / 1000 Ang^3
#
#
#
# Elastic Constant Matrix: (Units=GPa)
#
#
# Indices 1 2 3 4 5 6 
#
# 1 97.0692 16.5240 25.7154 0.0000 3.0647 0.0000
# 2 16.5240 66.6799 14.6805 0.0000 1.0846 0.0000
# 3 25.7154 14.6805 65.4857 0.0000 5.7632 0.0000
# 4 0.0000 0.0000 0.0000 17.6227 0.0000 1.8163
# 5 3.0647 1.0846 5.7632 0.0000 36.1376 0.0000
# 6 0.0000 0.0000 0.0000 1.8163 0.0000 18.9841
#
#
#
# Elastic Compliance Matrix: (Units=1/GPa)
#
#
# Indices 1 2 3 4 5 6 
#
# 1 0.011747 -0.001995 -0.004142 0.000000 -0.000276 0.000000
# 2 -0.001995 0.016115 -0.002841 0.000000 0.000139 0.000000
# 3 -0.004142 -0.002841 0.017744 0.000000 -0.002393 0.000000
# 4 0.000000 0.000000 0.000000 0.057310 0.000000 -0.005483
# 5 -0.000276 0.000139 -0.002393 0.000000 0.028073 0.000000
# 6 0.000000 0.000000 0.000000 -0.005483 0.000000 0.053200
#
#
# Mechanical properties :
#
#
# Convention : Reuss Voigt Hill
#
# Bulk Modulus (GPa) = 36.16517 38.11939 37.14228
# Shear Modulus (GPa) = 23.65601 26.03651 24.84626
#
# Velocity S-wave (km/s) = 3.39246 3.55906 3.47676
# Velocity P-wave (km/s) = 5.73930 5.95269 5.84697
#
# Compressibility (1/GPa) = 0.02765092
#
# Stress axis : x y z
#
# Youngs Moduli (GPa) = 85.12522 62.05524 56.35552
#
# Poissons Ratio (x) = 0.12379 0.23340
# Poissons Ratio (y) = 0.16981 0.16013
# Poissons Ratio (z) = 0.35255 0.17633
#
# Static dielectric constant tensor:
#      x y z
#    x 1.758020 0.000000 0.006850 
#    y 0.000000 1.752970 0.000000 
#    z 0.006850 0.000000 1.792990 
# 
# From -- ./inp_files/4876.got.cif
#   From: 2010.05.17/outbox.cif.g08.bks.cpg/sg11_3_cif.got.tgz:4876.got - 2010.06.03 12:22:45.
