data_PCOD9162738
_publ_section_title
;
Structure prediction by ZEFSAII (Michael W. Deem and Ramdas Pophale) SiO2 
 PCOD9162738
Probable space group: P 21/M
;
_chemical_formula_sum "Si O2"
_cell_formula_units_Z 28
_cell_length_a 21.147543
_cell_length_b 14.312794
_cell_length_c 9.256142
_cell_angle_alpha 90.000000
_cell_angle_beta 148.186377
_cell_angle_gamma 90.000000
_cell_volume 1476.913394
_symmetry_space_group_name_H-M "P 21/M"
_symmetry_group_IT_number 11
_symmetry_cell_setting 'monoclinic'
loop_
_space_group_symop_operation_xyz
x,y,z
-x,1/2+y,-z
-x,-y,-z
x,1/2-y,z
loop_
_atom_site_type_symbol
_atom_site_label
_atom_site_fract_x
_atom_site_fract_y
_atom_site_fract_z
Si Si1 0.682748 0.643992 0.533315
Si Si2 0.780063 0.139062 0.017745
Si Si3 0.402092 0.445323 0.903154
Si Si4 0.943828 0.858962 0.476127
Si Si5 0.948352 0.639903 0.140678
Si Si6 0.563124 0.474611 0.472460
Si Si7 0.821470 0.470444 0.392598
O O1 0.667104 0.750000 0.556203
O O2 0.642627 0.635722 0.289180
O O3 0.608873 0.569665 0.484493
O O4 0.823529 0.619999 0.820290
O O5 0.761334 0.250000 0.991469
O O6 0.678174 0.089382 0.727142
O O7 0.780536 0.093662 0.178270
O O8 0.914964 0.124017 0.219713
O O9 0.288746 0.511079 0.716699
O O10 0.500000 0.500000 0.000000
O O11 0.467575 0.424698 0.181234
O O12 0.916766 0.750000 0.451004
O O13 0.929372 0.876631 0.276022
O O14 0.863480 0.930507 0.408178
O O15 0.976357 0.750000 0.178989
O O16 0.061777 0.579036 0.314119
O O17 0.500000 0.500000 0.500000
#
# Coordination Sequence:
#
# PCOD9162738 Si02
#       7
#     4   4   4   4   4   4   4
#     4  10  22  41  60  83 122 163 196 244 305 361
#     4  10  20  35  59  92 122 147 190 255 312 360
#     4  10  24  40  55  81 120 160 205 244 287 352
#     4   9  18  31  54  90 120 145 187 248 314 364
#     4   9  18  33  57  88 115 147 194 241 300 371
#     4  11  21  39  61  88 117 156 212 253 291 355
#     4  11  18  34  60  84 118 156 194 247 305 359
#
# _framework density 18.958456999999999
#
# number of rings (size 3 to 8) (size 9 to 14) (size 15 to 20)
#    0.000    2.000    1.429    4.714    0.000    2.286 
#    0.000    0.714    0.000    5.143    0.000    0.000 
#    0.000    0.000    0.000    0.000    0.000    0.000 
#
# Total GULP energy -156294.830233 kJ/mol
# GULP energy per Si atom -5581.958223 kJ/mol
# Density = 1.891531 g / cm^3
# Si number density = 18.958457 Si / 1000 Ang^3
#
#
#
# Elastic Constant Matrix: (Units=GPa)
#
#
# Indices 1 2 3 4 5 6 
#
# 1 87.7812 41.9882 36.0680 0.0000 15.1986 0.0000
# 2 41.9882 92.4736 48.7836 0.0000 11.1974 0.0000
# 3 36.0680 48.7836 137.4644 0.0000 -3.2869 0.0000
# 4 0.0000 0.0000 0.0000 29.2958 0.0000 -6.3765
# 5 15.1986 11.1974 -3.2869 0.0000 24.3073 0.0000
# 6 0.0000 0.0000 0.0000 -6.3765 0.0000 5.5246
#
#
#
# Elastic Compliance Matrix: (Units=1/GPa)
#
#
# Indices 1 2 3 4 5 6 
#
# 1 0.016321 -0.004976 -0.002714 0.000000 -0.008280 0.000000
# 2 -0.004976 0.016041 -0.004504 0.000000 -0.004887 0.000000
# 3 -0.002714 -0.004504 0.009707 0.000000 0.005085 0.000000
# 4 0.000000 0.000000 0.000000 0.045587 0.000000 0.052616
# 5 -0.008280 -0.004887 0.005085 0.000000 0.049256 0.000000
# 6 0.000000 0.000000 0.000000 0.052616 0.000000 0.241737
#
#
# Mechanical properties :
#
#
# Convention : Reuss Voigt Hill
#
# Bulk Modulus (GPa) = 56.56090 63.48878 60.02484
# Shear Modulus (GPa) = 12.22701 24.55083 18.38892
#
# Velocity S-wave (km/s) = 2.54232 3.60249 3.11779
# Velocity P-wave (km/s) = 6.20618 7.13197 6.68512
#
# Compressibility (1/GPa) = 0.01768006
#
# Stress axis : x y z
#
# Youngs Moduli (GPa) = 61.27042 62.33979 103.02121
#
# Poissons Ratio (x) = 0.31021 0.27964
# Poissons Ratio (y) = 0.30489 0.46400
# Poissons Ratio (z) = 0.16631 0.28077
#
# Static dielectric constant tensor:
#      x y z
#    x 1.643640 0.000000 -0.010860 
#    y 0.000000 1.649880 0.000000 
#    z -0.010860 0.000000 1.686900 
# 
# From -- ./inp_files/17899.got.cif
#   From: 2010.05.17/outbox.cif.g08.bks.cpg/sg11_9_cif.got.tgz:17899.got - 2010.06.03 12:22:45.
