data_PCOD9162487
_publ_section_title
;
Structure prediction by ZEFSAII (Michael W. Deem and Ramdas Pophale) SiO2 
 PCOD9162487
Probable space group: P 21/M
;
_chemical_formula_sum "Si O2"
_cell_formula_units_Z 28
_cell_length_a 24.836591
_cell_length_b 7.522757
_cell_length_c 22.347671
_cell_angle_alpha 90.000000
_cell_angle_beta 162.037842
_cell_angle_gamma 90.000000
_cell_volume 1287.656025
_symmetry_space_group_name_H-M "P 21/M"
_symmetry_group_IT_number 11
_symmetry_cell_setting 'monoclinic'
loop_
_space_group_symop_operation_xyz
x,y,z
-x,1/2+y,-z
-x,-y,-z
x,1/2-y,z
loop_
_atom_site_type_symbol
_atom_site_label
_atom_site_fract_x
_atom_site_fract_y
_atom_site_fract_z
Si Si1 0.590223 0.963317 0.658908
Si Si2 0.974256 0.536572 0.042995
Si Si3 0.808545 0.453556 0.161830
Si Si4 0.207319 0.031785 0.592684
Si Si5 0.678416 0.035804 0.526198
Si Si6 0.548392 0.962316 0.256927
Si Si7 0.792591 0.539158 0.276571
O O1 0.599308 0.750000 0.674520
O O2 0.471623 0.031033 0.587567
O O3 0.500000 0.000000 0.500000
O O4 0.786814 0.033591 0.865282
O O5 0.971017 0.750000 0.045917
O O6 0.136487 0.469221 0.253238
O O7 0.000000 0.500000 0.000000
O O8 0.831764 0.250000 0.166705
O O9 0.739240 0.455528 0.157291
O O10 0.005400 0.529443 0.370132
O O11 0.649798 0.534656 0.956346
O O12 0.202858 0.250000 0.589502
O O13 0.329913 0.971737 0.668479
O O14 0.275344 0.976795 0.730560
O O15 0.681538 0.250000 0.534321
O O16 0.636091 0.992609 0.413382
O O17 0.534249 0.750000 0.233149
O O18 0.765584 0.750000 0.242899
O O19 0.000000 0.500000 0.500000
#
# Coordination Sequence:
#
# PCOD9162487 Si02
#       7
#     4   4   4   4   4   4   4
#     4  10  20  35  57  82 108 137 169 211 262 313
#     4  10  20  35  57  82 107 136 169 209 261 312
#     4   9  18  33  52  74 103 135 172 220 265 307
#     4   8  16  32  51  72 102 134 169 217 263 302
#     4  10  22  38  52  76 112 139 168 218 266 307
#     4  10  21  36  53  73 100 141 183 214 252 312
#     4   9  16  29  51  77 104 135 171 217 268 313
#
# _framework density 21.744937
#
# number of rings (size 3 to 8) (size 9 to 14) (size 15 to 20)
#    0.000    2.571    1.429    1.286    0.000    3.429 
#    0.000    3.571    0.000    0.000    0.000    0.000 
#    0.000    0.000    0.000    0.000    0.000    0.000 
#
# Total GULP energy -156280.049210 kJ/mol
# GULP energy per Si atom -5581.430329 kJ/mol
# Density = 2.169545 g / cm^3
# Si number density = 21.744937 Si / 1000 Ang^3
#
#
#
# Elastic Constant Matrix: (Units=GPa)
#
#
# Indices 1 2 3 4 5 6 
#
# 1 69.1941 -8.2964 22.2559 0.0000 7.5530 0.0000
# 2 -8.2964 60.7210 0.9824 0.0000 7.8346 0.0000
# 3 22.2559 0.9824 130.7200 0.0000 1.1886 0.0000
# 4 0.0000 0.0000 0.0000 10.6106 0.0000 -9.9979
# 5 7.5530 7.8346 1.1886 0.0000 36.1451 0.0000
# 6 0.0000 0.0000 0.0000 -9.9979 0.0000 21.1333
#
#
#
# Elastic Compliance Matrix: (Units=1/GPa)
#
#
# Indices 1 2 3 4 5 6 
#
# 1 0.016078 0.002739 -0.002723 0.000000 -0.003864 0.000000
# 2 0.002739 0.017410 -0.000558 0.000000 -0.004328 0.000000
# 3 -0.002723 -0.000558 0.008114 0.000000 0.000423 0.000000
# 4 0.000000 0.000000 0.000000 0.170047 0.000000 0.080447
# 5 -0.003864 -0.004328 0.000423 0.000000 0.029398 0.000000
# 6 0.000000 0.000000 0.000000 0.080447 0.000000 0.085377
#
#
# Mechanical properties :
#
#
# Convention : Reuss Voigt Hill
#
# Bulk Modulus (GPa) = 24.67932 32.27988 28.47960
# Shear Modulus (GPa) = 14.66215 29.95736 22.30976
#
# Velocity S-wave (km/s) = 2.59950 3.71573 3.20656
# Velocity P-wave (km/s) = 4.51486 5.76939 5.18024
#
# Compressibility (1/GPa) = 0.04051976
#
# Stress axis : x y z
#
# Youngs Moduli (GPa) = 62.19627 57.43664 123.24570
#
# Poissons Ratio (x) = -0.15734 0.33558
# Poissons Ratio (y) = -0.17038 0.06876
# Poissons Ratio (z) = 0.16935 0.03204
#
# Static dielectric constant tensor:
#      x y z
#    x 1.761250 0.000000 0.023150 
#    y 0.000000 1.820050 0.000000 
#    z 0.023150 0.000000 1.798740 
# 
# From -- ./inp_files/66721.got.cif
#   From: 2010.05.17/outbox.cif.g08.bks.cpg/sg11_34_cif.got.tgz:66721.got - 2010.06.03 12:22:45.
