data_PCOD9162152
_publ_section_title
;
Structure prediction by ZEFSAII (Michael W. Deem and Ramdas Pophale) SiO2 
 PCOD9162152
Probable space group: P 21/M
;
_chemical_formula_sum "Si O2"
_cell_formula_units_Z 28
_cell_length_a 15.338899
_cell_length_b 7.427733
_cell_length_c 12.694083
_cell_angle_alpha 90.000000
_cell_angle_beta 125.763665
_cell_angle_gamma 90.000000
_cell_volume 1173.560102
_symmetry_space_group_name_H-M "P 21/M"
_symmetry_group_IT_number 11
_symmetry_cell_setting 'monoclinic'
loop_
_space_group_symop_operation_xyz
x,y,z
-x,1/2+y,-z
-x,-y,-z
x,1/2-y,z
loop_
_atom_site_type_symbol
_atom_site_label
_atom_site_fract_x
_atom_site_fract_y
_atom_site_fract_z
Si Si1 0.168875 0.532625 0.538414
Si Si2 0.212923 0.457040 0.232696
Si Si3 0.024632 0.041703 0.234578
Si Si4 0.361528 0.531568 0.536812
Si Si5 0.596578 0.036869 0.989892
Si Si6 0.169300 0.970554 0.774745
Si Si7 0.593081 0.542900 0.749090
O O1 0.161447 0.750000 0.530479
O O2 0.093181 0.462876 0.391809
O O3 0.291195 0.485438 0.590736
O O4 0.139907 0.471562 0.635224
O O5 0.188408 0.250000 0.186739
O O6 0.101348 0.538111 0.197779
O O7 0.292320 0.463441 0.389942
O O8 0.291006 0.538471 0.199259
O O9 0.006802 0.250000 0.193396
O O10 0.911227 0.963884 0.191241
O O11 0.364066 0.750000 0.532776
O O12 0.483525 0.463583 0.624001
O O13 0.605304 0.250000 0.980787
O O14 0.709671 0.973813 0.116322
O O15 0.500000 0.000000 0.000000
O O16 0.577126 0.956391 0.862018
O O17 0.164581 0.750000 0.770921
O O18 0.597947 0.750000 0.715690
#
# Coordination Sequence:
#
# PCOD9162152 Si02
#       7
#     4   4   4   4   4   4   4
#     4   9  16  28  47  72  99 129 163 203 250 299
#     4   9  18  31  50  76 105 133 167 210 251 291
#     4   9  17  31  50  74 102 132 165 203 245 294
#     4   9  17  29  48  72 102 136 168 205 254 305
#     4  11  23  39  57  76  98 129 168 209 250 299
#     4   9  18  33  52  71  98 135 169 200 247 303
#     4  10  20  35  52  73 103 138 170 206 252 297
#
# _framework density 23.859027000000001
#
# number of rings (size 3 to 8) (size 9 to 14) (size 15 to 20)
#    0.000    2.571    0.000    2.143    0.000    3.429 
#    0.000    6.429    0.000    0.000    0.000    0.000 
#    0.000    0.000    0.000    0.000    0.000    0.000 
#
# Total GULP energy -156338.670487 kJ/mol
# GULP energy per Si atom -5583.523946 kJ/mol
# Density = 2.380472 g / cm^3
# Si number density = 23.859027 Si / 1000 Ang^3
#
#
#
# Elastic Constant Matrix: (Units=GPa)
#
#
# Indices 1 2 3 4 5 6 
#
# 1 219.1428 3.7780 17.7514 0.0000 -0.8725 0.0000
# 2 3.7780 81.6963 -13.8911 0.0000 1.4498 0.0000
# 3 17.7514 -13.8911 16.3940 0.0000 0.7942 0.0000
# 4 0.0000 0.0000 0.0000 9.5814 0.0000 -7.2645
# 5 -0.8725 1.4498 0.7942 0.0000 33.5721 0.0000
# 6 0.0000 0.0000 0.0000 -7.2645 0.0000 -4.6914
#
#
#
# Elastic Compliance Matrix: (Units=1/GPa)
#
#
# Indices 1 2 3 4 5 6 
#
# 1 0.005136 -0.001393 -0.006759 0.000000 0.000354 0.000000
# 2 -0.001393 0.014706 0.014018 0.000000 -0.001003 0.000000
# 3 -0.006759 0.014018 0.080324 0.000000 -0.002681 0.000000
# 4 0.000000 0.000000 0.000000 0.048007 0.000000 -0.074338
# 5 0.000354 -0.001003 -0.002681 0.000000 0.029903 0.000000
# 6 0.000000 0.000000 0.000000 -0.074338 0.000000 -0.098047
#
#
# Mechanical properties :
#
#
# Convention : Reuss Voigt Hill
#
# Bulk Modulus (GPa) = 8.93670 36.94553 22.94111
# Shear Modulus (GPa) = 47.35008 28.33208 37.84108
#
# Velocity S-wave (km/s) = 4.45969 3.44972 3.98682
# Velocity P-wave (km/s) = 5.50202 5.60232 5.55240
#
# Compressibility (1/GPa) = 0.11189816
#
# Stress axis : x y z
#
# Youngs Moduli (GPa) = 194.69829 67.99863 12.44960
#
# Poissons Ratio (x) = 0.09472 0.08415
# Poissons Ratio (y) = 0.27122 -0.17452
# Poissons Ratio (z) = 1.31594 -0.95320
#
# Static dielectric constant tensor:
#      x y z
#    x 1.959260 0.000000 0.020520 
#    y 0.000000 1.899640 0.000000 
#    z 0.020520 0.000000 1.847260 
# 
# From -- ./inp_files/37894.got.cif
#   From: 2010.05.17/outbox.cif.g08.bks.cpg/sg11_19_cif.got.tgz:37894.got - 2010.06.03 12:22:45.
