data_PCOD9162595
_publ_section_title
;
Structure prediction by ZEFSAII (Michael W. Deem and Ramdas Pophale) SiO2 
 PCOD9162595
Probable space group: P 21/M
;
_chemical_formula_sum "Si O2"
_cell_formula_units_Z 28
_cell_length_a 7.785646
_cell_length_b 13.274324
_cell_length_c 13.846388
_cell_angle_alpha 90.000000
_cell_angle_beta 101.839117
_cell_angle_gamma 90.000000
_cell_volume 1400.571795
_symmetry_space_group_name_H-M "P 21/M"
_symmetry_group_IT_number 11
_symmetry_cell_setting 'monoclinic'
loop_
_space_group_symop_operation_xyz
x,y,z
-x,1/2+y,-z
-x,-y,-z
x,1/2-y,z
loop_
_atom_site_type_symbol
_atom_site_label
_atom_site_fract_x
_atom_site_fract_y
_atom_site_fract_z
Si Si1 0.856138 0.129838 0.722624
Si Si2 0.361859 0.138207 0.222947
Si Si3 0.482561 0.998047 0.383957
Si Si4 0.504261 0.045639 0.894641
Si Si5 0.862544 0.363629 0.939493
Si Si6 0.943149 0.133417 0.162081
Si Si7 0.206789 0.461300 0.725431
O O1 0.830045 0.250000 0.719937
O O2 0.908317 0.096135 0.838460
O O3 0.028289 0.097957 0.683211
O O4 0.679539 0.073931 0.668165
O O5 0.416046 0.250000 0.198348
O O6 0.433456 0.107705 0.335911
O O7 0.432314 0.049473 0.162714
O O8 0.151681 0.134588 0.200978
O O9 0.500000 0.000000 0.500000
O O10 0.662534 0.967677 0.350293
O O11 0.652126 0.130309 0.910767
O O12 0.325706 0.084239 0.826108
O O13 0.500000 0.000000 0.000000
O O14 0.932368 0.250000 0.950812
O O15 0.911245 0.408614 0.049319
O O16 0.880283 0.250000 0.156476
O O17 0.850374 0.068656 0.234540
#
# Coordination Sequence:
#
# PCOD9162595 Si02
#       7
#     4   4   4   4   4   4   4
#     4  11  24  43  63  93 132 166 208 261 314 380
#     4  10  22  41  62  91 128 168 212 264 321 380
#     4  11  25  46  71  91 120 164 213 275 335 383
#     4  11  21  33  56  90 129 173 207 257 302 373
#     4  10  20  35  57  88 129 173 207 246 302 369
#     4  10  20  36  62  95 131 169 208 252 308 380
#     4  11  22  39  65  91 124 166 211 261 316 379
#
# _framework density 19.991834000000001
#
# number of rings (size 3 to 8) (size 9 to 14) (size 15 to 20)
#    0.000    1.429    5.714    0.000    2.000    6.286 
#    0.000    0.000    0.000    0.000    0.000    0.000 
#    0.000    0.000    0.000    0.000    0.000    0.000 
#
# Total GULP energy -156146.076065 kJ/mol
# GULP energy per Si atom -5576.645574 kJ/mol
# Density = 1.994633 g / cm^3
# Si number density = 19.991834 Si / 1000 Ang^3
#
#
#
# Elastic Constant Matrix: (Units=GPa)
#
#
# Indices 1 2 3 4 5 6 
#
# 1 122.9333 23.7035 41.3553 0.0000 -3.9110 0.0000
# 2 23.7035 74.8537 26.3873 0.0000 -0.1451 0.0000
# 3 41.3553 26.3873 118.3724 0.0000 -22.6680 0.0000
# 4 0.0000 0.0000 0.0000 16.8803 0.0000 3.4947
# 5 -3.9110 -0.1451 -22.6680 0.0000 24.3924 0.0000
# 6 0.0000 0.0000 0.0000 3.4947 0.0000 18.2555
#
#
#
# Elastic Compliance Matrix: (Units=1/GPa)
#
#
# Indices 1 2 3 4 5 6 
#
# 1 0.009524 -0.001898 -0.003180 0.000000 -0.001439 0.000000
# 2 -0.001898 0.015134 -0.003347 0.000000 -0.003325 0.000000
# 3 -0.003180 -0.003347 0.012413 0.000000 0.011005 0.000000
# 4 0.000000 0.000000 0.000000 0.061685 0.000000 -0.011808
# 5 -0.001439 -0.003325 0.011005 0.000000 0.050973 0.000000
# 6 0.000000 0.000000 0.000000 -0.011808 0.000000 0.057039
#
#
# Mechanical properties :
#
#
# Convention : Reuss Voigt Hill
#
# Bulk Modulus (GPa) = 49.45475 55.45016 52.45245
# Shear Modulus (GPa) = 21.70532 26.88653 24.29592
#
# Velocity S-wave (km/s) = 3.29858 3.67123 3.48989
# Velocity P-wave (km/s) = 6.26887 6.76515 6.52173
#
# Compressibility (1/GPa) = 0.02022051
#
# Stress axis : x y z
#
# Youngs Moduli (GPa) = 104.99325 66.07679 80.56338
#
# Poissons Ratio (x) = 0.12540 0.25620
# Poissons Ratio (y) = 0.19926 0.26967
# Poissons Ratio (z) = 0.33389 0.22118
#
# Static dielectric constant tensor:
#      x y z
#    x 1.745150 0.000000 -0.011120 
#    y 0.000000 1.739090 0.000000 
#    z -0.011120 0.000000 1.721320 
# 
# From -- ./inp_files/47502.got.cif
#   From: 2010.05.17/outbox.cif.g08.bks.cpg/sg11_24_cif.got.tgz:47502.got - 2010.06.03 12:22:45.
