data_PCOD9162339
_publ_section_title
;
Structure prediction by ZEFSAII (Michael W. Deem and Ramdas Pophale) SiO2 
 PCOD9162339
Probable space group: P 21/M
;
_chemical_formula_sum "Si O2"
_cell_formula_units_Z 24
_cell_length_a 10.917740
_cell_length_b 13.790558
_cell_length_c 8.457509
_cell_angle_alpha 90.000000
_cell_angle_beta 69.662861
_cell_angle_gamma 90.000000
_cell_volume 1193.999735
_symmetry_space_group_name_H-M "P 21/M"
_symmetry_group_IT_number 11
_symmetry_cell_setting 'monoclinic'
loop_
_space_group_symop_operation_xyz
x,y,z
-x,1/2+y,-z
-x,-y,-z
x,1/2-y,z
loop_
_atom_site_type_symbol
_atom_site_label
_atom_site_fract_x
_atom_site_fract_y
_atom_site_fract_z
Si Si1 0.578688 0.517037 0.263900
Si Si2 0.801178 0.481183 0.945825
Si Si3 0.016471 0.361632 0.992124
Si Si4 0.640650 0.365918 0.499158
Si Si5 0.781127 0.861469 0.377920
Si Si6 0.152766 0.523663 0.431137
O O1 0.587524 0.417661 0.362640
O O2 0.441791 0.572887 0.331975
O O3 0.671738 0.591165 0.317698
O O4 0.654072 0.500176 0.067366
O O5 0.809374 0.448804 0.762746
O O6 0.873075 0.405708 0.031515
O O7 0.893657 0.575608 0.930904
O O8 0.013396 0.250000 0.038574
O O9 0.087724 0.370346 0.787875
O O10 0.623527 0.250000 0.509530
O O11 0.790103 0.397011 0.471416
O O12 0.755558 0.750000 0.418992
O O13 0.786594 0.923076 0.533883
O O14 0.000000 0.500000 0.500000
#
# Coordination Sequence:
#
# PCOD9162339 Si02
#       6
#     4   4   4   4   4   4
#     4   9  20  39  61  85 111 148 196 245 283 329
#     4  10  20  35  55  82 121 147 187 239 283 337
#     4   9  18  32  53  80 110 152 193 230 276 331
#     4  10  22  40  62  84 112 152 196 237 287 346
#     4   9  17  33  56  79 111 153 192 230 279 337
#     4  11  22  36  54  85 123 153 184 231 292 343
#
# _framework density 20.100505999999999
#
# number of rings (size 3 to 8) (size 9 to 14) (size 15 to 20)
#    0.000    2.333    1.667    0.500    2.333    4.000 
#    0.000    0.000    0.000    0.000    0.000    0.000 
#    0.000    0.000    0.000    0.000    0.000    0.000 
#
# Total GULP energy -133795.387250 kJ/mol
# GULP energy per Si atom -5574.807802 kJ/mol
# Density = 2.005476 g / cm^3
# Si number density = 20.100506 Si / 1000 Ang^3
#
#
#
# Elastic Constant Matrix: (Units=GPa)
#
#
# Indices 1 2 3 4 5 6 
#
# 1 63.3288 20.1066 6.0871 0.0000 -8.4164 0.0000
# 2 20.1066 135.4986 -1.5872 0.0000 3.9523 0.0000
# 3 6.0871 -1.5872 37.5404 0.0000 -0.7663 0.0000
# 4 0.0000 0.0000 0.0000 17.2141 0.0000 -4.4426
# 5 -8.4164 3.9523 -0.7663 0.0000 27.3186 0.0000
# 6 0.0000 0.0000 0.0000 -4.4426 0.0000 7.3616
#
#
#
# Elastic Compliance Matrix: (Units=1/GPa)
#
#
# Indices 1 2 3 4 5 6 
#
# 1 0.017737 -0.002835 -0.002878 0.000000 0.005794 0.000000
# 2 -0.002835 0.007868 0.000752 0.000000 -0.001991 0.000000
# 3 -0.002878 0.000752 0.027132 0.000000 -0.000234 0.000000
# 4 0.000000 0.000000 0.000000 0.068808 0.000000 0.041525
# 5 0.005794 -0.001991 -0.000234 0.000000 0.038672 0.000000
# 6 0.000000 0.000000 0.000000 0.041525 0.000000 0.160899
#
#
# Mechanical properties :
#
#
# Convention : Reuss Voigt Hill
#
# Bulk Modulus (GPa) = 23.35626 31.73118 27.54372
# Shear Modulus (GPa) = 14.47979 24.49629 19.48804
#
# Velocity S-wave (km/s) = 2.68688 3.49476 3.11711
# Velocity P-wave (km/s) = 4.61202 5.66613 5.16603
#
# Compressibility (1/GPa) = 0.04281508
#
# Stress axis : x y z
#
# Youngs Moduli (GPa) = 56.37868 127.10261 36.85740
#
# Poissons Ratio (x) = 0.36030 0.10606
# Poissons Ratio (y) = 0.15982 -0.02770
# Poissons Ratio (z) = 0.16224 -0.09554
#
# Static dielectric constant tensor:
#      x y z
#    x 1.808000 0.000000 -0.064290 
#    y 0.000000 1.683810 0.000000 
#    z -0.064290 0.000000 1.742660 
# 
# From -- ./inp_files/17363.got.cif
#   From: 2010.05.17/outbox.cif.g08.bks.cpg/sg11_9_cif.got.tgz:17363.got - 2010.06.03 12:22:45.
