data_PCOD9162054
_publ_section_title
;
Structure prediction by ZEFSAII (Michael W. Deem and Ramdas Pophale) SiO2 
 PCOD9162054
Probable space group: P 21/M
;
_chemical_formula_sum "Si O2"
_cell_formula_units_Z 32
_cell_length_a 13.070003
_cell_length_b 11.482490
_cell_length_c 11.381054
_cell_angle_alpha 90.000000
_cell_angle_beta 95.608609
_cell_angle_gamma 90.000000
_cell_volume 1699.848311
_symmetry_space_group_name_H-M "P 21/M"
_symmetry_group_IT_number 11
_symmetry_cell_setting 'monoclinic'
loop_
_space_group_symop_operation_xyz
x,y,z
-x,1/2+y,-z
-x,-y,-z
x,1/2-y,z
loop_
_atom_site_type_symbol
_atom_site_label
_atom_site_fract_x
_atom_site_fract_y
_atom_site_fract_z
Si Si1 0.806938 0.993751 0.143529
Si Si2 0.024090 0.884418 0.171259
Si Si3 0.396065 0.126523 0.909594
Si Si4 0.950460 0.118006 0.546331
Si Si5 0.756872 0.119109 0.373941
Si Si6 0.479200 0.615156 0.577544
Si Si7 0.562910 0.957468 0.830133
Si Si8 0.757019 0.113498 0.905247
O O1 0.795963 0.035965 0.275513
O O2 0.923184 0.957626 0.128777
O O3 0.725230 0.890089 0.119290
O O4 0.765215 0.088098 0.045416
O O5 0.010320 0.750000 0.130291
O O6 0.033874 0.884501 0.313065
O O7 0.133222 0.926508 0.133900
O O8 0.431183 0.250000 0.866517
O O9 0.458964 0.028142 0.848825
O O10 0.420527 0.118574 0.050855
O O11 0.986019 0.250000 0.510308
O O12 0.831755 0.110781 0.493904
O O13 0.000000 0.000000 0.500000
O O14 0.766768 0.250000 0.327058
O O15 0.639750 0.103183 0.397642
O O16 0.500000 0.500000 0.500000
O O17 0.492398 0.750000 0.532092
O O18 0.546740 0.603863 0.704103
O O19 0.661044 0.043339 0.842110
O O20 0.744998 0.250000 0.880653
#
# Coordination Sequence:
#
# PCOD9162054 Si02
#       8
#     4   4   4   4   4   4   4   4
#     4  11  19  36  58  85 117 151 197 252 302 356
#     4  10  21  36  56  82 118 159 200 252 306 361
#     4  10  20  34  57  87 116 148 191 248 312 363
#     4  10  20  37  60  84 114 154 198 248 300 353
#     4  10  21  38  61  85 116 154 198 247 302 360
#     4  11  25  44  64  90 124 164 206 254 307 369
#     4  10  21  38  59  85 117 157 195 249 302 365
#     4  10  22  36  57  86 119 161 205 245 300 373
#
# _framework density 18.825209999999998
#
# number of rings (size 3 to 8) (size 9 to 14) (size 15 to 20)
#    0.000    1.750    2.500    1.875    1.750    1.000 
#    0.000    0.625    0.000    3.000    0.000    0.000 
#    0.000    0.000    0.000    0.000    0.000    0.000 
#
# Total GULP energy -178325.219493 kJ/mol
# GULP energy per Si atom -5572.663109 kJ/mol
# Density = 1.878236 g / cm^3
# Si number density = 18.825210 Si / 1000 Ang^3
#
#
#
# Elastic Constant Matrix: (Units=GPa)
#
#
# Indices 1 2 3 4 5 6 
#
# 1 103.0815 31.7644 8.1389 0.0000 10.3102 0.0000
# 2 31.7644 91.7276 23.4856 0.0000 -1.0820 0.0000
# 3 8.1389 23.4856 46.4029 0.0000 9.1976 0.0000
# 4 0.0000 0.0000 0.0000 10.1215 0.0000 -11.9348
# 5 10.3102 -1.0820 9.1976 0.0000 26.6626 0.0000
# 6 0.0000 0.0000 0.0000 -11.9348 0.0000 15.8178
#
#
#
# Elastic Compliance Matrix: (Units=1/GPa)
#
#
# Indices 1 2 3 4 5 6 
#
# 1 0.011440 -0.004321 0.001172 0.000000 -0.005004 0.000000
# 2 -0.004321 0.014368 -0.007472 0.000000 0.004831 0.000000
# 3 0.001172 -0.007472 0.027132 0.000000 -0.010116 0.000000
# 4 0.000000 0.000000 0.000000 0.895622 0.000000 0.675762
# 5 -0.005004 0.004831 -0.010116 0.000000 0.043126 0.000000
# 6 0.000000 0.000000 0.000000 0.675762 0.000000 0.573094
#
#
# Mechanical properties :
#
#
# Convention : Reuss Voigt Hill
#
# Bulk Modulus (GPa) = 31.54684 40.88777 36.21731
# Shear Modulus (GPa) = 3.13167 22.37526 12.75347
#
# Velocity S-wave (km/s) = 1.29119 3.45132 2.60564
# Velocity P-wave (km/s) = 4.36085 6.13588 5.32288
#
# Compressibility (1/GPa) = 0.03169889
#
# Stress axis : x y z
#
# Youngs Moduli (GPa) = 87.40924 69.59827 36.85736
#
# Poissons Ratio (x) = 0.30072 -0.04320
# Poissons Ratio (y) = 0.37768 0.27539
# Poissons Ratio (z) = -0.10245 0.52003
#
# Static dielectric constant tensor:
#      x y z
#    x 1.634980 0.000000 0.005980 
#    y 0.000000 1.728630 0.000000 
#    z 0.005980 0.000000 1.632850 
# 
# From -- ./inp_files/34825.got.cif
#   From: 2010.05.17/outbox.cif.g08.bks.cpg/sg11_18_cif.got.tgz:34825.got - 2010.06.03 12:22:45.
