data_PCOD9162949
_publ_section_title
;
Structure prediction by ZEFSAII (Michael W. Deem and Ramdas Pophale) SiO2 
 PCOD9162949
Probable space group: P 21/M
;
_chemical_formula_sum "Si O2"
_cell_formula_units_Z 32
_cell_length_a 23.085375
_cell_length_b 8.781069
_cell_length_c 28.893947
_cell_angle_alpha 90.000000
_cell_angle_beta 161.755292
_cell_angle_gamma 90.000000
_cell_volume 1833.754084
_symmetry_space_group_name_H-M "P 21/M"
_symmetry_group_IT_number 11
_symmetry_cell_setting 'monoclinic'
loop_
_space_group_symop_operation_xyz
x,y,z
-x,1/2+y,-z
-x,-y,-z
x,1/2-y,z
loop_
_atom_site_type_symbol
_atom_site_label
_atom_site_fract_x
_atom_site_fract_y
_atom_site_fract_z
Si Si1 0.285521 0.565563 0.087481
Si Si2 0.296335 0.067023 0.851587
Si Si3 0.296687 0.433228 0.351946
Si Si4 0.987146 0.432085 0.791782
Si Si5 0.983835 0.432812 0.288428
Si Si6 0.993485 0.432178 0.045805
Si Si7 0.712826 0.932878 0.404880
Si Si8 0.989253 0.068419 0.542742
O O1 0.271655 0.750000 0.072456
O O2 0.499757 0.521861 0.248484
O O3 0.165046 0.490934 0.955502
O O4 0.186065 0.522901 0.060241
O O5 0.303025 0.250000 0.860540
O O6 0.167169 0.027206 0.709378
O O7 0.191637 0.997669 0.816580
O O8 0.500000 0.000000 0.000000
O O9 0.500000 0.500000 0.500000
O O10 0.301653 0.250000 0.359363
O O11 0.169519 0.474372 0.211104
O O12 0.189870 0.500659 0.315227
O O13 0.980399 0.250000 0.787009
O O14 0.997793 0.494782 0.747963
O O15 0.969864 0.250000 0.274306
O O16 0.162652 0.470806 0.455835
O O17 0.991985 0.250000 0.040806
O O18 0.000000 0.500000 0.000000
O O19 0.719374 0.750000 0.404433
O O20 0.812252 0.007492 0.436444
O O21 0.981381 0.250000 0.533922
O O22 0.000000 0.000000 0.500000
#
# Coordination Sequence:
#
# PCOD9162949 Si02
#       8
#     4   4   4   4   4   4   4   4
#     4   9  19  37  56  77 107 141 177 220 265 314
#     4  10  21  37  56  80 108 141 180 224 269 318
#     4  10  21  38  57  80 109 142 180 223 268 317
#     4  11  22  36  55  81 110 143 181 221 265 317
#     4  10  20  36  57  81 109 143 179 221 270 320
#     4   9  19  34  53  78 108 140 176 217 263 313
#     4   9  19  36  58  80 104 137 178 220 267 317
#     4  10  21  36  55  79 108 139 174 216 264 316
#
# _framework density 17.450541000000001
#
# number of rings (size 3 to 8) (size 9 to 14) (size 15 to 20)
#    0.000    2.250    0.000    3.375    0.000    7.000 
#    0.000    2.500    0.000    0.000    0.000    0.000 
#    0.000    0.000    0.000    0.000    0.000    0.000 
#
# Total GULP energy -178635.720538 kJ/mol
# GULP energy per Si atom -5582.366267 kJ/mol
# Density = 1.741082 g / cm^3
# Si number density = 17.450541 Si / 1000 Ang^3
#
#
#
# Elastic Constant Matrix: (Units=GPa)
#
#
# Indices 1 2 3 4 5 6 
#
# 1 205.3241 69.3393 113.1049 0.0000 1.0456 0.0000
# 2 69.3393 61.5770 58.1781 0.0000 6.2914 0.0000
# 3 113.1049 58.1781 151.3078 0.0000 34.6549 0.0000
# 4 0.0000 0.0000 0.0000 28.2478 0.0000 1.4095
# 5 1.0456 6.2914 34.6549 0.0000 21.5298 0.0000
# 6 0.0000 0.0000 0.0000 1.4095 0.0000 37.8670
#
#
#
# Elastic Compliance Matrix: (Units=1/GPa)
#
#
# Indices 1 2 3 4 5 6 
#
# 1 0.014170 -0.005174 -0.013926 0.000000 0.023239 0.000000
# 2 -0.005174 0.030004 -0.009058 0.000000 0.006063 0.000000
# 3 -0.013926 -0.009058 0.031267 0.000000 -0.047005 0.000000
# 4 0.000000 0.000000 0.000000 0.035467 0.000000 -0.001320
# 5 0.023239 0.006063 -0.047005 0.000000 0.119208 0.000000
# 6 0.000000 0.000000 0.000000 -0.001320 0.000000 0.026457
#
#
# Mechanical properties :
#
#
# Convention : Reuss Voigt Hill
#
# Bulk Modulus (GPa) = 52.28136 99.93927 76.11032
# Shear Modulus (GPa) = 15.66099 29.36803 22.51451
#
# Velocity S-wave (km/s) = 2.99900 4.10680 3.59582
# Velocity P-wave (km/s) = 6.48203 8.93768 7.80701
#
# Compressibility (1/GPa) = 0.01912728
#
# Stress axis : x y z
#
# Youngs Moduli (GPa) = 70.56938 33.32854 31.98227
#
# Poissons Ratio (x) = 0.17244 0.44538
# Poissons Ratio (y) = 0.36513 0.28968
# Poissons Ratio (z) = 0.98273 0.30188
#
# Static dielectric constant tensor:
#      x y z
#    x 1.561600 0.000000 -0.002140 
#    y 0.000000 1.588880 0.000000 
#    z -0.002140 0.000000 1.579910 
# 
# From -- ./inp_files/72197.got.cif
#   From: 2010.05.17/outbox.cif.g08.bks.cpg/sg11_37_cif.got.tgz:72197.got - 2010.06.03 12:22:45.
