data_PCOD9162794
_publ_section_title
;
Structure prediction by ZEFSAII (Michael W. Deem and Ramdas Pophale) SiO2 
 PCOD9162794
Probable space group: P 21/M
;
_chemical_formula_sum "Si O2"
_cell_formula_units_Z 28
_cell_length_a 11.268750
_cell_length_b 15.539105
_cell_length_c 9.102238
_cell_angle_alpha 90.000000
_cell_angle_beta 56.475800
_cell_angle_gamma 90.000000
_cell_volume 1328.724843
_symmetry_space_group_name_H-M "P 21/M"
_symmetry_group_IT_number 11
_symmetry_cell_setting 'monoclinic'
loop_
_space_group_symop_operation_xyz
x,y,z
-x,1/2+y,-z
-x,-y,-z
x,1/2-y,z
loop_
_atom_site_type_symbol
_atom_site_label
_atom_site_fract_x
_atom_site_fract_y
_atom_site_fract_z
Si Si1 0.447380 0.516524 0.867544
Si Si2 0.293347 0.155571 0.941443
Si Si3 0.201855 0.848003 0.093213
Si Si4 0.271850 0.028399 0.485289
Si Si5 0.186954 0.845353 0.457298
Si Si6 0.139474 0.345705 0.350506
Si Si7 0.925162 0.916650 0.122316
O O1 0.396232 0.424080 0.843988
O O2 0.571108 0.552377 0.677723
O O3 0.500000 0.500000 0.000000
O O4 0.315638 0.581980 0.962348
O O5 0.353250 0.250000 0.868214
O O6 0.147505 0.141402 0.951974
O O7 0.250726 0.151389 0.141926
O O8 0.241037 0.750000 0.026889
O O9 0.198363 0.853009 0.272760
O O10 0.047330 0.869864 0.132845
O O11 0.169633 0.076035 0.437722
O O12 0.206664 0.056257 0.683880
O O13 0.262512 0.925846 0.477466
O O14 0.236575 0.750000 0.466508
O O15 0.018956 0.852567 0.604611
O O16 0.149025 0.250000 0.415410
O O17 0.000000 0.000000 0.000000
#
# Coordination Sequence:
#
# PCOD9162794 Si02
#       7
#     4   4   4   4   4   4   4
#     4  12  24  42  66 102 134 173 219 271 335 392
#     4  11  24  43  67  96 136 178 220 272 331 400
#     4  11  23  42  68  98 133 170 217 276 333 395
#     4  12  24  39  69  94 134 172 220 273 328 393
#     4  10  20  35  62  99 128 163 220 280 330 378
#     4  10  20  36  64 100 127 163 223 279 329 379
#     4  12  25  44  71  95 131 176 228 275 335 389
#
# _framework density 21.072835999999999
#
# number of rings (size 3 to 8) (size 9 to 14) (size 15 to 20)
#    0.000    0.857    5.714    1.714    0.000    2.857 
#    0.000    0.714    0.000    0.000    0.000    0.000 
#    0.000    0.000    0.000    0.000    0.000    0.000 
#
# Total GULP energy -156508.645754 kJ/mol
# GULP energy per Si atom -5589.594491 kJ/mol
# Density = 2.102487 g / cm^3
# Si number density = 21.072836 Si / 1000 Ang^3
#
#
#
# Elastic Constant Matrix: (Units=GPa)
#
#
# Indices 1 2 3 4 5 6 
#
# 1 54.9653 30.6885 15.1390 0.0000 -10.7967 0.0000
# 2 30.6885 115.2491 21.3618 0.0000 -0.4263 0.0000
# 3 15.1390 21.3618 83.1926 0.0000 -15.0622 0.0000
# 4 0.0000 0.0000 0.0000 8.7324 0.0000 2.2040
# 5 -10.7967 -0.4263 -15.0622 0.0000 30.4417 0.0000
# 6 0.0000 0.0000 0.0000 2.2040 0.0000 -15.1814
#
#
#
# Elastic Compliance Matrix: (Units=1/GPa)
#
#
# Indices 1 2 3 4 5 6 
#
# 1 0.023365 -0.005941 -0.001363 0.000000 0.007529 0.000000
# 2 -0.005941 0.010657 -0.002207 0.000000 -0.003050 0.000000
# 3 -0.001363 -0.002207 0.013996 0.000000 0.006411 0.000000
# 4 0.000000 0.000000 0.000000 0.110468 0.000000 0.016038
# 5 0.007529 -0.003050 0.006411 0.000000 0.038649 0.000000
# 6 0.000000 0.000000 0.000000 0.016038 0.000000 -0.063542
#
#
# Mechanical properties :
#
#
# Convention : Reuss Voigt Hill
#
# Bulk Modulus (GPa) = 34.48998 43.08727 38.78862
# Shear Modulus (GPa) = 30.81081 17.21306 24.01193
#
# Velocity S-wave (km/s) = 3.82790 2.86114 3.37927
# Velocity P-wave (km/s) = 5.99497 5.60411 5.80283
#
# Compressibility (1/GPa) = 0.02899393
#
# Stress axis : x y z
#
# Youngs Moduli (GPa) = 42.79964 93.83758 71.44982
#
# Poissons Ratio (x) = 0.55749 0.09740
# Poissons Ratio (y) = 0.25427 0.15772
# Poissons Ratio (z) = 0.05834 0.20714
#
# Static dielectric constant tensor:
#      x y z
#    x 1.756140 0.000000 -0.009330 
#    y 0.000000 1.757290 0.000000 
#    z -0.009330 0.000000 1.776790 
# 
# From -- ./inp_files/17927.got.cif
#   From: 2010.05.17/outbox.cif.g08.bks.cpg/sg11_9_cif.got.tgz:17927.got - 2010.06.03 12:22:45.
