data_PCOD9162279
_publ_section_title
;
Structure prediction by ZEFSAII (Michael W. Deem and Ramdas Pophale) SiO2 
 PCOD9162279
Probable space group: P 21/M
;
_chemical_formula_sum "Si O2"
_cell_formula_units_Z 28
_cell_length_a 10.005220
_cell_length_b 8.472208
_cell_length_c 19.402261
_cell_angle_alpha 90.000000
_cell_angle_beta 105.117406
_cell_angle_gamma 90.000000
_cell_volume 1587.742029
_symmetry_space_group_name_H-M "P 21/M"
_symmetry_group_IT_number 11
_symmetry_cell_setting 'monoclinic'
loop_
_space_group_symop_operation_xyz
x,y,z
-x,1/2+y,-z
-x,-y,-z
x,1/2-y,z
loop_
_atom_site_type_symbol
_atom_site_label
_atom_site_fract_x
_atom_site_fract_y
_atom_site_fract_z
Si Si1 0.154073 0.438963 0.503173
Si Si2 0.229707 0.940338 0.654059
Si Si3 0.130588 0.439190 0.059693
Si Si4 0.209944 0.442159 0.220874
Si Si5 0.431061 0.562278 0.060229
Si Si6 0.919308 0.557444 0.653450
Si Si7 0.516011 0.058899 0.217317
O O1 0.156090 0.250000 0.506589
O O2 0.246889 0.504994 0.577361
O O3 0.172367 0.487326 0.425817
O O4 0.000000 0.500000 0.500000
O O5 0.228416 0.750000 0.653831
O O6 0.352993 0.993846 0.720304
O O7 0.078250 0.992970 0.661086
O O8 0.131518 0.250000 0.058817
O O9 0.131717 0.490636 0.140253
O O10 0.274757 0.498699 0.047256
O O11 0.000000 0.500000 0.000000
O O12 0.207436 0.250000 0.222354
O O13 0.141499 0.498990 0.282337
O O14 0.370312 0.488619 0.232787
O O15 0.428225 0.750000 0.059030
O O16 0.512469 0.503979 0.139095
O O17 0.500000 0.500000 0.000000
O O18 0.921272 0.750000 0.655375
O O19 0.517649 0.250000 0.214364
#
# Coordination Sequence:
#
# PCOD9162279 Si02
#       7
#     4   4   4   4   4   4   4
#     4   9  16  27  45  67  93 123 158 201 246 290
#     4   9  17  29  47  70  96 126 160 198 243 296
#     4  10  20  35  55  79 105 136 172 212 260 313
#     4   8  15  29  48  68  93 126 162 198 242 295
#     4  11  22  37  56  77 104 137 172 214 259 307
#     4   8  14  26  45  68  90 119 160 200 238 286
#     4   9  18  33  51  71  97 129 163 201 247 301
#
# _framework density 17.635107000000001
#
# number of rings (size 3 to 8) (size 9 to 14) (size 15 to 20)
#    0.000    2.857    0.000    3.857    0.000    1.714 
#    0.000    3.571    0.000   21.429    0.000    0.000 
#    0.000    0.000    0.000    0.000    0.000    0.000 
#
# Total GULP energy -156008.641482 kJ/mol
# GULP energy per Si atom -5571.737196 kJ/mol
# Density = 1.759497 g / cm^3
# Si number density = 17.635107 Si / 1000 Ang^3
#
#
#
# Elastic Constant Matrix: (Units=GPa)
#
#
# Indices 1 2 3 4 5 6 
#
# 1 78.9944 21.2730 111.7439 0.0000 1.6593 0.0000
# 2 21.2730 31.1830 34.2053 0.0000 3.5320 0.0000
# 3 111.7439 34.2053 212.9914 0.0000 0.4617 0.0000
# 4 0.0000 0.0000 0.0000 28.4860 0.0000 2.7523
# 5 1.6593 3.5320 0.4617 0.0000 36.6209 0.0000
# 6 0.0000 0.0000 0.0000 2.7523 0.0000 17.5924
#
#
#
# Elastic Compliance Matrix: (Units=1/GPa)
#
#
# Indices 1 2 3 4 5 6 
#
# 1 0.050221 -0.006324 -0.025329 0.000000 -0.001346 0.000000
# 2 -0.006324 0.040223 -0.003134 0.000000 -0.003553 0.000000
# 3 -0.025329 -0.003134 0.018485 0.000000 0.001217 0.000000
# 4 0.000000 0.000000 0.000000 0.035644 0.000000 -0.005576
# 5 -0.001346 -0.003553 0.001217 0.000000 0.027695 0.000000
# 6 0.000000 0.000000 0.000000 -0.005576 0.000000 0.057715
#
#
# Mechanical properties :
#
#
# Convention : Reuss Voigt Hill
#
# Bulk Modulus (GPa) = 25.41037 73.06811 49.23924
# Shear Modulus (GPa) = 15.99101 26.93631 21.46366
#
# Velocity S-wave (km/s) = 3.01453 3.91247 3.49248
# Velocity P-wave (km/s) = 5.15333 7.86976 6.65169
#
# Compressibility (1/GPa) = 0.03935401
#
# Stress axis : x y z
#
# Youngs Moduli (GPa) = 19.91205 24.86116 54.09917
#
# Poissons Ratio (x) = 0.15721 1.37030
# Poissons Ratio (y) = 0.12592 0.16956
# Poissons Ratio (z) = 0.50436 0.07792
#
# Static dielectric constant tensor:
#      x y z
#    x 1.576830 0.000000 -0.001790 
#    y 0.000000 1.611830 0.000000 
#    z -0.001790 0.000000 1.618390 
# 
# From -- ./inp_files/49018.got.cif
#   From: 2010.05.17/outbox.cif.g08.bks.cpg/sg11_25_cif.got.tgz:49018.got - 2010.06.03 12:22:45.
