data_PCOD9162836
_publ_section_title
;
Structure prediction by ZEFSAII (Michael W. Deem and Ramdas Pophale) SiO2 
 PCOD9162836
Probable space group: P 21/M
;
_chemical_formula_sum "Si O2"
_cell_formula_units_Z 28
_cell_length_a 12.899584
_cell_length_b 8.418855
_cell_length_c 16.661024
_cell_angle_alpha 90.000000
_cell_angle_beta 55.407103
_cell_angle_gamma 90.000000
_cell_volume 1489.496036
_symmetry_space_group_name_H-M "P 21/M"
_symmetry_group_IT_number 11
_symmetry_cell_setting 'monoclinic'
loop_
_space_group_symop_operation_xyz
x,y,z
-x,1/2+y,-z
-x,-y,-z
x,1/2-y,z
loop_
_atom_site_type_symbol
_atom_site_label
_atom_site_fract_x
_atom_site_fract_y
_atom_site_fract_z
Si Si1 0.547446 0.938017 0.777031
Si Si2 0.975949 0.438923 0.254157
Si Si3 0.757498 0.942936 0.799248
Si Si4 0.495123 0.561379 0.379736
Si Si5 0.929192 0.062291 0.953012
Si Si6 0.292621 0.061600 0.590900
Si Si7 0.663792 0.938499 0.014233
O O1 0.555034 0.750000 0.758508
O O2 0.680294 0.996485 0.755611
O O3 0.508000 0.021155 0.712238
O O4 0.444818 0.971488 0.890851
O O5 0.987567 0.250000 0.235606
O O6 0.841835 0.477995 0.350794
O O7 0.097003 0.489938 0.254004
O O8 0.990400 0.524372 0.162094
O O9 0.754410 0.750000 0.799747
O O10 0.685335 0.991766 0.912723
O O11 0.483764 0.750000 0.396646
O O12 0.623391 0.510668 0.368811
O O13 0.379450 0.479152 0.476620
O O14 0.906821 0.250000 0.968799
O O15 0.796675 0.973309 0.998943
O O16 0.000000 0.000000 0.000000
O O17 0.272546 0.250000 0.604194
O O18 0.638461 0.750000 0.026181
#
# Coordination Sequence:
#
# PCOD9162836 Si02
#       7
#     4   4   4   4   4   4   4
#     4  11  21  35  57  84 114 148 191 233 279 332
#     4  10  20  37  60  83 111 148 186 226 282 336
#     4   8  18  36  56  81 113 150 189 233 274 327
#     4  10  22  39  58  83 113 144 183 232 285 335
#     4  11  22  36  53  79 113 148 188 232 276 329
#     4  10  21  39  61  84 111 143 184 231 284 340
#     4  10  20  36  55  79 113 151 190 231 280 329
#
# _framework density 18.798303000000001
#
# number of rings (size 3 to 8) (size 9 to 14) (size 15 to 20)
#    0.000    2.000    0.000    4.714    2.000    1.714 
#    0.000    8.571    0.000    0.000    0.000    0.000 
#    0.000    0.000    0.000    0.000    0.000    0.000 
#
# Total GULP energy -156354.649956 kJ/mol
# GULP energy per Si atom -5584.094641 kJ/mol
# Density = 1.875552 g / cm^3
# Si number density = 18.798303 Si / 1000 Ang^3
#
#
#
# Elastic Constant Matrix: (Units=GPa)
#
#
# Indices 1 2 3 4 5 6 
#
# 1 67.3874 -5.3863 39.8419 0.0000 0.1266 0.0000
# 2 -5.3863 28.9896 -2.5364 0.0000 4.6725 0.0000
# 3 39.8419 -2.5364 43.2203 0.0000 -8.9994 0.0000
# 4 0.0000 0.0000 0.0000 32.5552 0.0000 -5.3149
# 5 0.1266 4.6725 -8.9994 0.0000 23.8143 0.0000
# 6 0.0000 0.0000 0.0000 -5.3149 0.0000 18.5462
#
#
#
# Elastic Compliance Matrix: (Units=1/GPa)
#
#
# Indices 1 2 3 4 5 6 
#
# 1 0.037510 0.006202 -0.037456 0.000000 -0.015571 0.000000
# 2 0.006202 0.036666 -0.005503 0.000000 -0.009307 0.000000
# 3 -0.037456 -0.005503 0.062529 0.000000 0.024909 0.000000
# 4 0.000000 0.000000 0.000000 0.032225 0.000000 0.009235
# 5 -0.015571 -0.009307 0.024909 0.000000 0.053313 0.000000
# 6 0.000000 0.000000 0.000000 0.009235 0.000000 0.056566
#
#
# Mechanical properties :
#
#
# Convention : Reuss Voigt Hill
#
# Bulk Modulus (GPa) = 15.82527 22.60399 19.21463
# Shear Modulus (GPa) = 13.39090 22.16168 17.77629
#
# Velocity S-wave (km/s) = 2.67188 3.43726 3.07845
# Velocity P-wave (km/s) = 4.23737 5.27292 4.78325
#
# Compressibility (1/GPa) = 0.06319006
#
# Stress axis : x y z
#
# Youngs Moduli (GPa) = 26.65950 27.27324 15.99250
#
# Poissons Ratio (x) = -0.16915 0.59902
# Poissons Ratio (y) = -0.16534 0.08801
# Poissons Ratio (z) = 0.99857 0.15009
#
# Static dielectric constant tensor:
#      x y z
#    x 1.662910 0.000000 -0.002350 
#    y 0.000000 1.635990 0.000000 
#    z -0.002350 0.000000 1.618460 
# 
# From -- ./inp_files/37918.got.cif
#   From: 2010.05.17/outbox.cif.g08.bks.cpg/sg11_19_cif.got.tgz:37918.got - 2010.06.03 12:22:45.
