data_PCOD9162571
_publ_section_title
;
Structure prediction by ZEFSAII (Michael W. Deem and Ramdas Pophale) SiO2 
 PCOD9162571
Probable space group: P 21/M
;
_chemical_formula_sum "Si O2"
_cell_formula_units_Z 32
_cell_length_a 15.211004
_cell_length_b 8.895232
_cell_length_c 22.197796
_cell_angle_alpha 90.000000
_cell_angle_beta 31.753120
_cell_angle_gamma 90.000000
_cell_volume 1580.613059
_symmetry_space_group_name_H-M "P 21/M"
_symmetry_group_IT_number 11
_symmetry_cell_setting 'monoclinic'
loop_
_space_group_symop_operation_xyz
x,y,z
-x,1/2+y,-z
-x,-y,-z
x,1/2-y,z
loop_
_atom_site_type_symbol
_atom_site_label
_atom_site_fract_x
_atom_site_fract_y
_atom_site_fract_z
Si Si1 0.741722 0.425899 0.610722
Si Si2 0.041847 0.070399 0.788659
Si Si3 0.339561 0.919113 0.013005
Si Si4 0.501982 0.428525 0.333226
Si Si5 0.656576 0.084276 0.845966
Si Si6 0.868374 0.929603 0.123474
Si Si7 0.358273 0.930902 0.538559
Si Si8 0.101395 0.077569 0.365541
O O1 0.697841 0.250000 0.634975
O O2 0.594127 0.526510 0.671627
O O3 0.812539 0.475169 0.633988
O O4 0.905704 0.451547 0.473691
O O5 0.056909 0.250000 0.767645
O O6 0.078505 0.045550 0.837929
O O7 0.848681 0.029046 0.889501
O O8 0.178992 0.985632 0.668301
O O9 0.361124 0.750000 0.974392
O O10 0.363725 0.905480 0.070730
O O11 0.488911 0.031284 0.909555
O O12 0.505184 0.250000 0.340301
O O13 0.688027 0.494236 0.221687
O O14 0.404174 0.506771 0.445740
O O15 0.708665 0.250000 0.794937
O O16 0.797639 0.961075 0.752532
O O17 0.857030 0.750000 0.120584
O O18 0.000000 0.000000 0.000000
O O19 0.367325 0.750000 0.533581
O O20 0.500000 0.000000 0.500000
O O21 0.120254 0.250000 0.373061
#
# Coordination Sequence:
#
# PCOD9162571 Si02
#       8
#     4   4   4   4   4   4   4   4
#     4  10  22  40  61  89 121 156 203 253 301 360
#     4  10  22  41  64  91 121 161 208 259 313 369
#     4   9  20  38  58  84 117 155 202 251 303 360
#     4  12  25  42  65  93 127 166 209 255 312 371
#     4  10  20  35  57  85 118 158 200 249 302 358
#     4  11  24  43  66  90 125 164 210 261 311 370
#     4  12  24  40  64  94 128 164 204 256 313 371
#     4  10  21  38  60  86 120 160 200 248 304 362
#
# _framework density 20.24531
#
# number of rings (size 3 to 8) (size 9 to 14) (size 15 to 20)
#    0.000    1.500    1.250    3.750    1.750    4.000 
#    0.000    3.750    0.000    0.000    0.000    0.000 
#    0.000    0.000    0.000    0.000    0.000    0.000 
#
# Total GULP energy -178711.513033 kJ/mol
# GULP energy per Si atom -5584.734782 kJ/mol
# Density = 2.019923 g / cm^3
# Si number density = 20.245310 Si / 1000 Ang^3
#
#
#
# Elastic Constant Matrix: (Units=GPa)
#
#
# Indices 1 2 3 4 5 6 
#
# 1 47.8817 36.0252 17.9599 0.0000 -22.1652 0.0000
# 2 36.0252 110.2347 56.6433 0.0000 -12.4351 0.0000
# 3 17.9599 56.6433 86.2377 0.0000 -8.0367 0.0000
# 4 0.0000 0.0000 0.0000 33.2152 0.0000 0.0005
# 5 -22.1652 -12.4351 -8.0367 0.0000 33.0853 0.0000
# 6 0.0000 0.0000 0.0000 0.0005 0.0000 24.5712
#
#
#
# Elastic Compliance Matrix: (Units=1/GPa)
#
#
# Indices 1 2 3 4 5 6 
#
# 1 0.038869 -0.010714 0.001017 0.000000 0.022260 0.000000
# 2 -0.010714 0.016950 -0.009185 0.000000 -0.003038 0.000000
# 3 0.001017 -0.009185 0.017556 0.000000 0.001494 0.000000
# 4 0.000000 0.000000 0.000000 0.030107 0.000000 -0.000001
# 5 0.022260 -0.003038 0.001494 0.000000 0.044359 0.000000
# 6 0.000000 0.000000 0.000000 -0.000001 0.000000 0.040698
#
#
# Mechanical properties :
#
#
# Convention : Reuss Voigt Hill
#
# Bulk Modulus (GPa) = 28.08144 51.73456 39.90800
# Shear Modulus (GPa) = 20.99318 27.08939 24.04129
#
# Velocity S-wave (km/s) = 3.22365 3.66192 3.44975
# Velocity P-wave (km/s) = 5.26845 6.59461 5.96848
#
# Compressibility (1/GPa) = 0.03561070
#
# Stress axis : x y z
#
# Youngs Moduli (GPa) = 25.72755 58.99765 56.95987
#
# Poissons Ratio (x) = 0.63210 -0.05792
# Poissons Ratio (y) = 0.27564 0.52317
# Poissons Ratio (z) = -0.02616 0.54189
#
# Static dielectric constant tensor:
#      x y z
#    x 1.712300 0.000000 0.026430 
#    y 0.000000 1.703170 0.000000 
#    z 0.026430 0.000000 1.747540 
# 
# From -- ./inp_files/68960.got.cif
#   From: 2010.05.17/outbox.cif.g08.bks.cpg/sg11_35_cif.got.tgz:68960.got - 2010.06.03 12:22:45.
