data_PCOD9162346
_publ_section_title
;
Structure prediction by ZEFSAII (Michael W. Deem and Ramdas Pophale) SiO2 
 PCOD9162346
Probable space group: P 21/M
;
_chemical_formula_sum "Si O2"
_cell_formula_units_Z 32
_cell_length_a 25.606030
_cell_length_b 8.799278
_cell_length_c 15.414985
_cell_angle_alpha 90.000000
_cell_angle_beta 151.840288
_cell_angle_gamma 90.000000
_cell_volume 1639.120407
_symmetry_space_group_name_H-M "P 21/M"
_symmetry_group_IT_number 11
_symmetry_cell_setting 'monoclinic'
loop_
_space_group_symop_operation_xyz
x,y,z
-x,1/2+y,-z
-x,-y,-z
x,1/2-y,z
loop_
_atom_site_type_symbol
_atom_site_label
_atom_site_fract_x
_atom_site_fract_y
_atom_site_fract_z
Si Si1 0.802190 0.432921 0.846566
Si Si2 0.657076 0.431206 0.476891
Si Si3 0.573708 0.067854 0.817394
Si Si4 0.305813 0.930106 0.829223
Si Si5 0.979203 0.932699 0.739721
Si Si6 0.044832 0.570757 0.477527
Si Si7 0.382403 0.068505 0.296923
Si Si8 0.275175 0.068458 0.603910
O O1 0.794321 0.250000 0.845623
O O2 0.763644 0.467776 0.692435
O O3 0.714620 0.508395 0.783414
O O4 0.925834 0.479819 0.054077
O O5 0.640248 0.250000 0.453300
O O6 0.552512 0.512479 0.367457
O O7 0.670875 0.490690 0.400021
O O8 0.580507 0.250000 0.818540
O O9 0.634804 0.989887 0.826408
O O10 0.623448 0.024070 0.983687
O O11 0.322575 0.750000 0.838900
O O12 0.176989 0.953953 0.664399
O O13 0.327810 0.017721 0.772261
O O14 0.978251 0.750000 0.733183
O O15 0.854564 0.979680 0.582141
O O16 0.005056 0.996981 0.682263
O O17 0.023897 0.750000 0.446330
O O18 0.000000 0.500000 0.500000
O O19 0.388376 0.250000 0.308315
O O20 0.500000 0.000000 0.500000
O O21 0.281400 0.250000 0.604342
#
# Coordination Sequence:
#
# PCOD9162346 Si02
#       8
#     4   4   4   4   4   4   4   4
#     4  10  22  40  61  86 119 158 199 242 293 349
#     4  11  23  39  61  87 117 156 198 244 295 354
#     4  11  23  40  62  88 118 155 198 246 295 349
#     4   9  21  40  60  83 115 154 195 240 295 350
#     4   9  20  39  60  84 116 154 195 242 295 346
#     4  10  20  35  55  83 115 152 194 239 291 351
#     4  12  24  39  60  87 121 159 197 243 294 349
#     4  10  21  39  63  88 117 153 195 248 297 347
#
# _framework density 19.522666000000001
#
# number of rings (size 3 to 8) (size 9 to 14) (size 15 to 20)
#    0.000    1.750    1.250    2.625    1.750    4.000 
#    0.000    0.000    0.000    0.000    0.000    0.000 
#    0.000    0.000    0.000    0.000    0.000    0.000 
#
# Total GULP energy -178812.124562 kJ/mol
# GULP energy per Si atom -5587.878893 kJ/mol
# Density = 1.947823 g / cm^3
# Si number density = 19.522666 Si / 1000 Ang^3
#
#
#
# Elastic Constant Matrix: (Units=GPa)
#
#
# Indices 1 2 3 4 5 6 
#
# 1 62.4196 11.9477 -12.6982 0.0000 -21.5315 0.0000
# 2 11.9477 30.1325 14.1625 0.0000 -8.4931 0.0000
# 3 -12.6982 14.1625 74.9048 0.0000 -22.7225 0.0000
# 4 0.0000 0.0000 0.0000 25.1227 0.0000 -2.1926
# 5 -21.5315 -8.4931 -22.7225 0.0000 25.1474 0.0000
# 6 0.0000 0.0000 0.0000 -2.1926 0.0000 29.7905
#
#
#
# Elastic Compliance Matrix: (Units=1/GPa)
#
#
# Indices 1 2 3 4 5 6 
#
# 1 0.044975 -0.014453 0.028320 0.000000 0.059216 0.000000
# 2 -0.014453 0.042395 -0.013606 0.000000 -0.010350 0.000000
# 3 0.028320 -0.013606 0.036762 0.000000 0.052870 0.000000
# 4 0.000000 0.000000 0.000000 0.040062 0.000000 0.002949
# 5 0.059216 -0.010350 0.052870 0.000000 0.134743 0.000000
# 6 0.000000 0.000000 0.000000 0.002949 0.000000 0.033785
#
#
# Mechanical properties :
#
#
# Convention : Reuss Voigt Hill
#
# Bulk Modulus (GPa) = 8.02215 21.58676 14.80446
# Shear Modulus (GPa) = 13.37797 26.28178 19.82987
#
# Velocity S-wave (km/s) = 2.62057 3.67307 3.19052
# Velocity P-wave (km/s) = 3.64343 5.39164 4.60133
#
# Compressibility (1/GPa) = 0.12465486
#
# Stress axis : x y z
#
# Youngs Moduli (GPa) = 22.23480 23.58782 27.20208
#
# Poissons Ratio (x) = 0.34091 -0.77037
# Poissons Ratio (y) = 0.32135 0.37010
# Poissons Ratio (z) = -0.62969 0.32093
#
# Static dielectric constant tensor:
#      x y z
#    x 1.655600 0.000000 -0.002730 
#    y 0.000000 1.656650 0.000000 
#    z -0.002730 0.000000 1.706390 
# 
# From -- ./inp_files/56185.got.cif
#   From: 2010.05.17/outbox.cif.g08.bks.cpg/sg11_29_cif.got.tgz:56185.got - 2010.06.03 12:22:45.
