data_PCOD9162158
_publ_section_title
;
Structure prediction by ZEFSAII (Michael W. Deem and Ramdas Pophale) SiO2 
 PCOD9162158
Probable space group: P 21/M
;
_chemical_formula_sum "Si O2"
_cell_formula_units_Z 24
_cell_length_a 24.591198
_cell_length_b 8.514727
_cell_length_c 12.294065
_cell_angle_alpha 90.000000
_cell_angle_beta 147.433937
_cell_angle_gamma 90.000000
_cell_volume 1385.630592
_symmetry_space_group_name_H-M "P 21/M"
_symmetry_group_IT_number 11
_symmetry_cell_setting 'monoclinic'
loop_
_space_group_symop_operation_xyz
x,y,z
-x,1/2+y,-z
-x,-y,-z
x,1/2-y,z
loop_
_atom_site_type_symbol
_atom_site_label
_atom_site_fract_x
_atom_site_fract_y
_atom_site_fract_z
Si Si1 0.432930 0.933881 0.247460
Si Si2 0.887026 0.564389 0.304388
Si Si3 0.731957 0.438888 0.866478
Si Si4 0.643805 0.938917 0.512091
Si Si5 0.262682 0.933623 0.775782
Si Si6 0.612446 0.061095 0.219032
O O1 0.450460 0.750000 0.302112
O O2 0.368388 0.001388 0.238422
O O3 0.538926 0.002145 0.388396
O O4 0.357748 0.940704 0.018267
O O5 0.887631 0.750000 0.290283
O O6 0.826794 0.522517 0.313688
O O7 0.000000 0.500000 0.500000
O O8 0.824721 0.487967 0.099494
O O9 0.727939 0.250000 0.856383
O O10 0.729240 0.506979 0.740745
O O11 0.640419 0.750000 0.500637
O O12 0.646154 0.004763 0.394590
O O13 0.233808 0.750000 0.717174
O O14 0.306277 0.991891 0.734769
O O15 0.608549 0.250000 0.208170
O O16 0.500000 0.000000 0.000000
#
# Coordination Sequence:
#
# PCOD9162158 Si02
#       6
#     4   4   4   4   4   4
#     4   8  15  29  48  71 104 142 178 219 262 308
#     4  11  22  38  61  86 107 135 174 224 280 330
#     4  10  20  35  52  76 108 142 180 223 272 323
#     4  11  20  32  49  75 110 149 187 222 264 317
#     4   9  18  35  54  77 109 144 183 227 267 314
#     4  11  21  34  52  76 110 152 191 225 264 312
#
# _framework density 17.320633000000001
#
# number of rings (size 3 to 8) (size 9 to 14) (size 15 to 20)
#    0.000    2.000    1.667    4.500    0.000    1.333 
#    0.000    1.667    0.000    1.000    0.000    0.000 
#    0.000    0.000    0.000    0.000    0.000    0.000 
#
# Total GULP energy -133863.756339 kJ/mol
# GULP energy per Si atom -5577.656514 kJ/mol
# Density = 1.728121 g / cm^3
# Si number density = 17.320633 Si / 1000 Ang^3
#
#
#
# Elastic Constant Matrix: (Units=GPa)
#
#
# Indices 1 2 3 4 5 6 
#
# 1 116.5105 33.1888 74.2663 0.0000 -20.8265 0.0000
# 2 33.1888 58.7405 22.6381 0.0000 -2.9330 0.0000
# 3 74.2663 22.6381 69.0540 0.0000 -6.6971 0.0000
# 4 0.0000 0.0000 0.0000 25.8092 0.0000 -3.3863
# 5 -20.8265 -2.9330 -6.6971 0.0000 31.2811 0.0000
# 6 0.0000 0.0000 0.0000 -3.3863 0.0000 25.5433
#
#
#
# Elastic Compliance Matrix: (Units=1/GPa)
#
#
# Indices 1 2 3 4 5 6 
#
# 1 0.034287 -0.005690 -0.033543 0.000000 0.015112 0.000000
# 2 -0.005690 0.020437 -0.000778 0.000000 -0.002039 0.000000
# 3 -0.033543 -0.000778 0.049670 0.000000 -0.011772 0.000000
# 4 0.000000 0.000000 0.000000 0.039432 0.000000 0.005227
# 5 0.015112 -0.002039 -0.011772 0.000000 0.039318 0.000000
# 6 0.000000 0.000000 0.000000 0.005227 0.000000 0.039842
#
#
# Mechanical properties :
#
#
# Convention : Reuss Voigt Hill
#
# Bulk Modulus (GPa) = 41.03311 56.05461 48.54386
# Shear Modulus (GPa) = 16.07030 24.14081 20.10555
#
# Velocity S-wave (km/s) = 3.04931 3.73736 3.41073
# Velocity P-wave (km/s) = 6.01161 7.14542 6.60289
#
# Compressibility (1/GPa) = 0.02437056
#
# Stress axis : x y z
#
# Youngs Moduli (GPa) = 29.16600 48.93075 20.13279
#
# Poissons Ratio (x) = 0.27842 0.67532
# Poissons Ratio (y) = 0.16596 0.01566
# Poissons Ratio (z) = 0.97833 0.03807
#
# Static dielectric constant tensor:
#      x y z
#    x 1.609360 0.000000 -0.009600 
#    y 0.000000 1.598000 0.000000 
#    z -0.009600 0.000000 1.577250 
# 
# From -- ./inp_files/37251.got.cif
#   From: 2010.05.17/outbox.cif.g08.bks.cpg/sg11_19_cif.got.tgz:37251.got - 2010.06.03 12:22:45.
