data_PCOD9162734
_publ_section_title
;
Structure prediction by ZEFSAII (Michael W. Deem and Ramdas Pophale) SiO2 
 PCOD9162734
Probable space group: P 21/M
;
_chemical_formula_sum "Si O2"
_cell_formula_units_Z 16
_cell_length_a 5.486906
_cell_length_b 18.144476
_cell_length_c 6.766534
_cell_angle_alpha 90.000000
_cell_angle_beta 112.294096
_cell_angle_gamma 90.000000
_cell_volume 623.299468
_symmetry_space_group_name_H-M "P 21/M"
_symmetry_group_IT_number 11
_symmetry_cell_setting 'monoclinic'
loop_
_space_group_symop_operation_xyz
x,y,z
-x,1/2+y,-z
-x,-y,-z
x,1/2-y,z
loop_
_atom_site_type_symbol
_atom_site_label
_atom_site_fract_x
_atom_site_fract_y
_atom_site_fract_z
Si Si1 0.626451 0.095249 0.038874
Si Si2 0.207095 0.750000 0.847778
Si Si3 0.433478 0.911544 0.505007
Si Si4 0.590185 0.750000 0.584136
Si Si5 0.082292 0.468520 0.739992
O O1 0.698469 0.177463 0.015383
O O2 0.558269 0.093888 0.253077
O O3 0.877343 0.040559 0.111616
O O4 0.371607 0.066915 0.844676
O O5 0.355186 0.750000 0.678157
O O6 0.893143 0.750000 0.745899
O O7 0.569239 0.833547 0.485957
O O8 0.148633 0.909742 0.309649
O O9 0.500000 0.000000 0.500000
O O10 0.000000 0.500000 0.500000
#
# Coordination Sequence:
#
# PCOD9162734 Si02
#       5
#     4   2   4   2   4
#     4   9  19  35  60  88 126 169 216 269 324 392
#     4  10  20  39  62  91 128 170 216 272 332 386
#     4  10  20  35  59  90 128 171 217 270 331 392
#     4  10  22  39  64  95 130 170 222 278 328 396
#     4   9  18  35  58  87 121 164 212 260 323 389
#
# _framework density 25.669844000000001
#
# number of rings (size 3 to 8) (size 9 to 14) (size 15 to 20)
#    0.000    2.500    0.000    1.500    0.000    4.000 
#    0.000    8.750    0.000   30.000    0.000    0.000 
#    0.000    0.000    0.000    0.000    0.000    0.000 
#
# Total GULP energy -89144.018027 kJ/mol
# GULP energy per Si atom -5571.501127 kJ/mol
# Density = 2.561142 g / cm^3
# Si number density = 25.669844 Si / 1000 Ang^3
#
#
#
# Elastic Constant Matrix: (Units=GPa)
#
#
# Indices 1 2 3 4 5 6 
#
# 1 44.1367 36.4295 35.7644 0.0000 16.5819 0.0000
# 2 36.4295 277.7942 92.6397 0.0000 18.8392 0.0000
# 3 35.7644 92.6397 191.7011 0.0000 31.9238 0.0000
# 4 0.0000 0.0000 0.0000 48.6818 0.0000 4.5371
# 5 16.5819 18.8392 31.9238 0.0000 52.4228 0.0000
# 6 0.0000 0.0000 0.0000 4.5371 0.0000 36.4962
#
#
#
# Elastic Compliance Matrix: (Units=1/GPa)
#
#
# Indices 1 2 3 4 5 6 
#
# 1 0.029747 -0.002348 -0.003326 0.000000 -0.006540 0.000000
# 2 -0.002348 0.004481 -0.001762 0.000000 0.000205 0.000000
# 3 -0.003326 -0.001762 0.007131 0.000000 -0.002657 0.000000
# 4 0.000000 0.000000 0.000000 0.020782 0.000000 -0.002584
# 5 -0.006540 0.000205 -0.002657 0.000000 0.022689 0.000000
# 6 0.000000 0.000000 0.000000 -0.002584 0.000000 0.027721
#
#
# Mechanical properties :
#
#
# Convention : Reuss Voigt Hill
#
# Bulk Modulus (GPa) = 37.75336 93.69990 65.72663
# Shear Modulus (GPa) = 36.69657 50.77340 43.73498
#
# Velocity S-wave (km/s) = 3.78505 4.45223 4.13213
# Velocity P-wave (km/s) = 5.81733 7.93794 6.95889
#
# Compressibility (1/GPa) = 0.02648771
#
# Stress axis : x y z
#
# Youngs Moduli (GPa) = 33.61663 223.14879 140.23756
#
# Poissons Ratio (x) = 0.52404 0.46640
# Poissons Ratio (y) = 0.07894 0.24705
# Poissons Ratio (z) = 0.11180 0.39311
#
# Static dielectric constant tensor:
#      x y z
#    x 2.505800 0.000000 -0.132300 
#    y 0.000000 2.011240 0.000000 
#    z -0.132300 0.000000 1.995250 
# 
# From -- ./inp_files/10330.got.cif
#   From: 2010.05.17/outbox.cif.g08.bks.cpg/sg11_6_cif.got.tgz:10330.got - 2010.06.03 12:22:45.
