data_PCOD9162757
_publ_section_title
;
Structure prediction by ZEFSAII (Michael W. Deem and Ramdas Pophale) SiO2 
 PCOD9162757
Probable space group: P 21/M
;
_chemical_formula_sum "Si O2"
_cell_formula_units_Z 24
_cell_length_a 8.937702
_cell_length_b 26.197861
_cell_length_c 5.309965
_cell_angle_alpha 90.000000
_cell_angle_beta 98.141288
_cell_angle_gamma 90.000000
_cell_volume 1230.790908
_symmetry_space_group_name_H-M "P 21/M"
_symmetry_group_IT_number 11
_symmetry_cell_setting 'monoclinic'
loop_
_space_group_symop_operation_xyz
x,y,z
-x,1/2+y,-z
-x,-y,-z
x,1/2-y,z
loop_
_atom_site_type_symbol
_atom_site_label
_atom_site_fract_x
_atom_site_fract_y
_atom_site_fract_z
Si Si1 0.743755 0.860660 0.472957
Si Si2 0.873416 0.109866 0.942677
Si Si3 0.429283 0.584062 0.354122
Si Si4 0.669035 0.037830 0.163526
Si Si5 0.128902 0.310567 0.006257
Si Si6 0.094009 0.456904 0.664238
O O1 0.572457 0.879450 0.401848
O O2 0.798667 0.830155 0.238620
O O3 0.845131 0.912157 0.501153
O O4 0.771455 0.829437 0.733672
O O5 0.727689 0.114840 0.725738
O O6 0.967727 0.160969 0.000927
O O7 0.988284 0.069329 0.845914
O O8 0.798327 0.082449 0.164838
O O9 0.415135 0.550279 0.599808
O O10 0.430285 0.547703 0.108163
O O11 0.760835 0.985395 0.185592
O O12 0.114425 0.250000 0.001413
O O13 0.000000 0.500000 0.500000
#
# Coordination Sequence:
#
# PCOD9162757 Si02
#       6
#     4   4   4   4   4   4
#     4  11  25  41  63  90 126 161 201 255 305 362
#     4   9  22  37  64  88 124 156 205 254 297 355
#     4  10  22  38  59  87 129 158 196 245 302 354
#     4  10  20  35  60  90 128 162 200 235 297 360
#     4  11  24  44  67  87 112 155 209 258 310 363
#     4  11  19  37  60  93 128 169 205 242 295 364
#
# _framework density 19.499656000000002
#
# number of rings (size 3 to 8) (size 9 to 14) (size 15 to 20)
#    1.000    0.667    1.667    3.000    2.333    5.333 
#    0.000    1.667    0.000    0.000    0.000    0.000 
#    0.000    0.000    0.000    0.000    0.000    0.000 
#
# Total GULP energy -134033.316556 kJ/mol
# GULP energy per Si atom -5584.721523 kJ/mol
# Density = 1.945527 g / cm^3
# Si number density = 19.499656 Si / 1000 Ang^3
#
#
#
# Elastic Constant Matrix: (Units=GPa)
#
#
# Indices 1 2 3 4 5 6 
#
# 1 98.0463 54.1055 35.5335 0.0000 8.6387 0.0000
# 2 54.1055 145.5662 51.3041 0.0000 6.2728 0.0000
# 3 35.5335 51.3041 117.7238 0.0000 6.3824 0.0000
# 4 0.0000 0.0000 0.0000 22.8565 0.0000 3.3097
# 5 8.6387 6.2728 6.3824 0.0000 25.1736 0.0000
# 6 0.0000 0.0000 0.0000 3.3097 0.0000 17.2539
#
#
#
# Elastic Compliance Matrix: (Units=1/GPa)
#
#
# Indices 1 2 3 4 5 6 
#
# 1 0.013525 -0.004152 -0.002106 0.000000 -0.003073 0.000000
# 2 -0.004152 0.009424 -0.002843 0.000000 -0.000203 0.000000
# 3 -0.002106 -0.002843 0.010435 0.000000 -0.001215 0.000000
# 4 0.000000 0.000000 0.000000 0.045001 0.000000 -0.008632
# 5 -0.003073 -0.000203 -0.001215 0.000000 0.041137 0.000000
# 6 0.000000 0.000000 0.000000 -0.008632 0.000000 0.059614
#
#
# Mechanical properties :
#
#
# Convention : Reuss Voigt Hill
#
# Bulk Modulus (GPa) = 65.87074 71.46917 68.66996
# Shear Modulus (GPa) = 24.70388 27.74967 26.22677
#
# Velocity S-wave (km/s) = 3.56320 3.77647 3.67138
# Velocity P-wave (km/s) = 7.12617 7.46637 7.29825
#
# Compressibility (1/GPa) = 0.01518125
#
# Stress axis : x y z
#
# Youngs Moduli (GPa) = 73.93906 106.11590 95.83329
#
# Poissons Ratio (x) = 0.44062 0.20183
# Poissons Ratio (y) = 0.30702 0.27241
# Poissons Ratio (z) = 0.15572 0.30164
#
# Static dielectric constant tensor:
#      x y z
#    x 1.720820 0.000000 0.023700 
#    y 0.000000 1.653320 0.000000 
#    z 0.023700 0.000000 1.699550 
# 
# From -- ./inp_files/2725.got.cif
#   From: 2010.05.17/outbox.cif.g08.bks.cpg/sg11_2_cif.got.tgz:2725.got - 2010.06.03 12:22:45.
