data_PCOD9162144
_publ_section_title
;
Structure prediction by ZEFSAII (Michael W. Deem and Ramdas Pophale) SiO2 
 PCOD9162144
Probable space group: P 21/M
;
_chemical_formula_sum "Si O2"
_cell_formula_units_Z 28
_cell_length_a 16.941422
_cell_length_b 7.582919
_cell_length_c 14.539995
_cell_angle_alpha 90.000000
_cell_angle_beta 39.026486
_cell_angle_gamma 90.000000
_cell_volume 1176.170114
_symmetry_space_group_name_H-M "P 21/M"
_symmetry_group_IT_number 11
_symmetry_cell_setting 'monoclinic'
loop_
_space_group_symop_operation_xyz
x,y,z
-x,1/2+y,-z
-x,-y,-z
x,1/2-y,z
loop_
_atom_site_type_symbol
_atom_site_label
_atom_site_fract_x
_atom_site_fract_y
_atom_site_fract_z
Si Si1 0.804477 0.454326 0.792932
Si Si2 0.490984 0.444845 0.612693
Si Si3 0.416256 0.466741 0.865995
Si Si4 0.137763 0.540853 0.915870
Si Si5 0.613162 0.039019 0.826739
Si Si6 0.760941 0.544706 0.368223
Si Si7 0.969901 0.033239 0.799802
O O1 0.834002 0.250000 0.746724
O O2 0.740066 0.532427 0.759398
O O3 0.921642 0.528897 0.744165
O O4 0.693237 0.462508 0.969906
O O5 0.500000 0.500000 0.500000
O O6 0.440011 0.250000 0.657335
O O7 0.413407 0.535703 0.764005
O O8 0.636252 0.447456 0.511621
O O9 0.410136 0.250000 0.874768
O O10 0.550618 0.520828 0.788600
O O11 0.157119 0.750000 0.900918
O O12 0.225166 0.469863 0.755586
O O13 0.124344 0.474382 0.032739
O O14 0.000000 0.500000 0.000000
O O15 0.628555 0.250000 0.807483
O O16 0.500000 0.000000 0.000000
O O17 0.745825 0.750000 0.403960
O O18 0.889880 0.480265 0.297937
O O19 0.968292 0.250000 0.802395
#
# Coordination Sequence:
#
# PCOD9162144 Si02
#       7
#     4   4   4   4   4   4   4
#     4   9  16  28  51  80 103 127 158 196 242 297
#     4  11  24  39  53  70  96 131 172 211 247 293
#     4   9  19  34  49  71 101 131 161 202 249 293
#     4   9  16  28  45  67  95 129 165 203 243 287
#     4   8  14  27  48  72  99 127 157 193 242 295
#     4  10  20  35  51  68  96 131 169 208 249 295
#     4   8  16  29  47  73 100 125 157 200 244 288
#
# _framework density 23.806079
#
# number of rings (size 3 to 8) (size 9 to 14) (size 15 to 20)
#    0.000    2.857    0.000    2.143    2.000    1.143 
#    0.000    3.571    0.000    0.857    0.000    0.000 
#    0.000    0.000    0.000    0.000    0.000    0.714 
#
# Total GULP energy -156086.027837 kJ/mol
# GULP energy per Si atom -5574.500994 kJ/mol
# Density = 2.375190 g / cm^3
# Si number density = 23.806079 Si / 1000 Ang^3
#
#
#
# Elastic Constant Matrix: (Units=GPa)
#
#
# Indices 1 2 3 4 5 6 
#
# 1 116.7960 6.6474 -4.5171 0.0000 -7.4881 0.0000
# 2 6.6474 63.8373 -8.0699 0.0000 0.7309 0.0000
# 3 -4.5171 -8.0699 33.3636 0.0000 -7.6248 0.0000
# 4 0.0000 0.0000 0.0000 11.1643 0.0000 -4.7439
# 5 -7.4881 0.7309 -7.6248 0.0000 33.6973 0.0000
# 6 0.0000 0.0000 0.0000 -4.7439 0.0000 13.3430
#
#
#
# Elastic Compliance Matrix: (Units=1/GPa)
#
#
# Indices 1 2 3 4 5 6 
#
# 1 0.008813 -0.000749 0.001543 0.000000 0.002324 0.000000
# 2 -0.000749 0.016233 0.003908 0.000000 0.000366 0.000000
# 3 0.001543 0.003908 0.032887 0.000000 0.007699 0.000000
# 4 0.000000 0.000000 0.000000 0.105511 0.000000 0.037513
# 5 0.002324 0.000366 0.007699 0.000000 0.031927 0.000000
# 6 0.000000 0.000000 0.000000 0.037513 0.000000 0.088283
#
#
# Mechanical properties :
#
#
# Convention : Reuss Voigt Hill
#
# Bulk Modulus (GPa) = 14.85063 22.45754 18.65409
# Shear Modulus (GPa) = 16.85232 26.30332 21.57782
#
# Velocity S-wave (km/s) = 2.66353 3.32761 3.01391
# Velocity P-wave (km/s) = 3.96369 4.92118 4.46816
#
# Compressibility (1/GPa) = 0.06733719
#
# Stress axis : x y z
#
# Youngs Moduli (GPa) = 113.46547 61.60389 30.40745
#
# Poissons Ratio (x) = 0.04616 -0.04692
# Poissons Ratio (y) = 0.08502 -0.11885
# Poissons Ratio (z) = -0.17509 -0.24078
#
# Static dielectric constant tensor:
#      x y z
#    x 2.030130 0.000000 0.027340 
#    y 0.000000 1.874750 0.000000 
#    z 0.027340 0.000000 1.900920 
# 
# From -- ./inp_files/53216.got.cif
#   From: 2010.05.17/outbox.cif.g08.bks.cpg/sg11_27_cif.got.tgz:53216.got - 2010.06.03 12:22:45.
