data_PCOD9162011
_publ_section_title
;
Structure prediction by ZEFSAII (Michael W. Deem and Ramdas Pophale) SiO2 
 PCOD9162011
Probable space group: P 21/M
;
_chemical_formula_sum "Si O2"
_cell_formula_units_Z 32
_cell_length_a 22.244203
_cell_length_b 8.758399
_cell_length_c 28.677532
_cell_angle_alpha 90.000000
_cell_angle_beta 18.727693
_cell_angle_gamma 90.000000
_cell_volume 1793.841724
_symmetry_space_group_name_H-M "P 21/M"
_symmetry_group_IT_number 11
_symmetry_cell_setting 'monoclinic'
loop_
_space_group_symop_operation_xyz
x,y,z
-x,1/2+y,-z
-x,-y,-z
x,1/2-y,z
loop_
_atom_site_type_symbol
_atom_site_label
_atom_site_fract_x
_atom_site_fract_y
_atom_site_fract_z
Si Si1 0.375670 0.431836 0.451926
Si Si2 0.318348 0.930710 0.852892
Si Si3 0.304767 0.433644 0.161040
Si Si4 0.391618 0.568228 0.292767
Si Si5 0.800001 0.433267 0.661847
Si Si6 0.556709 0.932162 0.408564
Si Si7 0.951288 0.068569 0.086303
Si Si8 0.083778 0.567415 0.597510
O O1 0.373343 0.250000 0.460051
O O2 0.546636 0.468266 0.290481
O O3 0.417203 0.512962 0.470110
O O4 0.188219 0.486348 0.563476
O O5 0.280871 0.750000 0.879176
O O6 0.437626 0.976686 0.810415
O O7 0.127259 0.023288 0.988968
O O8 0.310742 0.250000 0.157403
O O9 0.262488 0.495153 0.243681
O O10 0.128369 0.478797 0.257913
O O11 0.500000 0.500000 0.000000
O O12 0.428054 0.750000 0.269834
O O13 0.341867 0.531459 0.276264
O O14 0.210104 0.536173 0.458652
O O15 0.813018 0.250000 0.656228
O O16 0.000000 0.500000 0.500000
O O17 0.559763 0.750000 0.408255
O O18 0.500000 0.000000 0.500000
O O19 0.760583 0.995420 0.244820
O O20 0.929480 0.250000 0.098818
O O21 0.000000 0.000000 0.000000
O O22 0.088910 0.750000 0.601362
#
# Coordination Sequence:
#
# PCOD9162011 Si02
#       8
#     4   4   4   4   4   4   4   4
#     4  10  20  35  58  88 119 151 197 245 291 349
#     4  10  20  34  56  88 121 153 195 246 296 346
#     4  11  23  40  59  86 120 158 200 246 296 355
#     4   9  18  34  55  83 117 152 193 243 298 352
#     4  11  21  36  59  87 118 153 194 243 294 349
#     4  12  25  42  63  88 122 160 198 244 295 352
#     4  12  23  38  61  89 120 155 196 242 292 347
#     4   9  18  35  57  82 115 152 195 242 294 352
#
# _framework density 17.838808
#
# number of rings (size 3 to 8) (size 9 to 14) (size 15 to 20)
#    0.000    1.500    2.500    3.750    0.000    3.000 
#    0.000    1.250    0.000    4.500    0.000    0.000 
#    0.000    0.000    0.000    0.000    0.000    0.000 
#
# Total GULP energy -178801.599469 kJ/mol
# GULP energy per Si atom -5587.549983 kJ/mol
# Density = 1.779821 g / cm^3
# Si number density = 17.838808 Si / 1000 Ang^3
#
#
#
# Elastic Constant Matrix: (Units=GPa)
#
#
# Indices 1 2 3 4 5 6 
#
# 1 148.1350 75.4188 77.5125 0.0000 -7.0879 0.0000
# 2 75.4188 100.9287 56.3431 0.0000 -4.8713 0.0000
# 3 77.5125 56.3431 119.0475 0.0000 -4.5340 0.0000
# 4 0.0000 0.0000 0.0000 30.7263 0.0000 -2.8919
# 5 -7.0879 -4.8713 -4.5340 0.0000 28.9544 0.0000
# 6 0.0000 0.0000 0.0000 -2.8919 0.0000 35.5933
#
#
#
# Elastic Compliance Matrix: (Units=1/GPa)
#
#
# Indices 1 2 3 4 5 6 
#
# 1 0.012952 -0.006711 -0.005211 0.000000 0.001226 0.000000
# 2 -0.006711 0.016989 -0.003647 0.000000 0.000644 0.000000
# 3 -0.005211 -0.003647 0.013527 0.000000 0.000229 0.000000
# 4 0.000000 0.000000 0.000000 0.032796 0.000000 0.002665
# 5 0.001226 0.000644 0.000229 0.000000 0.034981 0.000000
# 6 0.000000 0.000000 0.000000 0.002665 0.000000 0.028312
#
#
# Mechanical properties :
#
#
# Convention : Reuss Voigt Hill
#
# Bulk Modulus (GPa) = 81.08428 87.40666 84.24547
# Shear Modulus (GPa) = 28.60318 29.64390 29.12354
#
# Velocity S-wave (km/s) = 4.00862 4.08090 4.04492
# Velocity P-wave (km/s) = 8.18401 8.44449 8.31527
#
# Compressibility (1/GPa) = 0.01233285
#
# Stress axis : x y z
#
# Youngs Moduli (GPa) = 77.20682 58.85995 73.92385
#
# Poissons Ratio (x) = 0.39498 0.38519
# Poissons Ratio (y) = 0.51810 0.26960
# Poissons Ratio (z) = 0.40229 0.21466
#
# Static dielectric constant tensor:
#      x y z
#    x 1.685180 0.000000 0.056770 
#    y 0.000000 1.598490 0.000000 
#    z 0.056770 0.000000 1.661240 
# 
# From -- ./inp_files/72011.got.cif
#   From: 2010.05.17/outbox.cif.g08.bks.cpg/sg11_37_cif.got.tgz:72011.got - 2010.06.03 12:22:45.
