data_PCOD9162453
_publ_section_title
;
Structure prediction by ZEFSAII (Michael W. Deem and Ramdas Pophale) SiO2 
 PCOD9162453
Probable space group: P 21/M
;
_chemical_formula_sum "Si O2"
_cell_formula_units_Z 28
_cell_length_a 30.920738
_cell_length_b 8.633027
_cell_length_c 10.496675
_cell_angle_alpha 90.000000
_cell_angle_beta 33.749956
_cell_angle_gamma 90.000000
_cell_volume 1556.693709
_symmetry_space_group_name_H-M "P 21/M"
_symmetry_group_IT_number 11
_symmetry_cell_setting 'monoclinic'
loop_
_space_group_symop_operation_xyz
x,y,z
-x,1/2+y,-z
-x,-y,-z
x,1/2-y,z
loop_
_atom_site_type_symbol
_atom_site_label
_atom_site_fract_x
_atom_site_fract_y
_atom_site_fract_z
Si Si1 0.580124 0.062947 0.650220
Si Si2 0.737319 0.063175 0.140193
Si Si3 0.166533 0.435555 0.329951
Si Si4 0.996552 0.065434 0.364903
Si Si5 0.240117 0.437343 0.417863
Si Si6 0.843054 0.435496 0.127290
Si Si7 0.407136 0.436900 0.095813
O O1 0.582387 0.250000 0.650917
O O2 0.648737 0.014695 0.387294
O O3 0.597930 0.000059 0.747861
O O4 0.491657 0.014709 0.835262
O O5 0.740055 0.250000 0.118587
O O6 0.788807 0.024016 0.138799
O O7 0.775121 0.985919 0.924972
O O8 0.158891 0.250000 0.348407
O O9 0.082874 0.508642 0.505088
O O10 0.200324 0.485916 0.383647
O O11 0.997420 0.250000 0.368884
O O12 0.000000 0.000000 0.500000
O O13 0.072014 0.005009 0.105564
O O14 0.237943 0.250000 0.428385
O O15 0.195313 0.501902 0.650100
O O16 0.330598 0.486288 0.206945
O O17 0.848076 0.250000 0.120447
O O18 0.407018 0.250000 0.101927
#
# Coordination Sequence:
#
# PCOD9162453 Si02
#       7
#     4   4   4   4   4   4   4
#     4   9  17  31  53  83 113 144 186 234 280 328
#     4  10  20  35  56  84 115 148 190 235 281 336
#     4  11  24  40  59  82 115 154 191 233 284 339
#     4  12  24  40  62  87 114 145 187 236 285 336
#     4  10  22  39  57  84 118 154 192 232 283 338
#     4  11  22  37  61  88 115 149 189 233 282 337
#     4   9  17  31  54  81 113 148 184 231 280 328
#
# _framework density 17.986840000000001
#
# number of rings (size 3 to 8) (size 9 to 14) (size 15 to 20)
#    0.000    1.714    2.857    2.143    0.000    2.857 
#    0.000    0.714    0.000    0.000    0.000    0.000 
#    0.000    0.000    0.000    0.000    0.000    0.000 
#
# Total GULP energy -156356.366751 kJ/mol
# GULP energy per Si atom -5584.155955 kJ/mol
# Density = 1.794590 g / cm^3
# Si number density = 17.986840 Si / 1000 Ang^3
#
#
#
# Elastic Constant Matrix: (Units=GPa)
#
#
# Indices 1 2 3 4 5 6 
#
# 1 152.5635 41.7333 85.9755 0.0000 -9.3515 0.0000
# 2 41.7333 31.6565 36.7634 0.0000 -2.0926 0.0000
# 3 85.9755 36.7634 150.0037 0.0000 -18.6456 0.0000
# 4 0.0000 0.0000 0.0000 30.2033 0.0000 2.1699
# 5 -9.3515 -2.0926 -18.6456 0.0000 33.5323 0.0000
# 6 0.0000 0.0000 0.0000 2.1699 0.0000 19.3329
#
#
#
# Elastic Compliance Matrix: (Units=1/GPa)
#
#
# Indices 1 2 3 4 5 6 
#
# 1 0.011847 -0.010848 -0.004088 0.000000 0.000354 0.000000
# 2 -0.010848 0.054477 -0.007613 0.000000 -0.003859 0.000000
# 3 -0.004088 -0.007613 0.011467 0.000000 0.004761 0.000000
# 4 0.000000 0.000000 0.000000 0.033378 0.000000 -0.003746
# 5 0.000354 -0.003859 0.004761 0.000000 0.032327 0.000000
# 6 0.000000 0.000000 0.000000 -0.003746 0.000000 0.052146
#
#
# Mechanical properties :
#
#
# Convention : Reuss Voigt Hill
#
# Bulk Modulus (GPa) = 30.58769 73.68535 52.13652
# Shear Modulus (GPa) = 19.86978 27.93048 23.90013
#
# Velocity S-wave (km/s) = 3.32729 3.94487 3.64917
# Velocity P-wave (km/s) = 5.63947 7.86158 6.84135
#
# Compressibility (1/GPa) = 0.03269289
#
# Stress axis : x y z
#
# Youngs Moduli (GPa) = 84.40690 18.35648 87.20569
#
# Poissons Ratio (x) = 0.19913 0.35647
# Poissons Ratio (y) = 0.91565 0.66393
# Poissons Ratio (z) = 0.34503 0.13976
#
# Static dielectric constant tensor:
#      x y z
#    x 1.600350 0.000000 -0.029420 
#    y 0.000000 1.606870 0.000000 
#    z -0.029420 0.000000 1.605960 
# 
# From -- ./inp_files/28252.got.cif
#   From: 2010.05.17/outbox.cif.g08.bks.cpg/sg11_15_cif.got.tgz:28252.got - 2010.06.03 12:22:45.
