data_PCOD9162965
_publ_section_title
;
Structure prediction by ZEFSAII (Michael W. Deem and Ramdas Pophale) SiO2 
 PCOD9162965
Probable space group: P 21/M
;
_chemical_formula_sum "Si O2"
_cell_formula_units_Z 32
_cell_length_a 16.485193
_cell_length_b 11.506886
_cell_length_c 13.835624
_cell_angle_alpha 90.000000
_cell_angle_beta 144.033221
_cell_angle_gamma 90.000000
_cell_volume 1541.425302
_symmetry_space_group_name_H-M "P 21/M"
_symmetry_group_IT_number 11
_symmetry_cell_setting 'monoclinic'
loop_
_space_group_symop_operation_xyz
x,y,z
-x,1/2+y,-z
-x,-y,-z
x,1/2-y,z
loop_
_atom_site_type_symbol
_atom_site_label
_atom_site_fract_x
_atom_site_fract_y
_atom_site_fract_z
Si Si1 0.871024 0.630217 0.794176
Si Si2 0.296734 0.623275 0.115538
Si Si3 0.921384 0.938974 0.052235
Si Si4 0.305718 0.617395 0.569761
Si Si5 0.992087 0.883025 0.328537
Si Si6 0.572822 0.951145 0.474109
Si Si7 0.574697 0.117286 0.108848
Si Si8 0.166334 0.881680 0.777916
O O1 0.912888 0.750000 0.784673
O O2 0.706617 0.621179 0.633988
O O3 0.945413 0.522267 0.817210
O O4 0.923496 0.629450 0.954988
O O5 0.248631 0.750000 0.102471
O O6 0.455724 0.611432 0.297519
O O7 0.210783 0.522485 0.083289
O O8 0.257891 0.613263 0.964933
O O9 0.920515 0.876534 0.153629
O O10 0.297097 0.750000 0.529279
O O11 0.153275 0.590838 0.464121
O O12 0.362165 0.545995 0.534771
O O13 0.408606 0.607931 0.759907
O O14 0.980440 0.750000 0.360092
O O15 0.925943 0.000204 0.312267
O O16 0.500000 0.000000 0.500000
O O17 0.518498 0.250000 0.033107
O O18 0.726038 0.115597 0.206071
O O19 0.500000 0.000000 0.000000
O O20 0.100923 0.750000 0.715043
#
# Coordination Sequence:
#
# PCOD9162965 Si02
#       8
#     4   4   4   4   4   4   4   4
#     4  11  22  36  56  81 113 155 208 262 310 367
#     4  10  20  36  57  81 116 157 197 249 313 374
#     4  10  20  38  55  82 115 155 206 253 309 368
#     4  10  23  42  63  88 124 166 208 259 319 380
#     4  10  20  38  63  90 123 164 209 254 309 378
#     4  12  23  40  55  87 121 158 210 258 315 372
#     4  10  21  41  67  94 129 168 211 260 316 383
#     4   9  20  38  62  93 126 162 203 257 320 373
#
# _framework density 20.760006000000001
#
# number of rings (size 3 to 8) (size 9 to 14) (size 15 to 20)
#    0.000    1.750    2.500    1.875    0.000    2.500 
#    0.000    3.125    0.000    0.000    0.000    0.000 
#    0.000    0.000    0.000    0.000    0.000    0.000 
#
# Total GULP energy -178331.716998 kJ/mol
# GULP energy per Si atom -5572.866156 kJ/mol
# Density = 2.071276 g / cm^3
# Si number density = 20.760006 Si / 1000 Ang^3
#
#
#
# Elastic Constant Matrix: (Units=GPa)
#
#
# Indices 1 2 3 4 5 6 
#
# 1 66.1647 55.5835 6.3970 0.0000 -0.1705 0.0000
# 2 55.5835 158.2422 42.3357 0.0000 11.1861 0.0000
# 3 6.3970 42.3357 76.8576 0.0000 14.9778 0.0000
# 4 0.0000 0.0000 0.0000 12.5248 0.0000 15.5369
# 5 -0.1705 11.1861 14.9778 0.0000 30.5086 0.0000
# 6 0.0000 0.0000 0.0000 15.5369 0.0000 48.5436
#
#
#
# Elastic Compliance Matrix: (Units=1/GPa)
#
#
# Indices 1 2 3 4 5 6 
#
# 1 0.022071 -0.008561 0.002480 0.000000 0.002045 0.000000
# 2 -0.008561 0.010749 -0.004900 0.000000 -0.001584 0.000000
# 3 0.002480 -0.004900 0.016754 0.000000 -0.006415 0.000000
# 4 0.000000 0.000000 0.000000 0.132415 0.000000 -0.042381
# 5 0.002045 -0.001584 -0.006415 0.000000 0.036519 0.000000
# 6 0.000000 0.000000 0.000000 -0.042381 0.000000 0.034165
#
#
# Mechanical properties :
#
#
# Convention : Reuss Voigt Hill
#
# Bulk Modulus (GPa) = 36.21505 56.65522 46.43513
# Shear Modulus (GPa) = 17.61569 31.44528 24.53048
#
# Velocity S-wave (km/s) = 2.91613 3.89614 3.44120
# Velocity P-wave (km/s) = 5.36851 6.89853 6.18104
#
# Compressibility (1/GPa) = 0.02761283
#
# Stress axis : x y z
#
# Youngs Moduli (GPa) = 45.30874 93.03012 59.68813
#
# Poissons Ratio (x) = 0.79639 -0.14802
# Poissons Ratio (y) = 0.38787 0.29247
# Poissons Ratio (z) = -0.11236 0.45584
#
# Static dielectric constant tensor:
#      x y z
#    x 1.739110 0.000000 -0.014730 
#    y 0.000000 1.783650 0.000000 
#    z -0.014730 0.000000 1.764000 
# 
# From -- ./inp_files/53652.got.cif
#   From: 2010.05.17/outbox.cif.g08.bks.cpg/sg11_27_cif.got.tgz:53652.got - 2010.06.03 12:22:45.
