data_PCOD9162654
_publ_section_title
;
Structure prediction by ZEFSAII (Michael W. Deem and Ramdas Pophale) SiO2 
 PCOD9162654
Probable space group: P 21/M
;
_chemical_formula_sum "Si O2"
_cell_formula_units_Z 32
_cell_length_a 8.889625
_cell_length_b 20.004184
_cell_length_c 13.243693
_cell_angle_alpha 90.000000
_cell_angle_beta 45.948341
_cell_angle_gamma 90.000000
_cell_volume 1692.657157
_symmetry_space_group_name_H-M "P 21/M"
_symmetry_group_IT_number 11
_symmetry_cell_setting 'monoclinic'
loop_
_space_group_symop_operation_xyz
x,y,z
-x,1/2+y,-z
-x,-y,-z
x,1/2-y,z
loop_
_atom_site_type_symbol
_atom_site_label
_atom_site_fract_x
_atom_site_fract_y
_atom_site_fract_z
Si Si1 0.319107 0.930916 0.314792
Si Si2 0.726712 0.112332 0.447081
Si Si3 0.917224 0.457707 0.181112
Si Si4 0.730685 0.828580 0.337919
Si Si5 0.300851 0.467686 0.148246
Si Si6 0.798131 0.588574 0.116439
Si Si7 0.821898 0.827213 0.723967
Si Si8 0.045705 0.329148 0.562078
O O1 0.278609 0.937209 0.453797
O O2 0.560173 0.908606 0.188569
O O3 0.162236 0.872786 0.353172
O O4 0.278953 0.996082 0.266501
O O5 0.745189 0.074427 0.333020
O O6 0.513659 0.153119 0.551218
O O7 0.935121 0.157414 0.360425
O O8 0.825389 0.516044 0.155430
O O9 0.099183 0.482326 0.172523
O O10 0.035894 0.406829 0.050875
O O11 0.755201 0.750000 0.322903
O O12 0.831619 0.860537 0.191665
O O13 0.832372 0.852146 0.395140
O O14 0.306061 0.387522 0.164002
O O15 0.500000 0.500000 0.000000
O O16 0.768465 0.750000 0.773548
O O17 0.819402 0.835860 0.603607
O O18 0.995923 0.250000 0.593613
#
# Coordination Sequence:
#
# PCOD9162654 Si02
#       8
#     4   4   4   4   4   4   4   4
#     4  10  20  35  58  87 111 150 195 238 289 339
#     4   9  20  35  61  85 113 144 194 237 290 341
#     4  10  21  38  55  83 115 149 187 239 288 343
#     4  10  20  36  58  84 114 149 192 239 286 344
#     4  11  21  36  57  82 116 152 194 240 290 347
#     4  10  21  36  56  82 115 153 191 231 290 339
#     4   9  19  36  57  82 113 146 186 238 292 347
#     4   9  19  36  59  86 117 150 191 242 293 342
#
# _framework density 18.905189
#
# number of rings (size 3 to 8) (size 9 to 14) (size 15 to 20)
#    0.000    2.250    1.250    1.125    0.000   11.500 
#    0.000    3.750    0.000    0.750    0.000    0.000 
#    0.000    0.000    0.000    0.000    0.000    0.000 
#
# Total GULP energy -178503.540306 kJ/mol
# GULP energy per Si atom -5578.235635 kJ/mol
# Density = 1.886216 g / cm^3
# Si number density = 18.905189 Si / 1000 Ang^3
#
#
#
# Elastic Constant Matrix: (Units=GPa)
#
#
# Indices 1 2 3 4 5 6 
#
# 1 62.6372 22.7229 22.0000 0.0000 12.5365 0.0000
# 2 22.7229 78.7608 46.3303 0.0000 -0.6929 0.0000
# 3 22.0000 46.3303 96.1682 0.0000 9.9122 0.0000
# 4 0.0000 0.0000 0.0000 32.4136 0.0000 5.6305
# 5 12.5365 -0.6929 9.9122 0.0000 23.6510 0.0000
# 6 0.0000 0.0000 0.0000 5.6305 0.0000 23.8634
#
#
#
# Elastic Compliance Matrix: (Units=1/GPa)
#
#
# Indices 1 2 3 4 5 6 
#
# 1 0.020377 -0.005400 -0.000973 0.000000 -0.010552 0.000000
# 2 -0.005400 0.019573 -0.008935 0.000000 0.007180 0.000000
# 3 -0.000973 -0.008935 0.015572 0.000000 -0.006272 0.000000
# 4 0.000000 0.000000 0.000000 0.032170 0.000000 -0.007590
# 5 -0.010552 0.007180 -0.006272 0.000000 0.050714 0.000000
# 6 0.000000 0.000000 0.000000 -0.007590 0.000000 0.043696
#
#
# Mechanical properties :
#
#
# Convention : Reuss Voigt Hill
#
# Bulk Modulus (GPa) = 40.14657 46.63030 43.38844
# Shear Modulus (GPa) = 22.62255 25.75313 24.18784
#
# Velocity S-wave (km/s) = 3.46299 3.69484 3.58079
# Velocity P-wave (km/s) = 6.10504 6.55144 6.33218
#
# Compressibility (1/GPa) = 0.02490873
#
# Stress axis : x y z
#
# Youngs Moduli (GPa) = 49.07424 51.08997 64.21866
#
# Poissons Ratio (x) = 0.27587 0.06247
# Poissons Ratio (y) = 0.26498 0.57376
# Poissons Ratio (z) = 0.04774 0.45646
#
# Static dielectric constant tensor:
#      x y z
#    x 1.663210 0.000000 0.019440 
#    y 0.000000 1.650620 0.000000 
#    z 0.019440 0.000000 1.670220 
# 
# From -- ./inp_files/32798.got.cif
#   From: 2010.05.17/outbox.cif.g08.bks.cpg/sg11_17_cif.got.tgz:32798.got - 2010.06.03 12:22:45.
