data_PCOD9162262
_publ_section_title
;
Structure prediction by ZEFSAII (Michael W. Deem and Ramdas Pophale) SiO2 
 PCOD9162262
Probable space group: P 21/M
;
_chemical_formula_sum "Si O2"
_cell_formula_units_Z 32
_cell_length_a 11.595995
_cell_length_b 22.441639
_cell_length_c 7.139130
_cell_angle_alpha 90.000000
_cell_angle_beta 41.750287
_cell_angle_gamma 90.000000
_cell_volume 1237.107320
_symmetry_space_group_name_H-M "P 21/M"
_symmetry_group_IT_number 11
_symmetry_cell_setting 'monoclinic'
loop_
_space_group_symop_operation_xyz
x,y,z
-x,1/2+y,-z
-x,-y,-z
x,1/2-y,z
loop_
_atom_site_type_symbol
_atom_site_label
_atom_site_fract_x
_atom_site_fract_y
_atom_site_fract_z
Si Si1 0.291518 0.066810 0.912083
Si Si2 0.228837 0.313886 0.490481
Si Si3 0.352327 0.565423 0.426134
Si Si4 0.826342 0.185528 0.032491
Si Si5 0.876430 0.059196 0.976172
Si Si6 0.277567 0.438676 0.376875
Si Si7 0.718322 0.185941 0.592202
Si Si8 0.878585 0.814486 0.818791
O O1 0.492032 0.071499 0.614648
O O2 0.290439 0.063617 0.138891
O O3 0.194563 0.128197 0.986869
O O4 0.208450 0.004906 0.953179
O O5 0.310026 0.250000 0.438115
O O6 0.328272 0.375307 0.405829
O O7 0.187460 0.315353 0.316138
O O8 0.035028 0.315020 0.812415
O O9 0.367016 0.499095 0.331521
O O10 0.366961 0.621758 0.269506
O O11 0.166176 0.569656 0.753165
O O12 0.789729 0.250000 0.982754
O O13 0.799105 0.119964 0.976540
O O14 0.733410 0.187335 0.346504
O O15 0.074589 0.055447 0.676787
O O16 0.637877 0.250000 0.744193
O O17 0.913578 0.183822 0.432775
O O18 0.825421 0.750000 0.962807
#
# Coordination Sequence:
#
# PCOD9162262 Si02
#       8
#     4   4   4   4   4   4   4   4
#     4  11  22  35  52  77 109 138 168 213 264 307
#     4   8  15  29  50  75  98 124 164 211 252 290
#     4  11  22  35  52  77 109 138 168 213 264 307
#     4   8  15  29  50  75  98 124 164 211 252 290
#     4  10  20  35  55  76 100 138 179 213 250 305
#     4  10  20  35  55  76 100 138 179 213 250 305
#     4   9  18  33  53  76 101 132 172 213 252 302
#     4   9  18  33  53  76 101 132 172 213 252 302
#
# _framework density 25.866795
#
# number of rings (size 3 to 8) (size 9 to 14) (size 15 to 20)
#    0.000    2.500    0.000    2.250    0.000    4.500 
#    0.000    0.000    0.000    0.750    0.000    0.000 
#    0.000    0.000    0.000    0.000    0.000    0.000 
#
# Total GULP energy -178693.110617 kJ/mol
# GULP energy per Si atom -5584.159707 kJ/mol
# Density = 2.580792 g / cm^3
# Si number density = 25.866795 Si / 1000 Ang^3
#
#
#
# Elastic Constant Matrix: (Units=GPa)
#
#
# Indices 1 2 3 4 5 6 
#
# 1 47.0685 44.7806 11.1686 0.0000 -1.0159 0.0000
# 2 44.7806 309.2932 7.5289 0.0000 -18.4567 0.0000
# 3 11.1686 7.5289 91.0799 0.0000 -3.5832 0.0000
# 4 0.0000 0.0000 0.0000 -15.5938 0.0000 26.3159
# 5 -1.0159 -18.4567 -3.5832 0.0000 29.5209 0.0000
# 6 0.0000 0.0000 0.0000 26.3159 0.0000 2.4228
#
#
#
# Elastic Compliance Matrix: (Units=1/GPa)
#
#
# Indices 1 2 3 4 5 6 
#
# 1 0.025429 -0.003719 -0.002882 0.000000 -0.001800 0.000000
# 2 -0.003719 0.003906 0.000225 0.000000 0.002341 0.000000
# 3 -0.002882 0.000225 0.011370 0.000000 0.001422 0.000000
# 4 0.000000 0.000000 0.000000 -0.003317 0.000000 0.036034
# 5 -0.001800 0.002341 0.001422 0.000000 0.035449 0.000000
# 6 0.000000 0.000000 0.000000 0.036034 0.000000 0.021352
#
#
# Mechanical properties :
#
#
# Convention : Reuss Voigt Hill
#
# Bulk Modulus (GPa) = 35.77286 63.82199 49.79742
# Shear Modulus (GPa) = 43.00826 28.86753 35.93789
#
# Velocity S-wave (km/s) = 4.08202 3.34429 3.73144
# Velocity P-wave (km/s) = 6.00640 6.29597 6.15289
#
# Compressibility (1/GPa) = 0.02795415
#
# Stress axis : x y z
#
# Youngs Moduli (GPa) = 39.32564 256.02633 87.95047
#
# Poissons Ratio (x) = 0.95214 0.25344
# Poissons Ratio (y) = 0.14625 -0.01981
# Poissons Ratio (z) = 0.11332 -0.05768
#
# Static dielectric constant tensor:
#      x y z
#    x 2.006660 0.000000 0.066610 
#    y 0.000000 2.156210 0.000000 
#    z 0.066610 0.000000 2.019870 
# 
# From -- ./inp_files/23059.got.cif
#   From: 2010.05.17/outbox.cif.g08.bks.cpg/sg11_12_cif.got.tgz:23059.got - 2010.06.03 12:22:45.
