data_PCOD9162479
_publ_section_title
;
Structure prediction by ZEFSAII (Michael W. Deem and Ramdas Pophale) SiO2 
 PCOD9162479
Probable space group: P 21/M
;
_chemical_formula_sum "Si O2"
_cell_formula_units_Z 26
_cell_length_a 17.068244
_cell_length_b 7.540950
_cell_length_c 9.537534
_cell_angle_alpha 90.000000
_cell_angle_beta 125.746522
_cell_angle_gamma 90.000000
_cell_volume 996.318274
_symmetry_space_group_name_H-M "P 21/M"
_symmetry_group_IT_number 11
_symmetry_cell_setting 'monoclinic'
loop_
_space_group_symop_operation_xyz
x,y,z
-x,1/2+y,-z
-x,-y,-z
x,1/2-y,z
loop_
_atom_site_type_symbol
_atom_site_label
_atom_site_fract_x
_atom_site_fract_y
_atom_site_fract_z
Si Si1 0.658230 0.556466 0.206345
Si Si2 0.930840 0.953480 0.760701
Si Si3 0.863331 0.465022 0.080207
Si Si4 0.542611 0.962558 0.353774
Si Si5 0.407227 0.250000 0.137777
Si Si6 0.739219 0.541021 0.703914
Si Si7 0.134191 0.948094 0.603352
O O1 0.690074 0.750000 0.298010
O O2 0.575158 0.497716 0.225212
O O3 0.752285 0.439591 0.310849
O O4 0.626986 0.597938 0.015878
O O5 0.933820 0.750000 0.808991
O O6 0.834231 0.037355 0.725027
O O7 0.038593 0.027671 0.894311
O O8 0.916249 0.956054 0.577415
O O9 0.862789 0.250000 0.082767
O O10 0.868366 0.530284 0.244745
O O11 0.768754 0.523559 0.897418
O O12 0.524475 0.750000 0.347519
O O13 0.637552 0.023185 0.539802
O O14 0.454164 0.093109 0.286752
O O15 0.736343 0.750000 0.670965
O O16 0.093390 0.750000 0.566569
#
# Coordination Sequence:
#
# PCOD9162479 Si02
#       7
#     4   4   4   4   2   4   4
#     4   9  20  35  54  86 115 149 191 239 306 353
#     4  10  20  38  59  84 122 153 202 251 294 346
#     4  10  23  38  56  85 118 165 203 242 289 356
#     4  10  20  35  56  92 124 150 200 250 303 371
#     4  10  22  34  62  92 114 166 186 248 328 360
#     4  10  21  36  58  87 118 159 197 248 300 353
#     4  11  22  36  57  87 120 158 201 245 295 357
#
# _framework density 26.096079
#
# number of rings (size 3 to 8) (size 9 to 14) (size 15 to 20)
#    0.462    1.538    1.538    1.846    2.154    3.077 
#    0.000    0.000    0.000    0.923    0.000    0.000 
#    0.000    0.000    0.000    0.000    0.000    0.000 
#
# Total GULP energy -144874.908519 kJ/mol
# GULP energy per Si atom -5572.111866 kJ/mol
# Density = 2.603668 g / cm^3
# Si number density = 26.096079 Si / 1000 Ang^3
#
#
#
# Elastic Constant Matrix: (Units=GPa)
#
#
# Indices 1 2 3 4 5 6 
#
# 1 72.2483 10.5390 26.9208 0.0000 -2.5436 0.0000
# 2 10.5390 88.0080 23.0875 0.0000 11.6508 0.0000
# 3 26.9208 23.0875 166.6124 0.0000 14.7209 0.0000
# 4 0.0000 0.0000 0.0000 39.5956 0.0000 -10.5648
# 5 -2.5436 11.6508 14.7209 0.0000 45.6825 0.0000
# 6 0.0000 0.0000 0.0000 -10.5648 0.0000 7.3457
#
#
#
# Elastic Compliance Matrix: (Units=1/GPa)
#
#
# Indices 1 2 3 4 5 6 
#
# 1 0.015014 -0.001429 -0.002402 0.000000 0.001975 0.000000
# 2 -0.001429 0.012224 -0.001215 0.000000 -0.002806 0.000000
# 3 -0.002402 -0.001215 0.006735 0.000000 -0.001994 0.000000
# 4 0.000000 0.000000 0.000000 0.040982 0.000000 0.058941
# 5 0.001975 -0.002806 -0.001994 0.000000 0.023358 0.000000
# 6 0.000000 0.000000 0.000000 0.058941 0.000000 0.220904
#
#
# Mechanical properties :
#
#
# Convention : Reuss Voigt Hill
#
# Bulk Modulus (GPa) = 41.87661 49.77370 45.82515
# Shear Modulus (GPa) = 14.82489 36.27951 25.55220
#
# Velocity S-wave (km/s) = 2.38605 3.73262 3.13255
# Velocity P-wave (km/s) = 4.86548 6.13932 5.53914
#
# Compressibility (1/GPa) = 0.02387968
#
# Stress axis : x y z
#
# Youngs Moduli (GPa) = 66.60306 81.80686 148.48502
#
# Poissons Ratio (x) = 0.11691 0.35672
# Poissons Ratio (y) = 0.09519 0.18042
# Poissons Ratio (z) = 0.16001 0.09940
#
# Static dielectric constant tensor:
#      x y z
#    x 2.203240 0.000000 -0.049570 
#    y 0.000000 1.957070 0.000000 
#    z -0.049570 0.000000 2.031390 
# 
# From -- ./inp_files/26178.got.cif
#   From: 2010.05.17/outbox.cif.g08.bks.cpg/sg11_14_cif.got.tgz:26178.got - 2010.06.03 12:22:45.
