data_PCOD9162208
_publ_section_title
;
Structure prediction by ZEFSAII (Michael W. Deem and Ramdas Pophale) SiO2 
 PCOD9162208
Probable space group: P 21/M
;
_chemical_formula_sum "Si O2"
_cell_formula_units_Z 32
_cell_length_a 11.893336
_cell_length_b 7.698935
_cell_length_c 22.580486
_cell_angle_alpha 90.000000
_cell_angle_beta 46.347738
_cell_angle_gamma 90.000000
_cell_volume 1496.000330
_symmetry_space_group_name_H-M "P 21/M"
_symmetry_group_IT_number 11
_symmetry_cell_setting 'monoclinic'
loop_
_space_group_symop_operation_xyz
x,y,z
-x,1/2+y,-z
-x,-y,-z
x,1/2-y,z
loop_
_atom_site_type_symbol
_atom_site_label
_atom_site_fract_x
_atom_site_fract_y
_atom_site_fract_z
Si Si1 0.212193 0.542974 0.738493
Si Si2 0.567259 0.539518 0.235167
Si Si3 0.114267 0.044988 0.533720
Si Si4 0.641653 0.962479 0.081117
Si Si5 0.881332 0.952985 0.895119
Si Si6 0.624216 0.456367 0.903431
Si Si7 0.220969 0.949955 0.366756
Si Si8 0.681418 0.042524 0.427769
O O1 0.189804 0.750000 0.739641
O O2 0.349039 0.516408 0.735564
O O3 0.256002 0.473750 0.657892
O O4 0.051155 0.469884 0.823290
O O5 0.562510 0.750000 0.237742
O O6 0.659619 0.485518 0.142478
O O7 0.390583 0.472581 0.294848
O O8 0.103592 0.250000 0.523312
O O9 0.936995 0.977323 0.604663
O O10 0.189302 0.957167 0.448819
O O11 0.218011 0.023656 0.553769
O O12 0.642430 0.750000 0.077900
O O13 0.469748 0.015246 0.120338
O O14 0.773137 0.026202 0.987390
O O15 0.900063 0.750000 0.902845
O O16 0.783679 0.965677 0.869497
O O17 0.646614 0.250000 0.891654
O O18 0.500000 0.500000 0.000000
O O19 0.231328 0.750000 0.342696
O O20 0.695767 0.250000 0.422786
O O21 0.500000 0.000000 0.500000
#
# Coordination Sequence:
#
# PCOD9162208 Si02
#       8
#     4   4   4   4   4   4   4   4
#     4  10  23  39  53  74 105 140 175 218 270 315
#     4  10  20  35  54  76 103 137 178 218 258 309
#     4  10  20  35  57  83 109 139 176 216 263 317
#     4   8  16  31  52  76 102 135 170 210 259 305
#     4   9  18  35  54  73 105 141 173 214 263 313
#     4   9  16  29  51  77 105 136 172 214 261 311
#     4   9  19  35  55  80 111 142 172 214 264 313
#     4  11  23  39  58  80 108 141 178 218 265 321
#
# _framework density 21.390369
#
# number of rings (size 3 to 8) (size 9 to 14) (size 15 to 20)
#    0.000    2.500    0.000    2.625    0.000    6.000 
#    0.000    4.375    0.000    0.000    0.000    0.000 
#    0.000    0.000    0.000    0.000    0.000    0.000 
#
# Total GULP energy -178510.763914 kJ/mol
# GULP energy per Si atom -5578.461372 kJ/mol
# Density = 2.134168 g / cm^3
# Si number density = 21.390369 Si / 1000 Ang^3
#
#
#
# Elastic Constant Matrix: (Units=GPa)
#
#
# Indices 1 2 3 4 5 6 
#
# 1 130.7955 -12.7490 64.4634 0.0000 -3.0410 0.0000
# 2 -12.7490 37.5229 -1.5454 0.0000 -4.7678 0.0000
# 3 64.4634 -1.5454 100.0398 0.0000 -14.4861 0.0000
# 4 0.0000 0.0000 0.0000 11.8027 0.0000 1.6233
# 5 -3.0410 -4.7678 -14.4861 0.0000 37.9498 0.0000
# 6 0.0000 0.0000 0.0000 1.6233 0.0000 24.2632
#
#
#
# Elastic Compliance Matrix: (Units=1/GPa)
#
#
# Indices 1 2 3 4 5 6 
#
# 1 0.011773 0.003479 -0.007762 0.000000 -0.001582 0.000000
# 2 0.003479 0.028199 -0.001326 0.000000 0.003315 0.000000
# 3 -0.007762 -0.001326 0.015733 0.000000 0.005217 0.000000
# 4 0.000000 0.000000 0.000000 0.085514 0.000000 -0.005721
# 5 -0.001582 0.003315 0.005217 0.000000 0.028632 0.000000
# 6 0.000000 0.000000 0.000000 -0.005721 0.000000 0.041597
#
#
# Mechanical properties :
#
#
# Convention : Reuss Voigt Hill
#
# Bulk Modulus (GPa) = 22.47821 40.96623 31.72222
# Shear Modulus (GPa) = 21.05312 29.34908 25.20110
#
# Velocity S-wave (km/s) = 3.14065 3.70816 3.43615
# Velocity P-wave (km/s) = 4.86652 6.12595 5.53219
#
# Compressibility (1/GPa) = 0.04448753
#
# Stress axis : x y z
#
# Youngs Moduli (GPa) = 84.93739 35.46194 63.56268
#
# Poissons Ratio (x) = -0.12339 0.49337
# Poissons Ratio (y) = -0.29554 0.08431
# Poissons Ratio (z) = 0.65927 0.04704
#
# Static dielectric constant tensor:
#      x y z
#    x 1.740970 0.000000 -0.019080 
#    y 0.000000 1.819440 0.000000 
#    z -0.019080 0.000000 1.779480 
# 
# From -- ./inp_files/64395.got.cif
#   From: 2010.05.17/outbox.cif.g08.bks.cpg/sg11_33_cif.got.tgz:64395.got - 2010.06.03 12:22:45.
