data_PCOD9162223
_publ_section_title
;
Structure prediction by ZEFSAII (Michael W. Deem and Ramdas Pophale) SiO2 
 PCOD9162223
Probable space group: P 21/M
;
_chemical_formula_sum "Si O2"
_cell_formula_units_Z 32
_cell_length_a 29.019346
_cell_length_b 8.739408
_cell_length_c 22.692917
_cell_angle_alpha 90.000000
_cell_angle_beta 161.374947
_cell_angle_gamma 90.000000
_cell_volume 1838.057556
_symmetry_space_group_name_H-M "P 21/M"
_symmetry_group_IT_number 11
_symmetry_cell_setting 'monoclinic'
loop_
_space_group_symop_operation_xyz
x,y,z
-x,1/2+y,-z
-x,-y,-z
x,1/2-y,z
loop_
_atom_site_type_symbol
_atom_site_label
_atom_site_fract_x
_atom_site_fract_y
_atom_site_fract_z
Si Si1 0.055834 0.433513 0.506716
Si Si2 0.686761 0.434047 0.486641
Si Si3 0.346603 0.434025 0.795351
Si Si4 0.411430 0.565976 0.211497
Si Si5 0.805045 0.434014 0.502898
Si Si6 0.156895 0.933799 0.203140
Si Si7 0.434309 0.433655 0.479984
Si Si8 0.087249 0.935189 0.789405
O O1 0.052884 0.250000 0.507056
O O2 0.218892 0.478746 0.686251
O O3 0.000000 0.500000 0.500000
O O4 0.956516 0.477940 0.330482
O O5 0.678241 0.250000 0.476374
O O6 0.528818 0.499421 0.308839
O O7 0.750340 0.482656 0.501007
O O8 0.787971 0.478772 0.664522
O O9 0.351642 0.250000 0.799130
O O10 0.295668 0.497398 0.670437
O O11 0.500000 0.500000 0.000000
O O12 0.415327 0.750000 0.212170
O O13 0.465300 0.523638 0.342313
O O14 0.248679 0.516131 0.001084
O O15 0.802059 0.250000 0.495943
O O16 0.965782 0.493235 0.684047
O O17 0.154600 0.750000 0.196817
O O18 0.276918 0.999065 0.303984
O O19 0.000000 0.000000 0.000000
O O20 0.500000 0.500000 0.500000
O O21 0.426525 0.250000 0.467447
O O22 0.077900 0.750000 0.782357
#
# Coordination Sequence:
#
# PCOD9162223 Si02
#       8
#     4   4   4   4   4   4   4   4
#     4   9  19  34  52  74 102 132 166 206 249 296
#     4   9  20  36  53  76 107 137 171 215 262 309
#     4  10  21  37  55  78 106 137 172 213 257 305
#     4   9  19  35  55  77 102 134 176 217 256 306
#     4  10  20  35  54  78 105 136 173 212 255 308
#     4  10  20  36  55  77 106 140 176 219 267 316
#     4  10  20  35  54  78 106 138 175 217 263 315
#     4   9  19  36  53  74 103 134 170 213 254 299
#
# _framework density 17.409683000000001
#
# number of rings (size 3 to 8) (size 9 to 14) (size 15 to 20)
#    0.000    2.500    0.000    2.250    0.000    7.000 
#    0.000    5.000    0.000    0.000    0.000    0.000 
#    0.000    0.000    0.000    0.000    0.000    0.000 
#
# Total GULP energy -178547.516806 kJ/mol
# GULP energy per Si atom -5579.609900 kJ/mol
# Density = 1.737006 g / cm^3
# Si number density = 17.409683 Si / 1000 Ang^3
#
#
#
# Elastic Constant Matrix: (Units=GPa)
#
#
# Indices 1 2 3 4 5 6 
#
# 1 190.3749 46.8920 97.6584 0.0000 20.0147 0.0000
# 2 46.8920 37.7484 44.9948 0.0000 6.5067 0.0000
# 3 97.6584 44.9948 183.1149 0.0000 25.0412 0.0000
# 4 0.0000 0.0000 0.0000 29.4509 0.0000 5.7672
# 5 20.0147 6.5067 25.0412 0.0000 10.2162 0.0000
# 6 0.0000 0.0000 0.0000 5.7672 0.0000 31.6145
#
#
#
# Elastic Compliance Matrix: (Units=1/GPa)
#
#
# Indices 1 2 3 4 5 6 
#
# 1 0.008873 -0.007501 -0.001753 0.000000 -0.008310 0.000000
# 2 -0.007501 0.043831 -0.007463 0.000000 0.005073 0.000000
# 3 -0.001753 -0.007463 0.010695 0.000000 -0.018028 0.000000
# 4 0.000000 0.000000 0.000000 0.035213 0.000000 -0.006424
# 5 -0.008310 0.005073 -0.018028 0.000000 0.155121 0.000000
# 6 0.000000 0.000000 0.000000 -0.006424 0.000000 0.032803
#
#
# Mechanical properties :
#
#
# Convention : Reuss Voigt Hill
#
# Bulk Modulus (GPa) = 33.37251 87.81429 60.59340
# Shear Modulus (GPa) = 15.15348 29.03586 22.09467
#
# Velocity S-wave (km/s) = 2.95346 4.08830 3.56631
# Velocity P-wave (km/s) = 5.55348 8.53434 7.19987
#
# Compressibility (1/GPa) = 0.02996478
#
# Stress axis : x y z
#
# Youngs Moduli (GPa) = 112.69991 22.81504 93.50192
#
# Poissons Ratio (x) = 0.17113 0.16388
# Poissons Ratio (y) = 0.84535 0.69785
# Poissons Ratio (z) = 0.19752 0.17028
#
# Static dielectric constant tensor:
#      x y z
#    x 1.570020 0.000000 -0.008130 
#    y 0.000000 1.589300 0.000000 
#    z -0.008130 0.000000 1.574910 
# 
# From -- ./inp_files/67197.got.cif
#   From: 2010.05.17/outbox.cif.g08.bks.cpg/sg11_34_cif.got.tgz:67197.got - 2010.06.03 12:22:45.
