data_PCOD9162561
_publ_section_title
;
Structure prediction by ZEFSAII (Michael W. Deem and Ramdas Pophale) SiO2 
 PCOD9162561
Probable space group: P 21/M
;
_chemical_formula_sum "Si O2"
_cell_formula_units_Z 24
_cell_length_a 13.955803
_cell_length_b 8.017830
_cell_length_c 14.989867
_cell_angle_alpha 90.000000
_cell_angle_beta 39.051950
_cell_angle_gamma 90.000000
_cell_volume 1056.737399
_symmetry_space_group_name_H-M "P 21/M"
_symmetry_group_IT_number 11
_symmetry_cell_setting 'monoclinic'
loop_
_space_group_symop_operation_xyz
x,y,z
-x,1/2+y,-z
-x,-y,-z
x,1/2-y,z
loop_
_atom_site_type_symbol
_atom_site_label
_atom_site_fract_x
_atom_site_fract_y
_atom_site_fract_z
Si Si1 0.816582 0.954569 0.791699
Si Si2 0.349257 0.945103 0.710744
Si Si3 0.138806 0.942659 0.506583
Si Si4 0.407176 0.056530 0.191525
Si Si5 0.299210 0.444810 0.557953
Si Si6 0.717665 0.557031 0.048491
O O1 0.816426 0.750000 0.792007
O O2 0.664678 0.006621 0.849319
O O3 0.966617 0.007814 0.630391
O O4 0.815334 0.011220 0.894985
O O5 0.352843 0.750000 0.686797
O O6 0.526144 0.002032 0.586002
O O7 0.271762 0.033633 0.682970
O O8 0.277130 0.971232 0.859602
O O9 0.143318 0.750000 0.474238
O O10 0.263121 0.044070 0.362028
O O11 0.189764 0.953587 0.573008
O O12 0.453029 0.250000 0.150805
O O13 0.545732 0.957401 0.134344
O O14 0.288705 0.250000 0.541713
O O15 0.755989 0.750000 0.034451
#
# Coordination Sequence:
#
# PCOD9162561 Si02
#       6
#     4   4   4   4   4   4
#     4   9  22  39  56  81 116 153 190 234 279 331
#     4  10  20  35  57  85 115 144 183 232 280 331
#     4  11  21  37  59  84 114 150 190 232 282 333
#     4  11  21  37  58  83 114 149 193 238 278 327
#     4  10  20  35  57  85 115 144 183 232 280 331
#     4  11  21  37  59  84 114 150 190 232 282 333
#
# _framework density 22.711413
#
# number of rings (size 3 to 8) (size 9 to 14) (size 15 to 20)
#    0.000    1.667    1.667    3.500    0.000    1.333 
#    0.000    9.167    0.000    0.000    0.000    0.000 
#    0.000    0.000    0.000    0.000    0.000    0.000 
#
# Total GULP energy -134185.570666 kJ/mol
# GULP energy per Si atom -5591.065444 kJ/mol
# Density = 2.265972 g / cm^3
# Si number density = 22.711413 Si / 1000 Ang^3
#
#
#
# Elastic Constant Matrix: (Units=GPa)
#
#
# Indices 1 2 3 4 5 6 
#
# 1 45.8754 -1.2118 -4.7808 0.0000 19.1742 0.0000
# 2 -1.2118 42.8762 -7.5294 0.0000 1.9530 0.0000
# 3 -4.7808 -7.5294 81.9464 0.0000 17.7390 0.0000
# 4 0.0000 0.0000 0.0000 19.6619 0.0000 8.6123
# 5 19.1742 1.9530 17.7390 0.0000 39.0011 0.0000
# 6 0.0000 0.0000 0.0000 8.6123 0.0000 18.3290
#
#
#
# Elastic Compliance Matrix: (Units=1/GPa)
#
#
# Indices 1 2 3 4 5 6 
#
# 1 0.029716 0.002637 0.005731 0.000000 -0.017348 0.000000
# 2 0.002637 0.024146 0.003233 0.000000 -0.003976 0.000000
# 3 0.005731 0.003233 0.014952 0.000000 -0.009780 0.000000
# 4 0.000000 0.000000 0.000000 0.064040 0.000000 -0.030091
# 5 -0.017348 -0.003976 -0.009780 0.000000 0.038817 0.000000
# 6 0.000000 0.000000 0.000000 -0.030091 0.000000 0.068697
#
#
# Mechanical properties :
#
#
# Convention : Reuss Voigt Hill
#
# Bulk Modulus (GPa) = 10.86773 15.96156 13.41464
# Shear Modulus (GPa) = 20.17449 27.67973 23.92711
#
# Velocity S-wave (km/s) = 2.98367 3.49486 3.24933
# Velocity P-wave (km/s) = 4.08230 4.82997 4.47179
#
# Compressibility (1/GPa) = 0.09201556
#
# Stress axis : x y z
#
# Youngs Moduli (GPa) = 33.65200 41.41412 66.88236
#
# Poissons Ratio (x) = -0.10919 -0.38332
# Poissons Ratio (y) = -0.08872 -0.21624
# Poissons Ratio (z) = -0.19287 -0.13390
#
# Static dielectric constant tensor:
#      x y z
#    x 1.846920 0.000000 0.017390 
#    y 0.000000 1.781420 0.000000 
#    z 0.017390 0.000000 1.873350 
# 
# From -- ./inp_files/51484.got.cif
#   From: 2010.05.17/outbox.cif.g08.bks.cpg/sg11_26_cif.got.tgz:51484.got - 2010.06.03 12:22:45.
