data_PCOD9162436
_publ_section_title
;
Structure prediction by ZEFSAII (Michael W. Deem and Ramdas Pophale) SiO2 
 PCOD9162436
Probable space group: P 21/M
;
_chemical_formula_sum "Si O2"
_cell_formula_units_Z 28
_cell_length_a 24.029209
_cell_length_b 9.202034
_cell_length_c 19.468494
_cell_angle_alpha 90.000000
_cell_angle_beta 17.824239
_cell_angle_gamma 90.000000
_cell_volume 1317.699151
_symmetry_space_group_name_H-M "P 21/M"
_symmetry_group_IT_number 11
_symmetry_cell_setting 'monoclinic'
loop_
_space_group_symop_operation_xyz
x,y,z
-x,1/2+y,-z
-x,-y,-z
x,1/2-y,z
loop_
_atom_site_type_symbol
_atom_site_label
_atom_site_fract_x
_atom_site_fract_y
_atom_site_fract_z
Si Si1 0.267713 0.575936 0.981090
Si Si2 0.994081 0.077392 0.829674
Si Si3 0.638091 0.425628 0.782912
Si Si4 0.316395 0.577749 0.689709
Si Si5 0.872745 0.589428 0.600772
Si Si6 0.313929 0.425333 0.550921
Si Si7 0.603287 0.589483 0.043912
O O1 0.253205 0.750000 0.001853
O O2 0.471578 0.544278 0.712538
O O3 0.283372 0.508883 0.038313
O O4 0.106758 0.519477 0.120575
O O5 0.020233 0.250000 0.786760
O O6 0.183057 0.025550 0.641976
O O7 0.841367 0.060800 0.068432
O O8 0.642367 0.250000 0.784436
O O9 0.822608 0.497882 0.592765
O O10 0.585590 0.467310 0.766619
O O11 0.500000 0.500000 0.000000
O O12 0.500000 0.500000 0.500000
O O13 0.349249 0.750000 0.642582
O O14 0.259843 0.504832 0.684505
O O15 0.937092 0.750000 0.506453
O O16 0.000000 0.500000 0.500000
O O17 0.707930 0.607149 0.848893
O O18 0.294226 0.250000 0.581237
O O19 0.578957 0.750000 0.103271
#
# Coordination Sequence:
#
# PCOD9162436 Si02
#       7
#     4   4   4   4   4   4   4
#     4  10  20  36  56  78 110 152 189 223 271 334
#     4   9  19  36  56  80 111 143 183 233 279 326
#     4   9  17  32  54  77 104 137 176 222 271 322
#     4  11  20  34  57  83 111 144 185 232 284 334
#     4  10  20  35  56  83 113 142 179 226 277 329
#     4  10  20  37  58  80 110 143 183 235 282 328
#     4   9  20  37  55  78 110 144 176 221 276 323
#
# _framework density 21.249161999999998
#
# number of rings (size 3 to 8) (size 9 to 14) (size 15 to 20)
#    0.000    2.286    1.429    2.571    0.000    4.000 
#    2.571    1.429    0.000    0.000    0.000    0.000 
#    0.000    0.000    0.000    0.000    0.000    0.000 
#
# Total GULP energy -155978.248771 kJ/mol
# GULP energy per Si atom -5570.651742 kJ/mol
# Density = 2.120080 g / cm^3
# Si number density = 21.249162 Si / 1000 Ang^3
#
#
#
# Elastic Constant Matrix: (Units=GPa)
#
#
# Indices 1 2 3 4 5 6 
#
# 1 168.8746 48.8811 44.6662 0.0000 -47.0839 0.0000
# 2 48.8811 62.5067 20.1077 0.0000 -16.1646 0.0000
# 3 44.6662 20.1077 31.1870 0.0000 -22.2755 0.0000
# 4 0.0000 0.0000 0.0000 15.1041 0.0000 -3.5753
# 5 -47.0839 -16.1646 -22.2755 0.0000 44.6111 0.0000
# 6 0.0000 0.0000 0.0000 -3.5753 0.0000 33.6145
#
#
#
# Elastic Compliance Matrix: (Units=1/GPa)
#
#
# Indices 1 2 3 4 5 6 
#
# 1 0.011177 -0.004325 -0.009190 0.000000 0.005640 0.000000
# 2 -0.004325 0.021905 -0.008580 0.000000 -0.000912 0.000000
# 3 -0.009190 -0.008580 0.064677 0.000000 0.019487 0.000000
# 4 0.000000 0.000000 0.000000 0.067917 0.000000 0.007224
# 5 0.005640 -0.000912 0.019487 0.000000 0.037768 0.000000
# 6 0.000000 0.000000 0.000000 0.007224 0.000000 0.030517
#
#
# Mechanical properties :
#
#
# Convention : Reuss Voigt Hill
#
# Bulk Modulus (GPa) = 18.66782 54.43091 36.54936
# Shear Modulus (GPa) = 16.89140 28.59350 22.74245
#
# Velocity S-wave (km/s) = 2.82249 3.67226 3.27506
# Velocity P-wave (km/s) = 4.40752 6.60695 5.61596
#
# Compressibility (1/GPa) = 0.05356813
#
# Stress axis : x y z
#
# Youngs Moduli (GPa) = 89.47079 45.65174 15.46143
#
# Poissons Ratio (x) = 0.19747 0.14209
# Poissons Ratio (y) = 0.38700 0.13265
# Poissons Ratio (z) = 0.82225 0.39168
#
# Static dielectric constant tensor:
#      x y z
#    x 1.786160 0.000000 -0.038090 
#    y 0.000000 1.746050 0.000000 
#    z -0.038090 0.000000 1.974330 
# 
# From -- ./inp_files/66699.got.cif
#   From: 2010.05.17/outbox.cif.g08.bks.cpg/sg11_34_cif.got.tgz:66699.got - 2010.06.03 12:22:45.
