data_PCOD9162909
_publ_section_title
;
Structure prediction by ZEFSAII (Michael W. Deem and Ramdas Pophale) SiO2 
 PCOD9162909
Probable space group: P 21/M
;
_chemical_formula_sum "Si O2"
_cell_formula_units_Z 24
_cell_length_a 10.903281
_cell_length_b 20.231222
_cell_length_c 11.148837
_cell_angle_alpha 90.000000
_cell_angle_beta 144.846917
_cell_angle_gamma 90.000000
_cell_volume 1415.965390
_symmetry_space_group_name_H-M "P 21/M"
_symmetry_group_IT_number 11
_symmetry_cell_setting 'monoclinic'
loop_
_space_group_symop_operation_xyz
x,y,z
-x,1/2+y,-z
-x,-y,-z
x,1/2-y,z
loop_
_atom_site_type_symbol
_atom_site_label
_atom_site_fract_x
_atom_site_fract_y
_atom_site_fract_z
Si Si1 0.687249 0.173709 0.510081
Si Si2 0.555234 0.606489 0.895872
Si Si3 0.298166 0.547478 0.315436
Si Si4 0.100840 0.326234 0.672810
Si Si5 0.107963 0.564244 0.646200
Si Si6 0.138360 0.986861 0.933733
O O1 0.658742 0.250000 0.523795
O O2 0.519264 0.152845 0.272932
O O3 0.670163 0.119258 0.600286
O O4 0.917894 0.167642 0.629411
O O5 0.344585 0.573514 0.782828
O O6 0.681197 0.647995 0.095819
O O7 0.711754 0.549473 0.974879
O O8 0.500000 0.500000 0.500000
O O9 0.093553 0.513790 0.214847
O O10 0.241258 0.550200 0.129342
O O11 0.112885 0.250000 0.647449
O O12 0.026304 0.372958 0.505511
O O13 0.118605 0.554789 0.796690
O O14 0.000000 0.500000 0.500000
#
# Coordination Sequence:
#
# PCOD9162909 Si02
#       6
#     4   4   4   4   4   4
#     4  10  20  36  56  84 113 148 192 236 285 336
#     4  11  19  35  60  87 112 143 187 239 287 335
#     4  11  22  37  58  81 119 149 189 240 279 329
#     4  10  21  36  57  85 118 147 186 242 293 341
#     4  11  22  35  59  88 116 146 189 234 290 344
#     4  11  22  35  56  89 109 146 193 229 282 337
#
# _framework density 16.949566999999998
#
# number of rings (size 3 to 8) (size 9 to 14) (size 15 to 20)
#    0.000    1.333    5.000    2.000    0.000    0.667 
#    0.000    0.833    0.000    3.000    0.000    0.000 
#    0.000    0.000    0.000    0.000    0.000    0.000 
#
# Total GULP energy -134019.747832 kJ/mol
# GULP energy per Si atom -5584.156160 kJ/mol
# Density = 1.691099 g / cm^3
# Si number density = 16.949567 Si / 1000 Ang^3
#
#
#
# Elastic Constant Matrix: (Units=GPa)
#
#
# Indices 1 2 3 4 5 6 
#
# 1 75.0320 62.3607 63.2396 0.0000 -19.1207 0.0000
# 2 62.3607 151.3316 81.8612 0.0000 -14.0734 0.0000
# 3 63.2396 81.8612 141.6579 0.0000 -4.9562 0.0000
# 4 0.0000 0.0000 0.0000 17.1238 0.0000 -11.6534
# 5 -19.1207 -14.0734 -4.9562 0.0000 31.4801 0.0000
# 6 0.0000 0.0000 0.0000 -11.6534 0.0000 26.6088
#
#
#
# Elastic Compliance Matrix: (Units=1/GPa)
#
#
# Indices 1 2 3 4 5 6 
#
# 1 0.029618 -0.005852 -0.009354 0.000000 0.013900 0.000000
# 2 -0.005852 0.011155 -0.003805 0.000000 0.000833 0.000000
# 3 -0.009354 -0.003805 0.013248 0.000000 -0.005296 0.000000
# 4 0.000000 0.000000 0.000000 0.083194 0.000000 0.036435
# 5 0.013900 0.000833 -0.005296 0.000000 0.039748 0.000000
# 6 0.000000 0.000000 0.000000 0.036435 0.000000 0.053538
#
#
# Mechanical properties :
#
#
# Convention : Reuss Voigt Hill
#
# Bulk Modulus (GPa) = 62.50081 86.99383 74.74732
# Shear Modulus (GPa) = 18.25779 25.74653 22.00216
#
# Velocity S-wave (km/s) = 3.28561 3.90167 3.60682
# Velocity P-wave (km/s) = 7.16577 8.46959 7.84481
#
# Compressibility (1/GPa) = 0.01599979
#
# Stress axis : x y z
#
# Youngs Moduli (GPa) = 33.76365 89.64451 75.48138
#
# Poissons Ratio (x) = 0.52463 0.70604
# Poissons Ratio (y) = 0.19760 0.28717
# Poissons Ratio (z) = 0.31582 0.34106
#
# Static dielectric constant tensor:
#      x y z
#    x 1.559950 0.000000 0.002690 
#    y 0.000000 1.552400 0.000000 
#    z 0.002690 0.000000 1.577400 
# 
# From -- ./inp_files/4750.got.cif
#   From: 2010.05.17/outbox.cif.g08.bks.cpg/sg11_3_cif.got.tgz:4750.got - 2010.06.03 12:22:45.
