data_PCOD9162024
_publ_section_title
;
Structure prediction by ZEFSAII (Michael W. Deem and Ramdas Pophale) SiO2 
 PCOD9162024
Probable space group: P 21/M
;
_chemical_formula_sum "Si O2"
_cell_formula_units_Z 28
_cell_length_a 14.359842
_cell_length_b 19.037600
_cell_length_c 9.195352
_cell_angle_alpha 90.000000
_cell_angle_beta 28.503719
_cell_angle_gamma 90.000000
_cell_volume 1199.623691
_symmetry_space_group_name_H-M "P 21/M"
_symmetry_group_IT_number 11
_symmetry_cell_setting 'monoclinic'
loop_
_space_group_symop_operation_xyz
x,y,z
-x,1/2+y,-z
-x,-y,-z
x,1/2-y,z
loop_
_atom_site_type_symbol
_atom_site_label
_atom_site_fract_x
_atom_site_fract_y
_atom_site_fract_z
Si Si1 0.868568 0.332793 0.549184
Si Si2 0.704180 0.834167 0.146131
Si Si3 0.305198 0.075507 0.559274
Si Si4 0.720188 0.035626 0.921716
Si Si5 0.253432 0.172314 0.372895
Si Si6 0.919352 0.534898 0.391119
Si Si7 0.601523 0.330353 0.661671
O O1 0.815557 0.250000 0.641529
O O2 0.775935 0.385965 0.791102
O O3 0.783050 0.357325 0.507579
O O4 0.102693 0.336812 0.219679
O O5 0.685835 0.750000 0.209888
O O6 0.741523 0.887069 0.226827
O O7 0.506360 0.857867 0.334053
O O8 0.339450 0.141561 0.403353
O O9 0.145673 0.030419 0.686951
O O10 0.506536 0.033350 0.280677
O O11 0.879031 0.008048 0.820199
O O12 0.749694 0.992477 0.731679
O O13 0.178747 0.250000 0.489196
O O14 0.081092 0.118378 0.581081
O O15 0.424079 0.170143 0.020957
O O16 0.655067 0.250000 0.551981
#
# Coordination Sequence:
#
# PCOD9162024 Si02
#       7
#     4   4   4   4   4   4   4
#     4  10  20  34  57  82 109 149 192 235 279 334
#     4  10  21  35  53  83 121 149 177 231 298 337
#     4  10  21  35  58  83 113 145 183 235 287 327
#     4  11  20  38  60  84 111 150 201 230 278 341
#     4   9  17  34  58  84 111 141 188 237 277 331
#     4   9  22  35  57  85 116 149 186 239 285 330
#     4   9  17  32  53  79 110 145 185 227 275 338
#
# _framework density 23.340653
#
# number of rings (size 3 to 8) (size 9 to 14) (size 15 to 20)
#    0.857    1.429    1.429    1.714    0.000    3.429 
#    0.000    0.714    0.000   10.286    0.000    0.000 
#    0.000    0.000    0.000    0.000    0.000    0.000 
#
# Total GULP energy -156058.846590 kJ/mol
# GULP energy per Si atom -5573.530235 kJ/mol
# Density = 2.328753 g / cm^3
# Si number density = 23.340653 Si / 1000 Ang^3
#
#
#
# Elastic Constant Matrix: (Units=GPa)
#
#
# Indices 1 2 3 4 5 6 
#
# 1 71.4021 -6.3028 46.1652 0.0000 -23.5479 0.0000
# 2 -6.3028 67.9502 12.3351 0.0000 -5.7075 0.0000
# 3 46.1652 12.3351 37.6487 0.0000 0.8514 0.0000
# 4 0.0000 0.0000 0.0000 23.5368 0.0000 5.3525
# 5 -23.5479 -5.7075 0.8514 0.0000 18.8808 0.0000
# 6 0.0000 0.0000 0.0000 5.3525 0.0000 18.7069
#
#
#
# Elastic Compliance Matrix: (Units=1/GPa)
#
#
# Indices 1 2 3 4 5 6 
#
# 1 -0.032205 -0.015183 0.045522 0.000000 -0.046808 0.000000
# 2 -0.015183 0.008969 0.016062 0.000000 -0.016949 0.000000
# 3 0.045522 0.016062 -0.035952 0.000000 0.063252 0.000000
# 4 0.000000 0.000000 0.000000 0.045443 0.000000 -0.013002
# 5 -0.046808 -0.016949 0.063252 0.000000 -0.013390 0.000000
# 6 0.000000 0.000000 0.000000 -0.013002 0.000000 0.057177
#
#
# Mechanical properties :
#
#
# Convention : Reuss Voigt Hill
#
# Bulk Modulus (GPa) = 29.74758 31.26621 30.50690
# Shear Modulus (GPa) = -96.98391 20.54512 -38.21939
#
# Velocity S-wave (km/s) = -6.45304 2.97008 -4.05094
# Velocity P-wave (km/s) = 6.53832 5.01862 2.96337
#
# Compressibility (1/GPa) = 0.03361618
#
# Stress axis : x y z
#
# Youngs Moduli (GPa) = -31.05153 111.49413 -27.81514
#
# Poissons Ratio (x) = 1.69277 1.26621
# Poissons Ratio (y) = -0.47144 0.44676
# Poissons Ratio (z) = 1.41354 -1.79079
#
# Static dielectric constant tensor:
#      x y z
#    x 1.958470 0.000000 -0.022940 
#    y 0.000000 1.894030 0.000000 
#    z -0.022940 0.000000 1.840540 
# 
# From -- ./inp_files/23287.got.cif
#   From: 2010.05.17/outbox.cif.g08.bks.cpg/sg11_12_cif.got.tgz:23287.got - 2010.06.03 12:22:45.
