data_PCOD9162963
_publ_section_title
;
Structure prediction by ZEFSAII (Michael W. Deem and Ramdas Pophale) SiO2 
 PCOD9162963
Probable space group: P 21/M
;
_chemical_formula_sum "Si O2"
_cell_formula_units_Z 32
_cell_length_a 24.340724
_cell_length_b 8.704725
_cell_length_c 16.096024
_cell_angle_alpha 90.000000
_cell_angle_beta 27.916267
_cell_angle_gamma 90.000000
_cell_volume 1596.690245
_symmetry_space_group_name_H-M "P 21/M"
_symmetry_group_IT_number 11
_symmetry_cell_setting 'monoclinic'
loop_
_space_group_symop_operation_xyz
x,y,z
-x,1/2+y,-z
-x,-y,-z
x,1/2-y,z
loop_
_atom_site_type_symbol
_atom_site_label
_atom_site_fract_x
_atom_site_fract_y
_atom_site_fract_z
Si Si1 0.127121 0.566037 0.310816
Si Si2 0.329190 0.564224 0.168863
Si Si3 0.369031 0.066258 0.670298
Si Si4 0.303140 0.433382 0.944173
Si Si5 0.828316 0.433227 0.178240
Si Si6 0.501848 0.565708 0.794459
Si Si7 0.282231 0.566993 0.415609
Si Si8 0.075873 0.431597 0.777943
O O1 0.122559 0.750000 0.310813
O O2 0.212919 0.524488 0.272671
O O3 0.192620 0.502054 0.141584
O O4 0.000000 0.500000 0.500000
O O5 0.335280 0.750000 0.164693
O O6 0.322117 0.506917 0.271953
O O7 0.436188 0.514107 0.967497
O O8 0.374090 0.250000 0.653410
O O9 0.500000 0.000000 0.500000
O O10 0.291503 0.993696 0.700842
O O11 0.307235 0.030798 0.841228
O O12 0.303287 0.250000 0.954218
O O13 0.421328 0.500128 0.828752
O O14 0.822866 0.250000 0.199881
O O15 0.866668 0.515571 0.211712
O O16 0.937499 0.464421 0.969795
O O17 0.500955 0.750000 0.790823
O O18 0.632920 0.504222 0.627994
O O19 0.293416 0.750000 0.403342
O O20 0.148755 0.519702 0.610887
O O21 0.091446 0.250000 0.746719
#
# Coordination Sequence:
#
# PCOD9162963 Si02
#       8
#     4   4   4   4   4   4   4   4
#     4  10  20  37  60  86 117 155 197 242 294 352
#     4   8  18  35  53  78 112 150 191 235 284 337
#     4  11  25  42  64  91 123 160 204 253 306 363
#     4  10  22  40  59  85 117 155 200 244 296 357
#     4  10  22  42  65  87 117 152 195 247 301 358
#     4  10  20  36  57  81 115 154 192 239 292 347
#     4  11  21  34  56  84 114 150 193 239 286 345
#     4  10  22  40  61  87 117 154 195 240 297 359
#
# _framework density 20.041457000000001
#
# number of rings (size 3 to 8) (size 9 to 14) (size 15 to 20)
#    0.000    2.000    0.000    3.750    1.750    4.500 
#    0.000   10.625    0.000    0.000    0.000    0.000 
#    0.000    0.000    0.000    0.000    0.000    0.000 
#
# Total GULP energy -178771.900589 kJ/mol
# GULP energy per Si atom -5586.621893 kJ/mol
# Density = 1.999584 g / cm^3
# Si number density = 20.041457 Si / 1000 Ang^3
#
#
#
# Elastic Constant Matrix: (Units=GPa)
#
#
# Indices 1 2 3 4 5 6 
#
# 1 50.6659 14.4715 16.7820 0.0000 -11.3407 0.0000
# 2 14.4715 47.2847 16.8409 0.0000 -4.8162 0.0000
# 3 16.7820 16.8409 49.4954 0.0000 -22.6892 0.0000
# 4 0.0000 0.0000 0.0000 35.5410 0.0000 -3.0789
# 5 -11.3407 -4.8162 -22.6892 0.0000 30.3463 0.0000
# 6 0.0000 0.0000 0.0000 -3.0789 0.0000 26.0240
#
#
#
# Elastic Compliance Matrix: (Units=1/GPa)
#
#
# Indices 1 2 3 4 5 6 
#
# 1 0.023691 -0.005352 -0.003868 0.000000 0.005112 0.000000
# 2 -0.005352 0.025521 -0.009021 0.000000 -0.004694 0.000000
# 3 -0.003868 -0.009021 0.035398 0.000000 0.023589 0.000000
# 4 0.000000 0.000000 0.000000 0.028428 0.000000 0.003363
# 5 0.005112 -0.004694 0.023589 0.000000 0.051755 0.000000
# 6 0.000000 0.000000 0.000000 0.003363 0.000000 0.038824
#
#
# Mechanical properties :
#
#
# Convention : Reuss Voigt Hill
#
# Bulk Modulus (GPa) = 20.77792 27.07053 23.92423
# Shear Modulus (GPa) = 19.52027 25.00571 22.26299
#
# Velocity S-wave (km/s) = 3.12427 3.53611 3.33655
# Velocity P-wave (km/s) = 4.83785 5.49624 5.17752
#
# Compressibility (1/GPa) = 0.04812801
#
# Stress axis : x y z
#
# Youngs Moduli (GPa) = 42.20932 39.18297 28.24987
#
# Poissons Ratio (x) = 0.20972 0.10928
# Poissons Ratio (y) = 0.22592 0.25484
# Poissons Ratio (z) = 0.16328 0.35346
#
# Static dielectric constant tensor:
#      x y z
#    x 1.697510 0.000000 0.017090 
#    y 0.000000 1.673180 0.000000 
#    z 0.017090 0.000000 1.735010 
# 
# From -- ./inp_files/55644.got.cif
#   From: 2010.05.17/outbox.cif.g08.bks.cpg/sg11_28_cif.got.tgz:55644.got - 2010.06.03 12:22:45.
