data_PCOD9162577
_publ_section_title
;
Structure prediction by ZEFSAII (Michael W. Deem and Ramdas Pophale) SiO2 
 PCOD9162577
Probable space group: P 21/M
;
_chemical_formula_sum "Si O2"
_cell_formula_units_Z 32
_cell_length_a 26.553604
_cell_length_b 8.850249
_cell_length_c 20.602658
_cell_angle_alpha 90.000000
_cell_angle_beta 21.429303
_cell_angle_gamma 90.000000
_cell_volume 1768.946866
_symmetry_space_group_name_H-M "P 21/M"
_symmetry_group_IT_number 11
_symmetry_cell_setting 'monoclinic'
loop_
_space_group_symop_operation_xyz
x,y,z
-x,1/2+y,-z
-x,-y,-z
x,1/2-y,z
loop_
_atom_site_type_symbol
_atom_site_label
_atom_site_fract_x
_atom_site_fract_y
_atom_site_fract_z
Si Si1 0.710405 0.931999 0.989800
Si Si2 0.649877 0.567703 0.807850
Si Si3 0.787070 0.567671 0.506914
Si Si4 0.699788 0.430452 0.217289
Si Si5 0.583413 0.069689 0.495587
Si Si6 0.848489 0.932099 0.687600
Si Si7 0.410350 0.430903 0.375697
Si Si8 0.089452 0.069151 0.130340
O O1 0.692225 0.750000 0.012405
O O2 0.563100 0.008156 0.177211
O O3 0.776296 0.975943 0.841830
O O4 0.815288 0.971631 0.921925
O O5 0.639870 0.750000 0.820747
O O6 0.711537 0.522252 0.664246
O O7 0.753669 0.521415 0.740753
O O8 0.500000 0.500000 0.000000
O O9 0.801313 0.750000 0.490576
O O10 0.692602 0.526070 0.558809
O O11 0.937053 0.494908 0.322105
O O12 0.698096 0.250000 0.210661
O O13 0.566453 0.500908 0.341519
O O14 0.678848 0.463322 0.318746
O O15 0.834773 0.500136 0.023152
O O16 0.569425 0.250000 0.518563
O O17 0.633376 0.999714 0.502836
O O18 0.858945 0.750000 0.674442
O O19 0.000000 0.000000 0.500000
O O20 0.414201 0.250000 0.375565
O O21 0.085943 0.250000 0.129868
#
# Coordination Sequence:
#
# PCOD9162577 Si02
#       8
#     4   4   4   4   4   4   4   4
#     4  10  21  36  55  82 114 143 183 237 285 338
#     4  10  21  38  59  82 110 148 192 236 283 338
#     4  10  23  40  56  80 116 152 192 238 284 340
#     4  10  20  35  58  86 116 150 185 227 279 332
#     4  10  20  35  57  86 117 147 185 232 278 330
#     4  10  21  36  55  81 111 145 184 231 286 338
#     4  11  22  36  57  84 111 148 191 233 284 335
#     4  11  22  36  57  85 115 152 192 232 284 338
#
# _framework density 18.089860000000002
#
# number of rings (size 3 to 8) (size 9 to 14) (size 15 to 20)
#    0.000    1.750    1.250    3.000    0.000    4.500 
#    0.000    0.625    0.000    0.000    0.000    0.000 
#    0.000    0.000    0.000    0.000    0.000    0.000 
#
# Total GULP energy -178807.961488 kJ/mol
# GULP energy per Si atom -5587.748796 kJ/mol
# Density = 1.804869 g / cm^3
# Si number density = 18.089860 Si / 1000 Ang^3
#
#
#
# Elastic Constant Matrix: (Units=GPa)
#
#
# Indices 1 2 3 4 5 6 
#
# 1 167.0164 56.9729 106.7207 0.0000 7.1864 0.0000
# 2 56.9729 37.0728 53.5423 0.0000 1.7013 0.0000
# 3 106.7207 53.5423 161.3996 0.0000 4.5097 0.0000
# 4 0.0000 0.0000 0.0000 36.2803 0.0000 1.1207
# 5 7.1864 1.7013 4.5097 0.0000 34.4103 0.0000
# 6 0.0000 0.0000 0.0000 1.1207 0.0000 21.2613
#
#
#
# Elastic Compliance Matrix: (Units=1/GPa)
#
#
# Indices 1 2 3 4 5 6 
#
# 1 0.013909 -0.015519 -0.004004 0.000000 -0.001613 0.000000
# 2 -0.015519 0.069102 -0.012704 0.000000 0.001489 0.000000
# 3 -0.004004 -0.012704 0.013064 0.000000 -0.000248 0.000000
# 4 0.000000 0.000000 0.000000 0.027608 0.000000 -0.001455
# 5 -0.001613 0.001489 -0.000248 0.000000 0.029357 0.000000
# 6 0.000000 0.000000 0.000000 -0.001455 0.000000 0.047110
#
#
# Mechanical properties :
#
#
# Convention : Reuss Voigt Hill
#
# Bulk Modulus (GPa) = 31.62281 88.88452 60.25366
# Shear Modulus (GPa) = 18.17224 28.27392 23.22308
#
# Velocity S-wave (km/s) = 3.17291 3.95773 3.58685
# Velocity P-wave (km/s) = 5.56256 8.37416 7.10875
#
# Compressibility (1/GPa) = 0.03162274
#
# Stress axis : x y z
#
# Youngs Moduli (GPa) = 71.89676 14.47126 76.54345
#
# Poissons Ratio (x) = 0.22457 0.30645
# Poissons Ratio (y) = 1.11574 0.97243
# Poissons Ratio (z) = 0.28785 0.18385
#
# Static dielectric constant tensor:
#      x y z
#    x 1.621820 0.000000 0.016770 
#    y 0.000000 1.609580 0.000000 
#    z 0.016770 0.000000 1.584320 
# 
# From -- ./inp_files/66962.got.cif
#   From: 2010.05.17/outbox.cif.g08.bks.cpg/sg11_34_cif.got.tgz:66962.got - 2010.06.03 12:22:45.
