data_PCOD9162589
_publ_section_title
;
Structure prediction by ZEFSAII (Michael W. Deem and Ramdas Pophale) SiO2 
 PCOD9162589
Probable space group: P 21/M
;
_chemical_formula_sum "Si O2"
_cell_formula_units_Z 32
_cell_length_a 15.151914
_cell_length_b 9.005568
_cell_length_c 12.969541
_cell_angle_alpha 90.000000
_cell_angle_beta 120.714596
_cell_angle_gamma 90.000000
_cell_volume 1521.462828
_symmetry_space_group_name_H-M "P 21/M"
_symmetry_group_IT_number 11
_symmetry_cell_setting 'monoclinic'
loop_
_space_group_symop_operation_xyz
x,y,z
-x,1/2+y,-z
-x,-y,-z
x,1/2-y,z
loop_
_atom_site_type_symbol
_atom_site_label
_atom_site_fract_x
_atom_site_fract_y
_atom_site_fract_z
Si Si1 0.331515 0.575374 0.181839
Si Si2 0.265404 0.420320 0.485288
Si Si3 0.076474 0.922100 0.466225
Si Si4 0.734198 0.574875 0.058064
Si Si5 0.155935 0.418314 0.196745
Si Si6 0.538635 0.073179 0.328896
Si Si7 0.575673 0.926694 0.129062
Si Si8 0.972551 0.579234 0.178420
O O1 0.345116 0.750000 0.198792
O O2 0.224485 0.522470 0.166445
O O3 0.427163 0.491122 0.290549
O O4 0.327022 0.523015 0.060610
O O5 0.286991 0.250000 0.527798
O O6 0.184111 0.493397 0.515471
O O7 0.211170 0.420331 0.341516
O O8 0.369816 0.512943 0.545668
O O9 0.093392 0.750000 0.504295
O O10 0.022131 0.926098 0.321842
O O11 0.000000 0.000000 0.500000
O O12 0.719681 0.750000 0.023460
O O13 0.687952 0.555126 0.144154
O O14 0.853797 0.538597 0.118862
O O15 0.157426 0.250000 0.157930
O O16 0.041279 0.476210 0.147043
O O17 0.535717 0.250000 0.325423
O O18 0.564659 0.007845 0.231082
O O19 0.555463 0.750000 0.127902
O O20 0.500000 0.000000 0.000000
O O21 0.979519 0.750000 0.146823
#
# Coordination Sequence:
#
# PCOD9162589 Si02
#       8
#     4   4   4   4   4   4   4   4
#     4  12  25  41  64  90 119 159 204 253 304 365
#     4  10  22  41  63  88 120 158 202 251 305 364
#     4  10  20  35  57  87 121 160 203 249 301 358
#     4  10  22  40  62  89 123 162 203 250 301 355
#     4  10  22  42  66  90 120 157 198 254 308 359
#     4  12  25  41  62  91 125 161 203 252 303 365
#     4  11  22  38  62  89 124 165 203 250 304 357
#     4   9  20  39  61  87 120 159 201 247 300 357
#
# _framework density 21.032389999999999
#
# number of rings (size 3 to 8) (size 9 to 14) (size 15 to 20)
#    0.000    1.500    1.250    3.750    1.750    4.000 
#    0.000    0.000    0.000    0.000    0.000    0.000 
#    0.000    0.000    0.000    0.000    0.000    0.000 
#
# Total GULP energy -178998.304207 kJ/mol
# GULP energy per Si atom -5593.697006 kJ/mol
# Density = 2.098452 g / cm^3
# Si number density = 21.032390 Si / 1000 Ang^3
#
#
#
# Elastic Constant Matrix: (Units=GPa)
#
#
# Indices 1 2 3 4 5 6 
#
# 1 99.6405 49.1518 3.3901 0.0000 11.3698 0.0000
# 2 49.1518 143.2214 18.3386 0.0000 8.7507 0.0000
# 3 3.3901 18.3386 35.1153 0.0000 12.4318 0.0000
# 4 0.0000 0.0000 0.0000 26.8685 0.0000 1.1516
# 5 11.3698 8.7507 12.4318 0.0000 36.0568 0.0000
# 6 0.0000 0.0000 0.0000 1.1516 0.0000 37.6497
#
#
#
# Elastic Compliance Matrix: (Units=1/GPa)
#
#
# Indices 1 2 3 4 5 6 
#
# 1 0.012541 -0.004383 0.002394 0.000000 -0.003716 0.000000
# 2 -0.004383 0.009024 -0.004560 0.000000 0.000764 0.000000
# 3 0.002394 -0.004560 0.034744 0.000000 -0.011627 0.000000
# 4 0.000000 0.000000 0.000000 0.037267 0.000000 -0.001140
# 5 -0.003716 0.000764 -0.011627 0.000000 0.032729 0.000000
# 6 0.000000 0.000000 0.000000 -0.001140 0.000000 0.026596
#
#
# Mechanical properties :
#
#
# Convention : Reuss Voigt Hill
#
# Bulk Modulus (GPa) = 23.14262 46.63759 34.89010
# Shear Modulus (GPa) = 27.71574 33.92145 30.81860
#
# Velocity S-wave (km/s) = 3.63404 4.02035 3.83207
# Velocity P-wave (km/s) = 5.35122 6.61614 6.01701
#
# Compressibility (1/GPa) = 0.04321033
#
# Stress axis : x y z
#
# Youngs Moduli (GPa) = 79.73871 110.81937 28.78170
#
# Poissons Ratio (x) = 0.48576 -0.06891
# Poissons Ratio (y) = 0.34953 0.13124
# Poissons Ratio (z) = -0.19090 0.50533
#
# Static dielectric constant tensor:
#      x y z
#    x 1.756870 0.000000 0.002930 
#    y 0.000000 1.713840 0.000000 
#    z 0.002930 0.000000 1.766360 
# 
# From -- ./inp_files/51727.got.cif
#   From: 2010.05.17/outbox.cif.g08.bks.cpg/sg11_26_cif.got.tgz:51727.got - 2010.06.03 12:22:45.
