data_PCOD9162681
_publ_section_title
;
Structure prediction by ZEFSAII (Michael W. Deem and Ramdas Pophale) SiO2 
 PCOD9162681
Probable space group: P 21/M
;
_chemical_formula_sum "Si O2"
_cell_formula_units_Z 28
_cell_length_a 15.878512
_cell_length_b 8.570632
_cell_length_c 11.998530
_cell_angle_alpha 90.000000
_cell_angle_beta 124.163498
_cell_angle_gamma 90.000000
_cell_volume 1351.096643
_symmetry_space_group_name_H-M "P 21/M"
_symmetry_group_IT_number 11
_symmetry_cell_setting 'monoclinic'
loop_
_space_group_symop_operation_xyz
x,y,z
-x,1/2+y,-z
-x,-y,-z
x,1/2-y,z
loop_
_atom_site_type_symbol
_atom_site_label
_atom_site_fract_x
_atom_site_fract_y
_atom_site_fract_z
Si Si1 0.299608 0.933815 0.597012
Si Si2 0.275003 0.061813 0.344541
Si Si3 0.513759 0.934908 0.134228
Si Si4 0.326003 0.063510 0.132018
Si Si5 0.114228 0.434275 0.582416
Si Si6 0.959632 0.937590 0.852672
Si Si7 0.851882 0.063467 0.155888
O O1 0.310627 0.750000 0.621042
O O2 0.323157 0.981779 0.487752
O O3 0.376002 0.022581 0.735900
O O4 0.185482 0.986587 0.543177
O O5 0.279718 0.250000 0.361809
O O6 0.322053 0.021478 0.259671
O O7 0.156208 0.013241 0.252060
O O8 0.498702 0.750000 0.122430
O O9 0.430306 0.013691 0.151913
O O10 0.500000 0.000000 0.000000
O O11 0.311766 0.250000 0.113595
O O12 0.234475 0.982075 0.996731
O O13 0.111670 0.250000 0.561156
O O14 0.162140 0.476038 0.738138
O O15 0.000000 0.500000 0.500000
O O16 0.960022 0.750000 0.857890
O O17 0.039194 0.982736 0.815903
O O18 0.000000 0.000000 0.000000
O O19 0.850657 0.250000 0.174049
#
# Coordination Sequence:
#
# PCOD9162681 Si02
#       7
#     4   4   4   4   4   4   4
#     4  12  26  45  69  97 130 171 216 265 324 388
#     4  10  22  41  64  94 133 175 217 266 320 382
#     4  12  26  47  72  97 128 165 213 271 327 386
#     4  11  23  41  66  96 130 169 216 267 321 383
#     4  12  25  43  66  94 129 170 216 265 321 383
#     4  10  20  35  58  89 128 171 213 259 311 370
#     4  11  22  37  61  94 131 171 217 268 322 381
#
# _framework density 20.723905999999999
#
# number of rings (size 3 to 8) (size 9 to 14) (size 15 to 20)
#    0.000    0.857    1.429    6.429    0.000    4.000 
#    0.000    0.000    0.000    0.000    0.000    0.000 
#    0.000    0.000    0.000    0.000    0.000    0.000 
#
# Total GULP energy -156767.447362 kJ/mol
# GULP energy per Si atom -5598.837406 kJ/mol
# Density = 2.067674 g / cm^3
# Si number density = 20.723906 Si / 1000 Ang^3
#
#
#
# Elastic Constant Matrix: (Units=GPa)
#
#
# Indices 1 2 3 4 5 6 
#
# 1 105.4545 -1.7187 14.7503 0.0000 -12.3492 0.0000
# 2 -1.7187 33.3732 -4.5904 0.0000 -11.7385 0.0000
# 3 14.7503 -4.5904 89.4439 0.0000 -16.2917 0.0000
# 4 0.0000 0.0000 0.0000 38.9193 0.0000 -1.1838
# 5 -12.3492 -11.7385 -16.2917 0.0000 35.0084 0.0000
# 6 0.0000 0.0000 0.0000 -1.1838 0.0000 33.5279
#
#
#
# Elastic Compliance Matrix: (Units=1/GPa)
#
#
# Indices 1 2 3 4 5 6 
#
# 1 0.010070 0.001697 -0.000899 0.000000 0.003703 0.000000
# 2 0.001697 0.035744 0.004203 0.000000 0.014540 0.000000
# 3 -0.000899 0.004203 0.012831 0.000000 0.007063 0.000000
# 4 0.000000 0.000000 0.000000 0.025722 0.000000 0.000908
# 5 0.003703 0.014540 0.007063 0.000000 0.038033 0.000000
# 6 0.000000 0.000000 0.000000 0.000908 0.000000 0.029858
#
#
# Mechanical properties :
#
#
# Convention : Reuss Voigt Hill
#
# Bulk Modulus (GPa) = 14.56738 27.23932 20.90335
# Shear Modulus (GPa) = 30.27791 36.14646 33.21218
#
# Velocity S-wave (km/s) = 3.82647 4.18088 4.00759
# Velocity P-wave (km/s) = 5.15432 6.03977 5.61453
#
# Compressibility (1/GPa) = 0.06864652
#
# Stress axis : x y z
#
# Youngs Moduli (GPa) = 99.30682 27.97689 77.93838
#
# Poissons Ratio (x) = -0.04749 0.07007
# Poissons Ratio (y) = -0.16856 -0.32756
# Poissons Ratio (z) = 0.08928 -0.11758
#
# Static dielectric constant tensor:
#      x y z
#    x 1.738150 0.000000 0.000950 
#    y 0.000000 1.693240 0.000000 
#    z 0.000950 0.000000 1.728560 
# 
# From -- ./inp_files/38409.got.cif
#   From: 2010.05.17/outbox.cif.g08.bks.cpg/sg11_20_cif.got.tgz:38409.got - 2010.06.03 12:22:45.
