data_PCOD9162133
_publ_section_title
;
Structure prediction by ZEFSAII (Michael W. Deem and Ramdas Pophale) SiO2 
 PCOD9162133
Probable space group: P 21/M
;
_chemical_formula_sum "Si O2"
_cell_formula_units_Z 20
_cell_length_a 17.176935
_cell_length_b 10.370963
_cell_length_c 11.378565
_cell_angle_alpha 90.000000
_cell_angle_beta 22.537852
_cell_angle_gamma 90.000000
_cell_volume 776.933657
_symmetry_space_group_name_H-M "P 21/M"
_symmetry_group_IT_number 11
_symmetry_cell_setting 'monoclinic'
loop_
_space_group_symop_operation_xyz
x,y,z
-x,1/2+y,-z
-x,-y,-z
x,1/2-y,z
loop_
_atom_site_type_symbol
_atom_site_label
_atom_site_fract_x
_atom_site_fract_y
_atom_site_fract_z
Si Si1 0.587738 0.901936 0.972514
Si Si2 0.272923 0.503598 0.581147
Si Si3 0.801694 0.250000 0.889680
Si Si4 0.622933 0.750000 0.456288
Si Si5 0.014007 0.478209 0.703137
Si Si6 0.566616 0.250000 0.537254
Si Si7 0.097973 0.250000 0.248863
O O1 0.526804 0.750000 0.038573
O O2 0.822829 0.921547 0.619041
O O3 0.495615 0.971348 0.214293
O O4 0.500000 0.000000 0.000000
O O5 0.256009 0.378887 0.684794
O O6 0.121652 0.486943 0.681042
O O7 0.282146 0.631472 0.646226
O O8 0.839890 0.374725 0.919536
O O9 0.941434 0.250000 0.577837
O O10 0.564315 0.250000 0.190623
O O11 0.529053 0.750000 0.458281
O O12 0.950667 0.620839 0.754751
O O13 0.346107 0.250000 0.920002
#
# Coordination Sequence:
#
# PCOD9162133 Si02
#       7
#     4   4   2   2   4   2   2
#     4  10  20  34  62  99 137 169 215 277 338 397
#     4  11  23  43  68  94 133 183 230 276 335 408
#     4  12  23  44  65 102 138 172 220 282 349 400
#     4  12  27  44  69  98 134 186 230 280 341 412
#     4  11  23  40  67 100 134 173 230 280 334 399
#     4  12  25  48  67  96 138 182 232 276 345 418
#     4  12  25  42  69 100 138 182 216 282 353 396
#
# _framework density 25.742224
#
# number of rings (size 3 to 8) (size 9 to 14) (size 15 to 20)
#    0.000    0.800    2.000    6.000    8.400    0.000 
#    0.000    6.000    0.000    0.000    0.000    0.000 
#    0.000    0.000    0.000    0.000    0.000    0.000 
#
# Total GULP energy -111678.760231 kJ/mol
# GULP energy per Si atom -5583.938012 kJ/mol
# Density = 2.568363 g / cm^3
# Si number density = 25.742224 Si / 1000 Ang^3
#
#
#
# Elastic Constant Matrix: (Units=GPa)
#
#
# Indices 1 2 3 4 5 6 
#
# 1 126.0482 66.6796 -5.2889 0.0000 12.8542 0.0000
# 2 66.6796 220.9055 -15.6845 0.0000 15.8584 0.0000
# 3 -5.2889 -15.6845 102.1264 0.0000 13.3515 0.0000
# 4 0.0000 0.0000 0.0000 -13.2466 0.0000 -15.1397
# 5 12.8542 15.8584 13.3515 0.0000 28.1536 0.0000
# 6 0.0000 0.0000 0.0000 -15.1397 0.0000 46.7841
#
#
#
# Elastic Compliance Matrix: (Units=1/GPa)
#
#
# Indices 1 2 3 4 5 6 
#
# 1 0.009685 -0.002660 0.000507 0.000000 -0.003164 0.000000
# 2 -0.002660 0.005577 0.001035 0.000000 -0.002417 0.000000
# 3 0.000507 0.001035 0.010750 0.000000 -0.005912 0.000000
# 4 0.000000 0.000000 0.000000 -0.055109 0.000000 -0.017834
# 5 -0.003164 -0.002417 -0.005912 0.000000 0.041129 0.000000
# 6 0.000000 0.000000 0.000000 -0.017834 0.000000 0.015604
#
#
# Mechanical properties :
#
#
# Convention : Reuss Voigt Hill
#
# Bulk Modulus (GPa) = 42.06355 60.05471 51.05913
# Shear Modulus (GPa) = 132.28280 39.22980 85.75630
#
# Velocity S-wave (km/s) = 7.17628 3.90801 5.77804
# Velocity P-wave (km/s) = 9.22178 6.61387 8.02448
#
# Compressibility (1/GPa) = 0.02377355
#
# Stress axis : x y z
#
# Youngs Moduli (GPa) = 103.25697 179.31406 93.02444
#
# Poissons Ratio (x) = 0.47701 -0.04712
# Poissons Ratio (y) = 0.27468 -0.09626
# Poissons Ratio (z) = -0.05231 -0.18555
#
# Static dielectric constant tensor:
#      x y z
#    x 2.050820 0.000000 0.041840 
#    y 0.000000 1.806150 0.000000 
#    z 0.041840 0.000000 2.226990 
# 
# From -- ./inp_files/40890.got.cif
#   From: 2010.05.17/outbox.cif.g08.bks.cpg/sg11_21_cif.got.tgz:40890.got - 2010.06.03 12:22:45.
