data_PCOD9162146
_publ_section_title
;
Structure prediction by ZEFSAII (Michael W. Deem and Ramdas Pophale) SiO2 
 PCOD9162146
Probable space group: P 21/M
;
_chemical_formula_sum "Si O2"
_cell_formula_units_Z 32
_cell_length_a 14.724961
_cell_length_b 8.701903
_cell_length_c 26.951909
_cell_angle_alpha 90.000000
_cell_angle_beta 144.550730
_cell_angle_gamma 90.000000
_cell_volume 2002.960420
_symmetry_space_group_name_H-M "P 21/M"
_symmetry_group_IT_number 11
_symmetry_cell_setting 'monoclinic'
loop_
_space_group_symop_operation_xyz
x,y,z
-x,1/2+y,-z
-x,-y,-z
x,1/2-y,z
loop_
_atom_site_type_symbol
_atom_site_label
_atom_site_fract_x
_atom_site_fract_y
_atom_site_fract_z
Si Si1 0.450696 0.434692 0.899923
Si Si2 0.029097 0.070339 0.357195
Si Si3 0.943589 0.433632 0.736758
Si Si4 0.731927 0.566158 0.081222
Si Si5 0.176975 0.566917 0.579952
Si Si6 0.326210 0.565928 0.540879
Si Si7 0.733756 0.932442 0.278043
Si Si8 0.578112 0.433947 0.585372
O O1 0.446281 0.250000 0.896743
O O2 0.338573 0.482477 0.896177
O O3 0.385462 0.489081 0.817812
O O4 0.622969 0.490053 0.991444
O O5 0.004166 0.250000 0.355780
O O6 0.015654 0.029434 0.293841
O O7 0.199790 0.017344 0.449959
O O8 0.904394 0.970977 0.331979
O O9 0.954407 0.250000 0.729962
O O10 0.763996 0.465806 0.670174
O O11 0.083140 0.467209 0.837434
O O12 0.711883 0.750000 0.069046
O O13 0.161176 0.750000 0.574666
O O14 0.273681 0.526573 0.573382
O O15 0.267788 0.509429 0.668988
O O16 0.000000 0.500000 0.500000
O O17 0.315697 0.750000 0.530177
O O18 0.491377 0.507483 0.593957
O O19 0.716018 0.750000 0.275781
O O20 0.500000 0.500000 0.500000
O O21 0.556740 0.250000 0.575530
#
# Coordination Sequence:
#
# PCOD9162146 Si02
#       8
#     4   4   4   4   4   4   4   4
#     4   9  18  31  48  72 101 134 166 202 252 302
#     4  12  22  30  49  75 101 135 177 212 246 300
#     4  10  20  35  51  71 103 139 171 208 256 299
#     4   9  17  31  49  70 100 135 167 203 249 300
#     4  11  23  36  53  75 100 135 174 211 253 302
#     4  11  23  38  52  69 103 138 169 215 260 294
#     4  11  21  35  52  72 104 139 170 210 257 301
#     4  11  22  34  53  76 101 135 176 212 251 303
#
# _framework density 15.976350999999999
#
# number of rings (size 3 to 8) (size 9 to 14) (size 15 to 20)
#    0.000    1.500    3.750    2.625    0.000    3.500 
#    0.000    0.000    0.000    0.000    0.000    0.875 
#    0.000    0.000    0.000    0.000    0.000    0.000 
#
# Total GULP energy -178544.858197 kJ/mol
# GULP energy per Si atom -5579.526819 kJ/mol
# Density = 1.593999 g / cm^3
# Si number density = 15.976351 Si / 1000 Ang^3
#
#
#
# Elastic Constant Matrix: (Units=GPa)
#
#
# Indices 1 2 3 4 5 6 
#
# 1 65.9744 21.0086 21.7800 0.0000 3.6939 0.0000
# 2 21.0086 23.2220 17.6961 0.0000 -0.2993 0.0000
# 3 21.7800 17.6961 97.4647 0.0000 5.2856 0.0000
# 4 0.0000 0.0000 0.0000 25.0578 0.0000 0.0720
# 5 3.6939 -0.2993 5.2856 0.0000 20.1603 0.0000
# 6 0.0000 0.0000 0.0000 0.0720 0.0000 23.5761
#
#
#
# Elastic Compliance Matrix: (Units=1/GPa)
#
#
# Indices 1 2 3 4 5 6 
#
# 1 0.021776 -0.018808 -0.001237 0.000000 -0.003945 0.000000
# 2 -0.018808 0.066423 -0.008214 0.000000 0.006586 0.000000
# 3 -0.001237 -0.008214 0.012196 0.000000 -0.003093 0.000000
# 4 0.000000 0.000000 0.000000 0.039908 0.000000 -0.000122
# 5 -0.003945 0.006586 -0.003093 0.000000 0.051234 0.000000
# 6 0.000000 0.000000 0.000000 -0.000122 0.000000 0.042416
#
#
# Mechanical properties :
#
#
# Convention : Reuss Voigt Hill
#
# Bulk Modulus (GPa) = 22.79213 34.18118 28.48666
# Shear Modulus (GPa) = 16.38820 22.17058 19.27939
#
# Velocity S-wave (km/s) = 3.20625 3.72924 3.47759
# Velocity P-wave (km/s) = 5.29187 6.32331 5.83045
#
# Compressibility (1/GPa) = 0.04387479
#
# Stress axis : x y z
#
# Youngs Moduli (GPa) = 45.92202 15.05506 81.99595
#
# Poissons Ratio (x) = 0.28316 0.10146
# Poissons Ratio (y) = 0.86372 0.67352
# Poissons Ratio (z) = 0.05682 0.12366
#
# Static dielectric constant tensor:
#      x y z
#    x 1.533800 0.000000 -0.000950 
#    y 0.000000 1.535510 0.000000 
#    z -0.000950 0.000000 1.548140 
# 
# From -- ./inp_files/71640.got.cif
#   From: 2010.05.17/outbox.cif.g08.bks.cpg/sg11_36_cif.got.tgz:71640.got - 2010.06.03 12:22:45.
