data_PCOD9162157
_publ_section_title
;
Structure prediction by ZEFSAII (Michael W. Deem and Ramdas Pophale) SiO2 
 PCOD9162157
Probable space group: P 21/M
;
_chemical_formula_sum "Si O2"
_cell_formula_units_Z 32
_cell_length_a 14.734283
_cell_length_b 8.828342
_cell_length_c 15.938652
_cell_angle_alpha 90.000000
_cell_angle_beta 62.873420
_cell_angle_gamma 90.000000
_cell_volume 1845.229645
_symmetry_space_group_name_H-M "P 21/M"
_symmetry_group_IT_number 11
_symmetry_cell_setting 'monoclinic'
loop_
_space_group_symop_operation_xyz
x,y,z
-x,1/2+y,-z
-x,-y,-z
x,1/2-y,z
loop_
_atom_site_type_symbol
_atom_site_label
_atom_site_fract_x
_atom_site_fract_y
_atom_site_fract_z
Si Si1 0.180777 0.927842 0.431025
Si Si2 0.151267 0.429784 0.263848
Si Si3 0.724538 0.930436 0.349600
Si Si4 0.345782 0.930268 0.095630
Si Si5 0.389063 0.571171 0.443902
Si Si6 0.586990 0.430320 0.274333
Si Si7 0.549572 0.569592 0.109204
Si Si8 0.918616 0.432023 0.351520
O O1 0.163756 0.750000 0.418743
O O2 0.296191 0.943110 0.416680
O O3 0.109825 0.970832 0.539919
O O4 0.162296 0.024959 0.356628
O O5 0.165285 0.250000 0.248718
O O6 0.237773 0.515837 0.175726
O O7 0.035992 0.468226 0.285266
O O8 0.718469 0.750000 0.351756
O O9 0.651330 0.996945 0.453557
O O10 0.684416 0.998305 0.279613
O O11 0.837395 0.985524 0.326944
O O12 0.347057 0.750000 0.081098
O O13 0.434077 0.964372 0.127065
O O14 0.378801 0.014605 0.996889
O O15 0.407884 0.750000 0.449260
O O16 0.488464 0.491660 0.365978
O O17 0.590911 0.250000 0.276942
O O18 0.575861 0.486149 0.183886
O O19 0.557837 0.750000 0.117414
O O20 0.903224 0.250000 0.350916
#
# Coordination Sequence:
#
# PCOD9162157 Si02
#       8
#     4   4   4   4   4   4   4   4
#     4   9  18  32  50  73 106 143 177 217 261 306
#     4  11  21  32  52  79 107 140 178 218 260 312
#     4  11  22  36  54  76 103 139 181 223 265 309
#     4  10  21  37  57  81 110 140 170 211 262 313
#     4  10  20  35  52  75 109 144 178 218 262 309
#     4  12  23  35  54  79 107 140 177 216 261 315
#     4  10  21  38  58  81 109 139 173 214 259 310
#     4   9  20  37  52  72 105 143 180 220 264 307
#
# _framework density 17.342015
#
# number of rings (size 3 to 8) (size 9 to 14) (size 15 to 20)
#    0.000    1.750    0.000    6.000    0.000    8.000 
#    0.000    0.000    0.000    0.750    0.000    0.000 
#    0.000    0.000    0.000    0.000    0.000    0.000 
#
# Total GULP energy -178839.150678 kJ/mol
# GULP energy per Si atom -5588.723459 kJ/mol
# Density = 1.730254 g / cm^3
# Si number density = 17.342015 Si / 1000 Ang^3
#
#
#
# Elastic Constant Matrix: (Units=GPa)
#
#
# Indices 1 2 3 4 5 6 
#
# 1 91.9570 60.1047 66.3012 0.0000 1.2368 0.0000
# 2 60.1047 100.6452 45.1455 0.0000 5.9250 0.0000
# 3 66.3012 45.1455 62.3394 0.0000 -0.9882 0.0000
# 4 0.0000 0.0000 0.0000 31.3749 0.0000 2.1693
# 5 1.2368 5.9250 -0.9882 0.0000 28.4920 0.0000
# 6 0.0000 0.0000 0.0000 2.1693 0.0000 28.8163
#
#
#
# Elastic Compliance Matrix: (Units=1/GPa)
#
#
# Indices 1 2 3 4 5 6 
#
# 1 0.051956 -0.009042 -0.048742 0.000000 -0.002066 0.000000
# 2 -0.009042 0.016633 -0.002479 0.000000 -0.003152 0.000000
# 3 -0.048742 -0.002479 0.069756 0.000000 0.005051 0.000000
# 4 0.000000 0.000000 0.000000 0.032039 0.000000 -0.002412
# 5 -0.002066 -0.003152 0.005051 0.000000 0.036018 0.000000
# 6 0.000000 0.000000 0.000000 -0.002412 0.000000 0.034884
#
#
# Mechanical properties :
#
#
# Convention : Reuss Voigt Hill
#
# Bulk Modulus (GPa) = 56.11972 66.44937 61.28455
# Shear Modulus (GPa) = 13.59608 23.29598 18.44603
#
# Velocity S-wave (km/s) = 2.80303 3.66912 3.26492
# Velocity P-wave (km/s) = 6.55033 7.50667 7.04474
#
# Compressibility (1/GPa) = 0.01781905
#
# Stress axis : x y z
#
# Youngs Moduli (GPa) = 19.24710 60.12022 14.33565
#
# Poissons Ratio (x) = 0.54363 0.69875
# Poissons Ratio (y) = 0.17404 0.03553
# Poissons Ratio (z) = 0.93815 0.14902
#
# Static dielectric constant tensor:
#      x y z
#    x 1.592160 0.000000 -0.001620 
#    y 0.000000 1.570890 0.000000 
#    z -0.001620 0.000000 1.561140 
# 
# From -- ./inp_files/51699.got.cif
#   From: 2010.05.17/outbox.cif.g08.bks.cpg/sg11_26_cif.got.tgz:51699.got - 2010.06.03 12:22:45.
