data_PCOD9162193
_publ_section_title
;
Structure prediction by ZEFSAII (Michael W. Deem and Ramdas Pophale) SiO2 
 PCOD9162193
Probable space group: P 21/M
;
_chemical_formula_sum "Si O2"
_cell_formula_units_Z 24
_cell_length_a 8.291899
_cell_length_b 17.527067
_cell_length_c 7.686557
_cell_angle_alpha 90.000000
_cell_angle_beta 123.851373
_cell_angle_gamma 90.000000
_cell_volume 927.741696
_symmetry_space_group_name_H-M "P 21/M"
_symmetry_group_IT_number 11
_symmetry_cell_setting 'monoclinic'
loop_
_space_group_symop_operation_xyz
x,y,z
-x,1/2+y,-z
-x,-y,-z
x,1/2-y,z
loop_
_atom_site_type_symbol
_atom_site_label
_atom_site_fract_x
_atom_site_fract_y
_atom_site_fract_z
Si Si1 0.079728 0.337353 0.257005
Si Si2 0.544725 0.336263 0.945918
Si Si3 0.455951 0.666552 0.474581
Si Si4 0.453580 0.972587 0.665599
Si Si5 0.839266 0.592454 0.336279
Si Si6 0.180739 0.968001 0.915199
O O1 0.013237 0.250000 0.184449
O O2 0.309894 0.337457 0.362717
O O3 0.057160 0.361730 0.447626
O O4 0.969484 0.406787 0.094034
O O5 0.593914 0.250000 0.027089
O O6 0.573403 0.343282 0.751424
O O7 0.316936 0.350539 0.844768
O O8 0.672879 0.406541 0.092271
O O9 0.382591 0.750000 0.470888
O O10 0.374049 0.610009 0.568237
O O11 0.500000 0.000000 0.500000
O O12 0.303731 0.031182 0.657191
O O13 0.659906 0.983439 0.884793
O O14 0.936588 0.532984 0.261703
#
# Coordination Sequence:
#
# PCOD9162193 Si02
#       6
#     4   4   4   4   4   4
#     4  10  20  36  56  76 103 143 182 215 262 324
#     4   9  16  30  52  74 100 136 176 214 252 306
#     4   9  18  34  53  77 106 140 178 216 261 314
#     4  11  18  35  56  81 107 138 178 219 270 307
#     4  10  20  35  53  79 108 138 176 223 261 319
#     4  11  21  32  53  84 108 134 179 221 260 317
#
# _framework density 25.869268000000002
#
# number of rings (size 3 to 8) (size 9 to 14) (size 15 to 20)
#    0.000    2.000    5.000    4.500    0.000    0.667 
#    0.000    5.000    0.000    0.000    0.000    0.000 
#    0.000    0.000    0.000    0.000    0.000    0.000 
#
# Total GULP energy -133894.508670 kJ/mol
# GULP energy per Si atom -5578.937861 kJ/mol
# Density = 2.581039 g / cm^3
# Si number density = 25.869268 Si / 1000 Ang^3
#
#
#
# Elastic Constant Matrix: (Units=GPa)
#
#
# Indices 1 2 3 4 5 6 
#
# 1 26.7013 -2.3657 8.0935 0.0000 5.4234 0.0000
# 2 -2.3657 146.5359 8.4783 0.0000 -26.0124 0.0000
# 3 8.0935 8.4783 54.9634 0.0000 3.4947 0.0000
# 4 0.0000 0.0000 0.0000 32.9974 0.0000 -0.7746
# 5 5.4234 -26.0124 3.4947 0.0000 34.1180 0.0000
# 6 0.0000 0.0000 0.0000 -0.7746 0.0000 30.1587
#
#
#
# Elastic Compliance Matrix: (Units=1/GPa)
#
#
# Indices 1 2 3 4 5 6 
#
# 1 0.040325 -0.000075 -0.005551 0.000000 -0.005899 0.000000
# 2 -0.000075 0.008037 -0.001630 0.000000 0.006306 0.000000
# 3 -0.005551 -0.001630 0.019412 0.000000 -0.002348 0.000000
# 4 0.000000 0.000000 0.000000 0.030324 0.000000 0.000779
# 5 -0.005899 0.006306 -0.002348 0.000000 0.035296 0.000000
# 6 0.000000 0.000000 0.000000 0.000779 0.000000 0.033178
#
#
# Mechanical properties :
#
#
# Convention : Reuss Voigt Hill
#
# Bulk Modulus (GPa) = 18.77495 28.51253 23.64374
# Shear Modulus (GPa) = 25.14606 33.72114 29.43360
#
# Velocity S-wave (km/s) = 3.12114 3.61435 3.37676
# Velocity P-wave (km/s) = 4.50134 5.33514 4.93588
#
# Compressibility (1/GPa) = 0.05326247
#
# Stress axis : x y z
#
# Youngs Moduli (GPa) = 24.79821 124.42758 51.51427
#
# Poissons Ratio (x) = 0.00932 0.28598
# Poissons Ratio (y) = 0.00186 0.08395
# Poissons Ratio (z) = 0.13767 0.20277
#
# Static dielectric constant tensor:
#      x y z
#    x 2.165660 0.000000 -0.050370 
#    y 0.000000 2.275920 0.000000 
#    z -0.050370 0.000000 2.134940 
# 
# From -- ./inp_files/18715.got.cif
#   From: 2010.05.17/outbox.cif.g08.bks.cpg/sg11_10_cif.got.tgz:18715.got - 2010.06.03 12:22:45.
