data_PCOD9162040
_publ_section_title
;
Structure prediction by ZEFSAII (Michael W. Deem and Ramdas Pophale) SiO2 
 PCOD9162040
Probable space group: P 21/M
;
_chemical_formula_sum "Si O2"
_cell_formula_units_Z 32
_cell_length_a 11.485755
_cell_length_b 14.231212
_cell_length_c 9.405165
_cell_angle_alpha 90.000000
_cell_angle_beta 88.420758
_cell_angle_gamma 90.000000
_cell_volume 1536.748734
_symmetry_space_group_name_H-M "P 21/M"
_symmetry_group_IT_number 11
_symmetry_cell_setting 'monoclinic'
loop_
_space_group_symop_operation_xyz
x,y,z
-x,1/2+y,-z
-x,-y,-z
x,1/2-y,z
loop_
_atom_site_type_symbol
_atom_site_label
_atom_site_fract_x
_atom_site_fract_y
_atom_site_fract_z
Si Si1 0.461315 0.139072 0.678299
Si Si2 0.131828 0.511154 0.552423
Si Si3 0.266561 0.641097 0.330410
Si Si4 0.199516 0.640637 0.021175
Si Si5 0.799863 0.860653 0.637726
Si Si6 0.403351 0.517662 0.880557
Si Si7 0.962611 0.360235 0.214683
Si Si8 0.545830 0.862227 0.655776
O O1 0.436869 0.250000 0.691364
O O2 0.598198 0.122541 0.708668
O O3 0.454618 0.112825 0.511579
O O4 0.386780 0.078290 0.791298
O O5 0.211998 0.576455 0.451469
O O6 0.182327 0.408855 0.516401
O O7 0.118728 0.566111 0.699148
O O8 0.000000 0.500000 0.500000
O O9 0.259949 0.750000 0.375810
O O10 0.194100 0.627339 0.189263
O O11 0.239398 0.750000 0.996972
O O12 0.292335 0.568101 0.953516
O O13 0.075908 0.631661 0.946592
O O14 0.796881 0.750000 0.616111
O O15 0.675277 0.888585 0.704146
O O16 0.905787 0.881711 0.741333
O O17 0.453876 0.586397 0.756807
O O18 0.500000 0.500000 0.000000
O O19 0.941628 0.250000 0.257514
O O20 0.528882 0.750000 0.665153
#
# Coordination Sequence:
#
# PCOD9162040 Si02
#       8
#     4   4   4   4   4   4   4   4
#     4  10  22  38  57  87 119 157 202 245 291 355
#     4  10  20  34  57  86 111 144 190 244 291 342
#     4  10  20  37  59  84 119 154 192 241 298 350
#     4  10  22  38  58  87 120 155 198 245 291 352
#     4   9  19  36  56  79 114 152 191 239 289 346
#     4  12  23  36  59  87 124 160 190 243 302 356
#     4   9  19  36  59  86 112 148 196 244 290 338
#     4  10  22  38  60  85 114 156 200 242 296 355
#
# _framework density 20.823184000000001
#
# number of rings (size 3 to 8) (size 9 to 14) (size 15 to 20)
#    0.000    2.000    1.250    1.875    3.500    1.000 
#    0.000    2.500    0.000    0.000    0.000    0.000 
#    0.000    0.000    0.000    0.000    0.000    0.000 
#
# Total GULP energy -178576.328809 kJ/mol
# GULP energy per Si atom -5580.510275 kJ/mol
# Density = 2.077579 g / cm^3
# Si number density = 20.823184 Si / 1000 Ang^3
#
#
#
# Elastic Constant Matrix: (Units=GPa)
#
#
# Indices 1 2 3 4 5 6 
#
# 1 19.7486 12.2900 -0.0570 0.0000 11.8611 0.0000
# 2 12.2900 51.8009 4.3138 0.0000 1.1581 0.0000
# 3 -0.0570 4.3138 50.2929 0.0000 22.7771 0.0000
# 4 0.0000 0.0000 0.0000 20.2930 0.0000 0.9686
# 5 11.8611 1.1581 22.7771 0.0000 29.5822 0.0000
# 6 0.0000 0.0000 0.0000 0.9686 0.0000 18.3904
#
#
#
# Elastic Compliance Matrix: (Units=1/GPa)
#
#
# Indices 1 2 3 4 5 6 
#
# 1 0.108293 -0.026939 0.033196 0.000000 -0.067925 0.000000
# 2 -0.026939 0.026157 -0.010290 0.000000 0.017700 0.000000
# 3 0.033196 -0.010290 0.040918 0.000000 -0.044412 0.000000
# 4 0.000000 0.000000 0.000000 0.049402 0.000000 -0.002602
# 5 -0.067925 0.017700 -0.044412 0.000000 0.094541 0.000000
# 6 0.000000 0.000000 0.000000 -0.002602 0.000000 0.054513
#
#
# Mechanical properties :
#
#
# Convention : Reuss Voigt Hill
#
# Bulk Modulus (GPa) = 5.97725 17.21512 11.59619
# Shear Modulus (GPa) = 11.42443 20.67282 16.04863
#
# Velocity S-wave (km/s) = 2.34485 3.15426 2.77918
# Velocity P-wave (km/s) = 3.19496 4.64231 3.98490
#
# Compressibility (1/GPa) = 0.16730107
#
# Stress axis : x y z
#
# Youngs Moduli (GPa) = 9.23420 38.23026 24.43942
#
# Poissons Ratio (x) = 1.02988 -0.81129
# Poissons Ratio (y) = 0.24876 0.25149
# Poissons Ratio (z) = -0.30654 0.39341
#
# Static dielectric constant tensor:
#      x y z
#    x 1.810360 0.000000 -0.000920 
#    y 0.000000 1.796060 0.000000 
#    z -0.000920 0.000000 1.767100 
# 
# From -- ./inp_files/18037.got.cif
#   From: 2010.05.17/outbox.cif.g08.bks.cpg/sg11_10_cif.got.tgz:18037.got - 2010.06.03 12:22:45.
