data_PCOD9162676
_publ_section_title
;
Structure prediction by ZEFSAII (Michael W. Deem and Ramdas Pophale) SiO2 
 PCOD9162676
Probable space group: P 21/M
;
_chemical_formula_sum "Si O2"
_cell_formula_units_Z 20
_cell_length_a 7.755383
_cell_length_b 9.785875
_cell_length_c 18.610637
_cell_angle_alpha 90.000000
_cell_angle_beta 42.113938
_cell_angle_gamma 90.000000
_cell_volume 947.179515
_symmetry_space_group_name_H-M "P 21/M"
_symmetry_group_IT_number 11
_symmetry_cell_setting 'monoclinic'
loop_
_space_group_symop_operation_xyz
x,y,z
-x,1/2+y,-z
-x,-y,-z
x,1/2-y,z
loop_
_atom_site_type_symbol
_atom_site_label
_atom_site_fract_x
_atom_site_fract_y
_atom_site_fract_z
Si Si1 0.667995 0.913229 0.503408
Si Si2 0.631436 0.997556 0.265042
Si Si3 0.778699 0.409992 0.721438
Si Si4 0.820893 0.092731 0.868155
Si Si5 0.931054 0.901962 0.954999
O O1 0.644235 0.750000 0.498994
O O2 0.557236 0.947951 0.615850
O O3 0.962994 0.957000 0.398776
O O4 0.500000 0.000000 0.500000
O O5 0.803685 0.109357 0.171435
O O6 0.462936 0.929443 0.255103
O O7 0.862510 0.906698 0.227085
O O8 0.815639 0.250000 0.722675
O O9 0.752109 0.465086 0.810627
O O10 0.734395 0.250000 0.906391
O O11 0.757524 0.988495 0.952778
O O12 0.837242 0.750000 0.003419
O O13 0.000000 0.000000 0.000000
#
# Coordination Sequence:
#
# PCOD9162676 Si02
#       5
#     4   4   4   4   4
#     4  11  21  37  58  85 120 156 197 237 285 342
#     4  10  21  35  60  82 120 149 192 236 292 329
#     4  10  20  35  58  89 117 154 196 233 282 346
#     4   9  19  36  60  84 115 149 190 235 284 339
#     4  10  21  38  62  87 116 150 193 238 293 346
#
# _framework density 21.115324000000001
#
# number of rings (size 3 to 8) (size 9 to 14) (size 15 to 20)
#    1.200    0.800    2.000    2.400    0.000    0.800 
#    0.000    5.000    0.000    0.000    0.000    0.000 
#    0.000    0.000    0.000    0.000    0.000    0.000 
#
# Total GULP energy -111438.836237 kJ/mol
# GULP energy per Si atom -5571.941812 kJ/mol
# Density = 2.106726 g / cm^3
# Si number density = 21.115324 Si / 1000 Ang^3
#
#
#
# Elastic Constant Matrix: (Units=GPa)
#
#
# Indices 1 2 3 4 5 6 
#
# 1 114.8833 11.1299 37.3913 0.0000 28.0206 0.0000
# 2 11.1299 94.8907 25.9215 0.0000 28.1317 0.0000
# 3 37.3913 25.9215 111.3575 0.0000 13.6970 0.0000
# 4 0.0000 0.0000 0.0000 12.4135 0.0000 -13.2551
# 5 28.0206 28.1317 13.6970 0.0000 41.3466 0.0000
# 6 0.0000 0.0000 0.0000 -13.2551 0.0000 -7.7360
#
#
#
# Elastic Compliance Matrix: (Units=1/GPa)
#
#
# Indices 1 2 3 4 5 6 
#
# 1 0.011570 0.001946 -0.003347 0.000000 -0.008056 0.000000
# 2 0.001946 0.013994 -0.002687 0.000000 -0.009950 0.000000
# 3 -0.003347 -0.002687 0.010660 0.000000 0.000565 0.000000
# 4 0.000000 0.000000 0.000000 0.028470 0.000000 -0.048781
# 5 -0.008056 -0.009950 0.000565 0.000000 0.036228 0.000000
# 6 0.000000 0.000000 0.000000 -0.048781 0.000000 -0.045684
#
#
# Mechanical properties :
#
#
# Convention : Reuss Voigt Hill
#
# Bulk Modulus (GPa) = 35.65395 52.22409 43.93902
# Shear Modulus (GPa) = 68.71546 25.65075 47.18310
#
# Velocity S-wave (km/s) = 5.71083 3.48917 4.73222
# Velocity P-wave (km/s) = 7.77218 6.40460 7.12129
#
# Compressibility (1/GPa) = 0.02804738
#
# Stress axis : x y z
#
# Youngs Moduli (GPa) = 86.42820 71.45931 93.80959
#
# Poissons Ratio (x) = -0.13903 0.31398
# Poissons Ratio (y) = -0.16815 0.25206
# Poissons Ratio (z) = 0.28928 0.19201
#
# Static dielectric constant tensor:
#      x y z
#    x 1.786770 0.000000 -0.025930 
#    y 0.000000 1.748580 0.000000 
#    z -0.025930 0.000000 1.837940 
# 
# From -- ./inp_files/63141.got.cif
#   From: 2010.05.17/outbox.cif.g08.bks.cpg/sg11_32_cif.got.tgz:63141.got - 2010.06.03 12:22:45.
