data_PCOD9162123
_publ_section_title
;
Structure prediction by ZEFSAII (Michael W. Deem and Ramdas Pophale) SiO2 
 PCOD9162123
Probable space group: P 21/M
;
_chemical_formula_sum "Si O2"
_cell_formula_units_Z 24
_cell_length_a 10.413026
_cell_length_b 18.264433
_cell_length_c 10.443056
_cell_angle_alpha 90.000000
_cell_angle_beta 37.628794
_cell_angle_gamma 90.000000
_cell_volume 1212.626877
_symmetry_space_group_name_H-M "P 21/M"
_symmetry_group_IT_number 11
_symmetry_cell_setting 'monoclinic'
loop_
_space_group_symop_operation_xyz
x,y,z
-x,1/2+y,-z
-x,-y,-z
x,1/2-y,z
loop_
_atom_site_type_symbol
_atom_site_label
_atom_site_fract_x
_atom_site_fract_y
_atom_site_fract_z
Si Si1 0.897903 0.479098 0.887370
Si Si2 0.292900 0.939167 0.562423
Si Si3 0.744519 0.332398 0.646150
Si Si4 0.126157 0.118077 0.498139
Si Si5 0.473701 0.589000 0.675157
Si Si6 0.382414 0.072937 0.048255
O O1 0.757910 0.548482 0.959556
O O2 0.104741 0.516767 0.783995
O O3 0.997557 0.442152 0.681236
O O4 0.743031 0.419369 0.073441
O O5 0.223745 0.888050 0.498997
O O6 0.415753 0.894479 0.574344
O O7 0.435192 0.005738 0.398179
O O8 0.705719 0.250000 0.631172
O O9 0.942451 0.331484 0.586747
O O10 0.546065 0.364910 0.880250
O O11 0.333324 0.136836 0.420687
O O12 0.236229 0.091277 0.282341
O O13 0.500000 0.000000 0.000000
#
# Coordination Sequence:
#
# PCOD9162123 Si02
#       6
#     4   4   4   4   4   4
#     4  11  18  33  62  91 118 148 196 253 299 349
#     4  10  21  36  55  89 123 152 195 244 298 358
#     4  12  25  39  57  85 122 162 202 246 305 372
#     4  11  21  35  58  88 118 151 197 248 301 350
#     4  10  20  34  60  91 118 151 192 251 302 348
#     4  12  19  35  62  89 119 153 200 254 304 347
#
# _framework density 19.791744000000001
#
# number of rings (size 3 to 8) (size 9 to 14) (size 15 to 20)
#    0.000    1.000    6.667    2.000    0.000    0.667 
#    0.000    0.833    0.000    1.000    0.000    0.000 
#    0.000    0.000    0.000    0.000    0.000    0.000 
#
# Total GULP energy -133613.943135 kJ/mol
# GULP energy per Si atom -5567.247631 kJ/mol
# Density = 1.974670 g / cm^3
# Si number density = 19.791744 Si / 1000 Ang^3
#
#
#
# Elastic Constant Matrix: (Units=GPa)
#
#
# Indices 1 2 3 4 5 6 
#
# 1 92.8890 8.6196 14.4410 0.0000 -9.1390 0.0000
# 2 8.6196 54.6147 19.0896 0.0000 -1.0239 0.0000
# 3 14.4410 19.0896 123.3453 0.0000 -7.7062 0.0000
# 4 0.0000 0.0000 0.0000 6.1811 0.0000 -0.2984
# 5 -9.1390 -1.0239 -7.7062 0.0000 25.4602 0.0000
# 6 0.0000 0.0000 0.0000 -0.2984 0.0000 12.1890
#
#
#
# Elastic Compliance Matrix: (Units=1/GPa)
#
#
# Indices 1 2 3 4 5 6 
#
# 1 0.011405 -0.001422 -0.000880 0.000000 0.003770 0.000000
# 2 -0.001422 0.019535 -0.002894 0.000000 -0.000601 0.000000
# 3 -0.000880 -0.002894 0.008798 0.000000 0.002231 0.000000
# 4 0.000000 0.000000 0.000000 0.161974 0.000000 0.003965
# 5 0.003770 -0.000601 0.002231 0.000000 0.041281 0.000000
# 6 0.000000 0.000000 0.000000 0.003965 0.000000 0.082138
#
#
# Mechanical properties :
#
#
# Convention : Reuss Voigt Hill
#
# Bulk Modulus (GPa) = 34.07635 39.46104 36.76870
# Shear Modulus (GPa) = 14.47996 24.01267 19.24632
#
# Velocity S-wave (km/s) = 2.70777 3.48698 3.12178
# Velocity P-wave (km/s) = 5.19912 6.01610 5.62247
#
# Compressibility (1/GPa) = 0.02934587
#
# Stress axis : x y z
#
# Youngs Moduli (GPa) = 87.67931 51.19039 113.66700
#
# Poissons Ratio (x) = 0.07279 0.09999
# Poissons Ratio (y) = 0.12467 0.32900
# Poissons Ratio (z) = 0.07713 0.14817
#
# Static dielectric constant tensor:
#      x y z
#    x 1.794680 0.000000 -0.044600 
#    y 0.000000 1.646480 0.000000 
#    z -0.044600 0.000000 1.760540 
# 
# From -- ./inp_files/36107.got.cif
#   From: 2010.05.17/outbox.cif.g08.bks.cpg/sg11_19_cif.got.tgz:36107.got - 2010.06.03 12:22:45.
