data_PCOD9162429
_publ_section_title
;
Structure prediction by ZEFSAII (Michael W. Deem and Ramdas Pophale) SiO2 
 PCOD9162429
Probable space group: P 21/M
;
_chemical_formula_sum "Si O2"
_cell_formula_units_Z 32
_cell_length_a 17.514747
_cell_length_b 22.536422
_cell_length_c 6.506334
_cell_angle_alpha 90.000000
_cell_angle_beta 132.350083
_cell_angle_gamma 90.000000
_cell_volume 1897.993043
_symmetry_space_group_name_H-M "P 21/M"
_symmetry_group_IT_number 11
_symmetry_cell_setting 'monoclinic'
loop_
_space_group_symop_operation_xyz
x,y,z
-x,1/2+y,-z
-x,-y,-z
x,1/2-y,z
loop_
_atom_site_type_symbol
_atom_site_label
_atom_site_fract_x
_atom_site_fract_y
_atom_site_fract_z
Si Si1 0.654099 0.414380 0.409056
Si Si2 0.648846 0.682467 0.097751
Si Si3 0.516111 0.869673 0.208035
Si Si4 0.608196 0.976527 0.612660
Si Si5 0.779205 0.568758 0.218456
Si Si6 0.437090 0.682155 0.465002
Si Si7 0.944697 0.534612 0.214617
Si Si8 0.142107 0.532603 0.328296
O O1 0.645051 0.475706 0.515365
O O2 0.635717 0.362028 0.540038
O O3 0.765637 0.420000 0.507293
O O4 0.561063 0.406146 0.079574
O O5 0.688087 0.750000 0.155427
O O6 0.589570 0.671584 0.205103
O O7 0.732561 0.630783 0.213636
O O8 0.554279 0.675370 0.764472
O O9 0.587505 0.915102 0.460888
O O10 0.446109 0.834659 0.243471
O O11 0.500000 0.000000 0.500000
O O12 0.685907 0.966854 0.940646
O O13 0.863595 0.575919 0.188449
O O14 0.823681 0.525801 0.477738
O O15 0.406282 0.750000 0.440204
O O16 0.000000 0.500000 0.500000
O O17 0.038555 0.558705 0.245535
O O18 0.885400 0.490460 0.950532
#
# Coordination Sequence:
#
# PCOD9162429 Si02
#       8
#     4   4   4   4   4   4   4   4
#     4  11  21  32  53  78 108 139 180 220 265 320
#     4  10  21  35  51  75 107 151 191 217 250 314
#     4  11  20  34  49  76 111 149 177 216 260 312
#     4  12  19  31  48  81 114 140 169 214 272 316
#     4  11  20  34  54  79 114 142 175 223 272 322
#     4  10  21  36  50  71 108 150 189 218 251 308
#     4   9  20  36  55  79 109 136 168 217 277 332
#     4  10  20  35  56  83 107 135 175 220 278 327
#
# _framework density 16.859915000000001
#
# number of rings (size 3 to 8) (size 9 to 14) (size 15 to 20)
#    0.000    1.500    3.750    3.000    0.000    0.500 
#    0.000    0.000    0.000    0.750    0.000   10.500 
#    0.000    0.000    0.000    0.000    0.000    0.000 
#
# Total GULP energy -178441.644410 kJ/mol
# GULP energy per Si atom -5576.301388 kJ/mol
# Density = 1.682154 g / cm^3
# Si number density = 16.859915 Si / 1000 Ang^3
#
#
#
# Elastic Constant Matrix: (Units=GPa)
#
#
# Indices 1 2 3 4 5 6 
#
# 1 102.5673 38.2784 12.3405 0.0000 4.0403 0.0000
# 2 38.2784 71.1655 9.7870 0.0000 -1.3499 0.0000
# 3 12.3405 9.7870 73.6949 0.0000 -8.5674 0.0000
# 4 0.0000 0.0000 0.0000 11.8980 0.0000 -0.4569
# 5 4.0403 -1.3499 -8.5674 0.0000 27.6445 0.0000
# 6 0.0000 0.0000 0.0000 -0.4569 0.0000 16.7208
#
#
#
# Elastic Compliance Matrix: (Units=1/GPa)
#
#
# Indices 1 2 3 4 5 6 
#
# 1 0.012482 -0.006554 -0.001524 0.000000 -0.002617 0.000000
# 2 -0.006554 0.017755 -0.001087 0.000000 0.001488 0.000000
# 3 -0.001524 -0.001087 0.014512 0.000000 0.004667 0.000000
# 4 0.000000 0.000000 0.000000 0.084136 0.000000 0.002299
# 5 -0.002617 0.001488 0.004667 0.000000 0.038075 0.000000
# 6 0.000000 0.000000 0.000000 0.002299 0.000000 0.059869
#
#
# Mechanical properties :
#
#
# Convention : Reuss Voigt Hill
#
# Bulk Modulus (GPa) = 37.85334 40.91552 39.38443
# Shear Modulus (GPa) = 19.68778 23.72076 21.70427
#
# Velocity S-wave (km/s) = 3.42091 3.75498 3.59183
# Velocity P-wave (km/s) = 6.17284 6.56662 6.37277
#
# Compressibility (1/GPa) = 0.02641775
#
# Stress axis : x y z
#
# Youngs Moduli (GPa) = 80.11493 56.32303 68.91025
#
# Poissons Ratio (x) = 0.36913 0.10502
# Poissons Ratio (y) = 0.52506 0.07494
# Poissons Ratio (z) = 0.12209 0.06125
#
# Static dielectric constant tensor:
#      x y z
#    x 1.641790 0.000000 -0.024880 
#    y 0.000000 1.544180 0.000000 
#    z -0.024880 0.000000 1.633480 
# 
# From -- ./inp_files/8358.got.cif
#   From: 2010.05.17/outbox.cif.g08.bks.cpg/sg11_5_cif.got.tgz:8358.got - 2010.06.03 12:22:45.
