data_PCOD9162785
_publ_section_title
;
Structure prediction by ZEFSAII (Michael W. Deem and Ramdas Pophale) SiO2 
 PCOD9162785
Probable space group: P 21/M
;
_chemical_formula_sum "Si O2"
_cell_formula_units_Z 26
_cell_length_a 15.639607
_cell_length_b 13.205317
_cell_length_c 7.053082
_cell_angle_alpha 90.000000
_cell_angle_beta 136.175779
_cell_angle_gamma 90.000000
_cell_volume 1008.650962
_symmetry_space_group_name_H-M "P 21/M"
_symmetry_group_IT_number 11
_symmetry_cell_setting 'monoclinic'
loop_
_space_group_symop_operation_xyz
x,y,z
-x,1/2+y,-z
-x,-y,-z
x,1/2-y,z
loop_
_atom_site_type_symbol
_atom_site_label
_atom_site_fract_x
_atom_site_fract_y
_atom_site_fract_z
Si Si1 0.315121 0.865125 0.426164
Si Si2 0.276165 0.859125 0.814120
Si Si3 0.000004 0.580110 0.378104
Si Si4 0.392002 0.250000 0.508632
Si Si5 0.161095 0.250000 0.405746
Si Si6 0.031127 0.570784 0.921117
Si Si7 0.207182 0.250000 0.904818
Si Si8 0.506314 0.470032 0.787225
O O1 0.338454 0.750000 0.399375
O O2 0.309869 0.861055 0.646531
O O3 0.423334 0.945281 0.552034
O O4 0.176883 0.900774 0.149993
O O5 0.314168 0.750000 0.952850
O O6 0.130994 0.865360 0.592320
O O7 0.348083 0.953481 0.021113
O O8 0.013702 0.546367 0.646958
O O9 0.009745 0.551864 0.140230
O O10 0.879520 0.652325 0.186873
O O11 0.261582 0.250000 0.407030
O O12 0.453157 0.356971 0.665542
O O13 0.341771 0.250000 0.214246
O O14 0.226864 0.250000 0.712268
O O15 0.071674 0.156150 0.246774
O O16 0.500000 0.500000 0.000000
#
# Coordination Sequence:
#
# PCOD9162785 Si02
#       8
#     4   4   4   2   2   4   2   4
#     4  10  20  35  61  96 138 174 229 297 348 429
#     4  10  20  38  65  94 130 181 235 282 352 430
#     4  12  24  39  65  99 135 182 229 293 360 433
#     4  12  26  45  74 109 140 186 250 304 352 441
#     4  12  26  42  67 108 145 184 227 301 377 426
#     4  12  22  39  65 102 136 180 235 291 365 434
#     4  12  26  45  67 105 147 188 237 297 371 431
#     4  10  22  40  67 103 134 185 246 291 352 429
#
# _framework density 25.777003000000001
#
# number of rings (size 3 to 8) (size 9 to 14) (size 15 to 20)
#    0.000    0.923    5.385    2.769    3.231    0.000 
#    0.000    0.000    1.692   10.154    0.000    0.000 
#    0.000    0.000    0.000    0.000    0.000    0.000 
#
# Total GULP energy -145324.826290 kJ/mol
# GULP energy per Si atom -5589.416396 kJ/mol
# Density = 2.571833 g / cm^3
# Si number density = 25.777003 Si / 1000 Ang^3
#
#
#
# Elastic Constant Matrix: (Units=GPa)
#
#
# Indices 1 2 3 4 5 6 
#
# 1 48.1766 25.1925 27.3883 0.0000 -27.8285 0.0000
# 2 25.1925 161.2518 71.7356 0.0000 6.1113 0.0000
# 3 27.3883 71.7356 159.2857 0.0000 -22.9137 0.0000
# 4 0.0000 0.0000 0.0000 31.2004 0.0000 21.0467
# 5 -27.8285 6.1113 -22.9137 0.0000 60.7695 0.0000
# 6 0.0000 0.0000 0.0000 21.0467 0.0000 14.0097
#
#
#
# Elastic Compliance Matrix: (Units=1/GPa)
#
#
# Indices 1 2 3 4 5 6 
#
# 1 0.032875 -0.005209 -0.001127 0.000000 0.015153 0.000000
# 2 -0.005209 0.008874 -0.003777 0.000000 -0.004702 0.000000
# 3 -0.001127 -0.003777 0.008621 0.000000 0.003114 0.000000
# 4 0.000000 0.000000 0.000000 -2.393313 0.000000 3.595456
# 5 0.015153 -0.004702 0.003114 0.000000 0.025042 0.000000
# 6 0.000000 0.000000 0.000000 3.595456 0.000000 -5.330048
#
#
# Mechanical properties :
#
#
# Convention : Reuss Voigt Hill
#
# Bulk Modulus (GPa) = 33.17485 68.59411 50.88448
# Shear Modulus (GPa) = -0.65637 37.48910 18.41637
#
# Velocity S-wave (km/s) = -0.50516 3.81775 2.67582
# Velocity P-wave (km/s) = 3.54368 6.78984 5.41570
#
# Compressibility (1/GPa) = 0.03014331
#
# Stress axis : x y z
#
# Youngs Moduli (GPa) = 30.41862 112.69118 115.99780
#
# Poissons Ratio (x) = 0.58701 0.13071
# Poissons Ratio (y) = 0.15845 0.43814
# Poissons Ratio (z) = 0.03428 0.42565
#
# Static dielectric constant tensor:
#      x y z
#    x 2.279190 0.000000 -0.351930 
#    y 0.000000 1.967630 0.000000 
#    z -0.351930 0.000000 2.164300 
# 
# From -- ./inp_files/17654.got.cif
#   From: 2010.05.17/outbox.cif.g08.bks.cpg/sg11_9_cif.got.tgz:17654.got - 2010.06.03 12:22:45.
