data_PCOD9162044
_publ_section_title
;
Structure prediction by ZEFSAII (Michael W. Deem and Ramdas Pophale) SiO2 
 PCOD9162044
Probable space group: P 21/M
;
_chemical_formula_sum "Si O2"
_cell_formula_units_Z 28
_cell_length_a 30.830554
_cell_length_b 8.866892
_cell_length_c 10.478844
_cell_angle_alpha 90.000000
_cell_angle_beta 146.487568
_cell_angle_gamma 90.000000
_cell_volume 1581.604735
_symmetry_space_group_name_H-M "P 21/M"
_symmetry_group_IT_number 11
_symmetry_cell_setting 'monoclinic'
loop_
_space_group_symop_operation_xyz
x,y,z
-x,1/2+y,-z
-x,-y,-z
x,1/2-y,z
loop_
_atom_site_type_symbol
_atom_site_label
_atom_site_fract_x
_atom_site_fract_y
_atom_site_fract_z
Si Si1 0.502629 0.568190 0.865074
Si Si2 0.325901 0.431921 0.808392
Si Si3 0.916278 0.929998 0.143550
Si Si4 0.770090 0.069652 0.660152
Si Si5 0.747620 0.930579 0.101284
Si Si6 0.903863 0.429949 0.394182
Si Si7 0.665381 0.068639 0.652601
O O1 0.501137 0.750000 0.872504
O O2 0.424343 0.523715 0.596524
O O3 0.500000 0.500000 0.000000
O O4 0.583774 0.523895 0.996198
O O5 0.321236 0.250000 0.786254
O O6 0.271969 0.504290 0.567260
O O7 0.295902 0.474564 0.874963
O O8 0.906210 0.750000 0.126401
O O9 0.007948 0.961832 0.340824
O O10 0.898614 0.001561 0.238879
O O11 0.855436 0.999626 0.894956
O O12 0.775079 0.250000 0.664463
O O13 0.716914 0.031324 0.653802
O O14 0.752208 0.750000 0.106626
O O15 0.834869 0.998983 0.307844
O O16 0.701072 0.991104 0.864178
O O17 0.893710 0.250000 0.360753
O O18 0.668860 0.250000 0.677718
#
# Coordination Sequence:
#
# PCOD9162044 Si02
#       7
#     4   4   4   4   4   4   4
#     4  10  20  37  59  83 113 146 187 237 283 330
#     4  10  23  40  58  82 116 153 191 235 283 338
#     4  10  20  34  57  86 114 146 187 234 282 332
#     4  11  21  35  58  88 116 147 190 234 283 337
#     4  11  23  38  57  84 116 154 192 229 284 341
#     4  10  20  35  56  84 115 148 187 233 282 333
#     4  10  21  36  57  85 115 146 187 237 282 334
#
# _framework density 17.703538000000002
#
# number of rings (size 3 to 8) (size 9 to 14) (size 15 to 20)
#    0.000    1.714    2.857    1.714    0.000    4.571 
#    0.000    0.714    0.000    0.000    0.000    0.000 
#    0.000    0.000    0.000    0.000    0.000    0.000 
#
# Total GULP energy -156394.193641 kJ/mol
# GULP energy per Si atom -5585.506916 kJ/mol
# Density = 1.766324 g / cm^3
# Si number density = 17.703538 Si / 1000 Ang^3
#
#
#
# Elastic Constant Matrix: (Units=GPa)
#
#
# Indices 1 2 3 4 5 6 
#
# 1 144.7606 49.8808 73.5659 0.0000 6.6920 0.0000
# 2 49.8808 37.4050 46.7922 0.0000 1.9323 0.0000
# 3 73.5659 46.7922 135.5293 0.0000 10.8120 0.0000
# 4 0.0000 0.0000 0.0000 31.6699 0.0000 -0.9634
# 5 6.6920 1.9323 10.8120 0.0000 29.8575 0.0000
# 6 0.0000 0.0000 0.0000 -0.9634 0.0000 21.1993
#
#
#
# Elastic Compliance Matrix: (Units=1/GPa)
#
#
# Indices 1 2 3 4 5 6 
#
# 1 0.013101 -0.015205 -0.001757 0.000000 -0.001316 0.000000
# 2 -0.015205 0.064955 -0.014529 0.000000 0.004465 0.000000
# 3 -0.001757 -0.014529 0.013636 0.000000 -0.003604 0.000000
# 4 0.000000 0.000000 0.000000 0.031619 0.000000 0.001437
# 5 -0.001316 0.004465 -0.003604 0.000000 0.034803 0.000000
# 6 0.000000 0.000000 0.000000 0.001437 0.000000 0.047237
#
#
# Mechanical properties :
#
#
# Convention : Reuss Voigt Hill
#
# Bulk Modulus (GPa) = 34.83037 73.13029 53.98033
# Shear Modulus (GPa) = 17.99194 26.37572 22.18383
#
# Velocity S-wave (km/s) = 3.19139 3.86405 3.54372
# Velocity P-wave (km/s) = 5.77035 7.82980 6.87760
#
# Compressibility (1/GPa) = 0.02871058
#
# Stress axis : x y z
#
# Youngs Moduli (GPa) = 76.33215 15.39525 73.33685
#
# Poissons Ratio (x) = 0.23408 0.12882
# Poissons Ratio (y) = 1.16061 1.06552
# Poissons Ratio (z) = 0.13408 0.22368
#
# Static dielectric constant tensor:
#      x y z
#    x 1.586710 0.000000 0.027530 
#    y 0.000000 1.591020 0.000000 
#    z 0.027530 0.000000 1.588800 
# 
# From -- ./inp_files/28250.got.cif
#   From: 2010.05.17/outbox.cif.g08.bks.cpg/sg11_15_cif.got.tgz:28250.got - 2010.06.03 12:22:45.
