data_PCOD9162892
_publ_section_title
;
Structure prediction by ZEFSAII (Michael W. Deem and Ramdas Pophale) SiO2 
 PCOD9162892
Probable space group: P 21/M
;
_chemical_formula_sum "Si O2"
_cell_formula_units_Z 24
_cell_length_a 9.194278
_cell_length_b 8.443034
_cell_length_c 31.830890
_cell_angle_alpha 90.000000
_cell_angle_beta 29.991774
_cell_angle_gamma 90.000000
_cell_volume 1235.170585
_symmetry_space_group_name_H-M "P 21/M"
_symmetry_group_IT_number 11
_symmetry_cell_setting 'monoclinic'
loop_
_space_group_symop_operation_xyz
x,y,z
-x,1/2+y,-z
-x,-y,-z
x,1/2-y,z
loop_
_atom_site_type_symbol
_atom_site_label
_atom_site_fract_x
_atom_site_fract_y
_atom_site_fract_z
Si Si1 0.170174 0.058378 0.582591
Si Si2 0.838934 0.558037 0.247073
Si Si3 0.170013 0.438494 0.081768
Si Si4 0.165749 0.558569 0.417328
Si Si5 0.158806 0.059825 0.918540
Si Si6 0.169610 0.556790 0.248908
O O1 0.170919 0.250000 0.582557
O O2 0.000729 0.005639 0.583124
O O3 0.002133 0.004946 0.666557
O O4 0.500000 0.000000 0.500000
O O5 0.843619 0.750000 0.244687
O O6 0.502246 0.507015 0.332608
O O7 0.000463 0.496713 0.165445
O O8 0.006571 0.506389 0.247271
O O9 0.174185 0.250000 0.079811
O O10 0.007082 0.500779 0.081173
O O11 0.500000 0.500000 0.000000
O O12 0.165001 0.750000 0.417879
O O13 0.000000 0.500000 0.500000
O O14 0.157351 0.250000 0.918876
O O15 0.495042 0.005794 0.834183
O O16 0.000000 0.000000 0.000000
O O17 0.168845 0.750000 0.249234
#
# Coordination Sequence:
#
# PCOD9162892 Si02
#       6
#     4   4   4   4   4   4
#     4  10  20  36  56  82 112 149 192 235 284 341
#     4  10  20  38  62  87 114 150 193 242 296 352
#     4  12  25  41  61  87 118 155 196 243 296 355
#     4  10  21  36  58  85 117 154 195 241 293 351
#     4  11  22  39  62  89 120 155 194 240 291 351
#     4   9  19  36  60  84 111 147 188 231 286 348
#
# _framework density 19.430513000000001
#
# number of rings (size 3 to 8) (size 9 to 14) (size 15 to 20)
#    0.000    1.667    0.000    5.000    0.000    6.667 
#    0.000    5.000    0.000    0.000    0.000    0.000 
#    0.000    0.000    0.000    0.000    0.000    0.000 
#
# Total GULP energy -134192.188924 kJ/mol
# GULP energy per Si atom -5591.341205 kJ/mol
# Density = 1.938629 g / cm^3
# Si number density = 19.430513 Si / 1000 Ang^3
#
#
#
# Elastic Constant Matrix: (Units=GPa)
#
#
# Indices 1 2 3 4 5 6 
#
# 1 249.6426 40.1230 154.0170 0.0000 -0.0941 0.0000
# 2 40.1230 36.4350 38.1560 0.0000 -1.1877 0.0000
# 3 154.0170 38.1560 246.8932 0.0000 -0.3524 0.0000
# 4 0.0000 0.0000 0.0000 36.1763 0.0000 3.5303
# 5 -0.0941 -1.1877 -0.3524 0.0000 47.1501 0.0000
# 6 0.0000 0.0000 0.0000 3.5303 0.0000 28.9227
#
#
#
# Elastic Compliance Matrix: (Units=1/GPa)
#
#
# Indices 1 2 3 4 5 6 
#
# 1 0.006905 -0.003694 -0.003737 0.000000 -0.000107 0.000000
# 2 -0.003694 0.034751 -0.003065 0.000000 0.000845 0.000000
# 3 -0.003737 -0.003065 0.006855 0.000000 -0.000033 0.000000
# 4 0.000000 0.000000 0.000000 0.027976 0.000000 -0.003415
# 5 -0.000107 0.000845 -0.000033 0.000000 0.021230 0.000000
# 6 0.000000 0.000000 0.000000 -0.003415 0.000000 0.034992
#
#
# Mechanical properties :
#
#
# Convention : Reuss Voigt Hill
#
# Bulk Modulus (GPa) = 36.33745 110.84032 73.58889
# Shear Modulus (GPa) = 30.69887 42.49481 36.59684
#
# Velocity S-wave (km/s) = 3.97915 4.68163 4.34461
# Velocity P-wave (km/s) = 6.31295 9.29472 7.94497
#
# Compressibility (1/GPa) = 0.02751981
#
# Stress axis : x y z
#
# Youngs Moduli (GPa) = 144.83012 28.77579 145.88131
#
# Poissons Ratio (x) = 0.10630 0.54509
# Poissons Ratio (y) = 0.53501 0.44713
# Poissons Ratio (z) = 0.54116 0.08820
#
# Static dielectric constant tensor:
#      x y z
#    x 1.649210 0.000000 -0.007580 
#    y 0.000000 1.676980 0.000000 
#    z -0.007580 0.000000 1.637010 
# 
# From -- ./inp_files/20479.got.cif
#   From: 2010.05.17/outbox.cif.g08.bks.cpg/sg11_11_cif.got.tgz:20479.got - 2010.06.03 12:22:45.
