data_PCOD9162752
_publ_section_title
;
Structure prediction by ZEFSAII (Michael W. Deem and Ramdas Pophale) SiO2 
 PCOD9162752
Probable space group: P 21/M
;
_chemical_formula_sum "Si O2"
_cell_formula_units_Z 32
_cell_length_a 14.777153
_cell_length_b 8.177119
_cell_length_c 12.684025
_cell_angle_alpha 90.000000
_cell_angle_beta 91.201842
_cell_angle_gamma 90.000000
_cell_volume 1532.331136
_symmetry_space_group_name_H-M "P 21/M"
_symmetry_group_IT_number 11
_symmetry_cell_setting 'monoclinic'
loop_
_space_group_symop_operation_xyz
x,y,z
-x,1/2+y,-z
-x,-y,-z
x,1/2-y,z
loop_
_atom_site_type_symbol
_atom_site_label
_atom_site_fract_x
_atom_site_fract_y
_atom_site_fract_z
Si Si1 0.295311 0.062270 0.442761
Si Si2 0.237504 0.557490 0.658332
Si Si3 0.287422 0.450372 0.109258
Si Si4 0.316977 0.441758 0.878301
Si Si5 0.856966 0.554470 0.722685
Si Si6 0.031178 0.948060 0.617552
Si Si7 0.491690 0.439429 0.162895
Si Si8 0.525213 0.065106 0.615347
O O1 0.321767 0.250000 0.420319
O O2 0.198375 0.033876 0.387655
O O3 0.291674 0.032769 0.566861
O O4 0.366363 0.947345 0.386814
O O5 0.240706 0.750000 0.633495
O O6 0.278387 0.529071 0.774336
O O7 0.133185 0.500360 0.647273
O O8 0.289221 0.250000 0.116002
O O9 0.208519 0.508507 0.186027
O O10 0.389840 0.502984 0.141312
O O11 0.273112 0.496621 0.987341
O O12 0.300127 0.250000 0.864672
O O13 0.425207 0.469017 0.889394
O O14 0.864783 0.750000 0.741350
O O15 0.957157 0.490700 0.700992
O O16 0.029802 0.750000 0.619713
O O17 0.000000 0.000000 0.500000
O O18 0.495391 0.250000 0.132135
O O19 0.508176 0.457403 0.288702
O O20 0.494281 0.250000 0.630068
O O21 0.500000 0.000000 0.500000
#
# Coordination Sequence:
#
# PCOD9162752 Si02
#       8
#     4   4   4   4   4   4   4   4
#     4  11  20  35  60  84 113 151 191 233 289 347
#     4  11  23  38  56  85 123 156 191 239 293 348
#     4   9  19  37  62  87 113 149 197 243 289 344
#     4  11  23  39  59  84 114 155 201 242 287 343
#     4   9  17  34  60  88 113 143 183 234 289 343
#     4  10  20  35  60  89 117 150 189 235 291 350
#     4  11  21  38  61  86 115 150 194 244 293 344
#     4  12  24  37  53  80 118 155 193 235 287 346
#
# _framework density 20.883213000000001
#
# number of rings (size 3 to 8) (size 9 to 14) (size 15 to 20)
#    0.000    1.500    2.500    3.750    0.000    0.500 
#    0.000    2.500    0.000    0.000    0.000    0.000 
#    0.000    0.000    0.000    0.000    0.000    0.000 
#
# Total GULP energy -178774.417663 kJ/mol
# GULP energy per Si atom -5586.700552 kJ/mol
# Density = 2.083568 g / cm^3
# Si number density = 20.883213 Si / 1000 Ang^3
#
#
#
# Elastic Constant Matrix: (Units=GPa)
#
#
# Indices 1 2 3 4 5 6 
#
# 1 91.0568 1.8749 28.4644 0.0000 -18.0379 0.0000
# 2 1.8749 28.6967 -2.2262 0.0000 3.7325 0.0000
# 3 28.4644 -2.2262 109.9745 0.0000 -20.6460 0.0000
# 4 0.0000 0.0000 0.0000 16.0000 0.0000 -1.1064
# 5 -18.0379 3.7325 -20.6460 0.0000 28.7778 0.0000
# 6 0.0000 0.0000 0.0000 -1.1064 0.0000 18.0698
#
#
#
# Elastic Compliance Matrix: (Units=1/GPa)
#
#
# Indices 1 2 3 4 5 6 
#
# 1 0.013053 -0.001916 -0.002120 0.000000 0.006909 0.000000
# 2 -0.001916 0.035729 0.000143 0.000000 -0.005732 0.000000
# 3 -0.002120 0.000143 0.010854 0.000000 0.006439 0.000000
# 4 0.000000 0.000000 0.000000 0.062766 0.000000 0.003843
# 5 0.006909 -0.005732 0.006439 0.000000 0.044443 0.000000
# 6 0.000000 0.000000 0.000000 0.003843 0.000000 0.055576
#
#
# Mechanical properties :
#
#
# Convention : Reuss Voigt Hill
#
# Bulk Modulus (GPa) = 19.28664 31.77267 25.52965
# Shear Modulus (GPa) = 20.20283 26.01051 23.10667
#
# Velocity S-wave (km/s) = 3.11371 3.53302 3.32997
# Velocity P-wave (km/s) = 4.70983 5.64717 5.19966
#
# Compressibility (1/GPa) = 0.05184937
#
# Stress axis : x y z
#
# Youngs Moduli (GPa) = 76.61059 27.98839 92.13599
#
# Poissons Ratio (x) = 0.05362 0.19535
# Poissons Ratio (y) = 0.14678 -0.01317
# Poissons Ratio (z) = 0.16243 -0.00400
#
# Static dielectric constant tensor:
#      x y z
#    x 1.788250 0.000000 0.001760 
#    y 0.000000 1.722850 0.000000 
#    z 0.001760 0.000000 1.746950 
# 
# From -- ./inp_files/38292.got.cif
#   From: 2010.05.17/outbox.cif.g08.bks.cpg/sg11_20_cif.got.tgz:38292.got - 2010.06.03 12:22:45.
