data_PCOD9162818
_publ_section_title
;
Structure prediction by ZEFSAII (Michael W. Deem and Ramdas Pophale) SiO2 
 PCOD9162818
Probable space group: P 21/M
;
_chemical_formula_sum "Si O2"
_cell_formula_units_Z 32
_cell_length_a 12.341611
_cell_length_b 7.717973
_cell_length_c 18.696614
_cell_angle_alpha 90.000000
_cell_angle_beta 49.601335
_cell_angle_gamma 90.000000
_cell_volume 1356.245895
_symmetry_space_group_name_H-M "P 21/M"
_symmetry_group_IT_number 11
_symmetry_cell_setting 'monoclinic'
loop_
_space_group_symop_operation_xyz
x,y,z
-x,1/2+y,-z
-x,-y,-z
x,1/2-y,z
loop_
_atom_site_type_symbol
_atom_site_label
_atom_site_fract_x
_atom_site_fract_y
_atom_site_fract_z
Si Si1 0.651952 0.457912 0.966971
Si Si2 0.167627 0.051305 0.987968
Si Si3 0.233957 0.541524 0.527691
Si Si4 0.738695 0.958110 0.332443
Si Si5 0.058438 0.455066 0.395659
Si Si6 0.950570 0.447937 0.819435
Si Si7 0.650966 0.043617 0.674325
Si Si8 0.342626 0.037134 0.788235
O O1 0.662759 0.250000 0.969332
O O2 0.683969 0.543106 0.030016
O O3 0.500000 0.500000 0.000000
O O4 0.795311 0.518120 0.862416
O O5 0.120927 0.250000 0.002644
O O6 0.209765 0.978097 0.893219
O O7 0.065588 0.953031 0.086718
O O8 0.230335 0.750000 0.524571
O O9 0.315812 0.497136 0.565029
O O10 0.300930 0.476879 0.424794
O O11 0.069089 0.476371 0.599593
O O12 0.744776 0.750000 0.323765
O O13 0.663857 0.016660 0.291822
O O14 0.899903 0.032798 0.261821
O O15 0.062323 0.250000 0.385890
O O16 0.221079 0.514495 0.324988
O O17 0.000000 0.500000 0.500000
O O18 0.956913 0.250000 0.792546
O O19 0.638930 0.250000 0.672577
O O20 0.493148 0.977592 0.756078
O O21 0.336443 0.250000 0.793851
#
# Coordination Sequence:
#
# PCOD9162818 Si02
#       8
#     4   4   4   4   4   4   4   4
#     4   9  17  32  52  75 104 136 171 210 257 309
#     4   9  17  32  53  76 101 132 170 211 256 304
#     4   9  19  34  51  75 107 136 167 213 264 304
#     4  10  20  36  55  75 102 139 181 216 252 309
#     4   9  17  32  54  78 105 135 169 213 261 313
#     4   8  18  34  50  72 102 132 168 212 256 303
#     4   9  18  35  55  76 106 139 170 211 261 312
#     4   9  19  35  55  78 104 137 177 216 256 308
#
# _framework density 23.594541
#
# number of rings (size 3 to 8) (size 9 to 14) (size 15 to 20)
#    0.750    2.250    0.000    1.500    0.000    4.000 
#    2.250    3.125    0.000    0.000    0.000    0.000 
#    0.000    0.000    0.000    0.000    0.000    0.000 
#
# Total GULP energy -178190.652719 kJ/mol
# GULP energy per Si atom -5568.457897 kJ/mol
# Density = 2.354084 g / cm^3
# Si number density = 23.594541 Si / 1000 Ang^3
#
#
#
# Elastic Constant Matrix: (Units=GPa)
#
#
# Indices 1 2 3 4 5 6 
#
# 1 65.7306 -8.7432 5.5913 0.0000 -2.1599 0.0000
# 2 -8.7432 45.9787 0.2382 0.0000 -3.6788 0.0000
# 3 5.5913 0.2382 36.0602 0.0000 7.6055 0.0000
# 4 0.0000 0.0000 0.0000 8.1298 0.0000 5.1023
# 5 -2.1599 -3.6788 7.6055 0.0000 32.9446 0.0000
# 6 0.0000 0.0000 0.0000 5.1023 0.0000 18.4450
#
#
#
# Elastic Compliance Matrix: (Units=1/GPa)
#
#
# Indices 1 2 3 4 5 6 
#
# 1 0.015960 0.003217 -0.002935 0.000000 0.002083 0.000000
# 2 0.003217 0.022610 -0.001288 0.000000 0.003033 0.000000
# 3 -0.002935 -0.001288 0.029713 0.000000 -0.007196 0.000000
# 4 0.000000 0.000000 0.000000 0.148845 0.000000 -0.041173
# 5 0.002083 0.003033 -0.007196 0.000000 0.032490 0.000000
# 6 0.000000 0.000000 0.000000 -0.041173 0.000000 0.065604
#
#
# Mechanical properties :
#
#
# Convention : Reuss Voigt Hill
#
# Bulk Modulus (GPa) = 15.08979 15.77133 15.43056
# Shear Modulus (GPa) = 14.73514 21.94944 18.34229
#
# Velocity S-wave (km/s) = 2.50174 3.05335 2.79121
# Velocity P-wave (km/s) = 3.84113 4.37372 4.11605
#
# Compressibility (1/GPa) = 0.06626998
#
# Stress axis : x y z
#
# Youngs Moduli (GPa) = 62.65807 44.22777 33.65567
#
# Poissons Ratio (x) = -0.14227 0.09879
# Poissons Ratio (y) = -0.20155 0.04334
# Poissons Ratio (z) = 0.18392 0.05696
#
# Static dielectric constant tensor:
#      x y z
#    x 1.940400 0.000000 -0.020510 
#    y 0.000000 1.869710 0.000000 
#    z -0.020510 0.000000 1.945760 
# 
# From -- ./inp_files/64345.got.cif
#   From: 2010.05.17/outbox.cif.g08.bks.cpg/sg11_33_cif.got.tgz:64345.got - 2010.06.03 12:22:45.
