data_PCOD9162462
_publ_section_title
;
Structure prediction by ZEFSAII (Michael W. Deem and Ramdas Pophale) SiO2 
 PCOD9162462
Probable space group: P 21/M
;
_chemical_formula_sum "Si O2"
_cell_formula_units_Z 30
_cell_length_a 7.761152
_cell_length_b 12.690223
_cell_length_c 22.308713
_cell_angle_alpha 90.000000
_cell_angle_beta 34.857684
_cell_angle_gamma 90.000000
_cell_volume 1255.788736
_symmetry_space_group_name_H-M "P 21/M"
_symmetry_group_IT_number 11
_symmetry_cell_setting 'monoclinic'
loop_
_space_group_symop_operation_xyz
x,y,z
-x,1/2+y,-z
-x,-y,-z
x,1/2-y,z
loop_
_atom_site_type_symbol
_atom_site_label
_atom_site_fract_x
_atom_site_fract_y
_atom_site_fract_z
Si Si1 0.875684 0.572324 0.118069
Si Si2 0.851122 0.864782 0.579630
Si Si3 0.822954 0.865166 0.918136
Si Si4 0.495178 0.631875 0.129605
Si Si5 0.739274 0.365254 0.416912
Si Si6 0.187424 0.086416 0.652470
Si Si7 0.602875 0.250000 0.036159
Si Si8 0.422075 0.911481 0.345878
O O1 0.714890 0.551354 0.100276
O O2 0.593821 0.617764 0.237013
O O3 0.139151 0.656666 0.035803
O O4 0.983219 0.467474 0.122735
O O5 0.706196 0.750000 0.622329
O O6 0.051444 0.877496 0.583241
O O7 0.090397 0.869560 0.456640
O O8 0.630696 0.962511 0.638181
O O9 0.970785 0.750000 0.891681
O O10 0.540399 0.875458 0.045375
O O11 0.664264 0.841736 0.900446
O O12 0.598530 0.750000 0.115549
O O13 0.153497 0.620929 0.246973
O O14 0.792437 0.250000 0.376394
O O15 0.805959 0.460348 0.354319
O O16 0.394240 0.375218 0.538358
O O17 0.360875 0.121551 0.662175
#
# Coordination Sequence:
#
# PCOD9162462 Si02
#       8
#     4   4   4   4   4   4   2   4
#     4  12  22  40  63  94 121 152 207 246 299 365
#     4   9  19  37  55  82 120 158 196 245 297 346
#     4   9  23  42  64  85 119 159 193 248 308 352
#     4  11  22  39  61  89 117 154 202 245 297 356
#     4   9  18  35  56  79 114 161 202 240 294 354
#     4  10  20  35  56  84 118 155 197 247 293 350
#     4  10  22  38  64  90 116 154 188 256 298 356
#     4  10  22  34  58  89 118 156 195 247 298 349
#
# _framework density 23.88937
#
# number of rings (size 3 to 8) (size 9 to 14) (size 15 to 20)
#    0.400    1.600    0.667    2.800    0.933    2.667 
#    0.000    0.667    1.467    0.000    0.000    0.000 
#    0.000    0.000    0.000    0.000    0.000    0.000 
#
# Total GULP energy -167053.977532 kJ/mol
# GULP energy per Si atom -5568.465918 kJ/mol
# Density = 2.383500 g / cm^3
# Si number density = 23.889370 Si / 1000 Ang^3
#
#
#
# Elastic Constant Matrix: (Units=GPa)
#
#
# Indices 1 2 3 4 5 6 
#
# 1 41.1411 5.8145 13.6995 0.0000 -18.4249 0.0000
# 2 5.8145 123.2733 5.2784 0.0000 -14.5100 0.0000
# 3 13.6995 5.2784 65.2539 0.0000 -16.5139 0.0000
# 4 0.0000 0.0000 0.0000 -0.0008 0.0000 -7.5826
# 5 -18.4249 -14.5100 -16.5139 0.0000 28.9829 0.0000
# 6 0.0000 0.0000 0.0000 -7.5826 0.0000 18.0769
#
#
#
# Elastic Compliance Matrix: (Units=1/GPa)
#
#
# Indices 1 2 3 4 5 6 
#
# 1 0.034300 0.000959 -0.001915 0.000000 0.021194 0.000000
# 2 0.000959 0.008659 0.000408 0.000000 0.005177 0.000000
# 3 -0.001915 0.000408 0.018038 0.000000 0.009265 0.000000
# 4 0.000000 0.000000 0.000000 -0.314324 0.000000 -0.131848
# 5 0.021194 0.005177 0.009265 0.000000 0.055848 0.000000
# 6 0.000000 0.000000 0.000000 -0.131848 0.000000 0.000014
#
#
# Mechanical properties :
#
#
# Convention : Reuss Voigt Hill
#
# Bulk Modulus (GPa) = 16.69384 31.02814 23.86099
# Shear Modulus (GPa) = -28.34433 23.07020 -2.63706
#
# Velocity S-wave (km/s) = -3.44827 3.11096 -1.05179
# Velocity P-wave (km/s) = 2.97506 5.09122 2.92144
#
# Compressibility (1/GPa) = 0.05990234
#
# Stress axis : x y z
#
# Youngs Moduli (GPa) = 29.15410 115.49046 55.43704
#
# Poissons Ratio (x) = -0.11073 0.10616
# Poissons Ratio (y) = -0.02795 -0.02265
# Poissons Ratio (z) = 0.05583 -0.04718
#
# Static dielectric constant tensor:
#      x y z
#    x 1.962670 0.000000 0.051670 
#    y 0.000000 1.937250 0.000000 
#    z 0.051670 0.000000 1.894400 
# 
# From -- ./inp_files/71091.got.cif
#   From: 2010.05.17/outbox.cif.g08.bks.cpg/sg11_36_cif.got.tgz:71091.got - 2010.06.03 12:22:45.
