data_PCOD9162353
_publ_section_title
;
Structure prediction by ZEFSAII (Michael W. Deem and Ramdas Pophale) SiO2 
 PCOD9162353
Probable space group: P 21/M
;
_chemical_formula_sum "Si O2"
_cell_formula_units_Z 28
_cell_length_a 11.000562
_cell_length_b 10.291546
_cell_length_c 13.745869
_cell_angle_alpha 90.000000
_cell_angle_beta 113.142844
_cell_angle_gamma 90.000000
_cell_volume 1430.976780
_symmetry_space_group_name_H-M "P 21/M"
_symmetry_group_IT_number 11
_symmetry_cell_setting 'monoclinic'
loop_
_space_group_symop_operation_xyz
x,y,z
-x,1/2+y,-z
-x,-y,-z
x,1/2-y,z
loop_
_atom_site_type_symbol
_atom_site_label
_atom_site_fract_x
_atom_site_fract_y
_atom_site_fract_z
Si Si1 0.323382 0.393429 0.915331
Si Si2 0.706082 0.106956 0.352249
Si Si3 0.758295 0.096333 0.789702
Si Si4 0.072009 0.406008 0.601161
Si Si5 0.968076 0.904686 0.188011
Si Si6 0.463493 0.461848 0.150713
Si Si7 0.384526 0.896265 0.459177
O O1 0.297796 0.250000 0.867250
O O2 0.178960 0.459602 0.877081
O O3 0.431610 0.455573 0.879371
O O4 0.386743 0.386209 0.042053
O O5 0.765636 0.250000 0.346190
O O6 0.694978 0.098952 0.465108
O O7 0.787141 0.980253 0.344732
O O8 0.559927 0.104676 0.259414
O O9 0.763678 0.250000 0.811962
O O10 0.651097 0.035577 0.827375
O O11 0.703905 0.080639 0.662993
O O12 0.907906 0.041640 0.833683
O O13 0.078696 0.250000 0.578842
O O14 0.007932 0.415281 0.688305
O O15 0.000000 0.500000 0.500000
O O16 0.964692 0.750000 0.164670
O O17 0.439908 0.750000 0.467958
O O18 0.500000 0.000000 0.500000
#
# Coordination Sequence:
#
# PCOD9162353 Si02
#       7
#     4   4   4   4   4   4   4
#     4  10  21  38  58  85 115 152 204 256 306 361
#     4  11  22  37  59  90 126 161 203 254 310 358
#     4  10  20  35  58  85 116 155 201 248 302 369
#     4  11  22  38  62  88 120 162 207 250 302 365
#     4   9  19  37  59  83 117 156 195 246 307 365
#     4  11  21  35  61  87 114 157 202 256 300 359
#     4  10  20  35  55  84 121 159 199 247 302 364
#
# _framework density 19.567053999999999
#
# number of rings (size 3 to 8) (size 9 to 14) (size 15 to 20)
#    0.000    1.714    2.857    2.143    0.000    4.000 
#    0.000    0.000    0.000    2.571    0.000    0.000 
#    0.000    0.000    0.000    0.000    0.000    0.000 
#
# Total GULP energy -155946.584033 kJ/mol
# GULP energy per Si atom -5569.520858 kJ/mol
# Density = 1.952252 g / cm^3
# Si number density = 19.567054 Si / 1000 Ang^3
#
#
#
# Elastic Constant Matrix: (Units=GPa)
#
#
# Indices 1 2 3 4 5 6 
#
# 1 155.8873 59.2297 42.7369 0.0000 9.0307 0.0000
# 2 59.2297 80.1613 20.1732 0.0000 8.9579 0.0000
# 3 42.7369 20.1732 77.6541 0.0000 -0.8119 0.0000
# 4 0.0000 0.0000 0.0000 75.5069 0.0000 2.8654
# 5 9.0307 8.9579 -0.8119 0.0000 27.5067 0.0000
# 6 0.0000 0.0000 0.0000 2.8654 0.0000 20.1438
#
#
#
# Elastic Compliance Matrix: (Units=1/GPa)
#
#
# Indices 1 2 3 4 5 6 
#
# 1 0.009905 -0.006198 -0.003855 0.000000 -0.001347 0.000000
# 2 -0.006198 0.017793 -0.001251 0.000000 -0.003797 0.000000
# 3 -0.003855 -0.001251 0.015347 0.000000 0.002126 0.000000
# 4 0.000000 0.000000 0.000000 0.013316 0.000000 -0.001894
# 5 -0.001347 -0.003797 0.002126 0.000000 0.038096 0.000000
# 6 0.000000 0.000000 0.000000 -0.001894 0.000000 0.049913
#
#
# Mechanical properties :
#
#
# Convention : Reuss Voigt Hill
#
# Bulk Modulus (GPa) = 48.93174 61.99802 55.46488
# Shear Modulus (GPa) = 28.77051 37.40233 33.08642
#
# Velocity S-wave (km/s) = 3.83868 4.37681 4.11655
# Velocity P-wave (km/s) = 6.68646 7.56939 7.14158
#
# Compressibility (1/GPa) = 0.02043663
#
# Stress axis : x y z
#
# Youngs Moduli (GPa) = 100.96309 56.20081 65.16134
#
# Poissons Ratio (x) = 0.34831 0.25120
# Poissons Ratio (y) = 0.62573 0.08153
# Poissons Ratio (z) = 0.38922 0.07032
#
# Static dielectric constant tensor:
#      x y z
#    x 1.749670 0.000000 0.017890 
#    y 0.000000 1.670750 0.000000 
#    z 0.017890 0.000000 1.730300 
# 
# From -- ./inp_files/49500.got.cif
#   From: 2010.05.17/outbox.cif.g08.bks.cpg/sg11_25_cif.got.tgz:49500.got - 2010.06.03 12:22:45.
