data_PCOD9162690
_publ_section_title
;
Structure prediction by ZEFSAII (Michael W. Deem and Ramdas Pophale) SiO2 
 PCOD9162690
Probable space group: P 21/M
;
_chemical_formula_sum "Si O2"
_cell_formula_units_Z 28
_cell_length_a 14.538964
_cell_length_b 14.152458
_cell_length_c 13.409470
_cell_angle_alpha 90.000000
_cell_angle_beta 31.931711
_cell_angle_gamma 90.000000
_cell_volume 1459.342361
_symmetry_space_group_name_H-M "P 21/M"
_symmetry_group_IT_number 11
_symmetry_cell_setting 'monoclinic'
loop_
_space_group_symop_operation_xyz
x,y,z
-x,1/2+y,-z
-x,-y,-z
x,1/2-y,z
loop_
_atom_site_type_symbol
_atom_site_label
_atom_site_fract_x
_atom_site_fract_y
_atom_site_fract_z
Si Si1 0.904517 0.862885 0.526341
Si Si2 0.191181 0.863049 0.880170
Si Si3 0.142076 0.637783 0.489277
Si Si4 0.242129 0.861573 0.610514
Si Si5 0.473167 0.468103 0.350652
Si Si6 0.576746 0.990987 0.821089
Si Si7 0.099205 0.136133 0.691923
O O1 0.898406 0.750000 0.536567
O O2 0.714885 0.906690 0.700941
O O3 0.974596 0.888108 0.351126
O O4 0.005603 0.895866 0.531998
O O5 0.220804 0.750000 0.868162
O O6 0.151306 0.877568 0.800021
O O7 0.368919 0.919297 0.738006
O O8 0.035327 0.891538 0.097639
O O9 0.154133 0.750000 0.468909
O O10 0.120523 0.616086 0.626481
O O11 0.319630 0.586960 0.297199
O O12 0.287647 0.750000 0.562864
O O13 0.411427 0.928462 0.444592
O O14 0.529103 0.472502 0.182523
O O15 0.290631 0.409873 0.525910
O O16 0.500000 0.000000 0.000000
O O17 0.119104 0.250000 0.677500
#
# Coordination Sequence:
#
# PCOD9162690 Si02
#       7
#     4   4   4   4   4   4   4
#     4   9  18  34  55  78 107 139 172 219 270 319
#     4  10  20  35  59  83 108 141 181 226 272 327
#     4   9  18  34  55  73 102 145 176 213 268 315
#     4   9  19  36  55  78 107 143 185 224 266 320
#     4  10  20  36  56  80 110 147 178 223 278 322
#     4  10  21  33  50  81 109 138 175 221 264 321
#     4   9  19  34  54  85 113 135 175 225 273 325
#
# _framework density 19.186724000000002
#
# number of rings (size 3 to 8) (size 9 to 14) (size 15 to 20)
#    0.000    2.571    0.000    1.286    2.000    1.714 
#    0.000    0.000    3.143    0.857    0.000    0.000 
#    0.000    0.000    0.000    0.000    0.000    0.000 
#
# Total GULP energy -155976.226172 kJ/mol
# GULP energy per Si atom -5570.579506 kJ/mol
# Density = 1.914305 g / cm^3
# Si number density = 19.186724 Si / 1000 Ang^3
#
#
#
# Elastic Constant Matrix: (Units=GPa)
#
#
# Indices 1 2 3 4 5 6 
#
# 1 93.5336 35.7603 63.3890 0.0000 33.2029 0.0000
# 2 35.7603 50.5488 26.2246 0.0000 11.4580 0.0000
# 3 63.3890 26.2246 126.5042 0.0000 43.5160 0.0000
# 4 0.0000 0.0000 0.0000 19.7484 0.0000 2.5260
# 5 33.2029 11.4580 43.5160 0.0000 33.3592 0.0000
# 6 0.0000 0.0000 0.0000 2.5260 0.0000 23.8792
#
#
#
# Elastic Compliance Matrix: (Units=1/GPa)
#
#
# Indices 1 2 3 4 5 6 
#
# 1 0.022343 -0.010530 -0.004729 0.000000 -0.012452 0.000000
# 2 -0.010530 0.027289 -0.001382 0.000000 0.002910 0.000000
# 3 -0.004729 -0.001382 0.015924 0.000000 -0.015591 0.000000
# 4 0.000000 0.000000 0.000000 0.051331 0.000000 -0.005430
# 5 -0.012452 0.002910 -0.015591 0.000000 0.061709 0.000000
# 6 0.000000 0.000000 0.000000 -0.005430 0.000000 0.042452
#
#
# Mechanical properties :
#
#
# Convention : Reuss Voigt Hill
#
# Bulk Modulus (GPa) = 30.98453 57.92602 44.45528
# Shear Modulus (GPa) = 18.86165 25.07822 21.96994
#
# Velocity S-wave (km/s) = 3.13878 3.61925 3.38754
# Velocity P-wave (km/s) = 5.41478 6.90808 6.20651
#
# Compressibility (1/GPa) = 0.03227417
#
# Stress axis : x y z
#
# Youngs Moduli (GPa) = 44.75760 36.64416 62.79784
#
# Poissons Ratio (x) = 0.38586 0.29699
# Poissons Ratio (y) = 0.47130 0.08677
# Poissons Ratio (z) = 0.21167 0.05063
#
# Static dielectric constant tensor:
#      x y z
#    x 1.714820 0.000000 0.054080 
#    y 0.000000 1.687210 0.000000 
#    z 0.054080 0.000000 1.666560 
# 
# From -- ./inp_files/22101.got.cif
#   From: 2010.05.17/outbox.cif.g08.bks.cpg/sg11_12_cif.got.tgz:22101.got - 2010.06.03 12:22:45.
