data_PCOD9162031
_publ_section_title
;
Structure prediction by ZEFSAII (Michael W. Deem and Ramdas Pophale) SiO2 
 PCOD9162031
Probable space group: P 21/M
;
_chemical_formula_sum "Si O2"
_cell_formula_units_Z 32
_cell_length_a 14.283985
_cell_length_b 7.699243
_cell_length_c 23.148194
_cell_angle_alpha 90.000000
_cell_angle_beta 33.092540
_cell_angle_gamma 90.000000
_cell_volume 1389.957459
_symmetry_space_group_name_H-M "P 21/M"
_symmetry_group_IT_number 11
_symmetry_cell_setting 'monoclinic'
loop_
_space_group_symop_operation_xyz
x,y,z
-x,1/2+y,-z
-x,-y,-z
x,1/2-y,z
loop_
_atom_site_type_symbol
_atom_site_label
_atom_site_fract_x
_atom_site_fract_y
_atom_site_fract_z
Si Si1 0.680078 0.458600 0.436587
Si Si2 0.800970 0.955957 0.612491
Si Si3 0.047521 0.457704 0.233479
Si Si4 0.732818 0.963305 0.776814
Si Si5 0.833964 0.038184 0.021921
Si Si6 0.638550 0.457916 0.012094
Si Si7 0.792054 0.549101 0.175948
Si Si8 0.583540 0.041575 0.611411
O O1 0.500000 0.500000 0.500000
O O2 0.687962 0.250000 0.432675
O O3 0.675281 0.519567 0.505696
O O4 0.857443 0.524564 0.316493
O O5 0.785233 0.750000 0.624103
O O6 0.744923 0.024219 0.704503
O O7 0.685095 0.008914 0.617983
O O8 0.000000 0.000000 0.500000
O O9 0.035277 0.250000 0.242533
O O10 0.109733 0.519170 0.264524
O O11 0.204677 0.493925 0.109796
O O12 0.733835 0.750000 0.775672
O O13 0.554159 0.021542 0.898634
O O14 0.838367 0.250000 0.025008
O O15 0.692439 0.989299 0.048840
O O16 0.021839 0.977080 0.903055
O O17 0.797329 0.962264 0.103540
O O18 0.630753 0.250000 0.015115
O O19 0.792270 0.750000 0.194227
O O20 0.611256 0.469786 0.287746
O O21 0.570135 0.250000 0.614248
#
# Coordination Sequence:
#
# PCOD9162031 Si02
#       8
#     4   4   4   4   4   4   4   4
#     4  10  23  41  61  83 113 154 197 245 298 349
#     4  11  22  38  62  89 118 153 191 236 289 347
#     4  10  21  38  57  80 113 151 191 236 291 344
#     4   9  19  37  59  84 117 154 189 229 284 345
#     4   9  18  32  50  77 111 145 183 229 281 335
#     4  10  20  34  57  84 111 148 193 233 278 337
#     4   9  18  32  52  77 107 145 185 228 281 337
#     4  10  21  38  59  83 113 149 189 234 290 347
#
# _framework density 23.022286999999999
#
# number of rings (size 3 to 8) (size 9 to 14) (size 15 to 20)
#    0.000    2.250    0.000    2.250    1.750    5.000 
#    0.000    3.750    0.000    0.000    0.000    0.000 
#    0.000    0.000    0.000    0.000    0.000    0.000 
#
# Total GULP energy -178691.072848 kJ/mol
# GULP energy per Si atom -5584.096027 kJ/mol
# Density = 2.296989 g / cm^3
# Si number density = 23.022287 Si / 1000 Ang^3
#
#
#
# Elastic Constant Matrix: (Units=GPa)
#
#
# Indices 1 2 3 4 5 6 
#
# 1 69.8845 -1.3071 27.4675 0.0000 -18.3166 0.0000
# 2 -1.3071 35.0142 -0.0705 0.0000 -3.9793 0.0000
# 3 27.4675 -0.0705 144.5694 0.0000 -24.4967 0.0000
# 4 0.0000 0.0000 0.0000 20.4082 0.0000 -0.6260
# 5 -18.3166 -3.9793 -24.4967 0.0000 39.0684 0.0000
# 6 0.0000 0.0000 0.0000 -0.6260 0.0000 20.7394
#
#
#
# Elastic Compliance Matrix: (Units=1/GPa)
#
#
# Indices 1 2 3 4 5 6 
#
# 1 0.016925 0.001398 -0.002066 0.000000 0.006782 0.000000
# 2 0.001398 0.029052 0.000404 0.000000 0.003868 0.000000
# 3 -0.002066 0.000404 0.008003 0.000000 0.004091 0.000000
# 4 0.000000 0.000000 0.000000 0.049045 0.000000 0.001480
# 5 0.006782 0.003868 0.004091 0.000000 0.031735 0.000000
# 6 0.000000 0.000000 0.000000 0.001480 0.000000 0.048262
#
#
# Mechanical properties :
#
#
# Convention : Reuss Voigt Hill
#
# Bulk Modulus (GPa) = 18.70784 33.51644 26.11214
# Shear Modulus (GPa) = 24.83023 30.93507 27.88265
#
# Velocity S-wave (km/s) = 3.28766 3.66963 3.48388
# Velocity P-wave (km/s) = 4.74923 5.70480 5.24881
#
# Compressibility (1/GPa) = 0.05345353
#
# Stress axis : x y z
#
# Youngs Moduli (GPa) = 59.08414 34.42047 124.95433
#
# Poissons Ratio (x) = -0.04813 0.25813
# Poissons Ratio (y) = -0.08263 -0.05047
# Poissons Ratio (z) = 0.12205 -0.01390
#
# Static dielectric constant tensor:
#      x y z
#    x 1.843910 0.000000 -0.010930 
#    y 0.000000 1.869210 0.000000 
#    z -0.010930 0.000000 1.958500 
# 
# From -- ./inp_files/69001.got.cif
#   From: 2010.05.17/outbox.cif.g08.bks.cpg/sg11_35_cif.got.tgz:69001.got - 2010.06.03 12:22:45.
