data_PCOD9162241
_publ_section_title
;
Structure prediction by ZEFSAII (Michael W. Deem and Ramdas Pophale) SiO2 
 PCOD9162241
Probable space group: P 21/M
;
_chemical_formula_sum "Si O2"
_cell_formula_units_Z 32
_cell_length_a 9.858930
_cell_length_b 10.012774
_cell_length_c 16.080403
_cell_angle_alpha 90.000000
_cell_angle_beta 64.992982
_cell_angle_gamma 90.000000
_cell_volume 1438.573406
_symmetry_space_group_name_H-M "P 21/M"
_symmetry_group_IT_number 11
_symmetry_cell_setting 'monoclinic'
loop_
_space_group_symop_operation_xyz
x,y,z
-x,1/2+y,-z
-x,-y,-z
x,1/2-y,z
loop_
_atom_site_type_symbol
_atom_site_label
_atom_site_fract_x
_atom_site_fract_y
_atom_site_fract_z
Si Si1 0.721008 0.096379 0.255778
Si Si2 0.975242 0.907415 0.182890
Si Si3 0.497199 0.897736 0.114565
Si Si4 0.711172 0.103498 0.992254
Si Si5 0.231794 0.529375 0.429263
Si Si6 0.396964 0.110668 0.256306
Si Si7 0.038581 0.401312 0.617716
Si Si8 0.541858 0.901532 0.415121
O O1 0.755755 0.250000 0.274696
O O2 0.567292 0.109155 0.244563
O O3 0.671676 0.982644 0.335128
O O4 0.861618 0.020762 0.179119
O O5 0.926852 0.750000 0.187720
O O6 0.130555 0.918798 0.092947
O O7 0.995267 0.934983 0.277231
O O8 0.525699 0.750000 0.140506
O O9 0.411976 0.886652 0.049195
O O10 0.387227 0.982478 0.201272
O O11 0.648370 0.982694 0.063223
O O12 0.715184 0.250000 0.033909
O O13 0.287450 0.400630 0.363035
O O14 0.109983 0.594781 0.400832
O O15 0.388356 0.603991 0.401810
O O16 0.153936 0.494775 0.537046
O O17 0.369305 0.250000 0.217551
O O18 0.095718 0.250000 0.601883
O O19 0.580548 0.750000 0.428030
O O20 0.500000 0.000000 0.500000
#
# Coordination Sequence:
#
# PCOD9162241 Si02
#       8
#     4   4   4   4   4   4   4   4
#     4  10  22  38  55  78 109 144 185 230 274 325
#     4  10  20  36  59  83 110 147 184 223 276 329
#     4  10  20  35  59  88 112 141 183 228 276 331
#     4   9  19  36  57  84 117 147 178 223 279 335
#     4  10  21  35  54  81 112 149 188 224 269 328
#     4  10  21  37  56  79 111 149 185 228 279 326
#     4  10  20  35  54  79 113 147 181 224 272 325
#     4  11  22  36  56  79 106 144 189 235 279 325
#
# _framework density 22.244259
#
# number of rings (size 3 to 8) (size 9 to 14) (size 15 to 20)
#    0.000    2.000    0.000    3.375    0.000    7.500 
#    0.000    5.000    0.000    0.000    0.000    0.000 
#    0.000    0.000    0.000    0.000    0.000    0.000 
#
# Total GULP energy -178475.255734 kJ/mol
# GULP energy per Si atom -5577.351742 kJ/mol
# Density = 2.219363 g / cm^3
# Si number density = 22.244259 Si / 1000 Ang^3
#
#
#
# Elastic Constant Matrix: (Units=GPa)
#
#
# Indices 1 2 3 4 5 6 
#
# 1 74.4247 14.5506 -3.6163 0.0000 -21.3020 0.0000
# 2 14.5506 175.4630 39.6548 0.0000 -19.3055 0.0000
# 3 -3.6163 39.6548 68.1847 0.0000 -23.5967 0.0000
# 4 0.0000 0.0000 0.0000 21.2226 0.0000 6.3193
# 5 -21.3020 -19.3055 -23.5967 0.0000 35.6569 0.0000
# 6 0.0000 0.0000 0.0000 6.3193 0.0000 4.1221
#
#
#
# Elastic Compliance Matrix: (Units=1/GPa)
#
#
# Indices 1 2 3 4 5 6 
#
# 1 0.018259 -0.001457 0.006898 0.000000 0.014684 0.000000
# 2 -0.001457 0.006727 -0.003931 0.000000 0.000170 0.000000
# 3 0.006898 -0.003931 0.023357 0.000000 0.017449 0.000000
# 4 0.000000 0.000000 0.000000 0.086693 0.000000 -0.132903
# 5 0.014684 0.000170 0.017449 0.000000 0.048457 0.000000
# 6 0.000000 0.000000 0.000000 -0.132903 0.000000 0.446339
#
#
# Mechanical properties :
#
#
# Convention : Reuss Voigt Hill
#
# Bulk Modulus (GPa) = 19.46953 46.58341 33.02647
# Shear Modulus (GPa) = 7.76477 30.03255 18.89866
#
# Velocity S-wave (km/s) = 1.87036 3.67839 2.91795
# Velocity P-wave (km/s) = 3.66551 6.24724 5.12172
#
# Compressibility (1/GPa) = 0.05136230
#
# Stress axis : x y z
#
# Youngs Moduli (GPa) = 54.76625 148.65127 42.81446
#
# Poissons Ratio (x) = 0.21665 -0.29532
# Poissons Ratio (y) = 0.07982 0.16829
# Poissons Ratio (z) = -0.37776 0.58431
#
# Static dielectric constant tensor:
#      x y z
#    x 1.853390 0.000000 0.025950 
#    y 0.000000 1.859630 0.000000 
#    z 0.025950 0.000000 1.859290 
# 
# From -- ./inp_files/64188.got.cif
#   From: 2010.05.17/outbox.cif.g08.bks.cpg/sg11_33_cif.got.tgz:64188.got - 2010.06.03 12:22:45.
