data_PCOD9162951
_publ_section_title
;
Structure prediction by ZEFSAII (Michael W. Deem and Ramdas Pophale) SiO2 
 PCOD9162951
Probable space group: P 21/M
;
_chemical_formula_sum "Si O2"
_cell_formula_units_Z 24
_cell_length_a 16.308551
_cell_length_b 8.637529
_cell_length_c 16.261634
_cell_angle_alpha 90.000000
_cell_angle_beta 144.064959
_cell_angle_gamma 90.000000
_cell_volume 1344.340398
_symmetry_space_group_name_H-M "P 21/M"
_symmetry_group_IT_number 11
_symmetry_cell_setting 'monoclinic'
loop_
_space_group_symop_operation_xyz
x,y,z
-x,1/2+y,-z
-x,-y,-z
x,1/2-y,z
loop_
_atom_site_type_symbol
_atom_site_label
_atom_site_fract_x
_atom_site_fract_y
_atom_site_fract_z
Si Si1 0.567145 0.064802 0.637429
Si Si2 0.769168 0.065746 0.027470
Si Si3 0.524530 0.063800 0.265807
Si Si4 0.863639 0.564758 0.933895
Si Si5 0.801440 0.436091 0.390149
Si Si6 0.893967 0.565699 0.295032
O O1 0.570837 0.250000 0.639100
O O2 0.500000 0.000000 0.500000
O O3 0.482238 0.006961 0.648466
O O4 0.723582 0.999855 0.777138
O O5 0.764221 0.250000 0.013636
O O6 0.836445 0.019052 0.168332
O O7 0.612788 0.998126 0.892115
O O8 0.854325 0.993182 0.020404
O O9 0.516214 0.250000 0.265201
O O10 0.664813 0.021909 0.330997
O O11 0.862084 0.750000 0.930659
O O12 0.000000 0.500000 0.000000
O O13 0.801033 0.250000 0.377467
O O14 0.810157 0.516606 0.308723
O O15 0.944320 0.474939 0.554501
O O16 0.884372 0.750000 0.275242
#
# Coordination Sequence:
#
# PCOD9162951 Si02
#       6
#     4   4   4   4   4   4
#     4  11  22  38  58  83 114 148 187 230 277 330
#     4  11  22  37  56  81 112 146 185 226 271 325
#     4  10  20  37  58  81 110 143 182 229 279 329
#     4  11  22  39  60  84 113 146 185 229 279 331
#     4   9  20  37  57  81 109 141 180 226 275 328
#     4  10  20  36  57  81 110 144 182 226 275 326
#
# _framework density 17.852620999999999
#
# number of rings (size 3 to 8) (size 9 to 14) (size 15 to 20)
#    0.000    1.667    0.000    7.500    0.000    4.000 
#    0.000    5.000    0.000    0.000    0.000    0.000 
#    0.000    0.000    0.000    0.000    0.000    0.000 
#
# Total GULP energy -134110.369725 kJ/mol
# GULP energy per Si atom -5587.932072 kJ/mol
# Density = 1.781199 g / cm^3
# Si number density = 17.852621 Si / 1000 Ang^3
#
#
#
# Elastic Constant Matrix: (Units=GPa)
#
#
# Indices 1 2 3 4 5 6 
#
# 1 171.7206 79.1704 95.4450 0.0000 14.4144 0.0000
# 2 79.1704 141.0958 61.2746 0.0000 -3.1066 0.0000
# 3 95.4450 61.2746 106.8650 0.0000 -22.3305 0.0000
# 4 0.0000 0.0000 0.0000 30.6591 0.0000 -4.6106
# 5 14.4144 -3.1066 -22.3305 0.0000 26.6238 0.0000
# 6 0.0000 0.0000 0.0000 -4.6106 0.0000 34.6180
#
#
#
# Elastic Compliance Matrix: (Units=1/GPa)
#
#
# Indices 1 2 3 4 5 6 
#
# 1 0.031381 -0.002861 -0.036384 0.000000 -0.047840 0.000000
# 2 -0.002861 0.010096 -0.003230 0.000000 0.000018 0.000000
# 3 -0.036384 -0.003230 0.057888 0.000000 0.067875 0.000000
# 4 0.000000 0.000000 0.000000 0.033283 0.000000 0.004433
# 5 -0.047840 0.000018 0.067875 0.000000 0.120393 0.000000
# 6 0.000000 0.000000 0.000000 0.004433 0.000000 0.029477
#
#
# Mechanical properties :
#
#
# Convention : Reuss Voigt Hill
#
# Bulk Modulus (GPa) = 69.36704 99.05127 84.20915
# Shear Modulus (GPa) = 13.43104 30.63292 22.03198
#
# Velocity S-wave (km/s) = 2.74584 4.14681 3.51679
# Velocity P-wave (km/s) = 6.99947 8.86179 7.98511
#
# Compressibility (1/GPa) = 0.01441607
#
# Stress axis : x y z
#
# Youngs Moduli (GPa) = 31.86671 99.05245 17.27470
#
# Poissons Ratio (x) = 0.28338 0.62852
# Poissons Ratio (y) = 0.09117 0.05579
# Poissons Ratio (z) = 1.15942 0.31992
#
# Static dielectric constant tensor:
#      x y z
#    x 1.585720 0.000000 0.005740 
#    y 0.000000 1.597220 0.000000 
#    z 0.005740 0.000000 1.583920 
# 
# From -- ./inp_files/25931.got.cif
#   From: 2010.05.17/outbox.cif.g08.bks.cpg/sg11_13_cif.got.tgz:25931.got - 2010.06.03 12:22:45.
