data_PCOD9162943
_publ_section_title
;
Structure prediction by ZEFSAII (Michael W. Deem and Ramdas Pophale) SiO2 
 PCOD9162943
Probable space group: P 21/M
;
_chemical_formula_sum "Si O2"
_cell_formula_units_Z 20
_cell_length_a 14.180507
_cell_length_b 9.728151
_cell_length_c 19.638726
_cell_angle_alpha 90.000000
_cell_angle_beta 158.776987
_cell_angle_gamma 90.000000
_cell_volume 980.714862
_symmetry_space_group_name_H-M "P 21/M"
_symmetry_group_IT_number 11
_symmetry_cell_setting 'monoclinic'
loop_
_space_group_symop_operation_xyz
x,y,z
-x,1/2+y,-z
-x,-y,-z
x,1/2-y,z
loop_
_atom_site_type_symbol
_atom_site_label
_atom_site_fract_x
_atom_site_fract_y
_atom_site_fract_z
Si Si1 0.523479 0.959973 0.342632
Si Si2 0.779885 0.250000 0.518330
Si Si3 0.457286 0.250000 0.527774
Si Si4 0.835540 0.250000 0.119881
Si Si5 0.701721 0.513397 0.945951
Si Si6 0.033988 0.250000 0.399430
Si Si7 0.730647 0.250000 0.334949
Si Si8 0.930299 0.250000 0.761335
O O1 0.465784 0.880018 0.373143
O O2 0.776297 0.880332 0.482884
O O3 0.604765 0.115453 0.409512
O O4 0.311031 0.957334 0.139836
O O5 0.878658 0.250000 0.507084
O O6 0.983921 0.250000 0.716850
O O7 0.625614 0.250000 0.573433
O O8 0.145744 0.250000 0.309758
O O9 0.836124 0.250000 0.202398
O O10 0.711466 0.386046 0.003889
O O11 0.453828 0.614756 0.788873
O O12 0.942718 0.614355 0.121417
O O13 0.904551 0.250000 0.385418
#
# Coordination Sequence:
#
# PCOD9162943 Si02
#       8
#     4   2   2   2   4   2   2   2
#     4   9  20  39  58  81 114 148 185 228 275 336
#     4  10  20  36  57  80 112 148 186 226 272 330
#     4  10  22  38  59  83 110 150 189 223 279 339
#     4  10  20  36  59  86 114 144 184 236 276 322
#     4  10  21  38  57  82 117 146 182 234 279 322
#     4  10  20  38  61  83 112 150 189 223 273 339
#     4   9  22  40  58  82 113 153 187 221 278 337
#     4  11  22  38  58  82 113 147 187 235 278 325
#
# _framework density 20.393287999999998
#
# number of rings (size 3 to 8) (size 9 to 14) (size 15 to 20)
#    0.000    2.400    0.000    4.200    0.000    8.000 
#    0.000   11.000    0.000    0.000    0.000    0.000 
#    0.000    0.000    0.000    0.000    0.000    0.000 
#
# Total GULP energy -111639.455276 kJ/mol
# GULP energy per Si atom -5581.972764 kJ/mol
# Density = 2.034687 g / cm^3
# Si number density = 20.393288 Si / 1000 Ang^3
#
#
#
# Elastic Constant Matrix: (Units=GPa)
#
#
# Indices 1 2 3 4 5 6 
#
# 1 88.5879 30.4360 28.5669 0.0000 -5.3371 0.0000
# 2 30.4360 144.6639 18.3200 0.0000 -17.4280 0.0000
# 3 28.5669 18.3200 48.7702 0.0000 -27.6952 0.0000
# 4 0.0000 0.0000 0.0000 19.3428 0.0000 -13.5162
# 5 -5.3371 -17.4280 -27.6952 0.0000 36.4562 0.0000
# 6 0.0000 0.0000 0.0000 -13.5162 0.0000 8.4610
#
#
#
# Elastic Compliance Matrix: (Units=1/GPa)
#
#
# Indices 1 2 3 4 5 6 
#
# 1 0.016104 -0.002782 -0.013725 0.000000 -0.009399 0.000000
# 2 -0.002782 0.007866 0.001018 0.000000 0.004127 0.000000
# 3 -0.013725 0.001018 0.048007 0.000000 0.034948 0.000000
# 4 0.000000 0.000000 0.000000 -0.444652 0.000000 -0.710320
# 5 -0.009399 0.004127 0.034948 0.000000 0.054576 0.000000
# 6 0.000000 0.000000 0.000000 -0.710320 0.000000 -1.016528
#
#
# Mechanical properties :
#
#
# Convention : Reuss Voigt Hill
#
# Bulk Modulus (GPa) = 24.39106 48.51865 36.45485
# Shear Modulus (GPa) = -3.87602 26.49861 11.31129
#
# Velocity S-wave (km/s) = -1.38013 3.60860 2.35767
# Velocity P-wave (km/s) = 3.07353 6.41917 5.03251
#
# Compressibility (1/GPa) = 0.04099863
#
# Stress axis : x y z
#
# Youngs Moduli (GPa) = 62.09698 127.12710 20.83026
#
# Poissons Ratio (x) = 0.35371 0.28590
# Poissons Ratio (y) = 0.17277 -0.02121
# Poissons Ratio (z) = 0.85230 -0.12946
#
# Static dielectric constant tensor:
#      x y z
#    x 1.720690 0.000000 -0.036490 
#    y 0.000000 1.713650 0.000000 
#    z -0.036490 0.000000 1.734800 
# 
# From -- ./inp_files/23871.got.cif
#   From: 2010.05.17/outbox.cif.g08.bks.cpg/sg11_12_cif.got.tgz:23871.got - 2010.06.03 12:22:45.
