data_PCOD9162913
_publ_section_title
;
Structure prediction by ZEFSAII (Michael W. Deem and Ramdas Pophale) SiO2 
 PCOD9162913
Probable space group: P 21/M
;
_chemical_formula_sum "Si O2"
_cell_formula_units_Z 32
_cell_length_a 15.059837
_cell_length_b 8.642508
_cell_length_c 15.582193
_cell_angle_alpha 90.000000
_cell_angle_beta 122.167846
_cell_angle_gamma 90.000000
_cell_volume 1716.767723
_symmetry_space_group_name_H-M "P 21/M"
_symmetry_group_IT_number 11
_symmetry_cell_setting 'monoclinic'
loop_
_space_group_symop_operation_xyz
x,y,z
-x,1/2+y,-z
-x,-y,-z
x,1/2-y,z
loop_
_atom_site_type_symbol
_atom_site_label
_atom_site_fract_x
_atom_site_fract_y
_atom_site_fract_z
Si Si1 0.210878 0.562995 0.727657
Si Si2 0.174756 0.436556 0.346654
Si Si3 0.295104 0.436993 0.237807
Si Si4 0.507184 0.934014 0.272830
Si Si5 0.106984 0.435602 0.013309
Si Si6 0.065934 0.937517 0.807819
Si Si7 0.735762 0.435788 0.431347
Si Si8 0.548236 0.064715 0.111524
O O1 0.202534 0.750000 0.721633
O O2 0.127005 0.508199 0.754053
O O3 0.205521 0.510379 0.625968
O O4 0.328224 0.525477 0.819556
O O5 0.176933 0.250000 0.353481
O O6 0.251353 0.482825 0.308549
O O7 0.209963 0.504668 0.455121
O O8 0.056087 0.481574 0.261647
O O9 0.303793 0.250000 0.240124
O O10 0.406797 0.509157 0.273683
O O11 0.207025 0.482206 0.122273
O O12 0.514596 0.750000 0.278381
O O13 0.616267 0.004735 0.363277
O O14 0.496070 0.992655 0.169207
O O15 0.101639 0.250000 0.011554
O O16 0.113831 0.495687 0.919709
O O17 0.000000 0.500000 0.000000
O O18 0.071651 0.750000 0.815152
O O19 0.733575 0.250000 0.429656
O O20 0.538182 0.250000 0.109970
O O21 0.500000 0.000000 0.000000
#
# Coordination Sequence:
#
# PCOD9162913 Si02
#       8
#     4   4   4   4   4   4   4   4
#     4   8  18  36  58  82 114 152 190 232 288 342
#     4  10  21  38  60  85 115 153 194 239 293 349
#     4  10  22  40  58  84 120 156 193 239 294 348
#     4  11  23  39  60  86 113 152 198 242 296 351
#     4  11  22  38  59  85 118 157 194 238 291 343
#     4  10  20  38  60  86 118 155 194 238 287 343
#     4  10  21  40  62  85 116 153 191 244 296 345
#     4  10  20  36  56  84 119 155 195 241 290 345
#
# _framework density 18.639678
#
# number of rings (size 3 to 8) (size 9 to 14) (size 15 to 20)
#    0.000    2.000    1.250    3.000    1.750    3.000 
#    0.000    3.125    0.000    0.000    0.000    0.000 
#    0.000    0.000    0.000    0.000    0.000    0.000 
#
# Total GULP energy -178706.795669 kJ/mol
# GULP energy per Si atom -5584.587365 kJ/mol
# Density = 1.859725 g / cm^3
# Si number density = 18.639678 Si / 1000 Ang^3
#
#
#
# Elastic Constant Matrix: (Units=GPa)
#
#
# Indices 1 2 3 4 5 6 
#
# 1 105.3859 18.3683 16.1064 0.0000 -33.1379 0.0000
# 2 18.3683 31.6608 19.9028 0.0000 -8.1941 0.0000
# 3 16.1064 19.9028 103.0357 0.0000 -31.0111 0.0000
# 4 0.0000 0.0000 0.0000 35.5583 0.0000 -4.4258
# 5 -33.1379 -8.1941 -31.0111 0.0000 20.3116 0.0000
# 6 0.0000 0.0000 0.0000 -4.4258 0.0000 15.4286
#
#
#
# Elastic Compliance Matrix: (Units=1/GPa)
#
#
# Indices 1 2 3 4 5 6 
#
# 1 0.037575 -0.013147 0.025015 0.000000 0.094190 0.000000
# 2 -0.013147 0.041131 -0.013602 0.000000 -0.025622 0.000000
# 3 0.025015 -0.013602 0.035254 0.000000 0.089148 0.000000
# 4 0.000000 0.000000 0.000000 0.029164 0.000000 0.008366
# 5 0.094190 -0.025622 0.089148 0.000000 0.328672 0.000000
# 6 0.000000 0.000000 0.000000 0.008366 0.000000 0.067214
#
#
# Mechanical properties :
#
#
# Convention : Reuss Voigt Hill
#
# Bulk Modulus (GPa) = 9.05048 38.75973 23.90511
# Shear Modulus (GPa) = 8.63099 26.64003 17.63551
#
# Velocity S-wave (km/s) = 2.15418 3.78459 3.07926
# Velocity P-wave (km/s) = 3.32466 6.31956 5.04927
#
# Compressibility (1/GPa) = 0.11049134
#
# Stress axis : x y z
#
# Youngs Moduli (GPa) = 26.61371 24.31247 28.36586
#
# Poissons Ratio (x) = 0.31964 -0.70956
# Poissons Ratio (y) = 0.34989 0.38582
# Poissons Ratio (z) = -0.66573 0.33069
#
# Static dielectric constant tensor:
#      x y z
#    x 1.637570 0.000000 -0.014040 
#    y 0.000000 1.629410 0.000000 
#    z -0.014040 0.000000 1.620280 
# 
# From -- ./inp_files/51738.got.cif
#   From: 2010.05.17/outbox.cif.g08.bks.cpg/sg11_26_cif.got.tgz:51738.got - 2010.06.03 12:22:45.
