data_PCOD9162537
_publ_section_title
;
Structure prediction by ZEFSAII (Michael W. Deem and Ramdas Pophale) SiO2 
 PCOD9162537
Probable space group: P 21/M
;
_chemical_formula_sum "Si O2"
_cell_formula_units_Z 28
_cell_length_a 24.860525
_cell_length_b 7.599194
_cell_length_c 8.272688
_cell_angle_alpha 90.000000
_cell_angle_beta 43.270939
_cell_angle_gamma 90.000000
_cell_volume 1071.271875
_symmetry_space_group_name_H-M "P 21/M"
_symmetry_group_IT_number 11
_symmetry_cell_setting 'monoclinic'
loop_
_space_group_symop_operation_xyz
x,y,z
-x,1/2+y,-z
-x,-y,-z
x,1/2-y,z
loop_
_atom_site_type_symbol
_atom_site_label
_atom_site_fract_x
_atom_site_fract_y
_atom_site_fract_z
Si Si1 0.806312 0.952991 0.090552
Si Si2 0.335923 0.545498 0.394234
Si Si3 0.615743 0.962610 0.182835
Si Si4 0.763804 0.454026 0.681408
Si Si5 0.904109 0.546750 0.579572
Si Si6 0.956050 0.039663 0.930069
Si Si7 0.474293 0.956856 0.290043
O O1 0.787652 0.750000 0.092344
O O2 0.855446 0.034100 0.834139
O O3 0.869773 0.962435 0.096594
O O4 0.725790 0.038413 0.322745
O O5 0.349493 0.750000 0.324940
O O6 0.286610 0.464843 0.354882
O O7 0.418941 0.466747 0.270277
O O8 0.616690 0.750000 0.181486
O O9 0.558965 0.026603 0.159986
O O10 0.576539 0.023826 0.434291
O O11 0.702464 0.031689 0.963338
O O12 0.781252 0.250000 0.605949
O O13 0.844253 0.540259 0.559554
O O14 0.918211 0.750000 0.590369
O O15 0.986242 0.471053 0.338755
O O16 0.949048 0.250000 0.932263
O O17 0.000000 0.000000 0.000000
O O18 0.483670 0.750000 0.237571
#
# Coordination Sequence:
#
# PCOD9162537 Si02
#       7
#     4   4   4   4   4   4   4
#     4  11  23  39  60  86 114 147 189 233 279 333
#     4  10  22  39  57  81 113 149 190 234 282 335
#     4  10  20  35  57  84 113 146 187 234 283 337
#     4  11  23  37  56  82 113 149 188 231 281 337
#     4  10  23  41  60  84 114 148 189 234 279 331
#     4  11  23  40  62  88 119 152 186 229 280 333
#     4   9  19  37  59  82 111 148 189 234 283 335
#
# _framework density 26.137156000000001
#
# number of rings (size 3 to 8) (size 9 to 14) (size 15 to 20)
#    0.000    1.714    0.000    3.857    0.000    9.714 
#    0.000    0.000    0.000    0.000    0.000    0.000 
#    0.000    0.000    0.000    0.000    0.000    0.000 
#
# Total GULP energy -156758.789950 kJ/mol
# GULP energy per Si atom -5598.528212 kJ/mol
# Density = 2.607767 g / cm^3
# Si number density = 26.137156 Si / 1000 Ang^3
#
#
#
# Elastic Constant Matrix: (Units=GPa)
#
#
# Indices 1 2 3 4 5 6 
#
# 1 137.0646 1.2982 10.0000 0.0000 -20.1193 0.0000
# 2 1.2982 91.7352 1.4579 0.0000 0.5752 0.0000
# 3 10.0000 1.4579 93.6803 0.0000 -15.5149 0.0000
# 4 0.0000 0.0000 0.0000 17.8498 0.0000 1.6002
# 5 -20.1193 0.5752 -15.5149 0.0000 50.9522 0.0000
# 6 0.0000 0.0000 0.0000 1.6002 0.0000 17.6571
#
#
#
# Elastic Compliance Matrix: (Units=1/GPa)
#
#
# Indices 1 2 3 4 5 6 
#
# 1 0.007756 -0.000123 -0.000335 0.000000 0.002962 0.000000
# 2 -0.000123 0.010907 -0.000195 0.000000 -0.000231 0.000000
# 3 -0.000335 -0.000195 0.011260 0.000000 0.003298 0.000000
# 4 0.000000 0.000000 0.000000 0.056482 0.000000 -0.005119
# 5 0.002962 -0.000231 0.003298 0.000000 0.021803 0.000000
# 6 0.000000 0.000000 0.000000 -0.005119 0.000000 0.057098
#
#
# Mechanical properties :
#
#
# Convention : Reuss Voigt Hill
#
# Bulk Modulus (GPa) = 34.94498 38.66581 36.80540
# Shear Modulus (GPa) = 28.38464 37.94011 33.16237
#
# Velocity S-wave (km/s) = 3.29901 3.81409 3.56586
# Velocity P-wave (km/s) = 5.28301 5.84995 5.57369
#
# Compressibility (1/GPa) = 0.02861641
#
# Stress axis : x y z
#
# Youngs Moduli (GPa) = 128.92843 91.68237 88.81235
#
# Poissons Ratio (x) = 0.01128 0.02980
# Poissons Ratio (y) = 0.01586 0.01731
# Poissons Ratio (z) = 0.04326 0.01787
#
# Static dielectric constant tensor:
#      x y z
#    x 2.113580 0.000000 0.089580 
#    y 0.000000 1.969360 0.000000 
#    z 0.089580 0.000000 2.058530 
# 
# From -- ./inp_files/28423.got.cif
#   From: 2010.05.17/outbox.cif.g08.bks.cpg/sg11_15_cif.got.tgz:28423.got - 2010.06.03 12:22:45.
