data_PCOD9162612
_publ_section_title
;
Structure prediction by ZEFSAII (Michael W. Deem and Ramdas Pophale) SiO2 
 PCOD9162612
Probable space group: P 21/M
;
_chemical_formula_sum "Si O2"
_cell_formula_units_Z 32
_cell_length_a 12.898727
_cell_length_b 8.122069
_cell_length_c 32.584043
_cell_angle_alpha 90.000000
_cell_angle_beta 28.106857
_cell_angle_gamma 90.000000
_cell_volume 1608.228244
_symmetry_space_group_name_H-M "P 21/M"
_symmetry_group_IT_number 11
_symmetry_cell_setting 'monoclinic'
loop_
_space_group_symop_operation_xyz
x,y,z
-x,1/2+y,-z
-x,-y,-z
x,1/2-y,z
loop_
_atom_site_type_symbol
_atom_site_label
_atom_site_fract_x
_atom_site_fract_y
_atom_site_fract_z
Si Si1 0.753908 0.059392 0.580978
Si Si2 0.202563 0.947592 0.701305
Si Si3 0.232209 0.451274 0.193625
Si Si4 0.115973 0.445396 0.823728
Si Si5 0.493281 0.936869 0.745692
Si Si6 0.864389 0.550545 0.679847
Si Si7 0.326560 0.052757 0.481724
Si Si8 0.382901 0.550957 0.998781
O O1 0.722043 0.250000 0.604026
O O2 0.615933 0.946004 0.659253
O O3 0.703887 0.034731 0.551181
O O4 0.000000 0.000000 0.500000
O O5 0.193291 0.750000 0.704079
O O6 0.417802 0.992958 0.598847
O O7 0.976237 0.009924 0.760404
O O8 0.211854 0.996342 0.746113
O O9 0.229783 0.250000 0.193791
O O10 0.201300 0.500367 0.251444
O O11 0.458870 0.505060 0.093378
O O12 0.107867 0.250000 0.823133
O O13 0.262164 0.484716 0.812828
O O14 0.867336 0.511502 0.914838
O O15 0.450825 0.750000 0.773471
O O16 0.673901 0.008330 0.714547
O O17 0.866986 0.750000 0.676158
O O18 0.113579 0.494976 0.582645
O O19 0.319087 0.250000 0.479284
O O20 0.374879 0.750000 0.000229
O O21 0.500000 0.500000 0.000000
#
# Coordination Sequence:
#
# PCOD9162612 Si02
#       8
#     4   4   4   4   4   4   4   4
#     4  12  22  33  53  81 113 150 193 242 288 336
#     4  10  20  35  58  84 115 151 189 231 287 351
#     4   9  19  39  62  83 111 152 194 237 288 350
#     4  11  22  34  55  90 121 145 184 241 299 347
#     4  11  22  36  55  81 114 154 198 241 287 339
#     4  10  22  39  59  79 109 158 206 237 279 342
#     4  11  22  34  53  84 118 153 194 238 286 338
#     4  10  20  36  62  91 116 145 186 236 295 351
#
# _framework density 19.897673000000001
#
# number of rings (size 3 to 8) (size 9 to 14) (size 15 to 20)
#    0.000    1.500    3.750    2.250    0.000    2.000 
#    0.000    1.875    0.000    0.000    0.000    0.000 
#    0.000    0.000    0.000    0.000    0.000    0.000 
#
# Total GULP energy -178434.467843 kJ/mol
# GULP energy per Si atom -5576.077120 kJ/mol
# Density = 1.985239 g / cm^3
# Si number density = 19.897673 Si / 1000 Ang^3
#
#
#
# Elastic Constant Matrix: (Units=GPa)
#
#
# Indices 1 2 3 4 5 6 
#
# 1 72.5009 4.7018 69.8680 0.0000 -3.7035 0.0000
# 2 4.7018 23.1477 10.2644 0.0000 -2.9054 0.0000
# 3 69.8680 10.2644 166.2192 0.0000 -14.7088 0.0000
# 4 0.0000 0.0000 0.0000 18.8602 0.0000 -5.1557
# 5 -3.7035 -2.9054 -14.7088 0.0000 36.2744 0.0000
# 6 0.0000 0.0000 0.0000 -5.1557 0.0000 14.8443
#
#
#
# Elastic Compliance Matrix: (Units=1/GPa)
#
#
# Indices 1 2 3 4 5 6 
#
# 1 0.023286 -0.000550 -0.009903 0.000000 -0.001682 0.000000
# 2 -0.000550 0.044656 -0.002297 0.000000 0.002589 0.000000
# 3 -0.009903 -0.002297 0.010595 0.000000 0.003101 0.000000
# 4 0.000000 0.000000 0.000000 0.058584 0.000000 0.020347
# 5 -0.001682 0.002589 0.003101 0.000000 0.028861 0.000000
# 6 0.000000 0.000000 0.000000 0.020347 0.000000 0.074433
#
#
# Mechanical properties :
#
#
# Convention : Reuss Voigt Hill
#
# Bulk Modulus (GPa) = 18.85477 47.94846 33.40161
# Shear Modulus (GPa) = 17.63089 25.79801 21.71445
#
# Velocity S-wave (km/s) = 2.97994 3.60465 3.30708
# Velocity P-wave (km/s) = 4.61914 6.44007 5.60406
#
# Compressibility (1/GPa) = 0.05303699
#
# Stress axis : x y z
#
# Youngs Moduli (GPa) = 42.94459 22.39332 94.38471
#
# Poissons Ratio (x) = 0.01231 0.93467
# Poissons Ratio (y) = 0.02361 0.21684
# Poissons Ratio (z) = 0.42527 0.05145
#
# Static dielectric constant tensor:
#      x y z
#    x 1.704130 0.000000 -0.044300 
#    y 0.000000 1.883190 0.000000 
#    z -0.044300 0.000000 1.724090 
# 
# From -- ./inp_files/65218.got.cif
#   From: 2010.05.17/outbox.cif.g08.bks.cpg/sg11_33_cif.got.tgz:65218.got - 2010.06.03 12:22:45.
