data_PCOD9162795
_publ_section_title
;
Structure prediction by ZEFSAII (Michael W. Deem and Ramdas Pophale) SiO2 
 PCOD9162795
Probable space group: P 21/M
;
_chemical_formula_sum "Si O2"
_cell_formula_units_Z 20
_cell_length_a 7.097575
_cell_length_b 17.584543
_cell_length_c 8.718664
_cell_angle_alpha 90.000000
_cell_angle_beta 126.791172
_cell_angle_gamma 90.000000
_cell_volume 871.420780
_symmetry_space_group_name_H-M "P 21/M"
_symmetry_group_IT_number 11
_symmetry_cell_setting 'monoclinic'
loop_
_space_group_symop_operation_xyz
x,y,z
-x,1/2+y,-z
-x,-y,-z
x,1/2-y,z
loop_
_atom_site_type_symbol
_atom_site_label
_atom_site_fract_x
_atom_site_fract_y
_atom_site_fract_z
Si Si1 0.800451 0.106893 0.308222
Si Si2 0.702012 0.027691 0.712767
Si Si3 0.806550 0.165529 0.966064
Si Si4 0.849539 0.934193 0.280528
Si Si5 0.303168 0.377677 0.094708
O O1 0.833409 0.137088 0.153510
O O2 0.568393 0.145378 0.268698
O O3 0.037936 0.111072 0.523258
O O4 0.745263 0.015702 0.277451
O O5 0.925658 0.043372 0.714482
O O6 0.500000 0.000000 0.500000
O O7 0.746776 0.959106 0.851213
O O8 0.666552 0.103902 0.795311
O O9 0.704065 0.250000 0.910901
O O10 0.073121 0.168235 0.028585
O O11 0.688913 0.887959 0.085577
#
# Coordination Sequence:
#
# PCOD9162795 Si02
#       5
#     4   4   4   4   4
#     4  11  21  36  65  97 124 164 211 265 323 377
#     4  11  20  40  69  98 127 171 225 273 318 390
#     4  11  25  43  61  92 137 172 212 274 337 390
#     4  10  20  35  63 100 127 153 214 277 306 368
#     4  11  21  40  65  93 124 168 220 265 313 384
#
# _framework density 22.951025999999999
#
# number of rings (size 3 to 8) (size 9 to 14) (size 15 to 20)
#    0.000    1.200    6.000    1.800    0.000    0.800 
#    0.000    5.000    0.000    0.000    0.000    0.000 
#    0.000    0.000    0.000    0.000    0.000    0.000 
#
# Total GULP energy -111815.735127 kJ/mol
# GULP energy per Si atom -5590.786756 kJ/mol
# Density = 2.289879 g / cm^3
# Si number density = 22.951026 Si / 1000 Ang^3
#
#
#
# Elastic Constant Matrix: (Units=GPa)
#
#
# Indices 1 2 3 4 5 6 
#
# 1 62.0208 -2.2693 17.7041 0.0000 -5.8051 0.0000
# 2 -2.2693 115.7010 58.7667 0.0000 -6.7378 0.0000
# 3 17.7041 58.7667 138.6999 0.0000 -8.6421 0.0000
# 4 0.0000 0.0000 0.0000 7.6192 0.0000 0.6087
# 5 -5.8051 -6.7378 -8.6421 0.0000 36.2115 0.0000
# 6 0.0000 0.0000 0.0000 0.6087 0.0000 6.1797
#
#
#
# Elastic Compliance Matrix: (Units=1/GPa)
#
#
# Indices 1 2 3 4 5 6 
#
# 1 0.017242 0.001938 -0.002870 0.000000 0.002440 0.000000
# 2 0.001938 0.011263 -0.004943 0.000000 0.001227 0.000000
# 3 -0.002870 -0.004943 0.009729 0.000000 0.000942 0.000000
# 4 0.000000 0.000000 0.000000 0.132287 0.000000 -0.013029
# 5 0.002440 0.001227 0.000942 0.000000 0.028460 0.000000
# 6 0.000000 0.000000 0.000000 -0.013029 0.000000 0.163104
#
#
# Mechanical properties :
#
#
# Convention : Reuss Voigt Hill
#
# Bulk Modulus (GPa) = 37.75820 51.64719 44.70270
# Shear Modulus (GPa) = 13.06629 26.15009 19.60819
#
# Velocity S-wave (km/s) = 2.38861 3.37914 2.92610
# Velocity P-wave (km/s) = 4.90863 6.14629 5.56199
#
# Compressibility (1/GPa) = 0.02648431
#
# Stress axis : x y z
#
# Youngs Moduli (GPa) = 57.99747 88.78561 102.78332
#
# Poissons Ratio (x) = -0.17206 0.29498
# Poissons Ratio (y) = -0.11240 0.50807
# Poissons Ratio (z) = 0.16645 0.43887
#
# Static dielectric constant tensor:
#      x y z
#    x 1.909860 0.000000 0.024530 
#    y 0.000000 1.820990 0.000000 
#    z 0.024530 0.000000 1.907980 
# 
# From -- ./inp_files/13623.got.cif
#   From: 2010.05.17/outbox.cif.g08.bks.cpg/sg11_7_cif.got.tgz:13623.got - 2010.06.03 12:22:45.
