data_PCOD9162987
_publ_section_title
;
Structure prediction by ZEFSAII (Michael W. Deem and Ramdas Pophale) SiO2 
 PCOD9162987
Probable space group: P 21/M
;
_chemical_formula_sum "Si O2"
_cell_formula_units_Z 24
_cell_length_a 22.561431
_cell_length_b 8.619515
_cell_length_c 16.830100
_cell_angle_alpha 90.000000
_cell_angle_beta 23.624931
_cell_angle_gamma 90.000000
_cell_volume 1311.617610
_symmetry_space_group_name_H-M "P 21/M"
_symmetry_group_IT_number 11
_symmetry_cell_setting 'monoclinic'
loop_
_space_group_symop_operation_xyz
x,y,z
-x,1/2+y,-z
-x,-y,-z
x,1/2-y,z
loop_
_atom_site_type_symbol
_atom_site_label
_atom_site_fract_x
_atom_site_fract_y
_atom_site_fract_z
Si Si1 0.900564 0.435538 0.380273
Si Si2 0.963415 0.064477 0.631514
Si Si3 0.166903 0.563848 0.798830
Si Si4 0.663311 0.564923 0.075331
Si Si5 0.344853 0.435014 0.430589
Si Si6 0.202399 0.935623 0.935804
O O1 0.907561 0.250000 0.370262
O O2 0.925113 0.497204 0.439092
O O3 0.751916 0.495341 0.522082
O O4 0.039506 0.502565 0.159514
O O5 0.968733 0.250000 0.625920
O O6 0.000000 0.000000 0.500000
O O7 0.801813 0.007565 0.858247
O O8 0.164703 0.750000 0.790412
O O9 0.262703 0.486847 0.612317
O O10 0.228639 0.530384 0.811167
O O11 0.000000 0.500000 0.000000
O O12 0.670077 0.750000 0.062125
O O13 0.509460 0.502119 0.231397
O O14 0.685990 0.512906 0.139081
O O15 0.347270 0.250000 0.422333
O O16 0.204274 0.750000 0.944750
#
# Coordination Sequence:
#
# PCOD9162987 Si02
#       6
#     4   4   4   4   4   4
#     4  11  21  36  60  88 118 154 197 241 292 349
#     4  11  22  41  67  94 121 152 192 235 287 350
#     4  11  22  35  56  84 117 156 204 250 293 344
#     4  11  23  40  61  87 119 155 195 243 299 352
#     4  12  24  39  58  84 120 160 199 246 299 348
#     4  10  20  36  57  83 115 156 201 245 293 346
#
# _framework density 18.298017000000002
#
# number of rings (size 3 to 8) (size 9 to 14) (size 15 to 20)
#    0.000    1.000    1.667    9.000    0.000    2.667 
#    0.000    0.833    0.000    0.000    0.000    0.000 
#    0.000    0.000    0.000    0.000    0.000    0.000 
#
# Total GULP energy -134233.987147 kJ/mol
# GULP energy per Si atom -5593.082798 kJ/mol
# Density = 1.825637 g / cm^3
# Si number density = 18.298017 Si / 1000 Ang^3
#
#
#
# Elastic Constant Matrix: (Units=GPa)
#
#
# Indices 1 2 3 4 5 6 
#
# 1 159.2152 59.1492 70.8147 0.0000 -7.4047 0.0000
# 2 59.1492 128.1614 28.7974 0.0000 1.4773 0.0000
# 3 70.8147 28.7974 70.1186 0.0000 -13.6216 0.0000
# 4 0.0000 0.0000 0.0000 31.8032 0.0000 -0.5034
# 5 -7.4047 1.4773 -13.6216 0.0000 36.6853 0.0000
# 6 0.0000 0.0000 0.0000 -0.5034 0.0000 35.7268
#
#
#
# Elastic Compliance Matrix: (Units=1/GPa)
#
#
# Indices 1 2 3 4 5 6 
#
# 1 0.012607 -0.003155 -0.011767 0.000000 -0.001697 0.000000
# 2 -0.003155 0.009495 -0.000982 0.000000 -0.001384 0.000000
# 3 -0.011767 -0.000982 0.028123 0.000000 0.008107 0.000000
# 4 0.000000 0.000000 0.000000 0.031450 0.000000 0.000443
# 5 -0.001697 -0.001384 0.008107 0.000000 0.029982 0.000000
# 6 0.000000 0.000000 0.000000 0.000443 0.000000 0.027996
#
#
# Mechanical properties :
#
#
# Convention : Reuss Voigt Hill
#
# Bulk Modulus (GPa) = 54.29333 75.00198 64.64766
# Shear Modulus (GPa) = 28.15280 34.09199 31.12240
#
# Velocity S-wave (km/s) = 3.92672 4.32111 4.12862
# Velocity P-wave (km/s) = 7.09189 8.12244 7.62460
#
# Compressibility (1/GPa) = 0.01841847
#
# Stress axis : x y z
#
# Youngs Moduli (GPa) = 79.31800 105.31350 35.55787
#
# Poissons Ratio (x) = 0.33228 0.41839
# Poissons Ratio (y) = 0.25026 0.03492
# Poissons Ratio (z) = 0.93330 0.10343
#
# Static dielectric constant tensor:
#      x y z
#    x 1.632380 0.000000 -0.002760 
#    y 0.000000 1.607090 0.000000 
#    z -0.002760 0.000000 1.598160 
# 
# From -- ./inp_files/60725.got.cif
#   From: 2010.05.17/outbox.cif.g08.bks.cpg/sg11_31_cif.got.tgz:60725.got - 2010.06.03 12:22:45.
