data_PCOD9162118
_publ_section_title
;
Structure prediction by ZEFSAII (Michael W. Deem and Ramdas Pophale) SiO2 
 PCOD9162118
Probable space group: P 21/M
;
_chemical_formula_sum "Si O2"
_cell_formula_units_Z 30
_cell_length_a 9.869423
_cell_length_b 14.808992
_cell_length_c 9.259524
_cell_angle_alpha 90.000000
_cell_angle_beta 110.307299
_cell_angle_gamma 90.000000
_cell_volume 1269.219880
_symmetry_space_group_name_H-M "P 21/M"
_symmetry_group_IT_number 11
_symmetry_cell_setting 'monoclinic'
loop_
_space_group_symop_operation_xyz
x,y,z
-x,1/2+y,-z
-x,-y,-z
x,1/2-y,z
loop_
_atom_site_type_symbol
_atom_site_label
_atom_site_fract_x
_atom_site_fract_y
_atom_site_fract_z
Si Si1 0.296800 0.097915 0.417348
Si Si2 0.951844 0.146480 0.973779
Si Si3 0.478970 0.646948 0.265315
Si Si4 0.293237 0.352292 0.108148
Si Si5 0.055423 0.250000 0.356414
Si Si6 0.203857 0.894023 0.351196
Si Si7 0.765162 0.345854 0.306174
Si Si8 0.693465 0.039190 0.026456
O O1 0.407240 0.096714 0.590643
O O2 0.367788 0.127722 0.290230
O O3 0.178674 0.171903 0.410424
O O4 0.228476 0.000715 0.363955
O O5 0.904997 0.250000 0.990066
O O6 0.936065 0.131082 0.795374
O O7 0.844146 0.075399 0.008558
O O8 0.119612 0.142630 0.077467
O O9 0.523675 0.750000 0.250860
O O10 0.334190 0.648739 0.308891
O O11 0.429936 0.592097 0.107113
O O12 0.321638 0.250000 0.070422
O O13 0.320180 0.433550 0.008975
O O14 0.925830 0.326809 0.306622
O O15 0.211836 0.860616 0.516530
O O16 0.684512 0.250000 0.252084
O O17 0.696814 0.426761 0.191364
#
# Coordination Sequence:
#
# PCOD9162118 Si02
#       8
#     4   4   4   4   2   4   4   4
#     4  12  22  41  64  96 129 175 216 269 320 382
#     4  10  20  34  59  93 127 159 215 273 314 370
#     4  11  22  40  69  97 128 163 224 277 311 376
#     4  11  22  36  60  92 131 166 211 274 329 371
#     4  10  24  40  62  92 132 172 212 250 334 394
#     4  11  23  39  65  98 129 173 216 266 326 380
#     4  10  23  42  65  93 136 170 211 257 329 398
#     4  11  21  37  64  94 121 167 219 267 315 378
#
# _framework density 23.636566999999999
#
# number of rings (size 3 to 8) (size 9 to 14) (size 15 to 20)
#    0.400    0.800    4.000    4.800    3.733    0.533 
#    0.000    0.667    0.000    0.000    3.467    0.000 
#    0.000    0.000    0.000    0.000    0.000    0.000 
#
# Total GULP energy -167354.809404 kJ/mol
# GULP energy per Si atom -5578.493647 kJ/mol
# Density = 2.358277 g / cm^3
# Si number density = 23.636567 Si / 1000 Ang^3
#
#
#
# Elastic Constant Matrix: (Units=GPa)
#
#
# Indices 1 2 3 4 5 6 
#
# 1 32.6071 1.6673 20.4153 0.0000 7.6575 0.0000
# 2 1.6673 155.2897 8.3603 0.0000 -13.4057 0.0000
# 3 20.4153 8.3603 125.5742 0.0000 3.6083 0.0000
# 4 0.0000 0.0000 0.0000 19.5327 0.0000 28.6366
# 5 7.6575 -13.4057 3.6083 0.0000 18.7622 0.0000
# 6 0.0000 0.0000 0.0000 28.6366 0.0000 379.7327
#
#
#
# Elastic Compliance Matrix: (Units=1/GPa)
#
#
# Indices 1 2 3 4 5 6 
#
# 1 0.037877 -0.001434 -0.005620 0.000000 -0.015403 0.000000
# 2 -0.001434 0.006963 -0.000392 0.000000 0.005635 0.000000
# 3 -0.005620 -0.000392 0.008894 0.000000 0.000303 0.000000
# 4 0.000000 0.000000 0.000000 0.057560 0.000000 -0.004341
# 5 -0.015403 0.005635 0.000303 0.000000 0.063553 0.000000
# 6 0.000000 0.000000 0.000000 -0.004341 0.000000 0.002961
#
#
# Mechanical properties :
#
#
# Convention : Reuss Voigt Hill
#
# Bulk Modulus (GPa) = 25.74519 41.59522 33.67021
# Shear Modulus (GPa) = 24.31337 102.47405 63.39371
#
# Velocity S-wave (km/s) = 3.21071 6.59152 5.18444
# Velocity P-wave (km/s) = 4.96595 8.69292 7.07911
#
# Compressibility (1/GPa) = 0.03884220
#
# Stress axis : x y z
#
# Youngs Moduli (GPa) = 26.40112 143.62477 112.42903
#
# Poissons Ratio (x) = 0.20593 0.63184
# Poissons Ratio (y) = 0.03785 0.04411
# Poissons Ratio (z) = 0.14837 0.05636
#
# Static dielectric constant tensor:
#      x y z
#    x 1.914050 0.000000 -0.025610 
#    y 0.000000 1.925280 0.000000 
#    z -0.025610 0.000000 1.939030 
# 
# From -- ./inp_files/18116.got.cif
#   From: 2010.05.17/outbox.cif.g08.bks.cpg/sg11_10_cif.got.tgz:18116.got - 2010.06.03 12:22:45.
