data_PCOD9162782
_publ_section_title
;
Structure prediction by ZEFSAII (Michael W. Deem and Ramdas Pophale) SiO2 
 PCOD9162782
Probable space group: P 21/M
;
_chemical_formula_sum "Si O2"
_cell_formula_units_Z 24
_cell_length_a 15.378505
_cell_length_b 11.525431
_cell_length_c 9.016481
_cell_angle_alpha 90.000000
_cell_angle_beta 143.695520
_cell_angle_gamma 90.000000
_cell_volume 946.206580
_symmetry_space_group_name_H-M "P 21/M"
_symmetry_group_IT_number 11
_symmetry_cell_setting 'monoclinic'
loop_
_space_group_symop_operation_xyz
x,y,z
-x,1/2+y,-z
-x,-y,-z
x,1/2-y,z
loop_
_atom_site_type_symbol
_atom_site_label
_atom_site_fract_x
_atom_site_fract_y
_atom_site_fract_z
Si Si1 0.774232 0.960247 0.284525
Si Si2 0.754511 0.123214 0.517938
Si Si3 0.606955 0.628229 0.494012
Si Si4 0.093598 0.884205 0.785358
Si Si5 0.907536 0.613883 0.009011
Si Si6 0.456635 0.093731 0.252733
O O1 0.712930 0.022334 0.346301
O O2 0.833512 0.068156 0.265607
O O3 0.656878 0.884216 0.033538
O O4 0.918284 0.886765 0.520646
O O5 0.752233 0.250000 0.439893
O O6 0.921992 0.108984 0.803674
O O7 0.625596 0.128500 0.461516
O O8 0.574978 0.750000 0.379744
O O9 0.598127 0.629753 0.662116
O O10 0.477553 0.543770 0.276291
O O11 0.779980 0.604875 0.710657
O O12 0.137009 0.750000 0.884743
O O13 0.117971 0.998949 0.924523
O O14 0.892781 0.750000 0.047547
#
# Coordination Sequence:
#
# PCOD9162782 Si02
#       6
#     4   4   4   4   4   4
#     4  10  21  37  56  88 126 160 191 255 312 364
#     4  10  21  37  60  86 118 158 200 249 309 367
#     4  10  22  40  62  83 116 164 207 251 304 358
#     4  10  20  35  61  93 120 157 208 253 298 364
#     4   9  19  40  63  88 123 163 203 248 305 362
#     4  11  22  39  58  89 119 156 205 252 301 364
#
# _framework density 25.364439000000001
#
# number of rings (size 3 to 8) (size 9 to 14) (size 15 to 20)
#    0.000    2.000    1.667    1.500    0.000    7.333 
#    0.000    4.167    0.000    0.000    0.000    0.000 
#    0.000    0.000    0.000    0.000    0.000    0.000 
#
# Total GULP energy -133871.318816 kJ/mol
# GULP energy per Si atom -5577.971617 kJ/mol
# Density = 2.530671 g / cm^3
# Si number density = 25.364439 Si / 1000 Ang^3
#
#
#
# Elastic Constant Matrix: (Units=GPa)
#
#
# Indices 1 2 3 4 5 6 
#
# 1 71.8659 8.6438 3.3492 0.0000 12.8122 0.0000
# 2 8.6438 167.7909 17.6729 0.0000 -4.9284 0.0000
# 3 3.3492 17.6729 65.7120 0.0000 6.5651 0.0000
# 4 0.0000 0.0000 0.0000 -33.4713 0.0000 57.3719
# 5 12.8122 -4.9284 6.5651 0.0000 30.0865 0.0000
# 6 0.0000 0.0000 0.0000 57.3719 0.0000 -76.1236
#
#
#
# Elastic Compliance Matrix: (Units=1/GPa)
#
#
# Indices 1 2 3 4 5 6 
#
# 1 0.015218 -0.000997 0.000160 0.000000 -0.006679 0.000000
# 2 -0.000997 0.006257 -0.001816 0.000000 0.001846 0.000000
# 3 0.000160 -0.001816 0.016085 0.000000 -0.003875 0.000000
# 4 0.000000 0.000000 0.000000 0.102375 0.000000 0.077156
# 5 -0.006679 0.001846 -0.003875 0.000000 0.037230 0.000000
# 6 0.000000 0.000000 0.000000 0.077156 0.000000 0.045014
#
#
# Mechanical properties :
#
#
# Convention : Reuss Voigt Hill
#
# Bulk Modulus (GPa) = 31.00480 40.52228 35.76354
# Shear Modulus (GPa) = 20.98758 2.47853 11.73305
#
# Velocity S-wave (km/s) = 2.87965 0.98959 2.15310
# Velocity P-wave (km/s) = 4.82771 4.16130 4.50684
#
# Compressibility (1/GPa) = 0.03225307
#
# Stress axis : x y z
#
# Youngs Moduli (GPa) = 65.71194 159.82925 62.16804
#
# Poissons Ratio (x) = 0.15934 -0.00993
# Poissons Ratio (y) = 0.06551 0.11292
# Poissons Ratio (z) = -0.01050 0.29030
#
# Static dielectric constant tensor:
#      x y z
#    x 2.010700 0.000000 -0.020050 
#    y 0.000000 2.219280 0.000000 
#    z -0.020050 0.000000 1.933220 
# 
# From -- ./inp_files/41271.got.cif
#   From: 2010.05.17/outbox.cif.g08.bks.cpg/sg11_21_cif.got.tgz:41271.got - 2010.06.03 12:22:45.
