data_PCOD9162621
_publ_section_title
;
Structure prediction by ZEFSAII (Michael W. Deem and Ramdas Pophale) SiO2 
 PCOD9162621
Probable space group: P 21/M
;
_chemical_formula_sum "Si O2"
_cell_formula_units_Z 32
_cell_length_a 28.028650
_cell_length_b 8.015629
_cell_length_c 21.911541
_cell_angle_alpha 90.000000
_cell_angle_beta 161.148397
_cell_angle_gamma 90.000000
_cell_volume 1590.647960
_symmetry_space_group_name_H-M "P 21/M"
_symmetry_group_IT_number 11
_symmetry_cell_setting 'monoclinic'
loop_
_space_group_symop_operation_xyz
x,y,z
-x,1/2+y,-z
-x,-y,-z
x,1/2-y,z
loop_
_atom_site_type_symbol
_atom_site_label
_atom_site_fract_x
_atom_site_fract_y
_atom_site_fract_z
Si Si1 0.100613 0.947284 0.811539
Si Si2 0.103600 0.954584 0.244965
Si Si3 0.293130 0.556489 0.362357
Si Si4 0.606716 0.056574 0.767986
Si Si5 0.657922 0.451218 0.217125
Si Si6 0.236691 0.444527 0.160767
Si Si7 0.959812 0.050276 0.519530
Si Si8 0.199302 0.553882 0.488758
O O1 0.090600 0.750000 0.812705
O O2 0.259223 0.005988 0.027426
O O3 0.071421 0.977570 0.704969
O O4 0.966066 0.034982 0.684167
O O5 0.107048 0.750000 0.248759
O O6 0.174123 0.009900 0.266731
O O7 0.193568 0.014743 0.413296
O O8 0.933193 0.003267 0.045681
O O9 0.260681 0.750000 0.310254
O O10 0.454052 0.540591 0.587095
O O11 0.292085 0.463654 0.296768
O O12 0.578190 0.250000 0.747921
O O13 0.666992 0.041358 0.771863
O O14 0.663759 0.250000 0.226504
O O15 0.795343 0.506018 0.341018
O O16 0.693801 0.515690 0.329106
O O17 0.500000 0.500000 0.000000
O O18 0.240864 0.250000 0.148193
O O19 0.964460 0.250000 0.530288
O O20 0.000000 0.000000 0.500000
O O21 0.232688 0.750000 0.523694
#
# Coordination Sequence:
#
# PCOD9162621 Si02
#       8
#     4   4   4   4   4   4   4   4
#     4  10  20  35  58  85 113 145 187 234 276 327
#     4   9  19  36  59  83 109 142 186 232 277 333
#     4  11  23  38  55  81 116 149 183 231 284 336
#     4  11  23  39  57  82 114 147 187 233 279 331
#     4   9  19  34  56  83 115 147 182 226 270 324
#     4  11  21  37  62  84 106 143 187 232 282 338
#     4  10  21  38  60  86 116 150 188 231 276 328
#     4   9  17  35  59  82 109 144 189 231 270 324
#
# _framework density 20.117588999999999
#
# number of rings (size 3 to 8) (size 9 to 14) (size 15 to 20)
#    0.000    2.000    1.250    3.375    0.000    4.000 
#    2.250    3.125    0.000    0.000    0.000    0.000 
#    0.000    0.000    0.000    0.000    0.000    0.000 
#
# Total GULP energy -178689.678367 kJ/mol
# GULP energy per Si atom -5584.052449 kJ/mol
# Density = 2.007180 g / cm^3
# Si number density = 20.117589 Si / 1000 Ang^3
#
#
#
# Elastic Constant Matrix: (Units=GPa)
#
#
# Indices 1 2 3 4 5 6 
#
# 1 60.7853 -6.4844 7.8851 0.0000 -12.5751 0.0000
# 2 -6.4844 22.8202 -2.7202 0.0000 0.8991 0.0000
# 3 7.8851 -2.7202 83.5857 0.0000 -17.1587 0.0000
# 4 0.0000 0.0000 0.0000 21.4744 0.0000 -4.2267
# 5 -12.5751 0.8991 -17.1587 0.0000 28.8173 0.0000
# 6 0.0000 0.0000 0.0000 -4.2267 0.0000 13.8707
#
#
#
# Elastic Compliance Matrix: (Units=1/GPa)
#
#
# Indices 1 2 3 4 5 6 
#
# 1 0.018633 0.004985 0.000047 0.000000 0.008004 0.000000
# 2 0.004985 0.045334 0.001323 0.000000 0.001549 0.000000
# 3 0.000047 0.001323 0.013669 0.000000 0.008118 0.000000
# 4 0.000000 0.000000 0.000000 0.049538 0.000000 0.015095
# 5 0.008004 0.001549 0.008118 0.000000 0.042979 0.000000
# 6 0.000000 0.000000 0.000000 0.015095 0.000000 0.076694
#
#
# Mechanical properties :
#
#
# Convention : Reuss Voigt Hill
#
# Bulk Modulus (GPa) = 11.06853 18.28357 14.67605
# Shear Modulus (GPa) = 18.92133 24.06654 21.49393
#
# Velocity S-wave (km/s) = 3.07014 3.46250 3.27221
# Velocity P-wave (km/s) = 4.25224 5.00932 4.64623
#
# Compressibility (1/GPa) = 0.09034625
#
# Stress axis : x y z
#
# Youngs Moduli (GPa) = 53.66905 22.05848 73.15887
#
# Poissons Ratio (x) = -0.10996 -0.00347
# Poissons Ratio (y) = -0.26753 -0.09679
# Poissons Ratio (z) = -0.00255 -0.02918
#
# Static dielectric constant tensor:
#      x y z
#    x 1.698310 0.000000 -0.021020 
#    y 0.000000 1.771820 0.000000 
#    z -0.021020 0.000000 1.711290 
# 
# From -- ./inp_files/67163.got.cif
#   From: 2010.05.17/outbox.cif.g08.bks.cpg/sg11_34_cif.got.tgz:67163.got - 2010.06.03 12:22:45.
