data_PCOD9162154
_publ_section_title
;
Structure prediction by ZEFSAII (Michael W. Deem and Ramdas Pophale) SiO2 
 PCOD9162154
Probable space group: P 21/M
;
_chemical_formula_sum "Si O2"
_cell_formula_units_Z 32
_cell_length_a 14.001453
_cell_length_b 13.801444
_cell_length_c 11.401796
_cell_angle_alpha 90.000000
_cell_angle_beta 31.487638
_cell_angle_gamma 90.000000
_cell_volume 1150.808490
_symmetry_space_group_name_H-M "P 21/M"
_symmetry_group_IT_number 11
_symmetry_cell_setting 'monoclinic'
loop_
_space_group_symop_operation_xyz
x,y,z
-x,1/2+y,-z
-x,-y,-z
x,1/2-y,z
loop_
_atom_site_type_symbol
_atom_site_label
_atom_site_fract_x
_atom_site_fract_y
_atom_site_fract_z
Si Si1 0.428901 0.864680 0.322987
Si Si2 0.254861 0.132802 0.488208
Si Si3 0.042555 0.595738 0.613071
Si Si4 0.772031 0.640849 0.095058
Si Si5 0.180111 0.593709 0.226487
Si Si6 0.451171 0.134894 0.059640
Si Si7 0.964415 0.368971 0.978794
Si Si8 0.627061 0.359444 0.211501
O O1 0.390095 0.750000 0.386731
O O2 0.572476 0.900748 0.271301
O O3 0.550897 0.869945 0.076793
O O4 0.233119 0.908836 0.488532
O O5 0.250133 0.250000 0.498313
O O6 0.081597 0.101629 0.742833
O O7 0.436349 0.098397 0.366646
O O8 0.283243 0.111231 0.321024
O O9 0.940853 0.496579 0.684966
O O10 0.087870 0.641751 0.438018
O O11 0.896060 0.646162 0.849184
O O12 0.733404 0.750000 0.177345
O O13 0.912495 0.597411 0.042083
O O14 0.379054 0.571316 0.073164
O O15 0.243065 0.645009 0.040673
O O16 0.495253 0.250000 0.038787
O O17 0.953552 0.250000 0.996368
O O18 0.756222 0.401975 0.177045
O O19 0.582955 0.250000 0.293351
#
# Coordination Sequence:
#
# PCOD9162154 Si02
#       8
#     4   4   4   4   4   4   4   4
#     4   9  18  33  53  76 100 129 168 209 249 299
#     4   8  14  26  45  69  97 123 150 197 252 291
#     4  10  20  35  52  74 107 139 166 204 256 305
#     4  10  21  35  52  75 101 133 173 210 246 296
#     4   9  18  33  52  77 105 134 168 206 253 310
#     4   8  14  28  51  76  99 125 162 208 254 298
#     4   9  18  31  48  74 101 125 165 212 250 298
#     4   9  17  31  53  77  99 128 167 212 257 296
#
# _framework density 27.806536999999999
#
# number of rings (size 3 to 8) (size 9 to 14) (size 15 to 20)
#    0.000    3.000    0.000    1.500    0.000    3.500 
#    0.000   15.000    0.000    3.750    0.000    0.000 
#    0.000    0.000    0.000    0.000    0.000    0.000 
#
# Total GULP energy -178873.211898 kJ/mol
# GULP energy per Si atom -5589.787872 kJ/mol
# Density = 2.774325 g / cm^3
# Si number density = 27.806537 Si / 1000 Ang^3
#
#
#
# Elastic Constant Matrix: (Units=GPa)
#
#
# Indices 1 2 3 4 5 6 
#
# 1 190.4392 22.2261 45.1430 0.0000 -60.7871 0.0000
# 2 22.2261 78.0146 9.4028 0.0000 -10.1611 0.0000
# 3 45.1430 9.4028 125.5488 0.0000 -17.2950 0.0000
# 4 0.0000 0.0000 0.0000 16.7165 0.0000 -4.0545
# 5 -60.7871 -10.1611 -17.2950 0.0000 45.0928 0.0000
# 6 0.0000 0.0000 0.0000 -4.0545 0.0000 24.0994
#
#
#
# Elastic Compliance Matrix: (Units=1/GPa)
#
#
# Indices 1 2 3 4 5 6 
#
# 1 0.009640 -0.000960 -0.001725 0.000000 0.012117 0.000000
# 2 -0.000960 0.013346 -0.000442 0.000000 0.001544 0.000000
# 3 -0.001725 -0.000442 0.008746 0.000000 0.000930 0.000000
# 4 0.000000 0.000000 0.000000 0.062366 0.000000 0.010492
# 5 0.012117 0.001544 0.000930 0.000000 0.039214 0.000000
# 6 0.000000 0.000000 0.000000 0.010492 0.000000 0.043260
#
#
# Mechanical properties :
#
#
# Convention : Reuss Voigt Hill
#
# Bulk Modulus (GPa) = 39.24934 60.83850 50.04392
# Shear Modulus (GPa) = 26.13438 38.33047 32.23243
#
# Velocity S-wave (km/s) = 3.06905 3.71680 3.40835
# Velocity P-wave (km/s) = 5.16764 6.35187 5.79011
#
# Compressibility (1/GPa) = 0.02547813
#
# Stress axis : x y z
#
# Youngs Moduli (GPa) = 103.73963 74.92913 114.33233
#
# Poissons Ratio (x) = 0.07195 0.19722
# Poissons Ratio (y) = 0.09961 0.05049
# Poissons Ratio (z) = 0.17895 0.03309
#
# Static dielectric constant tensor:
#      x y z
#    x 2.187590 0.000000 0.005280 
#    y 0.000000 2.231430 0.000000 
#    z 0.005280 0.000000 2.087160 
# 
# From -- ./inp_files/39940.got.cif
#   From: 2010.05.17/outbox.cif.g08.bks.cpg/sg11_20_cif.got.tgz:39940.got - 2010.06.03 12:22:45.
