data_PCOD9162616
_publ_section_title
;
Structure prediction by ZEFSAII (Michael W. Deem and Ramdas Pophale) SiO2 
 PCOD9162616
Probable space group: P 21/M
;
_chemical_formula_sum "Si O2"
_cell_formula_units_Z 32
_cell_length_a 15.609854
_cell_length_b 8.305420
_cell_length_c 23.439399
_cell_angle_alpha 90.000000
_cell_angle_beta 29.400432
_cell_angle_gamma 90.000000
_cell_volume 1491.794757
_symmetry_space_group_name_H-M "P 21/M"
_symmetry_group_IT_number 11
_symmetry_cell_setting 'monoclinic'
loop_
_space_group_symop_operation_xyz
x,y,z
-x,1/2+y,-z
-x,-y,-z
x,1/2-y,z
loop_
_atom_site_type_symbol
_atom_site_label
_atom_site_fract_x
_atom_site_fract_y
_atom_site_fract_z
Si Si1 0.307092 0.557637 0.627736
Si Si2 0.767286 0.061906 0.082379
Si Si3 0.925184 0.945310 0.342415
Si Si4 0.157923 0.945091 0.836371
Si Si5 0.239237 0.556873 0.321243
Si Si6 0.307262 0.564268 0.097542
Si Si7 0.402723 0.437518 0.928881
Si Si8 0.853809 0.555827 0.507087
O O1 0.500000 0.500000 0.500000
O O2 0.306403 0.750000 0.628731
O O3 0.172284 0.500228 0.657711
O O4 0.249087 0.504803 0.724812
O O5 0.725365 0.250000 0.097994
O O6 0.736545 0.021165 0.166597
O O7 0.666825 0.957581 0.094464
O O8 0.971904 0.030865 0.951523
O O9 0.930493 0.750000 0.338964
O O10 0.825521 0.994836 0.458287
O O11 0.126666 0.004420 0.227320
O O12 0.129602 0.750000 0.851670
O O13 0.239557 0.750000 0.318653
O O14 0.397720 0.502927 0.189664
O O15 0.262701 0.505988 0.373351
O O16 0.050804 0.500963 0.409036
O O17 0.309701 0.750000 0.112532
O O18 0.500000 0.500000 0.000000
O O19 0.293691 0.538933 0.037274
O O20 0.395100 0.250000 0.950157
O O21 0.848599 0.750000 0.511999
#
# Coordination Sequence:
#
# PCOD9162616 Si02
#       8
#     4   4   4   4   4   4   4   4
#     4  11  24  41  61  85 115 152 194 241 290 343
#     4  10  20  35  58  85 110 140 181 230 285 343
#     4  10  22  40  60  84 117 155 193 237 289 343
#     4   9  20  39  59  80 109 144 183 230 287 345
#     4   9  19  35  54  78 109 145 184 229 278 328
#     4  11  23  39  61  89 122 159 197 238 286 342
#     4  11  22  36  54  80 116 150 184 228 279 336
#     4   9  18  35  57  78 105 143 185 229 279 331
#
# _framework density 21.450671
#
# number of rings (size 3 to 8) (size 9 to 14) (size 15 to 20)
#    0.000    2.000    0.000    3.000    0.000    9.000 
#    0.000    6.250    0.000    0.000    0.000    0.000 
#    0.000    0.000    0.000    0.000    0.000    0.000 
#
# Total GULP energy -178702.105284 kJ/mol
# GULP energy per Si atom -5584.440790 kJ/mol
# Density = 2.140185 g / cm^3
# Si number density = 21.450671 Si / 1000 Ang^3
#
#
#
# Elastic Constant Matrix: (Units=GPa)
#
#
# Indices 1 2 3 4 5 6 
#
# 1 101.5605 6.7225 22.9655 0.0000 21.9991 0.0000
# 2 6.7225 11.6420 2.5655 0.0000 0.6119 0.0000
# 3 22.9655 2.5655 71.1629 0.0000 22.2607 0.0000
# 4 0.0000 0.0000 0.0000 22.4226 0.0000 -0.6147
# 5 21.9991 0.6119 22.2607 0.0000 40.5394 0.0000
# 6 0.0000 0.0000 0.0000 -0.6147 0.0000 31.8675
#
#
#
# Elastic Compliance Matrix: (Units=1/GPa)
#
#
# Indices 1 2 3 4 5 6 
#
# 1 0.011832 -0.006125 -0.001954 0.000000 -0.005256 0.000000
# 2 -0.006125 0.089763 -0.002264 0.000000 0.003212 0.000000
# 3 -0.001954 -0.002264 0.017413 0.000000 -0.008467 0.000000
# 4 0.000000 0.000000 0.000000 0.044621 0.000000 0.000861
# 5 -0.005256 0.003212 -0.008467 0.000000 0.032120 0.000000
# 6 0.000000 0.000000 0.000000 0.000861 0.000000 0.031396
#
#
# Mechanical properties :
#
#
# Convention : Reuss Voigt Hill
#
# Bulk Modulus (GPa) = 10.17069 27.65249 18.91159
# Shear Modulus (GPa) = 17.81856 29.10670 23.46263
#
# Velocity S-wave (km/s) = 2.88527 3.68763 3.31084
# Velocity P-wave (km/s) = 3.98139 5.57231 4.84263
#
# Compressibility (1/GPa) = 0.09832175
#
# Stress axis : x y z
#
# Youngs Moduli (GPa) = 84.51681 11.14046 57.42816
#
# Poissons Ratio (x) = 0.06824 0.11219
# Poissons Ratio (y) = 0.51770 0.13003
# Poissons Ratio (z) = 0.16511 0.02522
#
# Static dielectric constant tensor:
#      x y z
#    x 1.816730 0.000000 0.002590 
#    y 0.000000 1.744630 0.000000 
#    z 0.002590 0.000000 1.776290 
# 
# From -- ./inp_files/69026.got.cif
#   From: 2010.05.17/outbox.cif.g08.bks.cpg/sg11_35_cif.got.tgz:69026.got - 2010.06.03 12:22:45.
