data_PCOD9162806
_publ_section_title
;
Structure prediction by ZEFSAII (Michael W. Deem and Ramdas Pophale) SiO2 
 PCOD9162806
Probable space group: P 21/M
;
_chemical_formula_sum "Si O2"
_cell_formula_units_Z 32
_cell_length_a 12.332617
_cell_length_b 8.757307
_cell_length_c 23.621940
_cell_angle_alpha 90.000000
_cell_angle_beta 133.653454
_cell_angle_gamma 90.000000
_cell_volume 1845.851777
_symmetry_space_group_name_H-M "P 21/M"
_symmetry_group_IT_number 11
_symmetry_cell_setting 'monoclinic'
loop_
_space_group_symop_operation_xyz
x,y,z
-x,1/2+y,-z
-x,-y,-z
x,1/2-y,z
loop_
_atom_site_type_symbol
_atom_site_label
_atom_site_fract_x
_atom_site_fract_y
_atom_site_fract_z
Si Si1 0.450055 0.566118 0.715687
Si Si2 0.191317 0.434586 0.812659
Si Si3 0.355166 0.433829 0.979647
Si Si4 0.852770 0.432959 0.670427
Si Si5 0.837160 0.926614 0.441508
Si Si6 0.331757 0.427486 0.499582
Si Si7 0.517526 0.434837 0.145597
Si Si8 0.613486 0.932634 0.660232
O O1 0.449124 0.750000 0.714481
O O2 0.282764 0.509168 0.641846
O O3 0.499172 0.514150 0.795647
O O4 0.555357 0.516735 0.701305
O O5 0.200481 0.250000 0.811804
O O6 0.326626 0.503827 0.824554
O O7 0.026400 0.481916 0.733551
O O8 0.219844 0.477850 0.889110
O O9 0.360613 0.250000 0.980996
O O10 0.382331 0.481504 0.054431
O O11 0.500000 0.500000 0.000000
O O12 0.847412 0.250000 0.665689
O O13 0.762527 0.502589 0.585322
O O14 0.765827 0.490056 0.694750
O O15 0.847709 0.750000 0.428733
O O16 0.768529 0.935627 0.479808
O O17 0.000000 0.000000 0.500000
O O18 0.367463 0.250000 0.501100
O O19 0.483357 0.517131 0.569386
O O20 0.525004 0.250000 0.148209
O O21 0.627817 0.750000 0.664664
#
# Coordination Sequence:
#
# PCOD9162806 Si02
#       8
#     4   4   4   4   4   4   4   4
#     4   9  19  34  51  73  97 125 164 204 243 289
#     4   9  19  32  47  73 104 131 159 195 243 294
#     4   8  14  28  48  70  98 129 158 191 237 289
#     4  11  22  34  50  72  99 129 164 206 245 289
#     4  10  21  34  49  69  98 133 163 197 241 289
#     4  10  21  36  52  71  94 126 167 205 244 289
#     4   9  17  30  52  77 100 127 160 199 240 291
#     4  10  20  36  54  70  94 128 166 207 247 288
#
# _framework density 17.336169999999999
#
# number of rings (size 3 to 8) (size 9 to 14) (size 15 to 20)
#    0.000    2.500    0.000    1.875    1.750    3.500 
#    0.000    0.000    0.000    0.750    0.000    0.000 
#    0.000    0.000    0.000    0.000    0.000    0.500 
#
# Total GULP energy -178370.716095 kJ/mol
# GULP energy per Si atom -5574.084878 kJ/mol
# Density = 1.729671 g / cm^3
# Si number density = 17.336170 Si / 1000 Ang^3
#
#
#
# Elastic Constant Matrix: (Units=GPa)
#
#
# Indices 1 2 3 4 5 6 
#
# 1 31.7286 9.6594 28.6957 0.0000 -5.2761 0.0000
# 2 9.6594 21.3387 11.7977 0.0000 -4.4495 0.0000
# 3 28.6957 11.7977 103.3549 0.0000 -28.1027 0.0000
# 4 0.0000 0.0000 0.0000 18.1095 0.0000 -1.3189
# 5 -5.2761 -4.4495 -28.1027 0.0000 22.3964 0.0000
# 6 0.0000 0.0000 0.0000 -1.3189 0.0000 23.3752
#
#
#
# Elastic Compliance Matrix: (Units=1/GPa)
#
#
# Indices 1 2 3 4 5 6 
#
# 1 0.047302 -0.015690 -0.013903 0.000000 -0.009420 0.000000
# 2 -0.015690 0.055487 0.000022 0.000000 0.007356 0.000000
# 3 -0.013903 0.000022 0.019191 0.000000 0.020810 0.000000
# 4 0.000000 0.000000 0.000000 0.055447 0.000000 0.003129
# 5 -0.009420 0.007356 0.020810 0.000000 0.070005 0.000000
# 6 0.000000 0.000000 0.000000 0.003129 0.000000 0.042957
#
#
# Mechanical properties :
#
#
# Convention : Reuss Voigt Hill
#
# Bulk Modulus (GPa) = 15.91361 28.52531 22.21946
# Shear Modulus (GPa) = 13.49614 19.86085 16.67850
#
# Velocity S-wave (km/s) = 2.79318 3.38839 3.10508
# Velocity P-wave (km/s) = 4.42740 5.63899 5.06952
#
# Compressibility (1/GPa) = 0.06283931
#
# Stress axis : x y z
#
# Youngs Moduli (GPa) = 21.14089 18.02228 52.10672
#
# Poissons Ratio (x) = 0.28276 0.72445
# Poissons Ratio (y) = 0.33169 -0.00117
# Poissons Ratio (z) = 0.29393 -0.00041
#
# Static dielectric constant tensor:
#      x y z
#    x 1.577340 0.000000 -0.030820 
#    y 0.000000 1.584840 0.000000 
#    z -0.030820 0.000000 1.613020 
# 
# From -- ./inp_files/64410.got.cif
#   From: 2010.05.17/outbox.cif.g08.bks.cpg/sg11_33_cif.got.tgz:64410.got - 2010.06.03 12:22:45.
