data_PCOD9162563
_publ_section_title
;
Structure prediction by ZEFSAII (Michael W. Deem and Ramdas Pophale) SiO2 
 PCOD9162563
Probable space group: P 21/M
;
_chemical_formula_sum "Si O2"
_cell_formula_units_Z 28
_cell_length_a 21.271315
_cell_length_b 8.755064
_cell_length_c 15.911966
_cell_angle_alpha 90.000000
_cell_angle_beta 28.875748
_cell_angle_gamma 90.000000
_cell_volume 1431.018677
_symmetry_space_group_name_H-M "P 21/M"
_symmetry_group_IT_number 11
_symmetry_cell_setting 'monoclinic'
loop_
_space_group_symop_operation_xyz
x,y,z
-x,1/2+y,-z
-x,-y,-z
x,1/2-y,z
loop_
_atom_site_type_symbol
_atom_site_label
_atom_site_fract_x
_atom_site_fract_y
_atom_site_fract_z
Si Si1 0.604958 0.067356 0.942208
Si Si2 0.573355 0.071572 0.721600
Si Si3 0.304650 0.928406 0.747950
Si Si4 0.550676 0.926296 0.573191
Si Si5 0.849581 0.566399 0.431996
Si Si6 0.991550 0.068351 0.916380
Si Si7 0.099088 0.933559 0.452555
O O1 0.596285 0.250000 0.951242
O O2 0.752690 0.024537 0.747395
O O3 0.500000 0.000000 0.000000
O O4 0.555691 0.002709 0.088458
O O5 0.578454 0.250000 0.735325
O O6 0.575062 0.038196 0.621074
O O7 0.701229 0.990722 0.608991
O O8 0.315320 0.750000 0.708815
O O9 0.406178 0.947516 0.704719
O O10 0.352272 0.034277 0.616333
O O11 0.155456 0.958439 0.943602
O O12 0.567747 0.750000 0.579864
O O13 0.854596 0.750000 0.428638
O O14 0.921350 0.499764 0.429832
O O15 0.910545 0.513867 0.271170
O O16 0.011781 0.250000 0.901131
O O17 0.000000 0.000000 0.000000
O O18 0.089712 0.750000 0.465636
O O19 0.000000 0.000000 0.500000
#
# Coordination Sequence:
#
# PCOD9162563 Si02
#       7
#     4   4   4   4   4   4   4
#     4  11  23  41  66  93 123 159 204 255 308 367
#     4  12  24  38  60  90 122 158 204 252 309 372
#     4   9  19  37  57  79 115 155 196 247 304 364
#     4  10  20  35  57  85 116 153 198 249 305 364
#     4  11  23  40  63  90 123 162 209 262 315 373
#     4  10  22  38  58  86 118 158 201 248 304 365
#     4  11  25  44  67  96 130 169 211 259 320 382
#
# _framework density 19.566479999999999
#
# number of rings (size 3 to 8) (size 9 to 14) (size 15 to 20)
#    0.000    1.429    1.429    3.857    0.000    7.429 
#    0.000    2.857    0.000    0.000    0.000    0.000 
#    0.000    0.000    0.000    0.000    0.000    0.000 
#
# Total GULP energy -156461.536054 kJ/mol
# GULP energy per Si atom -5587.912002 kJ/mol
# Density = 1.952195 g / cm^3
# Si number density = 19.566480 Si / 1000 Ang^3
#
#
#
# Elastic Constant Matrix: (Units=GPa)
#
#
# Indices 1 2 3 4 5 6 
#
# 1 85.5838 36.4050 48.7931 0.0000 10.6409 0.0000
# 2 36.4050 60.2755 37.1415 0.0000 -2.9686 0.0000
# 3 48.7931 37.1415 100.0589 0.0000 -3.1968 0.0000
# 4 0.0000 0.0000 0.0000 26.8982 0.0000 6.5841
# 5 10.6409 -2.9686 -3.1968 0.0000 23.8290 0.0000
# 6 0.0000 0.0000 0.0000 6.5841 0.0000 32.1274
#
#
#
# Elastic Compliance Matrix: (Units=1/GPa)
#
#
# Indices 1 2 3 4 5 6 
#
# 1 0.021027 -0.008714 -0.007386 0.000000 -0.011466 0.000000
# 2 -0.008714 0.025184 -0.004895 0.000000 0.006372 0.000000
# 3 -0.007386 -0.004895 0.015565 0.000000 0.004776 0.000000
# 4 0.000000 0.000000 0.000000 0.039141 0.000000 -0.008021
# 5 -0.011466 0.006372 0.004776 0.000000 0.048520 0.000000
# 6 0.000000 0.000000 0.000000 -0.008021 0.000000 0.032770
#
#
# Mechanical properties :
#
#
# Convention : Reuss Voigt Hill
#
# Bulk Modulus (GPa) = 50.53829 54.51083 52.52456
# Shear Modulus (GPa) = 21.66447 24.80950 23.23699
#
# Velocity S-wave (km/s) = 3.33111 3.56470 3.44988
# Velocity P-wave (km/s) = 6.37810 6.69795 6.53998
#
# Compressibility (1/GPa) = 0.01978698
#
# Stress axis : x y z
#
# Youngs Moduli (GPa) = 47.55709 39.70831 64.24492
#
# Poissons Ratio (x) = 0.34601 0.47449
# Poissons Ratio (y) = 0.41440 0.31450
# Poissons Ratio (z) = 0.35124 0.19439
#
# Static dielectric constant tensor:
#      x y z
#    x 1.692660 0.000000 0.015970 
#    y 0.000000 1.660100 0.000000 
#    z 0.015970 0.000000 1.701790 
# 
# From -- ./inp_files/54511.got.cif
#   From: 2010.05.17/outbox.cif.g08.bks.cpg/sg11_28_cif.got.tgz:54511.got - 2010.06.03 12:22:45.
