data_PCOD9162265
_publ_section_title
;
Structure prediction by ZEFSAII (Michael W. Deem and Ramdas Pophale) SiO2 
 PCOD9162265
Probable space group: P 21/M
;
_chemical_formula_sum "Si O2"
_cell_formula_units_Z 32
_cell_length_a 18.200139
_cell_length_b 8.678425
_cell_length_c 12.827959
_cell_angle_alpha 90.000000
_cell_angle_beta 102.588911
_cell_angle_gamma 90.000000
_cell_volume 1977.446487
_symmetry_space_group_name_H-M "P 21/M"
_symmetry_group_IT_number 11
_symmetry_cell_setting 'monoclinic'
loop_
_space_group_symop_operation_xyz
x,y,z
-x,1/2+y,-z
-x,-y,-z
x,1/2-y,z
loop_
_atom_site_type_symbol
_atom_site_label
_atom_site_fract_x
_atom_site_fract_y
_atom_site_fract_z
Si Si1 0.913081 0.435403 0.636825
Si Si2 0.923163 0.064875 0.264728
Si Si3 0.500752 0.434167 0.382949
Si Si4 0.814447 0.437356 0.808390
Si Si5 0.333084 0.935281 0.565349
Si Si6 0.177782 0.433057 0.588146
Si Si7 0.077302 0.563746 0.976515
Si Si8 0.344632 0.564602 0.322220
O O1 0.917107 0.250000 0.635096
O O2 0.866165 0.481625 0.725656
O O3 0.869159 0.494419 0.522203
O O4 0.996411 0.503981 0.670011
O O5 0.922306 0.250000 0.270324
O O6 0.914671 0.017474 0.141243
O O7 0.858321 0.997233 0.317368
O O8 0.500000 0.500000 0.500000
O O9 0.497561 0.250000 0.386745
O O10 0.583647 0.476211 0.366471
O O11 0.424183 0.497025 0.309577
O O12 0.812554 0.250000 0.807730
O O13 0.729033 0.489180 0.762709
O O14 0.854831 0.487194 0.926993
O O15 0.323517 0.750000 0.569534
O O16 0.332216 0.974098 0.441099
O O17 0.264073 0.016807 0.599677
O O18 0.170737 0.250000 0.582327
O O19 0.074133 0.750000 0.978745
O O20 0.000000 0.500000 0.000000
O O21 0.349419 0.750000 0.318750
#
# Coordination Sequence:
#
# PCOD9162265 Si02
#       8
#     4   4   4   4   4   4   4   4
#     4  11  20  35  55  72 100 134 167 207 252 299
#     4  11  23  37  52  73 100 131 172 212 250 296
#     4   9  17  28  44  68  99 132 162 195 239 291
#     4   9  17  31  52  75 100 132 163 199 250 297
#     4   9  17  31  48  69  99 135 165 195 245 296
#     4  12  24  35  50  73 101 133 172 210 249 298
#     4  10  20  35  55  76  97 127 168 210 251 296
#     4   9  16  29  48  71 100 132 162 194 241 297
#
# _framework density 16.182485
#
# number of rings (size 3 to 8) (size 9 to 14) (size 15 to 20)
#    0.000    2.000    2.500    3.375    0.000    3.000 
#    0.000    0.625    0.000    0.000    0.000    0.875 
#    0.000    0.000    0.000    0.000    0.000    0.000 
#
# Total GULP energy -178506.511729 kJ/mol
# GULP energy per Si atom -5578.328492 kJ/mol
# Density = 1.614565 g / cm^3
# Si number density = 16.182485 Si / 1000 Ang^3
#
#
#
# Elastic Constant Matrix: (Units=GPa)
#
#
# Indices 1 2 3 4 5 6 
#
# 1 158.8439 38.8619 65.7190 0.0000 12.1824 0.0000
# 2 38.8619 36.1683 19.4413 0.0000 -3.5975 0.0000
# 3 65.7190 19.4413 67.3854 0.0000 -7.4073 0.0000
# 4 0.0000 0.0000 0.0000 10.4449 0.0000 -0.1067
# 5 12.1824 -3.5975 -7.4073 0.0000 21.9194 0.0000
# 6 0.0000 0.0000 0.0000 -0.1067 0.0000 30.1530
#
#
#
# Elastic Compliance Matrix: (Units=1/GPa)
#
#
# Indices 1 2 3 4 5 6 
#
# 1 0.016106 -0.011234 -0.014180 0.000000 -0.015587 0.000000
# 2 -0.011234 0.040667 0.000668 0.000000 0.013144 0.000000
# 3 -0.014180 0.000668 0.030488 0.000000 0.018294 0.000000
# 4 0.000000 0.000000 0.000000 0.095744 0.000000 0.000339
# 5 -0.015587 0.013144 0.018294 0.000000 0.062624 0.000000
# 6 0.000000 0.000000 0.000000 0.000339 0.000000 0.033165
#
#
# Mechanical properties :
#
#
# Convention : Reuss Voigt Hill
#
# Bulk Modulus (GPa) = 26.47667 56.71578 41.59622
# Shear Modulus (GPa) = 14.66803 21.72847 18.19825
#
# Velocity S-wave (km/s) = 3.01394 3.66828 3.35709
# Velocity P-wave (km/s) = 5.33934 7.28460 6.38647
#
# Compressibility (1/GPa) = 0.03776910
#
# Stress axis : x y z
#
# Youngs Moduli (GPa) = 62.08776 24.58974 32.79993
#
# Poissons Ratio (x) = 0.27624 0.46511
# Poissons Ratio (y) = 0.69749 -0.02191
# Poissons Ratio (z) = 0.88042 -0.01643
#
# Static dielectric constant tensor:
#      x y z
#    x 1.565120 0.000000 0.030020 
#    y 0.000000 1.545680 0.000000 
#    z 0.030020 0.000000 1.541330 
# 
# From -- ./inp_files/40748.got.cif
#   From: 2010.05.17/outbox.cif.g08.bks.cpg/sg11_21_cif.got.tgz:40748.got - 2010.06.03 12:22:45.
