data_PCOD9162979
_publ_section_title
;
Structure prediction by ZEFSAII (Michael W. Deem and Ramdas Pophale) SiO2 
 PCOD9162979
Probable space group: P 21/M
;
_chemical_formula_sum "Si O2"
_cell_formula_units_Z 20
_cell_length_a 9.776125
_cell_length_b 23.917964
_cell_length_c 5.547920
_cell_angle_alpha 90.000000
_cell_angle_beta 140.995929
_cell_angle_gamma 90.000000
_cell_volume 816.452740
_symmetry_space_group_name_H-M "P 21/M"
_symmetry_group_IT_number 11
_symmetry_cell_setting 'monoclinic'
loop_
_space_group_symop_operation_xyz
x,y,z
-x,1/2+y,-z
-x,-y,-z
x,1/2-y,z
loop_
_atom_site_type_symbol
_atom_site_label
_atom_site_fract_x
_atom_site_fract_y
_atom_site_fract_z
Si Si1 0.191608 0.190255 0.275195
Si Si2 0.862553 0.009654 0.063331
Si Si3 0.910912 0.131379 0.225494
Si Si4 0.668031 0.898422 0.912517
Si Si5 0.606051 0.186766 0.195743
O O1 0.184337 0.250000 0.133385
O O2 0.392857 0.192890 0.734075
O O3 0.967382 0.177366 0.103501
O O4 0.236091 0.137971 0.171145
O O5 0.792164 0.074487 0.982064
O O6 0.676622 0.962492 0.840761
O O7 0.000000 0.000000 0.500000
O O8 0.000000 0.000000 0.000000
O O9 0.148936 0.108747 0.629431
O O10 0.794531 0.162544 0.284574
O O11 0.460987 0.863074 0.715797
O O12 0.646209 0.250000 0.342976
#
# Coordination Sequence:
#
# PCOD9162979 Si02
#       5
#     4   4   4   4   4
#     4  10  20  36  57  82 116 159 198 251 309 364
#     4  10  20  39  66  93 123 161 210 259 309 373
#     4  10  21  38  61  85 119 158 204 252 309 366
#     4  10  21  38  61  84 121 159 201 252 312 365
#     4  10  22  38  56  87 122 156 205 256 303 369
#
# _framework density 24.496212
#
# number of rings (size 3 to 8) (size 9 to 14) (size 15 to 20)
#    0.000    2.000    2.000    1.200    0.000    4.800 
#    0.000    1.000    0.000    0.000    0.000    0.000 
#    0.000    0.000    0.000    0.000    0.000    0.000 
#
# Total GULP energy -111666.814182 kJ/mol
# GULP energy per Si atom -5583.340709 kJ/mol
# Density = 2.444046 g / cm^3
# Si number density = 24.496212 Si / 1000 Ang^3
#
#
#
# Elastic Constant Matrix: (Units=GPa)
#
#
# Indices 1 2 3 4 5 6 
#
# 1 107.4858 -0.9358 -8.4154 0.0000 -13.6773 0.0000
# 2 -0.9358 154.1032 28.3248 0.0000 -14.0870 0.0000
# 3 -8.4154 28.3248 70.2038 0.0000 -8.0536 0.0000
# 4 0.0000 0.0000 0.0000 12.4919 0.0000 -12.0961
# 5 -13.6773 -14.0870 -8.0536 0.0000 26.1316 0.0000
# 6 0.0000 0.0000 0.0000 -12.0961 0.0000 39.3590
#
#
#
# Elastic Compliance Matrix: (Units=1/GPa)
#
#
# Indices 1 2 3 4 5 6 
#
# 1 0.010218 0.000284 0.001805 0.000000 0.006058 0.000000
# 2 0.000284 0.007253 -0.002516 0.000000 0.003283 0.000000
# 3 0.001805 -0.002516 0.015994 0.000000 0.004518 0.000000
# 4 0.000000 0.000000 0.000000 0.113967 0.000000 0.035025
# 5 0.006058 0.003283 0.004518 0.000000 0.044601 0.000000
# 6 0.000000 0.000000 0.000000 0.035025 0.000000 0.036171
#
#
# Mechanical properties :
#
#
# Convention : Reuss Voigt Hill
#
# Bulk Modulus (GPa) = 30.66320 41.08224 35.87272
# Shear Modulus (GPa) = 20.83948 36.45110 28.64529
#
# Velocity S-wave (km/s) = 2.91988 3.86168 3.42332
# Velocity P-wave (km/s) = 4.89002 6.05729 5.50468
#
# Compressibility (1/GPa) = 0.03261238
#
# Stress axis : x y z
#
# Youngs Moduli (GPa) = 97.86476 137.86546 62.52361
#
# Poissons Ratio (x) = -0.03915 -0.11287
# Poissons Ratio (y) = -0.02779 0.15730
# Poissons Ratio (z) = -0.17667 0.34684
#
# Static dielectric constant tensor:
#      x y z
#    x 1.990740 0.000000 -0.113410 
#    y 0.000000 1.516130 0.000000 
#    z -0.113410 0.000000 2.275020 
# 
# From -- ./inp_files/772.got.cif
#   From: 2010.05.17/outbox.cif.g08.bks.cpg/sg11_1_cif.got.tgz:772.got - 2010.06.03 12:22:45.
