data_PCOD9162451
_publ_section_title
;
Structure prediction by ZEFSAII (Michael W. Deem and Ramdas Pophale) SiO2 
 PCOD9162451
Probable space group: P 21/M
;
_chemical_formula_sum "Si O2"
_cell_formula_units_Z 28
_cell_length_a 21.295482
_cell_length_b 7.462074
_cell_length_c 15.488188
_cell_angle_alpha 90.000000
_cell_angle_beta 27.697760
_cell_angle_gamma 90.000000
_cell_volume 1143.985974
_symmetry_space_group_name_H-M "P 21/M"
_symmetry_group_IT_number 11
_symmetry_cell_setting 'monoclinic'
loop_
_space_group_symop_operation_xyz
x,y,z
-x,1/2+y,-z
-x,-y,-z
x,1/2-y,z
loop_
_atom_site_type_symbol
_atom_site_label
_atom_site_fract_x
_atom_site_fract_y
_atom_site_fract_z
Si Si1 0.897841 0.465141 0.204535
Si Si2 0.400915 0.037803 0.201354
Si Si3 0.405013 0.539587 0.395428
Si Si4 0.153687 0.048369 0.209426
Si Si5 0.843940 0.530439 0.609750
Si Si6 0.883783 0.968702 0.933041
Si Si7 0.399172 0.462974 0.699199
O O1 0.888659 0.250000 0.221387
O O2 0.743382 0.533987 0.396197
O O3 0.000000 0.500000 0.000000
O O4 0.980106 0.532696 0.188526
O O5 0.393252 0.250000 0.217952
O O6 0.254663 0.972660 0.346047
O O7 0.430599 0.972913 0.261654
O O8 0.500000 0.000000 0.000000
O O9 0.399471 0.750000 0.422846
O O10 0.528557 0.465224 0.302152
O O11 0.208879 0.250000 0.134342
O O12 0.211836 0.974041 0.227838
O O13 0.157428 0.963035 0.111430
O O14 0.991902 0.050192 0.421027
O O15 0.854601 0.750000 0.597828
O O16 0.897183 0.750000 0.911386
O O17 0.750043 0.023056 0.147587
O O18 0.500000 0.500000 0.500000
O O19 0.382709 0.250000 0.730836
#
# Coordination Sequence:
#
# PCOD9162451 Si02
#       7
#     4   4   4   4   4   4   4
#     4  10  20  35  56  84 112 145 188 234 288 347
#     4  11  24  39  58  84 116 156 199 242 290 348
#     4  10  22  39  60  85 116 155 197 242 294 350
#     4   9  17  32  56  79 103 139 179 223 273 332
#     4   9  19  34  53  79 110 141 178 225 279 329
#     4   9  18  32  54  78 102 139 182 219 270 335
#     4  10  21  37  58  82 112 149 188 233 287 343
#
# _framework density 24.475825
#
# number of rings (size 3 to 8) (size 9 to 14) (size 15 to 20)
#    0.000    2.286    0.000    2.143    2.000    3.429 
#    0.000    1.429    0.000    0.000    0.000    0.000 
#    0.000    0.000    0.000    0.000    0.000    0.000 
#
# Total GULP energy -156256.426648 kJ/mol
# GULP energy per Si atom -5580.586666 kJ/mol
# Density = 2.442012 g / cm^3
# Si number density = 24.475825 Si / 1000 Ang^3
#
#
#
# Elastic Constant Matrix: (Units=GPa)
#
#
# Indices 1 2 3 4 5 6 
#
# 1 113.8620 -3.2180 5.4307 0.0000 -8.0167 0.0000
# 2 -3.2180 78.1869 -8.9705 0.0000 -11.3651 0.0000
# 3 5.4307 -8.9705 70.3395 0.0000 -4.7688 0.0000
# 4 0.0000 0.0000 0.0000 20.1654 0.0000 6.6547
# 5 -8.0167 -11.3651 -4.7688 0.0000 39.6044 0.0000
# 6 0.0000 0.0000 0.0000 6.6547 0.0000 6.2545
#
#
#
# Elastic Compliance Matrix: (Units=1/GPa)
#
#
# Indices 1 2 3 4 5 6 
#
# 1 0.008958 0.000593 -0.000486 0.000000 0.001925 0.000000
# 2 0.000593 0.013664 0.001987 0.000000 0.004280 0.000000
# 3 -0.000486 0.001987 0.014659 0.000000 0.002237 0.000000
# 4 0.000000 0.000000 0.000000 0.076424 0.000000 -0.081313
# 5 0.001925 0.004280 0.002237 0.000000 0.027137 0.000000
# 6 0.000000 0.000000 0.000000 -0.081313 0.000000 0.246402
#
#
# Mechanical properties :
#
#
# Convention : Reuss Voigt Hill
#
# Bulk Modulus (GPa) = 24.11350 27.65251 25.88300
# Shear Modulus (GPa) = 12.59831 31.14795 21.87313
#
# Velocity S-wave (km/s) = 2.27122 3.57122 2.99266
# Velocity P-wave (km/s) = 4.09283 5.32234 4.74755
#
# Compressibility (1/GPa) = 0.04147054
#
# Stress axis : x y z
#
# Youngs Moduli (GPa) = 111.63200 73.18261 68.21592
#
# Poissons Ratio (x) = -0.04338 0.03312
# Poissons Ratio (y) = -0.06617 -0.13555
# Poissons Ratio (z) = 0.05420 -0.14542
#
# Static dielectric constant tensor:
#      x y z
#    x 1.876720 0.000000 0.068070 
#    y 0.000000 1.828750 0.000000 
#    z 0.068070 0.000000 2.092730 
# 
# From -- ./inp_files/54463.got.cif
#   From: 2010.05.17/outbox.cif.g08.bks.cpg/sg11_28_cif.got.tgz:54463.got - 2010.06.03 12:22:45.
