data_PCOD9162992
_publ_section_title
;
Structure prediction by ZEFSAII (Michael W. Deem and Ramdas Pophale) SiO2 
 PCOD9162992
Probable space group: P 21/M
;
_chemical_formula_sum "Si O2"
_cell_formula_units_Z 28
_cell_length_a 12.196863
_cell_length_b 13.150064
_cell_length_c 10.094991
_cell_angle_alpha 90.000000
_cell_angle_beta 127.786120
_cell_angle_gamma 90.000000
_cell_volume 1279.604726
_symmetry_space_group_name_H-M "P 21/M"
_symmetry_group_IT_number 11
_symmetry_cell_setting 'monoclinic'
loop_
_space_group_symop_operation_xyz
x,y,z
-x,1/2+y,-z
-x,-y,-z
x,1/2-y,z
loop_
_atom_site_type_symbol
_atom_site_label
_atom_site_fract_x
_atom_site_fract_y
_atom_site_fract_z
Si Si1 0.109246 0.362570 0.828717
Si Si2 0.526079 0.438347 0.239970
Si Si3 0.118499 0.365626 0.365311
Si Si4 0.830695 0.418957 0.495877
Si Si5 0.823775 0.414218 0.189888
Si Si6 0.275773 0.133465 0.211917
Si Si7 0.507654 0.138889 0.933847
O O1 0.155593 0.250000 0.817522
O O2 0.177753 0.462791 0.815820
O O3 0.946188 0.372734 0.677025
O O4 0.151250 0.371406 0.013369
O O5 0.669805 0.398734 0.406752
O O6 0.400612 0.434609 0.249552
O O7 0.554734 0.549795 0.200831
O O8 0.485605 0.377522 0.075391
O O9 0.142116 0.250000 0.428728
O O10 0.142282 0.459463 0.480879
O O11 0.216214 0.387549 0.312065
O O12 0.955798 0.376163 0.205640
O O13 0.851779 0.381601 0.361768
O O14 0.674237 0.373292 0.039395
O O15 0.327811 0.250000 0.248450
O O16 0.461093 0.250000 0.859570
#
# Coordination Sequence:
#
# PCOD9162992 Si02
#       7
#     4   4   4   4   4   4   4
#     4  10  20  36  57  84 113 150 195 237 284 342
#     4  10  21  39  56  85 119 152 194 240 288 347
#     4  10  21  37  59  85 117 154 194 239 288 344
#     4  10  23  36  57  87 118 149 190 238 298 344
#     4  10  20  37  57  88 117 149 189 242 296 342
#     4  10  21  38  61  84 112 156 200 234 284 347
#     4  10  20  36  60  85 115 154 196 239 290 345
#
# _framework density 21.881758000000001
#
# number of rings (size 3 to 8) (size 9 to 14) (size 15 to 20)
#    0.000    2.000    1.429    2.571    0.000    8.571 
#    0.000    0.000    0.000    0.000    0.000    0.000 
#    0.000    0.000    0.000    0.000    0.000    0.000 
#
# Total GULP energy -156371.693911 kJ/mol
# GULP energy per Si atom -5584.703354 kJ/mol
# Density = 2.183195 g / cm^3
# Si number density = 21.881758 Si / 1000 Ang^3
#
#
#
# Elastic Constant Matrix: (Units=GPa)
#
#
# Indices 1 2 3 4 5 6 
#
# 1 94.5309 1.4502 5.4110 0.0000 12.3344 0.0000
# 2 1.4502 105.7340 -3.7450 0.0000 -9.6563 0.0000
# 3 5.4110 -3.7450 26.2907 0.0000 20.8378 0.0000
# 4 0.0000 0.0000 0.0000 1.3086 0.0000 -3.9892
# 5 12.3344 -9.6563 20.8378 0.0000 30.0058 0.0000
# 6 0.0000 0.0000 0.0000 -3.9892 0.0000 13.4855
#
#
#
# Elastic Compliance Matrix: (Units=1/GPa)
#
#
# Indices 1 2 3 4 5 6 
#
# 1 0.011333 -0.000691 0.003198 0.000000 -0.007102 0.000000
# 2 -0.000691 0.009857 -0.002654 0.000000 0.005299 0.000000
# 3 0.003198 -0.002654 0.086123 0.000000 -0.061977 0.000000
# 4 0.000000 0.000000 0.000000 7.780239 0.000000 2.301491
# 5 -0.007102 0.005299 -0.061977 0.000000 0.080992 0.000000
# 6 0.000000 0.000000 0.000000 2.301491 0.000000 0.754963
#
#
# Mechanical properties :
#
#
# Convention : Reuss Voigt Hill
#
# Bulk Modulus (GPa) = 9.34407 25.86532 17.60470
# Shear Modulus (GPa) = 0.57081 23.85595 12.21338
#
# Velocity S-wave (km/s) = 0.51130 3.30543 2.36509
# Velocity P-wave (km/s) = 2.15130 5.13945 3.93968
#
# Compressibility (1/GPa) = 0.10701975
#
# Stress axis : x y z
#
# Youngs Moduli (GPa) = 88.24010 101.44955 11.61130
#
# Poissons Ratio (x) = 0.07007 -0.03713
# Poissons Ratio (y) = 0.06095 0.03081
# Poissons Ratio (z) = -0.28218 0.26921
#
# Static dielectric constant tensor:
#      x y z
#    x 1.805280 0.000000 0.034970 
#    y 0.000000 1.838420 0.000000 
#    z 0.034970 0.000000 1.777880 
# 
# From -- ./inp_files/18167.got.cif
#   From: 2010.05.17/outbox.cif.g08.bks.cpg/sg11_10_cif.got.tgz:18167.got - 2010.06.03 12:22:45.
