data_PCOD9162331
_publ_section_title
;
Structure prediction by ZEFSAII (Michael W. Deem and Ramdas Pophale) SiO2 
 PCOD9162331
Probable space group: P 21/M
;
_chemical_formula_sum "Si O2"
_cell_formula_units_Z 28
_cell_length_a 23.675491
_cell_length_b 7.780938
_cell_length_c 15.794446
_cell_angle_alpha 90.000000
_cell_angle_beta 27.406333
_cell_angle_gamma 90.000000
_cell_volume 1339.289158
_symmetry_space_group_name_H-M "P 21/M"
_symmetry_group_IT_number 11
_symmetry_cell_setting 'monoclinic'
loop_
_space_group_symop_operation_xyz
x,y,z
-x,1/2+y,-z
-x,-y,-z
x,1/2-y,z
loop_
_atom_site_type_symbol
_atom_site_label
_atom_site_fract_x
_atom_site_fract_y
_atom_site_fract_z
Si Si1 0.283505 0.460674 0.040328
Si Si2 0.205338 0.551620 0.726897
Si Si3 0.376344 0.544400 0.215462
Si Si4 0.065296 0.051852 0.218967
Si Si5 0.838603 0.550047 0.622114
Si Si6 0.564037 0.461021 0.673249
Si Si7 0.997159 0.950077 0.126231
O O1 0.283030 0.250000 0.041801
O O2 0.192368 0.517501 0.087404
O O3 0.225842 0.515986 0.206830
O O4 0.424143 0.515388 0.844892
O O5 0.226762 0.750000 0.721669
O O6 0.336749 0.476523 0.527134
O O7 0.121387 0.543077 0.754056
O O8 0.117720 0.479082 0.916937
O O9 0.360776 0.750000 0.236289
O O10 0.260855 0.466542 0.320459
O O11 0.393512 0.486215 0.289235
O O12 0.500000 0.500000 0.000000
O O13 0.083329 0.250000 0.171729
O O14 0.015070 0.962631 0.202021
O O15 0.962797 0.040788 0.428368
O O16 0.868351 0.750000 0.595186
O O17 0.565507 0.250000 0.670823
O O18 0.983108 0.750000 0.120949
#
# Coordination Sequence:
#
# PCOD9162331 Si02
#       7
#     4   4   4   4   4   4   4
#     4   9  19  35  54  76 105 143 183 223 268 321
#     4   9  18  34  60  85 106 137 176 219 271 329
#     4  11  20  32  53  80 112 144 177 217 265 323
#     4  11  22  36  55  77 104 144 188 222 266 328
#     4  11  21  36  56  79 108 140 181 232 278 318
#     4   9  17  33  55  78 105 139 177 217 264 318
#     4  10  20  35  55  82 112 138 172 224 276 318
#
# _framework density 20.906613
#
# number of rings (size 3 to 8) (size 9 to 14) (size 15 to 20)
#    0.000    2.000    1.429    3.000    0.000    1.714 
#    0.000    3.571    0.000    0.000    0.000    0.000 
#    0.000    0.000    0.000    0.000    0.000    0.000 
#
# Total GULP energy -156402.894871 kJ/mol
# GULP energy per Si atom -5585.817674 kJ/mol
# Density = 2.085903 g / cm^3
# Si number density = 20.906613 Si / 1000 Ang^3
#
#
#
# Elastic Constant Matrix: (Units=GPa)
#
#
# Indices 1 2 3 4 5 6 
#
# 1 43.9238 -4.2633 25.3869 0.0000 -9.8622 0.0000
# 2 -4.2633 35.6325 -9.0238 0.0000 5.4123 0.0000
# 3 25.3869 -9.0238 123.2044 0.0000 1.1191 0.0000
# 4 0.0000 0.0000 0.0000 15.7894 0.0000 -0.1635
# 5 -9.8622 5.4123 1.1191 0.0000 19.1574 0.0000
# 6 0.0000 0.0000 0.0000 -0.1635 0.0000 11.7029
#
#
#
# Elastic Compliance Matrix: (Units=1/GPa)
#
#
# Indices 1 2 3 4 5 6 
#
# 1 0.029971 -0.000442 -0.006353 0.000000 0.015925 0.000000
# 2 -0.000442 0.029951 0.002365 0.000000 -0.008827 0.000000
# 3 -0.006353 0.002365 0.009640 0.000000 -0.004502 0.000000
# 4 0.000000 0.000000 0.000000 0.063343 0.000000 0.000885
# 5 0.015925 -0.008827 -0.004502 0.000000 0.063154 0.000000
# 6 0.000000 0.000000 0.000000 0.000885 0.000000 0.085461
#
#
# Mechanical properties :
#
#
# Convention : Reuss Voigt Hill
#
# Bulk Modulus (GPa) = 16.47368 25.21781 20.84575
# Shear Modulus (GPa) = 16.09718 22.04067 19.06893
#
# Velocity S-wave (km/s) = 2.77782 3.25044 3.02338
# Velocity P-wave (km/s) = 4.26440 5.11619 4.70959
#
# Compressibility (1/GPa) = 0.06070287
#
# Stress axis : x y z
#
# Youngs Moduli (GPa) = 33.36538 33.38778 103.73763
#
# Poissons Ratio (x) = 0.01475 0.65902
# Poissons Ratio (y) = 0.01474 -0.24533
# Poissons Ratio (z) = 0.21196 -0.07896
#
# Static dielectric constant tensor:
#      x y z
#    x 1.685210 0.000000 0.005030 
#    y 0.000000 1.773400 0.000000 
#    z 0.005030 0.000000 1.754200 
# 
# From -- ./inp_files/37900.got.cif
#   From: 2010.05.17/outbox.cif.g08.bks.cpg/sg11_19_cif.got.tgz:37900.got - 2010.06.03 12:22:45.
