data_PCOD9162439
_publ_section_title
;
Structure prediction by ZEFSAII (Michael W. Deem and Ramdas Pophale) SiO2 
 PCOD9162439
Probable space group: P 21/M
;
_chemical_formula_sum "Si O2"
_cell_formula_units_Z 32
_cell_length_a 20.422075
_cell_length_b 9.289356
_cell_length_c 25.745321
_cell_angle_alpha 90.000000
_cell_angle_beta 20.326499
_cell_angle_gamma 90.000000
_cell_volume 1696.583825
_symmetry_space_group_name_H-M "P 21/M"
_symmetry_group_IT_number 11
_symmetry_cell_setting 'monoclinic'
loop_
_space_group_symop_operation_xyz
x,y,z
-x,1/2+y,-z
-x,-y,-z
x,1/2-y,z
loop_
_atom_site_type_symbol
_atom_site_label
_atom_site_fract_x
_atom_site_fract_y
_atom_site_fract_z
Si Si1 0.916234 0.918056 0.411274
Si Si2 0.866453 0.585647 0.158490
Si Si3 0.345142 0.578802 0.080517
Si Si4 0.697223 0.920495 0.998733
Si Si5 0.867635 0.083210 0.341646
Si Si6 0.291523 0.922021 0.814404
Si Si7 0.519736 0.921757 0.747015
Si Si8 0.651206 0.913207 0.420077
O O1 0.897027 0.750000 0.408613
O O2 0.746218 0.942738 0.577941
O O3 0.135986 0.937768 0.261566
O O4 0.881906 0.023144 0.388823
O O5 0.850705 0.750000 0.151099
O O6 0.717846 0.494185 0.235289
O O7 0.824023 0.586734 0.250774
O O8 0.081588 0.538419 0.990938
O O9 0.381156 0.750000 0.049075
O O10 0.342514 0.505221 0.025513
O O11 0.500000 0.500000 0.000000
O O12 0.653843 0.750000 0.025536
O O13 0.923157 0.932323 0.838356
O O14 0.584332 0.990905 0.130375
O O15 0.815046 0.250000 0.379587
O O16 0.719028 0.989668 0.421055
O O17 0.305133 0.750000 0.798438
O O18 0.438826 0.963488 0.749877
O O19 0.481898 0.750000 0.781459
O O20 0.591157 0.750000 0.474186
O O21 0.500000 0.000000 0.500000
#
# Coordination Sequence:
#
# PCOD9162439 Si02
#       8
#     4   4   4   4   4   4   4   4
#     4   9  20  37  58  86 117 150 187 231 283 337
#     4   9  19  34  48  68  97 132 177 225 276 330
#     4  10  20  38  64  90 119 153 189 228 273 329
#     4  10  21  37  59  88 117 149 189 229 274 330
#     4  10  21  37  56  79 109 146 190 237 283 338
#     4   9  18  32  52  73  98 134 174 221 274 331
#     4  10  20  35  56  83 113 145 186 231 282 334
#     4  11  23  36  51  72 102 139 185 237 288 338
#
# _framework density 18.861432000000001
#
# number of rings (size 3 to 8) (size 9 to 14) (size 15 to 20)
#    0.000    2.250    0.000    2.250    1.750    5.000 
#    0.000    3.125    0.000    0.000    0.000    0.000 
#    0.000    0.000    0.000    0.000    0.000    0.000 
#
# Total GULP energy -178504.861601 kJ/mol
# GULP energy per Si atom -5578.276925 kJ/mol
# Density = 1.881850 g / cm^3
# Si number density = 18.861432 Si / 1000 Ang^3
#
#
#
# Elastic Constant Matrix: (Units=GPa)
#
#
# Indices 1 2 3 4 5 6 
#
# 1 55.2307 36.9333 15.5268 0.0000 -21.2038 0.0000
# 2 36.9333 102.4153 40.8255 0.0000 -17.1916 0.0000
# 3 15.5268 40.8255 79.1751 0.0000 -2.1184 0.0000
# 4 0.0000 0.0000 0.0000 24.7441 0.0000 -1.5433
# 5 -21.2038 -17.1916 -2.1184 0.0000 29.3210 0.0000
# 6 0.0000 0.0000 0.0000 -1.5433 0.0000 34.9780
#
#
#
# Elastic Compliance Matrix: (Units=1/GPa)
#
#
# Indices 1 2 3 4 5 6 
#
# 1 0.030121 -0.007266 -0.001695 0.000000 0.017400 0.000000
# 2 -0.007266 0.015544 -0.006500 0.000000 0.003390 0.000000
# 3 -0.001695 -0.006500 0.016211 0.000000 -0.003865 0.000000
# 4 0.000000 0.000000 0.000000 0.040525 0.000000 0.001788
# 5 0.017400 0.003390 -0.003865 0.000000 0.048397 0.000000
# 6 0.000000 0.000000 0.000000 0.001788 0.000000 0.028668
#
#
# Mechanical properties :
#
#
# Convention : Reuss Voigt Hill
#
# Bulk Modulus (GPa) = 32.30463 47.04360 39.67411
# Shear Modulus (GPa) = 22.65457 27.37763 25.01610
#
# Velocity S-wave (km/s) = 3.46946 3.81401 3.64580
# Velocity P-wave (km/s) = 5.76316 6.66268 6.22918
#
# Compressibility (1/GPa) = 0.03095532
#
# Stress axis : x y z
#
# Youngs Moduli (GPa) = 33.19911 64.33158 61.68791
#
# Poissons Ratio (x) = 0.46744 0.10455
# Poissons Ratio (y) = 0.24123 0.40095
# Poissons Ratio (z) = 0.05627 0.41813
#
# Static dielectric constant tensor:
#      x y z
#    x 1.626710 0.000000 0.010810 
#    y 0.000000 1.641230 0.000000 
#    z 0.010810 0.000000 1.715600 
# 
# From -- ./inp_files/71973.got.cif
#   From: 2010.05.17/outbox.cif.g08.bks.cpg/sg11_36_cif.got.tgz:71973.got - 2010.06.03 12:22:45.
