data_PCOD9162649
_publ_section_title
;
Structure prediction by ZEFSAII (Michael W. Deem and Ramdas Pophale) SiO2 
 PCOD9162649
Probable space group: P 21/M
;
_chemical_formula_sum "Si O2"
_cell_formula_units_Z 32
_cell_length_a 7.983300
_cell_length_b 17.437293
_cell_length_c 11.580135
_cell_angle_alpha 90.000000
_cell_angle_beta 118.192943
_cell_angle_gamma 90.000000
_cell_volume 1420.788018
_symmetry_space_group_name_H-M "P 21/M"
_symmetry_group_IT_number 11
_symmetry_cell_setting 'monoclinic'
loop_
_space_group_symop_operation_xyz
x,y,z
-x,1/2+y,-z
-x,-y,-z
x,1/2-y,z
loop_
_atom_site_type_symbol
_atom_site_label
_atom_site_fract_x
_atom_site_fract_y
_atom_site_fract_z
Si Si1 0.684024 0.515543 0.476769
Si Si2 0.216011 0.908637 0.161839
Si Si3 0.518386 0.834633 0.944183
Si Si4 0.881298 0.097952 0.138234
Si Si5 0.422904 0.063249 0.239512
Si Si6 0.737720 0.838653 0.624867
Si Si7 0.034907 0.437736 0.718991
Si Si8 0.373714 0.337711 0.751379
O O1 0.500000 0.500000 0.500000
O O2 0.617208 0.481183 0.333137
O O3 0.716794 0.605847 0.507892
O O4 0.867533 0.471605 0.583585
O O5 0.069550 0.887273 0.215070
O O6 0.422815 0.867575 0.233084
O O7 0.263006 0.998322 0.201618
O O8 0.132882 0.901208 0.005922
O O9 0.558869 0.750000 0.910111
O O10 0.295974 0.853448 0.873652
O O11 0.603282 0.901088 0.893571
O O12 0.583240 0.837412 0.096482
O O13 0.066367 0.139180 0.248427
O O14 0.873521 0.011161 0.185102
O O15 0.411831 0.131419 0.328514
O O16 0.721458 0.750000 0.594628
O O17 0.183615 0.389112 0.693445
O O18 0.340643 0.250000 0.703579
#
# Coordination Sequence:
#
# PCOD9162649 Si02
#       8
#     4   4   4   4   4   4   4   4
#     4   9  19  39  61  86 120 156 212 253 296 362
#     4  11  21  37  64  89 125 161 202 252 314 370
#     4  10  21  37  57  86 126 163 195 259 326 364
#     4  10  20  35  58  91 120 153 201 247 306 385
#     4  11  20  37  62  87 118 158 212 252 301 373
#     4  10  20  35  58  86 119 153 197 257 305 360
#     4  11  20  38  65  86 118 165 209 255 309 368
#     4  10  24  41  57  90 130 162 209 259 312 379
#
# _framework density 22.522713
#
# number of rings (size 3 to 8) (size 9 to 14) (size 15 to 20)
#    0.000    1.750    3.750    2.625    1.750    3.000 
#    0.000    9.375    0.000    0.000    0.000    0.000 
#    0.000    0.000    0.000    0.000    0.000    0.000 
#
# Total GULP energy -178802.514795 kJ/mol
# GULP energy per Si atom -5587.578587 kJ/mol
# Density = 2.247145 g / cm^3
# Si number density = 22.522713 Si / 1000 Ang^3
#
#
#
# Elastic Constant Matrix: (Units=GPa)
#
#
# Indices 1 2 3 4 5 6 
#
# 1 101.4683 54.2703 15.6033 0.0000 -3.7458 0.0000
# 2 54.2703 135.1184 17.0232 0.0000 7.5942 0.0000
# 3 15.6033 17.0232 58.6032 0.0000 9.1409 0.0000
# 4 0.0000 0.0000 0.0000 19.9670 0.0000 0.2114
# 5 -3.7458 7.5942 9.1409 0.0000 37.5450 0.0000
# 6 0.0000 0.0000 0.0000 0.2114 0.0000 26.8022
#
#
#
# Elastic Compliance Matrix: (Units=1/GPa)
#
#
# Indices 1 2 3 4 5 6 
#
# 1 0.013072 -0.005106 -0.002455 0.000000 0.002935 0.000000
# 2 -0.005106 0.009717 -0.001119 0.000000 -0.002202 0.000000
# 3 -0.002455 -0.001119 0.018758 0.000000 -0.004585 0.000000
# 4 0.000000 0.000000 0.000000 0.050087 0.000000 -0.000395
# 5 0.002935 -0.002202 -0.004585 0.000000 0.028489 0.000000
# 6 0.000000 0.000000 0.000000 -0.000395 0.000000 0.037313
#
#
# Mechanical properties :
#
#
# Convention : Reuss Voigt Hill
#
# Bulk Modulus (GPa) = 41.34698 52.10925 46.72812
# Shear Modulus (GPa) = 27.34342 30.74905 29.04624
#
# Velocity S-wave (km/s) = 3.48808 3.69893 3.59505
# Velocity P-wave (km/s) = 5.88388 6.43656 6.16642
#
# Compressibility (1/GPa) = 0.02418556
#
# Stress axis : x y z
#
# Youngs Moduli (GPa) = 76.49862 102.91687 53.31057
#
# Poissons Ratio (x) = 0.52550 0.13088
# Poissons Ratio (y) = 0.39061 0.05968
# Poissons Ratio (z) = 0.18781 0.11521
#
# Static dielectric constant tensor:
#      x y z
#    x 1.878970 0.000000 -0.042930 
#    y 0.000000 1.842210 0.000000 
#    z -0.042930 0.000000 1.882400 
# 
# From -- ./inp_files/47649.got.cif
#   From: 2010.05.17/outbox.cif.g08.bks.cpg/sg11_24_cif.got.tgz:47649.got - 2010.06.03 12:22:45.
