data_PCOD9162664
_publ_section_title
;
Structure prediction by ZEFSAII (Michael W. Deem and Ramdas Pophale) SiO2 
 PCOD9162664
Probable space group: P 21/M
;
_chemical_formula_sum "Si O2"
_cell_formula_units_Z 28
_cell_length_a 19.922864
_cell_length_b 10.019955
_cell_length_c 17.779102
_cell_angle_alpha 90.000000
_cell_angle_beta 21.869515
_cell_angle_gamma 90.000000
_cell_volume 1322.046458
_symmetry_space_group_name_H-M "P 21/M"
_symmetry_group_IT_number 11
_symmetry_cell_setting 'monoclinic'
loop_
_space_group_symop_operation_xyz
x,y,z
-x,1/2+y,-z
-x,-y,-z
x,1/2-y,z
loop_
_atom_site_type_symbol
_atom_site_label
_atom_site_fract_x
_atom_site_fract_y
_atom_site_fract_z
Si Si1 0.568307 0.396656 0.590966
Si Si2 0.847995 0.599884 0.029272
Si Si3 0.003090 0.098760 0.754324
Si Si4 0.235892 0.592570 0.133098
Si Si5 0.654194 0.908837 0.378879
Si Si6 0.672611 0.407989 0.805007
Si Si7 0.360916 0.000343 0.323188
O O1 0.623327 0.250000 0.504622
O O2 0.354494 0.409169 0.795678
O O3 0.666398 0.517652 0.445901
O O4 0.602188 0.404779 0.644435
O O5 0.914956 0.750000 0.945831
O O6 0.818628 0.581815 0.149095
O O7 0.966572 0.492199 0.864029
O O8 0.944902 0.250000 0.831466
O O9 0.885327 0.037358 0.807978
O O10 0.207269 0.097817 0.513338
O O11 0.202647 0.750000 0.164777
O O12 0.445740 0.564594 0.897254
O O13 0.199361 0.553063 0.257803
O O14 0.610502 0.750000 0.430713
O O15 0.500000 0.000000 0.500000
O O16 0.632755 0.250000 0.854659
O O17 0.716679 0.434615 0.672338
O O18 0.500000 0.500000 0.000000
#
# Coordination Sequence:
#
# PCOD9162664 Si02
#       7
#     4   4   4   4   4   4   4
#     4  10  20  35  58  87 118 154 197 244 298 352
#     4   9  19  37  57  83 118 153 192 240 290 349
#     4  11  23  37  59  89 118 157 200 241 294 353
#     4   9  19  38  58  83 118 152 192 247 297 344
#     4   9  18  33  56  86 117 154 199 242 293 353
#     4   9  19  36  60  85 116 156 197 243 298 350
#     4  11  21  36  59  87 120 154 198 242 294 351
#
# _framework density 21.179286000000001
#
# number of rings (size 3 to 8) (size 9 to 14) (size 15 to 20)
#    0.000    2.286    1.429    2.143    0.000    6.286 
#    0.000    0.714    0.000    0.000    0.000    0.000 
#    0.000    0.000    0.000    0.000    0.000    0.000 
#
# Total GULP energy -156019.687607 kJ/mol
# GULP energy per Si atom -5572.131700 kJ/mol
# Density = 2.113108 g / cm^3
# Si number density = 21.179286 Si / 1000 Ang^3
#
#
#
# Elastic Constant Matrix: (Units=GPa)
#
#
# Indices 1 2 3 4 5 6 
#
# 1 77.4234 29.6664 36.1166 0.0000 26.8292 0.0000
# 2 29.6664 98.5949 31.0880 0.0000 26.4578 0.0000
# 3 36.1166 31.0880 70.8056 0.0000 10.2282 0.0000
# 4 0.0000 0.0000 0.0000 19.8105 0.0000 7.8295
# 5 26.8292 26.4578 10.2282 0.0000 35.7377 0.0000
# 6 0.0000 0.0000 0.0000 7.8295 0.0000 13.1576
#
#
#
# Elastic Compliance Matrix: (Units=1/GPa)
#
#
# Indices 1 2 3 4 5 6 
#
# 1 0.022042 0.000015 -0.009240 0.000000 -0.013914 0.000000
# 2 0.000015 0.014112 -0.004895 0.000000 -0.009058 0.000000
# 3 -0.009240 -0.004895 0.020299 0.000000 0.004751 0.000000
# 4 0.000000 0.000000 0.000000 0.066000 0.000000 -0.039273
# 5 -0.013914 -0.009058 0.004751 0.000000 0.043774 0.000000
# 6 0.000000 0.000000 0.000000 -0.039273 0.000000 0.099371
#
#
# Mechanical properties :
#
#
# Convention : Reuss Voigt Hill
#
# Bulk Modulus (GPa) = 35.44436 48.95177 42.19806
# Shear Modulus (GPa) = 16.48844 23.73802 20.11323
#
# Velocity S-wave (km/s) = 2.79322 3.35149 3.08501
# Velocity P-wave (km/s) = 5.21292 6.17575 5.71464
#
# Compressibility (1/GPa) = 0.02821324
#
# Stress axis : x y z
#
# Youngs Moduli (GPa) = 45.36768 70.86051 49.26275
#
# Poissons Ratio (x) = -0.00106 0.45518
# Poissons Ratio (y) = -0.00068 0.24116
# Poissons Ratio (z) = 0.41919 0.34688
#
# Static dielectric constant tensor:
#      x y z
#    x 1.862590 0.000000 -0.000360 
#    y 0.000000 1.736480 0.000000 
#    z -0.000360 0.000000 1.758780 
# 
# From -- ./inp_files/61486.got.cif
#   From: 2010.05.17/outbox.cif.g08.bks.cpg/sg11_31_cif.got.tgz:61486.got - 2010.06.03 12:22:45.
