data_PCOD9162510
_publ_section_title
;
Structure prediction by ZEFSAII (Michael W. Deem and Ramdas Pophale) SiO2 
 PCOD9162510
Probable space group: P 21/M
;
_chemical_formula_sum "Si O2"
_cell_formula_units_Z 32
_cell_length_a 27.221112
_cell_length_b 7.541007
_cell_length_c 21.154934
_cell_angle_alpha 90.000000
_cell_angle_beta 20.256682
_cell_angle_gamma 90.000000
_cell_volume 1503.512863
_symmetry_space_group_name_H-M "P 21/M"
_symmetry_group_IT_number 11
_symmetry_cell_setting 'monoclinic'
loop_
_space_group_symop_operation_xyz
x,y,z
-x,1/2+y,-z
-x,-y,-z
x,1/2-y,z
loop_
_atom_site_type_symbol
_atom_site_label
_atom_site_fract_x
_atom_site_fract_y
_atom_site_fract_z
Si Si1 0.834561 0.037149 0.693536
Si Si2 0.375386 0.960544 0.798720
Si Si3 0.223115 0.541581 0.858205
Si Si4 0.325645 0.536368 0.375235
Si Si5 0.107236 0.964944 0.745572
Si Si6 0.697993 0.464480 0.375006
Si Si7 0.339653 0.537206 0.215579
Si Si8 0.357035 0.537952 0.960366
O O1 0.815997 0.250000 0.715227
O O2 0.766247 0.969432 0.710699
O O3 0.746395 0.967970 0.860202
O O4 0.000000 0.000000 0.500000
O O5 0.345922 0.750000 0.836172
O O6 0.295068 0.034994 0.834341
O O7 0.333490 0.033551 0.918080
O O8 0.543124 0.985144 0.586685
O O9 0.260665 0.750000 0.811733
O O10 0.276846 0.467504 0.726340
O O11 0.054049 0.524693 0.064819
O O12 0.315773 0.750000 0.385382
O O13 0.204339 0.473961 0.569734
O O14 0.314133 0.468893 0.317290
O O15 0.480727 0.492953 0.215062
O O16 0.107241 0.750000 0.745548
O O17 0.182484 0.024583 0.719679
O O18 0.704872 0.250000 0.365530
O O19 0.324071 0.750000 0.237427
O O20 0.500000 0.500000 0.000000
O O21 0.336534 0.750000 0.982378
#
# Coordination Sequence:
#
# PCOD9162510 Si02
#       8
#     4   4   4   4   4   4   4   4
#     4  10  22  38  55  81 114 145 180 220 267 321
#     4  10  21  36  56  82 110 142 183 226 271 326
#     4  10  22  37  53  79 113 145 181 226 273 324
#     4  10  20  35  57  83 110 140 181 228 270 319
#     4  10  21  36  54  80 110 142 183 227 272 323
#     4  10  20  36  57  80 108 143 184 227 271 324
#     4  10  20  35  57  83 110 141 179 223 267 316
#     4  10  20  36  57  80 109 143 180 224 270 321
#
# _framework density 21.283488999999999
#
# number of rings (size 3 to 8) (size 9 to 14) (size 15 to 20)
#    0.000    2.000    2.500    0.750    0.000    4.000 
#    0.000    0.000    0.000    0.000    0.000    0.000 
#    0.000    0.000    0.000    0.000    0.000    0.000 
#
# Total GULP energy -178806.058964 kJ/mol
# GULP energy per Si atom -5587.689343 kJ/mol
# Density = 2.123505 g / cm^3
# Si number density = 21.283489 Si / 1000 Ang^3
#
#
#
# Elastic Constant Matrix: (Units=GPa)
#
#
# Indices 1 2 3 4 5 6 
#
# 1 210.2926 12.5456 28.9600 0.0000 17.8049 0.0000
# 2 12.5456 54.8767 -18.0515 0.0000 9.5619 0.0000
# 3 28.9600 -18.0515 54.3977 0.0000 9.9260 0.0000
# 4 0.0000 0.0000 0.0000 30.7818 0.0000 -3.8613
# 5 17.8049 9.5619 9.9260 0.0000 45.3312 0.0000
# 6 0.0000 0.0000 0.0000 -3.8613 0.0000 8.6133
#
#
#
# Elastic Compliance Matrix: (Units=1/GPa)
#
#
# Indices 1 2 3 4 5 6 
#
# 1 0.005443 -0.002228 -0.003472 0.000000 -0.000908 0.000000
# 2 -0.002228 0.023091 0.009976 0.000000 -0.006180 0.000000
# 3 -0.003472 0.009976 0.024662 0.000000 -0.006141 0.000000
# 4 0.000000 0.000000 0.000000 0.034422 0.000000 0.015431
# 5 -0.000908 -0.006180 -0.006141 0.000000 0.025065 0.000000
# 6 0.000000 0.000000 0.000000 0.015431 0.000000 0.123017
#
#
# Mechanical properties :
#
#
# Convention : Reuss Voigt Hill
#
# Bulk Modulus (GPa) = 16.19450 40.71947 28.45699
# Shear Modulus (GPa) = 20.18327 36.68613 28.43470
#
# Velocity S-wave (km/s) = 3.08280 4.15624 3.65910
# Velocity P-wave (km/s) = 4.50522 6.49661 5.59030
#
# Compressibility (1/GPa) = 0.06174934
#
# Stress axis : x y z
#
# Youngs Moduli (GPa) = 183.71741 43.30774 40.54751
#
# Poissons Ratio (x) = 0.09650 0.14076
# Poissons Ratio (y) = 0.40935 -0.40452
# Poissons Ratio (z) = 0.63778 -0.43205
#
# Static dielectric constant tensor:
#      x y z
#    x 1.787810 0.000000 0.034930 
#    y 0.000000 1.808970 0.000000 
#    z 0.034930 0.000000 1.698790 
# 
# From -- ./inp_files/67026.got.cif
#   From: 2010.05.17/outbox.cif.g08.bks.cpg/sg11_34_cif.got.tgz:67026.got - 2010.06.03 12:22:45.
