data_PCOD9162005
_publ_section_title
;
Structure prediction by ZEFSAII (Michael W. Deem and Ramdas Pophale) SiO2 
 PCOD9162005
Probable space group: P 21/M
;
_chemical_formula_sum "Si O2"
_cell_formula_units_Z 32
_cell_length_a 21.104786
_cell_length_b 8.926915
_cell_length_c 27.177641
_cell_angle_alpha 90.000000
_cell_angle_beta 19.786778
_cell_angle_gamma 90.000000
_cell_volume 1733.322806
_symmetry_space_group_name_H-M "P 21/M"
_symmetry_group_IT_number 11
_symmetry_cell_setting 'monoclinic'
loop_
_space_group_symop_operation_xyz
x,y,z
-x,1/2+y,-z
-x,-y,-z
x,1/2-y,z
loop_
_atom_site_type_symbol
_atom_site_label
_atom_site_fract_x
_atom_site_fract_y
_atom_site_fract_z
Si Si1 0.748862 0.928812 0.986685
Si Si2 0.205153 0.929804 0.846470
Si Si3 0.438749 0.571205 0.968033
Si Si4 0.206612 0.428384 0.226888
Si Si5 0.519774 0.572040 0.432118
Si Si6 0.138832 0.927352 0.649799
Si Si7 0.404044 0.570060 0.804297
Si Si8 0.168189 0.071293 0.521750
O O1 0.729428 0.750000 0.001031
O O2 0.606826 0.000480 0.051101
O O3 0.709581 0.993110 0.069111
O O4 0.956635 0.965550 0.815052
O O5 0.194281 0.750000 0.850683
O O6 0.320638 0.967846 0.811731
O O7 0.315571 0.996172 0.719415
O O8 0.000000 0.000000 0.000000
O O9 0.412458 0.750000 0.985794
O O10 0.647022 0.539954 0.836264
O O11 0.297852 0.501240 0.111354
O O12 0.197420 0.250000 0.226563
O O13 0.000849 0.494667 0.384034
O O14 0.500000 0.500000 0.500000
O O15 0.551621 0.750000 0.412755
O O16 0.326848 0.548051 0.543304
O O17 0.127102 0.750000 0.645862
O O18 0.144828 0.020494 0.595388
O O19 0.392785 0.750000 0.817882
O O20 0.622727 0.526688 0.647049
O O21 0.152309 0.250000 0.529852
#
# Coordination Sequence:
#
# PCOD9162005 Si02
#       8
#     4   4   4   4   4   4   4   4
#     4  11  23  38  60  90 121 157 200 248 298 351
#     4  11  24  44  65  90 123 161 204 248 301 365
#     4  10  20  35  56  85 121 158 195 243 298 352
#     4  10  20  34  56  87 121 155 196 244 297 355
#     4  11  24  42  64  93 126 161 200 250 303 356
#     4  10  22  39  60  88 121 154 197 250 299 351
#     4  10  24  43  61  86 121 159 200 245 296 358
#     4  11  21  37  62  89 116 156 202 246 297 352
#
# _framework density 18.461651
#
# number of rings (size 3 to 8) (size 9 to 14) (size 15 to 20)
#    0.000    1.500    2.500    2.250    1.750    4.500 
#    0.000    0.625    0.000    0.000    0.000    0.000 
#    0.000    0.000    0.000    0.000    0.000    0.000 
#
# Total GULP energy -178855.679909 kJ/mol
# GULP energy per Si atom -5589.239997 kJ/mol
# Density = 1.841963 g / cm^3
# Si number density = 18.461651 Si / 1000 Ang^3
#
#
#
# Elastic Constant Matrix: (Units=GPa)
#
#
# Indices 1 2 3 4 5 6 
#
# 1 66.8976 33.7922 39.2403 0.0000 7.3766 0.0000
# 2 33.7922 52.0805 45.5453 0.0000 -0.9453 0.0000
# 3 39.2403 45.5453 116.2364 0.0000 0.1472 0.0000
# 4 0.0000 0.0000 0.0000 32.8361 0.0000 1.0683
# 5 7.3766 -0.9453 0.1472 0.0000 33.7548 0.0000
# 6 0.0000 0.0000 0.0000 1.0683 0.0000 28.0666
#
#
#
# Elastic Compliance Matrix: (Units=1/GPa)
#
#
# Indices 1 2 3 4 5 6 
#
# 1 0.023862 -0.013000 -0.002955 0.000000 -0.005566 0.000000
# 2 -0.013000 0.036318 -0.009847 0.000000 0.003901 0.000000
# 3 -0.002955 -0.009847 0.013459 0.000000 0.000311 0.000000
# 4 0.000000 0.000000 0.000000 0.030492 0.000000 -0.001161
# 5 -0.005566 0.003901 0.000311 0.000000 0.030950 0.000000
# 6 0.000000 0.000000 0.000000 -0.001161 0.000000 0.035674
#
#
# Mechanical properties :
#
#
# Convention : Reuss Voigt Hill
#
# Bulk Modulus (GPa) = 45.38113 52.48558 48.93335
# Shear Modulus (GPa) = 21.76739 26.70730 24.23735
#
# Velocity S-wave (km/s) = 3.43747 3.80759 3.62726
# Velocity P-wave (km/s) = 6.35528 6.91532 6.64120
#
# Compressibility (1/GPa) = 0.02203559
#
# Stress axis : x y z
#
# Youngs Moduli (GPa) = 41.90829 27.53457 74.30174
#
# Poissons Ratio (x) = 0.35794 0.21954
# Poissons Ratio (y) = 0.54479 0.73165
# Poissons Ratio (z) = 0.12383 0.27113
#
# Static dielectric constant tensor:
#      x y z
#    x 1.618470 0.000000 -0.023410 
#    y 0.000000 1.615550 0.000000 
#    z -0.023410 0.000000 1.622540 
# 
# From -- ./inp_files/72024.got.cif
#   From: 2010.05.17/outbox.cif.g08.bks.cpg/sg11_37_cif.got.tgz:72024.got - 2010.06.03 12:22:45.
