data_PCOD9162673
_publ_section_title
;
Structure prediction by ZEFSAII (Michael W. Deem and Ramdas Pophale) SiO2 
 PCOD9162673
Probable space group: P 21/M
;
_chemical_formula_sum "Si O2"
_cell_formula_units_Z 32
_cell_length_a 12.835120
_cell_length_b 11.556684
_cell_length_c 11.551592
_cell_angle_alpha 90.000000
_cell_angle_beta 107.508449
_cell_angle_gamma 90.000000
_cell_volume 1634.083772
_symmetry_space_group_name_H-M "P 21/M"
_symmetry_group_IT_number 11
_symmetry_cell_setting 'monoclinic'
loop_
_space_group_symop_operation_xyz
x,y,z
-x,1/2+y,-z
-x,-y,-z
x,1/2-y,z
loop_
_atom_site_type_symbol
_atom_site_label
_atom_site_fract_x
_atom_site_fract_y
_atom_site_fract_z
Si Si1 0.642134 0.120463 0.537610
Si Si2 0.109034 0.881945 0.413943
Si Si3 0.572551 0.624776 0.403384
Si Si4 0.179182 0.618164 0.690411
Si Si5 0.150093 0.387400 0.053420
Si Si6 0.393740 0.385775 0.084174
Si Si7 0.389397 0.466365 0.819674
Si Si8 0.981292 0.028773 0.185355
O O1 0.622558 0.250000 0.474869
O O2 0.770495 0.117885 0.603342
O O3 0.557026 0.119379 0.614618
O O4 0.617474 0.998962 0.464403
O O5 0.070051 0.750000 0.410867
O O6 0.127194 0.925944 0.551654
O O7 0.031080 0.950105 0.303124
O O8 0.610239 0.750000 0.467778
O O9 0.601597 0.624947 0.279422
O O10 0.212428 0.750000 0.678246
O O11 0.283560 0.544061 0.760728
O O12 0.095355 0.614855 0.768681
O O13 0.146159 0.250000 0.029291
O O14 0.278283 0.420170 0.104036
O O15 0.078867 0.415687 0.143218
O O16 0.092743 0.455792 0.928963
O O17 0.411483 0.250000 0.111345
O O18 0.500478 0.457287 0.154755
O O19 0.381410 0.410252 0.943023
#
# Coordination Sequence:
#
# PCOD9162673 Si02
#       8
#     4   4   4   4   4   4   4   4
#     4   9  19  36  57  85 124 161 196 242 299 366
#     4  10  21  38  62  89 120 159 205 249 304 372
#     4  10  20  35  58  88 122 157 202 248 298 360
#     4  11  22  39  61  90 123 161 203 252 306 372
#     4  10  22  41  62  87 119 156 200 255 306 358
#     4  10  22  39  59  86 117 153 199 249 305 364
#     4  11  21  37  62  85 119 158 196 247 308 365
#     4  11  22  39  64  86 119 158 204 253 303 362
#
# _framework density 19.582840000000001
#
# number of rings (size 3 to 8) (size 9 to 14) (size 15 to 20)
#    0.000    1.750    2.500    1.875    1.750    0.500 
#    0.000    1.250    0.000    0.000    0.000    0.000 
#    0.000    0.000    0.000    0.000    0.000    0.000 
#
# Total GULP energy -178350.009216 kJ/mol
# GULP energy per Si atom -5573.437788 kJ/mol
# Density = 1.953827 g / cm^3
# Si number density = 19.582840 Si / 1000 Ang^3
#
#
#
# Elastic Constant Matrix: (Units=GPa)
#
#
# Indices 1 2 3 4 5 6 
#
# 1 111.9039 23.8997 14.1499 0.0000 -13.4351 0.0000
# 2 23.8997 87.2209 14.3454 0.0000 3.4779 0.0000
# 3 14.1499 14.3454 43.4113 0.0000 -0.8453 0.0000
# 4 0.0000 0.0000 0.0000 39.8636 0.0000 38.7244
# 5 -13.4351 3.4779 -0.8453 0.0000 22.9432 0.0000
# 6 0.0000 0.0000 0.0000 38.7244 0.0000 108.7459
#
#
#
# Elastic Compliance Matrix: (Units=1/GPa)
#
#
# Indices 1 2 3 4 5 6 
#
# 1 0.010621 -0.002774 -0.002418 0.000000 0.006551 0.000000
# 2 -0.002774 0.012940 -0.003444 0.000000 -0.003713 0.000000
# 3 -0.002418 -0.003444 0.024962 0.000000 0.000026 0.000000
# 4 0.000000 0.000000 0.000000 0.038353 0.000000 -0.013657
# 5 0.006551 -0.003713 0.000026 0.000000 0.047986 0.000000
# 6 0.000000 0.000000 0.000000 -0.013657 0.000000 0.014059
#
#
# Mechanical properties :
#
#
# Convention : Reuss Voigt Hill
#
# Bulk Modulus (GPa) = 31.99854 38.59178 35.29516
# Shear Modulus (GPa) = 28.31121 46.98661 37.64891
#
# Velocity S-wave (km/s) = 3.80638 4.90366 4.38944
# Velocity P-wave (km/s) = 5.97441 7.19798 6.61455
#
# Compressibility (1/GPa) = 0.03125142
#
# Stress axis : x y z
#
# Youngs Moduli (GPa) = 94.15451 77.28150 40.06069
#
# Poissons Ratio (x) = 0.21437 0.09685
# Poissons Ratio (y) = 0.26117 0.13797
# Poissons Ratio (z) = 0.22764 0.26617
#
# Static dielectric constant tensor:
#      x y z
#    x 1.687530 0.000000 -0.013530 
#    y 0.000000 1.707790 0.000000 
#    z -0.013530 0.000000 1.672900 
# 
# From -- ./inp_files/35114.got.cif
#   From: 2010.05.17/outbox.cif.g08.bks.cpg/sg11_18_cif.got.tgz:35114.got - 2010.06.03 12:22:45.
