data_PCOD9162213
_publ_section_title
;
Structure prediction by ZEFSAII (Michael W. Deem and Ramdas Pophale) SiO2 
 PCOD9162213
Probable space group: P 21/M
;
_chemical_formula_sum "Si O2"
_cell_formula_units_Z 32
_cell_length_a 25.869283
_cell_length_b 8.481309
_cell_length_c 18.898426
_cell_angle_alpha 90.000000
_cell_angle_beta 155.839590
_cell_angle_gamma 90.000000
_cell_volume 1697.097889
_symmetry_space_group_name_H-M "P 21/M"
_symmetry_group_IT_number 11
_symmetry_cell_setting 'monoclinic'
loop_
_space_group_symop_operation_xyz
x,y,z
-x,1/2+y,-z
-x,-y,-z
x,1/2-y,z
loop_
_atom_site_type_symbol
_atom_site_label
_atom_site_fract_x
_atom_site_fract_y
_atom_site_fract_z
Si Si1 0.621346 0.942618 0.446947
Si Si2 0.860755 0.561356 0.162111
Si Si3 0.136654 0.440547 0.506326
Si Si4 0.135769 0.440113 0.997240
Si Si5 0.377740 0.440925 0.388948
Si Si6 0.379166 0.938652 0.053912
Si Si7 0.382975 0.061107 0.899559
Si Si8 0.860322 0.559945 0.653662
O O1 0.622037 0.750000 0.447777
O O2 0.620208 0.993876 0.526969
O O3 0.496206 0.993518 0.248774
O O4 0.746599 0.994618 0.561535
O O5 0.853682 0.750000 0.155736
O O6 0.843066 0.509626 0.057982
O O7 0.000874 0.507276 0.358666
O O8 0.751518 0.491155 0.073956
O O9 0.130216 0.250000 0.499828
O O10 0.251920 0.492428 0.699500
O O11 0.160092 0.488738 0.453759
O O12 0.132899 0.250000 0.994379
O O13 0.998360 0.500737 0.848205
O O14 0.250461 0.493407 0.189888
O O15 0.500000 0.500000 0.500000
O O16 0.378824 0.250000 0.389747
O O17 0.383864 0.750000 0.056748
O O18 0.391592 0.003640 0.990523
O O19 0.383924 0.250000 0.899341
O O20 0.500000 0.000000 0.000000
O O21 0.861196 0.750000 0.655936
#
# Coordination Sequence:
#
# PCOD9162213 Si02
#       8
#     4   4   4   4   4   4   4   4
#     4   9  19  35  55  78 105 141 181 221 265 316
#     4  10  20  35  55  80 110 142 178 221 270 321
#     4   9  19  36  57  79 105 140 179 217 260 317
#     4   9  19  34  52  78 111 141 171 217 272 317
#     4  10  20  35  54  76 106 141 178 220 266 316
#     4  11  22  37  57  80 108 142 182 225 269 318
#     4  11  23  39  59  83 111 142 179 222 269 320
#     4   9  17  33  56  78 102 136 178 216 254 312
#
# _framework density 18.855718
#
# number of rings (size 3 to 8) (size 9 to 14) (size 15 to 20)
#    0.000    2.250    0.000    2.625    0.000    5.000 
#    0.000    5.000    0.000    0.000    0.000    0.000 
#    0.000    0.000    0.000    0.000    0.000    0.000 
#
# Total GULP energy -178704.110466 kJ/mol
# GULP energy per Si atom -5584.503452 kJ/mol
# Density = 1.881280 g / cm^3
# Si number density = 18.855718 Si / 1000 Ang^3
#
#
#
# Elastic Constant Matrix: (Units=GPa)
#
#
# Indices 1 2 3 4 5 6 
#
# 1 154.7604 27.2727 113.9529 0.0000 15.3117 0.0000
# 2 27.2727 19.2470 32.5423 0.0000 -0.3701 0.0000
# 3 113.9529 32.5423 190.7665 0.0000 -4.8895 0.0000
# 4 0.0000 0.0000 0.0000 28.1776 0.0000 3.9248
# 5 15.3117 -0.3701 -4.8895 0.0000 35.2252 0.0000
# 6 0.0000 0.0000 0.0000 3.9248 0.0000 24.3575
#
#
#
# Elastic Compliance Matrix: (Units=1/GPa)
#
#
# Indices 1 2 3 4 5 6 
#
# 1 0.013697 -0.007597 -0.007066 0.000000 -0.007014 0.000000
# 2 -0.007597 0.077262 -0.008567 0.000000 0.002925 0.000000
# 3 -0.007066 -0.008567 0.011040 0.000000 0.004514 0.000000
# 4 0.000000 0.000000 0.000000 0.036304 0.000000 -0.005850
# 5 -0.007014 0.002925 0.004514 0.000000 0.032095 0.000000
# 6 0.000000 0.000000 0.000000 -0.005850 0.000000 0.041998
#
#
# Mechanical properties :
#
#
# Convention : Reuss Voigt Hill
#
# Bulk Modulus (GPa) = 18.00515 79.14550 48.57533
# Shear Modulus (GPa) = 18.02664 30.28581 24.15622
#
# Velocity S-wave (km/s) = 3.09533 4.01207 3.58314
# Velocity P-wave (km/s) = 4.72698 7.97043 6.55256
#
# Compressibility (1/GPa) = 0.05553968
#
# Stress axis : x y z
#
# Youngs Moduli (GPa) = 73.00949 12.94297 90.58241
#
# Poissons Ratio (x) = 0.09833 0.64002
# Poissons Ratio (y) = 0.55464 0.77602
# Poissons Ratio (z) = 0.51585 0.11088
#
# Static dielectric constant tensor:
#      x y z
#    x 1.629810 0.000000 -0.018350 
#    y 0.000000 1.706940 0.000000 
#    z -0.018350 0.000000 1.637560 
# 
# From -- ./inp_files/67164.got.cif
#   From: 2010.05.17/outbox.cif.g08.bks.cpg/sg11_34_cif.got.tgz:67164.got - 2010.06.03 12:22:45.
