data_PCOD9162437
_publ_section_title
;
Structure prediction by ZEFSAII (Michael W. Deem and Ramdas Pophale) SiO2 
 PCOD9162437
Probable space group: P 21/M
;
_chemical_formula_sum "Si O2"
_cell_formula_units_Z 32
_cell_length_a 16.669863
_cell_length_b 13.974213
_cell_length_c 20.168446
_cell_angle_alpha 90.000000
_cell_angle_beta 19.233006
_cell_angle_gamma 90.000000
_cell_volume 1547.638101
_symmetry_space_group_name_H-M "P 21/M"
_symmetry_group_IT_number 11
_symmetry_cell_setting 'monoclinic'
loop_
_space_group_symop_operation_xyz
x,y,z
-x,1/2+y,-z
-x,-y,-z
x,1/2-y,z
loop_
_atom_site_type_symbol
_atom_site_label
_atom_site_fract_x
_atom_site_fract_y
_atom_site_fract_z
Si Si1 0.647202 0.558530 0.973578
Si Si2 0.227810 0.975968 0.409057
Si Si3 0.506998 0.857875 0.289620
Si Si4 0.630514 0.357199 0.934558
Si Si5 0.957004 0.854366 0.835559
Si Si6 0.784595 0.483380 0.268829
Si Si7 0.926148 0.863179 0.063818
Si Si8 0.872939 0.855515 0.595196
O O1 0.489642 0.615246 0.042292
O O2 0.855210 0.623748 0.842647
O O3 0.460335 0.534159 0.178502
O O4 0.749495 0.458003 0.865329
O O5 0.321381 0.936720 0.406287
O O6 0.026771 0.907943 0.532279
O O7 0.132020 0.082462 0.468038
O O8 0.402032 0.750000 0.374779
O O9 0.661117 0.879841 0.235597
O O10 0.723617 0.852047 0.066318
O O11 0.742615 0.250000 0.847109
O O12 0.399003 0.349844 0.164545
O O13 0.075579 0.750000 0.748371
O O14 0.118172 0.938883 0.738907
O O15 0.500000 0.500000 0.500000
O O16 0.915365 0.580208 0.141333
O O17 0.870815 0.408854 0.143627
O O18 0.960657 0.750000 0.042768
O O19 0.972245 0.750000 0.507723
#
# Coordination Sequence:
#
# PCOD9162437 Si02
#       8
#     4   4   4   4   4   4   4   4
#     4   9  17  30  49  71  95 131 173 208 253 305
#     4   9  16  27  45  65  89 126 166 205 245 293
#     4   8  14  27  48  71  94 123 163 210 254 304
#     4   9  17  29  44  66 101 135 165 206 255 305
#     4   9  17  31  52  76 103 132 169 219 267 315
#     4  10  20  35  56  83 113 143 179 228 282 337
#     4   9  19  36  57  81 110 144 181 222 276 337
#     4   9  17  27  39  62  95 127 161 203 249 295
#
# _framework density 20.676669
#
# number of rings (size 3 to 8) (size 9 to 14) (size 15 to 20)
#    0.000    3.000    0.000    1.875    0.000    2.500 
#    2.250    0.625    0.000   12.000    0.000    0.000 
#    0.000    0.000    0.000    0.000    0.000    0.000 
#
# Total GULP energy -178384.220201 kJ/mol
# GULP energy per Si atom -5574.506881 kJ/mol
# Density = 2.062961 g / cm^3
# Si number density = 20.676669 Si / 1000 Ang^3
#
#
#
# Elastic Constant Matrix: (Units=GPa)
#
#
# Indices 1 2 3 4 5 6 
#
# 1 46.5306 24.5198 3.9205 0.0000 -11.9444 0.0000
# 2 24.5198 141.9656 1.5686 0.0000 -18.1171 0.0000
# 3 3.9205 1.5686 37.4280 0.0000 12.6592 0.0000
# 4 0.0000 0.0000 0.0000 11.7220 0.0000 -8.0980
# 5 -11.9444 -18.1171 12.6592 0.0000 31.6927 0.0000
# 6 0.0000 0.0000 0.0000 -8.0980 0.0000 20.9687
#
#
#
# Elastic Compliance Matrix: (Units=1/GPa)
#
#
# Indices 1 2 3 4 5 6 
#
# 1 0.026401 -0.003132 -0.006237 0.000000 0.010651 0.000000
# 2 -0.003132 0.008111 -0.001365 0.000000 0.004001 0.000000
# 3 -0.006237 -0.001365 0.032937 0.000000 -0.016287 0.000000
# 4 0.000000 0.000000 0.000000 0.116351 0.000000 0.044934
# 5 0.010651 0.004001 -0.016287 0.000000 0.044360 0.000000
# 6 0.000000 0.000000 0.000000 0.044934 0.000000 0.065043
#
#
# Mechanical properties :
#
#
# Convention : Reuss Voigt Hill
#
# Bulk Modulus (GPa) = 21.74784 31.77135 26.75960
# Shear Modulus (GPa) = 15.15157 25.93770 20.54463
#
# Velocity S-wave (km/s) = 2.70994 3.54565 3.15558
# Velocity P-wave (km/s) = 4.50917 5.67110 5.12318
#
# Compressibility (1/GPa) = 0.04598157
#
# Stress axis : x y z
#
# Youngs Moduli (GPa) = 37.87709 123.29533 30.36074
#
# Poissons Ratio (x) = 0.38613 0.18935
# Poissons Ratio (y) = 0.11862 0.04145
# Poissons Ratio (z) = 0.23623 0.16833
#
# Static dielectric constant tensor:
#      x y z
#    x 1.757430 0.000000 0.037580 
#    y 0.000000 1.774470 0.000000 
#    z 0.037580 0.000000 1.796020 
# 
# From -- ./inp_files/69680.got.cif
#   From: 2010.05.17/outbox.cif.g08.bks.cpg/sg11_35_cif.got.tgz:69680.got - 2010.06.03 12:22:45.
