data_PCOD9162557
_publ_section_title
;
Structure prediction by ZEFSAII (Michael W. Deem and Ramdas Pophale) SiO2 
 PCOD9162557
Probable space group: P 21/M
;
_chemical_formula_sum "Si O2"
_cell_formula_units_Z 24
_cell_length_a 16.334395
_cell_length_b 8.779795
_cell_length_c 9.320054
_cell_angle_alpha 90.000000
_cell_angle_beta 73.597328
_cell_angle_gamma 90.000000
_cell_volume 1282.214452
_symmetry_space_group_name_H-M "P 21/M"
_symmetry_group_IT_number 11
_symmetry_cell_setting 'monoclinic'
loop_
_space_group_symop_operation_xyz
x,y,z
-x,1/2+y,-z
-x,-y,-z
x,1/2-y,z
loop_
_atom_site_type_symbol
_atom_site_label
_atom_site_fract_x
_atom_site_fract_y
_atom_site_fract_z
Si Si1 0.080873 0.432443 0.376964
Si Si2 0.243385 0.932537 0.796896
Si Si3 0.241247 0.933362 0.464599
Si Si4 0.400374 0.068390 0.885902
Si Si5 0.404044 0.932853 0.198259
Si Si6 0.918518 0.932913 0.958282
O O1 0.077561 0.250000 0.385512
O O2 0.166396 0.491347 0.410207
O O3 0.079334 0.477524 0.210330
O O4 0.000000 0.500000 0.500000
O O5 0.237155 0.750000 0.808980
O O6 0.236186 0.977578 0.633632
O O7 0.332991 0.986633 0.817595
O O8 0.167045 0.005949 0.925275
O O9 0.231578 0.750000 0.461658
O O10 0.332589 0.972263 0.349869
O O11 0.389734 0.250000 0.880807
O O12 0.499200 0.029490 0.803878
O O13 0.385603 0.015285 0.057046
O O14 0.401171 0.750000 0.175246
O O15 0.920493 0.750000 0.965364
O O16 0.000000 0.000000 0.000000
#
# Coordination Sequence:
#
# PCOD9162557 Si02
#       6
#     4   4   4   4   4   4
#     4  11  24  40  60  86 114 145 184 229 277 331
#     4  11  23  38  57  83 115 151 190 232 279 332
#     4  10  22  39  58  82 113 149 190 232 277 332
#     4  10  20  35  57  85 114 147 190 235 281 336
#     4   9  19  37  59  82 112 150 189 233 284 334
#     4  11  24  41  61  87 116 147 186 230 278 334
#
# _framework density 18.717618000000002
#
# number of rings (size 3 to 8) (size 9 to 14) (size 15 to 20)
#    0.000    1.667    0.000    4.000    0.000   12.667 
#    0.000    0.000    0.000    0.000    0.000    0.000 
#    0.000    0.000    0.000    0.000    0.000    0.000 
#
# Total GULP energy -134166.933015 kJ/mol
# GULP energy per Si atom -5590.288876 kJ/mol
# Density = 1.867502 g / cm^3
# Si number density = 18.717618 Si / 1000 Ang^3
#
#
#
# Elastic Constant Matrix: (Units=GPa)
#
#
# Indices 1 2 3 4 5 6 
#
# 1 145.1823 48.9502 111.7250 0.0000 10.7904 0.0000
# 2 48.9502 41.7866 60.9776 0.0000 3.1964 0.0000
# 3 111.7250 60.9776 189.2312 0.0000 -3.2282 0.0000
# 4 0.0000 0.0000 0.0000 28.5365 0.0000 3.0772
# 5 10.7904 3.1964 -3.2282 0.0000 38.3581 0.0000
# 6 0.0000 0.0000 0.0000 3.0772 0.0000 39.4263
#
#
#
# Elastic Compliance Matrix: (Units=1/GPa)
#
#
# Indices 1 2 3 4 5 6 
#
# 1 0.014522 -0.007737 -0.006149 0.000000 -0.003958 0.000000
# 2 -0.007737 0.050271 -0.011683 0.000000 -0.002996 0.000000
# 3 -0.006149 -0.011683 0.012744 0.000000 0.003776 0.000000
# 4 0.000000 0.000000 0.000000 0.035340 0.000000 -0.002758
# 5 -0.003958 -0.002996 0.003776 0.000000 0.027751 0.000000
# 6 0.000000 0.000000 0.000000 -0.002758 0.000000 0.025579
#
#
# Mechanical properties :
#
#
# Convention : Reuss Voigt Hill
#
# Bulk Modulus (GPa) = 37.87666 91.05620 64.46643
# Shear Modulus (GPa) = 22.10983 31.56733 26.83858
#
# Velocity S-wave (km/s) = 3.44063 4.11116 3.79075
# Velocity P-wave (km/s) = 6.00531 8.44325 7.32640
#
# Compressibility (1/GPa) = 0.02640148
#
# Stress axis : x y z
#
# Youngs Moduli (GPa) = 68.85979 19.89213 78.46940
#
# Poissons Ratio (x) = 0.15390 0.48248
# Poissons Ratio (y) = 0.53274 0.91673
# Poissons Ratio (z) = 0.42340 0.23239
#
# Static dielectric constant tensor:
#      x y z
#    x 1.619780 0.000000 -0.008340 
#    y 0.000000 1.626520 0.000000 
#    z -0.008340 0.000000 1.621470 
# 
# From -- ./inp_files/20358.got.cif
#   From: 2010.05.17/outbox.cif.g08.bks.cpg/sg11_11_cif.got.tgz:20358.got - 2010.06.03 12:22:45.
