data_PCOD9162312
_publ_section_title
;
Structure prediction by ZEFSAII (Michael W. Deem and Ramdas Pophale) SiO2 
 PCOD9162312
Probable space group: P 21/M
;
_chemical_formula_sum "Si O2"
_cell_formula_units_Z 32
_cell_length_a 31.115969
_cell_length_b 8.031752
_cell_length_c 12.060227
_cell_angle_alpha 90.000000
_cell_angle_beta 150.277384
_cell_angle_gamma 90.000000
_cell_volume 1494.365863
_symmetry_space_group_name_H-M "P 21/M"
_symmetry_group_IT_number 11
_symmetry_cell_setting 'monoclinic'
loop_
_space_group_symop_operation_xyz
x,y,z
-x,1/2+y,-z
-x,-y,-z
x,1/2-y,z
loop_
_atom_site_type_symbol
_atom_site_label
_atom_site_fract_x
_atom_site_fract_y
_atom_site_fract_z
Si Si1 0.479026 0.951216 0.079678
Si Si2 0.272342 0.049028 0.991655
Si Si3 0.945433 0.941831 0.040349
Si Si4 0.354992 0.450806 0.411085
Si Si5 0.120634 0.952058 0.344151
Si Si6 0.312166 0.549382 0.839398
Si Si7 0.819769 0.434767 0.932971
Si Si8 0.093589 0.066026 0.668065
O O1 0.477682 0.750000 0.078639
O O2 0.554604 0.006865 0.334152
O O3 0.387747 0.011008 0.926652
O O4 0.500000 0.000000 0.000000
O O5 0.266322 0.250000 0.982426
O O6 0.171225 0.985133 0.767455
O O7 0.320056 0.999556 0.985798
O O8 0.326279 0.994866 0.222305
O O9 0.937540 0.750000 0.058196
O O10 0.911587 0.961492 0.839824
O O11 0.885248 0.054539 0.979546
O O12 0.046355 0.989522 0.267929
O O13 0.354694 0.250000 0.410637
O O14 0.277746 0.518467 0.315456
O O15 0.118783 0.750000 0.324809
O O16 0.216650 0.007065 0.588727
O O17 0.312451 0.750000 0.835201
O O18 0.822582 0.250000 0.988525
O O19 0.852701 0.565212 0.096848
O O20 0.076213 0.250000 0.585118
O O21 0.000000 0.000000 0.500000
#
# Coordination Sequence:
#
# PCOD9162312 Si02
#       8
#     4   4   4   4   4   4   4   4
#     4  10  23  42  64  91 122 155 195 246 307 364
#     4   9  20  38  59  85 118 156 201 246 293 354
#     4  10  20  35  55  80 112 156 199 240 294 356
#     4   9  20  41  62  84 119 158 198 250 302 354
#     4   9  20  37  54  79 115 153 193 243 294 349
#     4  10  22  39  60  89 122 155 194 249 306 357
#     4  11  22  35  56  85 115 154 199 246 296 353
#     4  10  21  37  56  84 121 159 201 249 296 348
#
# _framework density 21.413765999999999
#
# number of rings (size 3 to 8) (size 9 to 14) (size 15 to 20)
#    0.000    2.250    0.000    2.625    3.500    5.000 
#    0.000    0.000    0.000    0.000    0.000    0.000 
#    0.000    0.000    0.000    0.000    0.000    0.000 
#
# Total GULP energy -178418.225701 kJ/mol
# GULP energy per Si atom -5575.569553 kJ/mol
# Density = 2.136503 g / cm^3
# Si number density = 21.413766 Si / 1000 Ang^3
#
#
#
# Elastic Constant Matrix: (Units=GPa)
#
#
# Indices 1 2 3 4 5 6 
#
# 1 139.0647 12.8328 64.4520 0.0000 23.6847 0.0000
# 2 12.8328 28.9834 13.9391 0.0000 8.2548 0.0000
# 3 64.4520 13.9391 145.0292 0.0000 22.7848 0.0000
# 4 0.0000 0.0000 0.0000 5.8693 0.0000 -10.2788
# 5 23.6847 8.2548 22.7848 0.0000 31.1528 0.0000
# 6 0.0000 0.0000 0.0000 -10.2788 0.0000 24.0572
#
#
#
# Elastic Compliance Matrix: (Units=1/GPa)
#
#
# Indices 1 2 3 4 5 6 
#
# 1 0.009686 -0.001346 -0.003473 0.000000 -0.004467 0.000000
# 2 -0.001346 0.038196 -0.001857 0.000000 -0.007740 0.000000
# 3 -0.003473 -0.001857 0.009180 0.000000 -0.003581 0.000000
# 4 0.000000 0.000000 0.000000 0.676822 0.000000 0.289184
# 5 -0.004467 -0.007740 -0.003581 0.000000 0.040166 0.000000
# 6 0.000000 0.000000 0.000000 0.289184 0.000000 0.165127
#
#
# Mechanical properties :
#
#
# Convention : Reuss Voigt Hill
#
# Bulk Modulus (GPa) = 22.87863 55.05833 38.96848
# Shear Modulus (GPa) = 5.17011 27.00609 16.08810
#
# Velocity S-wave (km/s) = 1.55551 3.55513 2.74395
# Velocity P-wave (km/s) = 3.73275 6.52835 5.31756
#
# Compressibility (1/GPa) = 0.04370891
#
# Stress axis : x y z
#
# Youngs Moduli (GPa) = 103.24623 26.18092 108.93461
#
# Poissons Ratio (x) = 0.03523 0.37835
# Poissons Ratio (y) = 0.13895 0.20230
# Poissons Ratio (z) = 0.35860 0.04862
#
# Static dielectric constant tensor:
#      x y z
#    x 1.828170 0.000000 0.034070 
#    y 0.000000 1.785130 0.000000 
#    z 0.034070 0.000000 1.785470 
# 
# From -- ./inp_files/45360.got.cif
#   From: 2010.05.17/outbox.cif.g08.bks.cpg/sg11_23_cif.got.tgz:45360.got - 2010.06.03 12:22:45.
