data_PCOD9162715
_publ_section_title
;
Structure prediction by ZEFSAII (Michael W. Deem and Ramdas Pophale) SiO2 
 PCOD9162715
Probable space group: P 21/M
;
_chemical_formula_sum "Si O2"
_cell_formula_units_Z 32
_cell_length_a 22.154281
_cell_length_b 9.076425
_cell_length_c 28.643087
_cell_angle_alpha 90.000000
_cell_angle_beta 16.623700
_cell_angle_gamma 90.000000
_cell_volume 1647.733638
_symmetry_space_group_name_H-M "P 21/M"
_symmetry_group_IT_number 11
_symmetry_cell_setting 'monoclinic'
loop_
_space_group_symop_operation_xyz
x,y,z
-x,1/2+y,-z
-x,-y,-z
x,1/2-y,z
loop_
_atom_site_type_symbol
_atom_site_label
_atom_site_fract_x
_atom_site_fract_y
_atom_site_fract_z
Si Si1 0.911524 0.075331 0.391146
Si Si2 0.708568 0.923162 0.244287
Si Si3 0.366148 0.573887 0.058150
Si Si4 0.555538 0.919374 0.095828
Si Si5 0.944672 0.085801 0.258908
Si Si6 0.157572 0.925257 0.951073
Si Si7 0.505388 0.071967 0.755533
Si Si8 0.617410 0.920844 0.454506
O O1 0.957348 0.250000 0.364352
O O2 0.864914 0.057759 0.370663
O O3 0.709146 0.036621 0.572519
O O4 0.124869 0.984008 0.241635
O O5 0.655335 0.750000 0.281633
O O6 0.775884 0.981712 0.143919
O O7 0.516387 0.023150 0.402395
O O8 0.902811 0.939745 0.137123
O O9 0.372131 0.750000 0.056104
O O10 0.500000 0.500000 0.000000
O O11 0.459034 0.518382 0.939433
O O12 0.493126 0.750000 0.131156
O O13 0.452449 0.966171 0.221342
O O14 0.804542 0.917192 0.923324
O O15 0.876685 0.250000 0.294981
O O16 0.853040 0.972243 0.290225
O O17 0.200817 0.750000 0.914147
O O18 0.298131 0.991602 0.888610
O O19 0.472140 0.250000 0.778230
O O20 0.606591 0.750000 0.455509
O O21 0.500000 0.000000 0.500000
#
# Coordination Sequence:
#
# PCOD9162715 Si02
#       8
#     4   4   4   4   4   4   4   4
#     4   9  19  37  61  89 119 151 189 230 277 338
#     4  10  21  38  54  74 103 140 189 240 295 351
#     4  11  22  39  65  92 120 156 194 233 278 332
#     4   9  20  38  60  89 121 154 192 232 285 346
#     4   9  18  35  56  79 111 151 192 238 287 344
#     4  10  21  35  55  80 107 143 186 237 288 345
#     4  10  20  35  59  88 119 154 188 233 290 345
#     4  12  25  37  52  74 104 142 190 244 297 349
#
# _framework density 19.420615999999999
#
# number of rings (size 3 to 8) (size 9 to 14) (size 15 to 20)
#    0.000    2.000    0.000    4.500    1.750    5.500 
#    0.000    0.625    0.000    0.000    0.000    0.000 
#    0.000    0.000    0.000    0.000    0.000    0.000 
#
# Total GULP energy -178623.653276 kJ/mol
# GULP energy per Si atom -5581.989165 kJ/mol
# Density = 1.937641 g / cm^3
# Si number density = 19.420616 Si / 1000 Ang^3
#
#
#
# Elastic Constant Matrix: (Units=GPa)
#
#
# Indices 1 2 3 4 5 6 
#
# 1 77.5966 59.1161 17.9704 0.0000 -0.7478 0.0000
# 2 59.1161 120.0595 21.5917 0.0000 -15.5411 0.0000
# 3 17.9704 21.5917 43.0876 0.0000 10.7200 0.0000
# 4 0.0000 0.0000 0.0000 24.2686 0.0000 -4.9658
# 5 -0.7478 -15.5411 10.7200 0.0000 29.5423 0.0000
# 6 0.0000 0.0000 0.0000 -4.9658 0.0000 34.3706
#
#
#
# Elastic Compliance Matrix: (Units=1/GPa)
#
#
# Indices 1 2 3 4 5 6 
#
# 1 0.021609 -0.010704 -0.002620 0.000000 -0.004133 0.000000
# 2 -0.010704 0.016059 -0.006175 0.000000 0.010417 0.000000
# 3 -0.002620 -0.006175 0.031021 0.000000 -0.014571 0.000000
# 4 0.000000 0.000000 0.000000 0.042461 0.000000 0.006135
# 5 -0.004133 0.010417 -0.014571 0.000000 0.044513 0.000000
# 6 0.000000 0.000000 0.000000 0.006135 0.000000 0.029981
#
#
# Mechanical properties :
#
#
# Convention : Reuss Voigt Hill
#
# Bulk Modulus (GPa) = 33.68065 48.67780 41.17923
# Shear Modulus (GPa) = 21.31860 27.10732 24.21296
#
# Velocity S-wave (km/s) = 3.31680 3.74010 3.53479
# Velocity P-wave (km/s) = 5.66115 6.61593 6.15707
#
# Compressibility (1/GPa) = 0.02969063
#
# Stress axis : x y z
#
# Youngs Moduli (GPa) = 46.27795 62.27218 32.23631
#
# Poissons Ratio (x) = 0.66654 0.08447
# Poissons Ratio (y) = 0.49534 0.19905
# Poissons Ratio (z) = 0.12126 0.38452
#
# Static dielectric constant tensor:
#      x y z
#    x 1.563940 0.000000 -0.327680 
#    y 0.000000 1.658280 0.000000 
#    z -0.327680 0.000000 0.687550 
# 
# From -- ./inp_files/71972.got.cif
#   From: 2010.05.17/outbox.cif.g08.bks.cpg/sg11_36_cif.got.tgz:71972.got - 2010.06.03 12:22:45.
