data_PCOD9162347
_publ_section_title
;
Structure prediction by ZEFSAII (Michael W. Deem and Ramdas Pophale) SiO2 
 PCOD9162347
Probable space group: P 21/M
;
_chemical_formula_sum "Si O2"
_cell_formula_units_Z 28
_cell_length_a 15.644772
_cell_length_b 9.439984
_cell_length_c 11.339602
_cell_angle_alpha 90.000000
_cell_angle_beta 61.985218
_cell_angle_gamma 90.000000
_cell_volume 1478.473828
_symmetry_space_group_name_H-M "P 21/M"
_symmetry_group_IT_number 11
_symmetry_cell_setting 'monoclinic'
loop_
_space_group_symop_operation_xyz
x,y,z
-x,1/2+y,-z
-x,-y,-z
x,1/2-y,z
loop_
_atom_site_type_symbol
_atom_site_label
_atom_site_fract_x
_atom_site_fract_y
_atom_site_fract_z
Si Si1 0.300941 0.588505 0.936068
Si Si2 0.620921 0.090392 0.674243
Si Si3 0.727553 0.907534 0.417376
Si Si4 0.568296 0.527304 0.340797
Si Si5 0.601624 0.579756 0.918190
Si Si6 0.887600 0.909341 0.970191
Si Si7 0.947595 0.906733 0.202923
O O1 0.291976 0.750000 0.983255
O O2 0.378536 0.585986 0.778173
O O3 0.335246 0.483111 0.016789
O O4 0.198845 0.522052 0.964571
O O5 0.646832 0.250000 0.692524
O O6 0.509594 0.093611 0.699143
O O7 0.683784 0.030674 0.525671
O O8 0.635376 0.979493 0.770114
O O9 0.716503 0.750000 0.478603
O O10 0.662431 0.902423 0.340405
O O11 0.840465 0.934087 0.322041
O O12 0.500000 0.500000 0.500000
O O13 0.593666 0.750000 0.926317
O O14 0.500000 0.500000 0.000000
O O15 0.856787 0.750000 0.954780
O O16 0.930741 0.897303 0.073380
O O17 0.971061 0.974609 0.832791
O O18 0.979559 0.750000 0.223188
#
# Coordination Sequence:
#
# PCOD9162347 Si02
#       7
#     4   4   4   4   4   4   4
#     4  12  24  39  61  86 116 155 196 240 289 344
#     4  11  23  38  58  84 117 155 198 241 285 341
#     4  10  20  36  58  84 119 157 194 236 288 343
#     4  10  22  36  54  82 121 156 195 233 282 339
#     4  12  25  41  61  83 112 152 198 243 288 337
#     4  10  20  35  55  83 117 152 190 239 288 342
#     4   9  18  34  55  83 116 154 191 234 286 344
#
# _framework density 18.938448000000001
#
# number of rings (size 3 to 8) (size 9 to 14) (size 15 to 20)
#    0.000    1.429    2.857    3.000    0.000    6.857 
#    0.000    0.000    0.000    0.857    0.000    0.000 
#    0.000    0.000    0.000    0.000    0.000    0.000 
#
# Total GULP energy -155882.937051 kJ/mol
# GULP energy per Si atom -5567.247752 kJ/mol
# Density = 1.889534 g / cm^3
# Si number density = 18.938448 Si / 1000 Ang^3
#
#
#
# Elastic Constant Matrix: (Units=GPa)
#
#
# Indices 1 2 3 4 5 6 
#
# 1 32.7971 33.0363 19.2934 0.0000 -11.7638 0.0000
# 2 33.0363 164.3247 42.4920 0.0000 -9.2123 0.0000
# 3 19.2934 42.4920 60.0852 0.0000 -4.4487 0.0000
# 4 0.0000 0.0000 0.0000 15.4175 0.0000 -13.8639
# 5 -11.7638 -9.2123 -4.4487 0.0000 32.9761 0.0000
# 6 0.0000 0.0000 0.0000 -13.8639 0.0000 6.9342
#
#
#
# Elastic Compliance Matrix: (Units=1/GPa)
#
#
# Indices 1 2 3 4 5 6 
#
# 1 0.047535 -0.006238 -0.009824 0.000000 0.013890 0.000000
# 2 -0.006238 0.008329 -0.003919 0.000000 -0.000427 0.000000
# 3 -0.009824 -0.003919 0.022453 0.000000 -0.001570 0.000000
# 4 0.000000 0.000000 0.000000 -0.081291 0.000000 -0.162530
# 5 0.013890 -0.000427 -0.001570 0.000000 0.034949 0.000000
# 6 0.000000 0.000000 0.000000 -0.162530 0.000000 -0.180743
#
#
# Mechanical properties :
#
#
# Convention : Reuss Voigt Hill
#
# Bulk Modulus (GPa) = 26.07182 49.65003 37.86093
# Shear Modulus (GPa) = -52.07058 21.89124 -15.08967
#
# Velocity S-wave (km/s) = -5.24922 3.40356 -2.82578
# Velocity P-wave (km/s) = 4.78984 6.45903 3.06402
#
# Compressibility (1/GPa) = 0.03835559
#
# Stress axis : x y z
#
# Youngs Moduli (GPa) = 21.03733 120.06295 44.53816
#
# Poissons Ratio (x) = 0.74889 0.43754
# Poissons Ratio (y) = 0.13122 0.17454
# Poissons Ratio (z) = 0.20667 0.47052
#
# Static dielectric constant tensor:
#      x y z
#    x 1.691950 0.000000 0.013610 
#    y 0.000000 1.690920 0.000000 
#    z 0.013610 0.000000 1.696000 
# 
# From -- ./inp_files/37430.got.cif
#   From: 2010.05.17/outbox.cif.g08.bks.cpg/sg11_19_cif.got.tgz:37430.got - 2010.06.03 12:22:45.
