data_PCOD9162991
_publ_section_title
;
Structure prediction by ZEFSAII (Michael W. Deem and Ramdas Pophale) SiO2 
 PCOD9162991
Probable space group: P 21/M
;
_chemical_formula_sum "Si O2"
_cell_formula_units_Z 28
_cell_length_a 16.056221
_cell_length_b 8.693298
_cell_length_c 21.493952
_cell_angle_alpha 90.000000
_cell_angle_beta 28.348065
_cell_angle_gamma 90.000000
_cell_volume 1424.555198
_symmetry_space_group_name_H-M "P 21/M"
_symmetry_group_IT_number 11
_symmetry_cell_setting 'monoclinic'
loop_
_space_group_symop_operation_xyz
x,y,z
-x,1/2+y,-z
-x,-y,-z
x,1/2-y,z
loop_
_atom_site_type_symbol
_atom_site_label
_atom_site_fract_x
_atom_site_fract_y
_atom_site_fract_z
Si Si1 0.219709 0.569184 0.213160
Si Si2 0.405265 0.070000 0.978436
Si Si3 0.079537 0.931561 0.511323
Si Si4 0.076695 0.431229 0.885482
Si Si5 0.450630 0.933459 0.599957
Si Si6 0.743227 0.569101 0.059612
Si Si7 0.574926 0.064016 0.643541
O O1 0.181901 0.750000 0.245284
O O2 0.277565 0.529161 0.105372
O O3 0.059458 0.470914 0.343559
O O4 0.393641 0.530426 0.138945
O O5 0.383276 0.250000 0.010515
O O6 0.361693 0.053982 0.935327
O O7 0.096543 0.750000 0.490079
O O8 0.267472 0.987230 0.414373
O O9 0.000000 0.000000 0.500000
O O10 0.107292 0.250000 0.871902
O O11 0.254982 0.510838 0.746499
O O12 0.917814 0.468945 0.943297
O O13 0.000000 0.500000 0.000000
O O14 0.457846 0.750000 0.593306
O O15 0.500000 0.000000 0.500000
O O16 0.573976 0.994361 0.575123
O O17 0.789895 0.750000 0.036769
O O18 0.610448 0.525060 0.202079
O O19 0.583846 0.250000 0.633060
#
# Coordination Sequence:
#
# PCOD9162991 Si02
#       7
#     4   4   4   4   4   4   4
#     4  10  20  36  57  83 118 159 202 253 306 360
#     4   9  19  36  58  85 117 158 201 248 306 365
#     4  11  23  39  61  89 123 165 206 252 309 372
#     4  12  24  41  65  94 126 162 205 256 312 373
#     4  12  26  45  69  97 129 170 214 266 327 388
#     4  10  20  37  63  90 120 159 206 256 309 368
#     4  10  22  41  64  90 125 167 210 259 314 375
#
# _framework density 19.655259000000001
#
# number of rings (size 3 to 8) (size 9 to 14) (size 15 to 20)
#    0.000    1.429    1.429    4.286    0.000    5.714 
#    0.000    2.857    0.000    0.000    0.000    0.000 
#    0.000    0.000    0.000    0.000    0.000    0.000 
#
# Total GULP energy -156453.230846 kJ/mol
# GULP energy per Si atom -5587.615387 kJ/mol
# Density = 1.961052 g / cm^3
# Si number density = 19.655259 Si / 1000 Ang^3
#
#
#
# Elastic Constant Matrix: (Units=GPa)
#
#
# Indices 1 2 3 4 5 6 
#
# 1 111.3485 39.0004 42.9701 0.0000 0.5825 0.0000
# 2 39.0004 62.6030 27.1863 0.0000 -2.2698 0.0000
# 3 42.9701 27.1863 87.4626 0.0000 -7.3296 0.0000
# 4 0.0000 0.0000 0.0000 30.7357 0.0000 2.2555
# 5 0.5825 -2.2698 -7.3296 0.0000 19.7096 0.0000
# 6 0.0000 0.0000 0.0000 2.2555 0.0000 34.7130
#
#
#
# Elastic Compliance Matrix: (Units=1/GPa)
#
#
# Indices 1 2 3 4 5 6 
#
# 1 0.012957 -0.006135 -0.004696 0.000000 -0.002836 0.000000
# 2 -0.006135 0.021371 -0.003517 0.000000 0.001335 0.000000
# 3 -0.004696 -0.003517 0.015288 0.000000 0.005419 0.000000
# 4 0.000000 0.000000 0.000000 0.032691 0.000000 -0.002124
# 5 -0.002836 0.001335 0.005419 0.000000 0.052989 0.000000
# 6 0.000000 0.000000 0.000000 -0.002124 0.000000 0.028946
#
#
# Mechanical properties :
#
#
# Convention : Reuss Voigt Hill
#
# Bulk Modulus (GPa) = 47.80228 53.30308 50.55268
# Shear Modulus (GPa) = 25.01090 27.18215 26.09653
#
# Velocity S-wave (km/s) = 3.57105 3.72283 3.64773
# Velocity P-wave (km/s) = 6.43245 6.75701 6.59672
#
# Compressibility (1/GPa) = 0.02091951
#
# Stress axis : x y z
#
# Youngs Moduli (GPa) = 77.17894 46.79131 65.41065
#
# Poissons Ratio (x) = 0.28708 0.30719
# Poissons Ratio (y) = 0.47351 0.23004
# Poissons Ratio (z) = 0.36246 0.16456
#
# Static dielectric constant tensor:
#      x y z
#    x 1.719510 0.000000 -0.018560 
#    y 0.000000 1.686490 0.000000 
#    z -0.018560 0.000000 1.666080 
# 
# From -- ./inp_files/65337.got.cif
#   From: 2010.05.17/outbox.cif.g08.bks.cpg/sg11_33_cif.got.tgz:65337.got - 2010.06.03 12:22:45.
