data_PCOD9162008
_publ_section_title
;
Structure prediction by ZEFSAII (Michael W. Deem and Ramdas Pophale) SiO2 
 PCOD9162008
Probable space group: P 21/M
;
_chemical_formula_sum "Si O2"
_cell_formula_units_Z 28
_cell_length_a 12.461972
_cell_length_b 21.582593
_cell_length_c 5.708990
_cell_angle_alpha 90.000000
_cell_angle_beta 90.321454
_cell_angle_gamma 90.000000
_cell_volume 1535.475316
_symmetry_space_group_name_H-M "P 21/M"
_symmetry_group_IT_number 11
_symmetry_cell_setting 'monoclinic'
loop_
_space_group_symop_operation_xyz
x,y,z
-x,1/2+y,-z
-x,-y,-z
x,1/2-y,z
loop_
_atom_site_type_symbol
_atom_site_label
_atom_site_fract_x
_atom_site_fract_y
_atom_site_fract_z
Si Si1 0.923058 0.178193 0.434141
Si Si2 0.179425 0.462069 0.034560
Si Si3 0.582951 0.527681 0.817796
Si Si4 0.793004 0.095852 0.098303
Si Si5 0.395459 0.918461 0.555443
Si Si6 0.070403 0.436615 0.529534
Si Si7 0.298070 0.681279 0.277004
O O1 0.958690 0.250000 0.399129
O O2 0.880518 0.143204 0.200282
O O3 0.817455 0.181516 0.596109
O O4 0.004384 0.127822 0.540418
O O5 0.159144 0.536751 0.032957
O O6 0.134429 0.441445 0.778646
O O7 0.307461 0.452028 0.058947
O O8 0.132088 0.435319 0.277904
O O9 0.608302 0.472557 0.637009
O O10 0.509430 0.577178 0.683825
O O11 0.500000 0.500000 0.000000
O O12 0.712873 0.070271 0.295955
O O13 0.715076 0.135658 0.937546
O O14 0.381062 0.850518 0.450744
O O15 0.000000 0.500000 0.500000
O O16 0.326258 0.750000 0.205915
#
# Coordination Sequence:
#
# PCOD9162008 Si02
#       7
#     4   4   4   4   4   4   4
#     4  10  23  39  59  85 122 167 207 251 312 375
#     4  12  24  38  61  93 126 157 205 255 309 369
#     4  11  21  35  59  87 120 158 192 250 307 373
#     4  11  19  35  58  91 123 153 199 257 310 377
#     4  10  20  34  56  87 124 154 193 246 311 371
#     4  12  25  40  61  90 127 163 205 258 310 364
#     4  10  20  35  58  87 119 157 201 253 309 374
#
# _framework density 18.235395
#
# number of rings (size 3 to 8) (size 9 to 14) (size 15 to 20)
#    0.000    1.143    4.286    2.571    4.000    0.571 
#    0.000    0.000    0.000    1.714    0.000    0.000 
#    0.000    0.000    0.000    0.000    0.000    0.000 
#
# Total GULP energy -156079.412241 kJ/mol
# GULP energy per Si atom -5574.264723 kJ/mol
# Density = 1.819389 g / cm^3
# Si number density = 18.235395 Si / 1000 Ang^3
#
#
#
# Elastic Constant Matrix: (Units=GPa)
#
#
# Indices 1 2 3 4 5 6 
#
# 1 96.3602 50.5629 51.0170 0.0000 31.2138 0.0000
# 2 50.5629 126.4981 39.2198 0.0000 13.6534 0.0000
# 3 51.0170 39.2198 102.6999 0.0000 18.3563 0.0000
# 4 0.0000 0.0000 0.0000 9.8194 0.0000 0.8992
# 5 31.2138 13.6534 18.3563 0.0000 35.9604 0.0000
# 6 0.0000 0.0000 0.0000 0.8992 0.0000 21.9497
#
#
#
# Elastic Compliance Matrix: (Units=1/GPa)
#
#
# Indices 1 2 3 4 5 6 
#
# 1 0.020136 -0.004860 -0.005890 0.000000 -0.012627 0.000000
# 2 -0.004860 0.010250 -0.001715 0.000000 0.001202 0.000000
# 3 -0.005890 -0.001715 0.013522 0.000000 -0.001138 0.000000
# 4 0.000000 0.000000 0.000000 0.102223 0.000000 -0.004188
# 5 -0.012627 0.001202 -0.001138 0.000000 0.038893 0.000000
# 6 0.000000 0.000000 0.000000 -0.004188 0.000000 0.045730
#
#
# Mechanical properties :
#
#
# Convention : Reuss Voigt Hill
#
# Bulk Modulus (GPa) = 52.69317 67.46196 60.07757
# Shear Modulus (GPa) = 19.08328 25.86313 22.47320
#
# Velocity S-wave (km/s) = 3.23847 3.77011 3.51436
# Velocity P-wave (km/s) = 6.55305 7.48512 7.03454
#
# Compressibility (1/GPa) = 0.01897779
#
# Stress axis : x y z
#
# Youngs Moduli (GPa) = 49.66135 97.56364 73.95627
#
# Poissons Ratio (x) = 0.47413 0.43562
# Poissons Ratio (y) = 0.24134 0.12683
# Poissons Ratio (z) = 0.29251 0.16732
#
# Static dielectric constant tensor:
#      x y z
#    x 1.658760 0.000000 0.007710 
#    y 0.000000 1.631760 0.000000 
#    z 0.007710 0.000000 2.464890 
# 
# From -- ./inp_files/5244.got.cif
#   From: 2010.05.17/outbox.cif.g08.bks.cpg/sg11_3_cif.got.tgz:5244.got - 2010.06.03 12:22:45.
