data_PCOD9162258
_publ_section_title
;
Structure prediction by ZEFSAII (Michael W. Deem and Ramdas Pophale) SiO2 
 PCOD9162258
Probable space group: P 21/M
;
_chemical_formula_sum "Si O2"
_cell_formula_units_Z 32
_cell_length_a 32.080393
_cell_length_b 7.968290
_cell_length_c 12.707298
_cell_angle_alpha 90.000000
_cell_angle_beta 151.330924
_cell_angle_gamma 90.000000
_cell_volume 1558.378752
_symmetry_space_group_name_H-M "P 21/M"
_symmetry_group_IT_number 11
_symmetry_cell_setting 'monoclinic'
loop_
_space_group_symop_operation_xyz
x,y,z
-x,1/2+y,-z
-x,-y,-z
x,1/2-y,z
loop_
_atom_site_type_symbol
_atom_site_label
_atom_site_fract_x
_atom_site_fract_y
_atom_site_fract_z
Si Si1 0.172750 0.956110 0.613846
Si Si2 0.304670 0.550337 0.724047
Si Si3 0.979908 0.559797 0.143348
Si Si4 0.063979 0.941765 0.732111
Si Si5 0.761033 0.444890 0.012891
Si Si6 0.669559 0.451989 0.613613
Si Si7 0.795125 0.948311 0.704166
Si Si8 0.502709 0.950118 0.883625
O O1 0.166203 0.750000 0.605470
O O2 0.244378 0.004116 0.687014
O O3 0.205199 0.015499 0.800974
O O4 0.076937 0.015281 0.364136
O O5 0.297830 0.750000 0.700819
O O6 0.266599 0.478433 0.531620
O O7 0.405179 0.504937 0.958828
O O8 0.989610 0.750000 0.123651
O O9 0.949950 0.558016 0.198829
O O10 0.892884 0.481225 0.899079
O O11 0.046092 0.750000 0.725583
O O12 0.156951 0.945554 0.883560
O O13 0.000000 0.000000 0.500000
O O14 0.737287 0.250000 0.982843
O O15 0.688515 0.519370 0.773527
O O16 0.663552 0.250000 0.610476
O O17 0.746795 0.483209 0.700546
O O18 0.580978 0.517186 0.364551
O O19 0.805442 0.750000 0.742427
O O20 0.497942 0.750000 0.869404
O O21 0.500000 0.000000 0.000000
#
# Coordination Sequence:
#
# PCOD9162258 Si02
#       8
#     4   4   4   4   4   4   4   4
#     4   9  19  37  58  79 110 157 199 229 270 335
#     4  11  23  39  60  81 109 152 199 234 274 343
#     4  10  20  35  54  82 115 149 191 237 285 334
#     4  11  19  29  51  80 112 149 189 235 279 330
#     4   9  17  32  56  82 111 147 187 229 275 332
#     4  10  20  35  58  88 115 142 181 230 287 350
#     4  11  22  34  55  85 119 147 179 239 296 334
#     4  11  22  37  61  89 116 143 180 236 294 341
#
# _framework density 20.534161999999998
#
# number of rings (size 3 to 8) (size 9 to 14) (size 15 to 20)
#    0.000    1.750    3.750    1.500    0.000    1.500 
#    0.000    1.875    0.000    0.000    0.000    0.000 
#    0.000    0.000    0.000    0.000    0.000    0.000 
#
# Total GULP energy -178464.230614 kJ/mol
# GULP energy per Si atom -5577.007207 kJ/mol
# Density = 2.048743 g / cm^3
# Si number density = 20.534162 Si / 1000 Ang^3
#
#
#
# Elastic Constant Matrix: (Units=GPa)
#
#
# Indices 1 2 3 4 5 6 
#
# 1 67.4361 1.7300 37.5700 0.0000 18.8858 0.0000
# 2 1.7300 29.2095 5.0810 0.0000 2.3504 0.0000
# 3 37.5700 5.0810 169.8923 0.0000 13.3020 0.0000
# 4 0.0000 0.0000 0.0000 10.9617 0.0000 1.8902
# 5 18.8858 2.3504 13.3020 0.0000 25.3847 0.0000
# 6 0.0000 0.0000 0.0000 1.8902 0.0000 13.3213
#
#
#
# Elastic Compliance Matrix: (Units=1/GPa)
#
#
# Indices 1 2 3 4 5 6 
#
# 1 0.020547 0.000478 -0.003501 0.000000 -0.013496 0.000000
# 2 0.000478 0.034612 -0.000899 0.000000 -0.003089 0.000000
# 3 -0.003501 -0.000899 0.006754 0.000000 -0.000851 0.000000
# 4 0.000000 0.000000 0.000000 0.093515 0.000000 -0.013269
# 5 -0.013496 -0.003089 -0.000851 0.000000 0.050167 0.000000
# 6 0.000000 0.000000 0.000000 -0.013269 0.000000 0.076950
#
#
# Mechanical properties :
#
#
# Convention : Reuss Voigt Hill
#
# Bulk Modulus (GPa) = 18.49508 39.47775 28.98642
# Shear Modulus (GPa) = 16.21207 24.74399 20.47803
#
# Velocity S-wave (km/s) = 2.81288 3.47510 3.16138
# Velocity P-wave (km/s) = 4.42451 5.94718 5.24143
#
# Compressibility (1/GPa) = 0.05406844
#
# Stress axis : x y z
#
# Youngs Moduli (GPa) = 48.66919 28.89161 148.06291
#
# Poissons Ratio (x) = -0.01381 0.51842
# Poissons Ratio (y) = -0.02327 0.13311
# Poissons Ratio (z) = 0.17041 0.02597
#
# Static dielectric constant tensor:
#      x y z
#    x 1.675630 0.000000 -0.013000 
#    y 0.000000 1.780140 0.000000 
#    z -0.013000 0.000000 1.797180 
# 
# From -- ./inp_files/45260.got.cif
#   From: 2010.05.17/outbox.cif.g08.bks.cpg/sg11_23_cif.got.tgz:45260.got - 2010.06.03 12:22:45.
