data_PCOD9162033
_publ_section_title
;
Structure prediction by ZEFSAII (Michael W. Deem and Ramdas Pophale) SiO2 
 PCOD9162033
Probable space group: P 21/M
;
_chemical_formula_sum "Si O2"
_cell_formula_units_Z 32
_cell_length_a 13.064489
_cell_length_b 7.883774
_cell_length_c 14.762238
_cell_angle_alpha 90.000000
_cell_angle_beta 94.683515
_cell_angle_gamma 90.000000
_cell_volume 1515.396313
_symmetry_space_group_name_H-M "P 21/M"
_symmetry_group_IT_number 11
_symmetry_cell_setting 'monoclinic'
loop_
_space_group_symop_operation_xyz
x,y,z
-x,1/2+y,-z
-x,-y,-z
x,1/2-y,z
loop_
_atom_site_type_symbol
_atom_site_label
_atom_site_fract_x
_atom_site_fract_y
_atom_site_fract_z
Si Si1 0.248482 0.946855 0.098778
Si Si2 0.002977 0.456506 0.296263
Si Si3 0.219328 0.951851 0.400551
Si Si4 0.384686 0.956997 0.741170
Si Si5 0.609709 0.045678 0.050948
Si Si6 0.194038 0.957603 0.605018
Si Si7 0.613567 0.948644 0.728230
Si Si8 0.024944 0.440192 0.102282
O O1 0.217548 0.750000 0.085078
O O2 0.331683 0.958006 0.184460
O O3 0.148066 0.049593 0.118732
O O4 0.300969 0.012168 0.010665
O O5 0.003365 0.250000 0.293883
O O6 0.114186 0.511460 0.339494
O O7 0.984737 0.522529 0.192375
O O8 0.912895 0.511567 0.357253
O O9 0.234743 0.750000 0.403510
O O10 0.206797 0.014140 0.502507
O O11 0.315723 0.028145 0.354243
O O12 0.380609 0.750000 0.741897
O O13 0.379646 0.014808 0.845291
O O14 0.289442 0.013645 0.673693
O O15 0.495986 0.005614 0.709920
O O16 0.615418 0.250000 0.052716
O O17 0.500000 0.000000 0.000000
O O18 0.193375 0.750000 0.604168
O O19 0.611550 0.750000 0.752807
O O20 0.985189 0.250000 0.102342
O O21 0.000000 0.500000 0.000000
#
# Coordination Sequence:
#
# PCOD9162033 Si02
#       8
#     4   4   4   4   4   4   4   4
#     4  11  22  36  58  87 118 153 196 244 289 344
#     4  10  21  39  64  87 114 154 197 238 289 354
#     4  11  22  37  61  88 115 148 193 249 299 345
#     4   9  19  36  58  84 116 153 194 236 287 352
#     4  10  20  34  57  84 113 152 192 234 281 341
#     4   9  20  38  60  86 114 150 195 245 299 351
#     4  11  21  36  60  86 116 156 197 239 291 353
#     4  11  24  39  59  88 122 158 194 237 291 351
#
# _framework density 21.116589999999999
#
# number of rings (size 3 to 8) (size 9 to 14) (size 15 to 20)
#    0.000    1.750    2.500    1.875    1.750    1.500 
#    0.000    0.625    0.000    5.250    0.000    0.000 
#    0.000    0.000    0.000    0.000    0.000    0.000 
#
# Total GULP energy -178772.579104 kJ/mol
# GULP energy per Si atom -5586.643097 kJ/mol
# Density = 2.106853 g / cm^3
# Si number density = 21.116590 Si / 1000 Ang^3
#
#
#
# Elastic Constant Matrix: (Units=GPa)
#
#
# Indices 1 2 3 4 5 6 
#
# 1 54.8174 -10.1331 31.9638 0.0000 -23.4392 0.0000
# 2 -10.1331 24.4101 -1.2253 0.0000 -0.2275 0.0000
# 3 31.9638 -1.2253 157.2641 0.0000 -19.3765 0.0000
# 4 0.0000 0.0000 0.0000 20.0405 0.0000 4.3869
# 5 -23.4392 -0.2275 -19.3765 0.0000 39.1075 0.0000
# 6 0.0000 0.0000 0.0000 4.3869 0.0000 11.0076
#
#
#
# Elastic Compliance Matrix: (Units=1/GPa)
#
#
# Indices 1 2 3 4 5 6 
#
# 1 0.029590 0.012232 -0.003967 0.000000 0.015840 0.000000
# 2 0.012232 0.046046 -0.001268 0.000000 0.006970 0.000000
# 3 -0.003967 -0.001268 0.007307 0.000000 0.001236 0.000000
# 4 0.000000 0.000000 0.000000 0.054668 0.000000 -0.021787
# 5 0.015840 0.006970 0.001236 0.000000 0.035717 0.000000
# 6 0.000000 0.000000 0.000000 -0.021787 0.000000 0.099529
#
#
# Mechanical properties :
#
#
# Convention : Reuss Voigt Hill
#
# Bulk Modulus (GPa) = 10.31619 30.85581 20.58600
# Shear Modulus (GPa) = 17.17172 28.42354 22.79763
#
# Velocity S-wave (km/s) = 2.85474 3.67281 3.28930
# Velocity P-wave (km/s) = 3.97014 5.71225 4.91893
#
# Compressibility (1/GPa) = 0.09693500
#
# Stress axis : x y z
#
# Youngs Moduli (GPa) = 33.79548 21.71762 136.84793
#
# Poissons Ratio (x) = -0.26564 0.54289
# Poissons Ratio (y) = -0.41338 0.17359
# Poissons Ratio (z) = 0.13407 0.02755
#
# Static dielectric constant tensor:
#      x y z
#    x 1.722820 0.000000 -0.013900 
#    y 0.000000 1.854010 0.000000 
#    z -0.013900 0.000000 1.765690 
# 
# From -- ./inp_files/49391.got.cif
#   From: 2010.05.17/outbox.cif.g08.bks.cpg/sg11_25_cif.got.tgz:49391.got - 2010.06.03 12:22:45.
