data_PCOD9162792
_publ_section_title
;
Structure prediction by ZEFSAII (Michael W. Deem and Ramdas Pophale) SiO2 
 PCOD9162792
Probable space group: P 21/M
;
_chemical_formula_sum "Si O2"
_cell_formula_units_Z 28
_cell_length_a 11.715028
_cell_length_b 13.387096
_cell_length_c 9.941981
_cell_angle_alpha 90.000000
_cell_angle_beta 57.325449
_cell_angle_gamma 90.000000
_cell_volume 1312.460076
_symmetry_space_group_name_H-M "P 21/M"
_symmetry_group_IT_number 11
_symmetry_cell_setting 'monoclinic'
loop_
_space_group_symop_operation_xyz
x,y,z
-x,1/2+y,-z
-x,-y,-z
x,1/2-y,z
loop_
_atom_site_type_symbol
_atom_site_label
_atom_site_fract_x
_atom_site_fract_y
_atom_site_fract_z
Si Si1 0.696987 0.927420 0.337698
Si Si2 0.682098 0.633468 0.635527
Si Si3 0.336501 0.633572 0.218642
Si Si4 0.135139 0.482275 0.999985
Si Si5 0.118546 0.004741 0.316581
Si Si6 0.389273 0.632663 0.491893
Si Si7 0.616977 0.369626 0.099597
O O1 0.748333 0.885267 0.447373
O O2 0.548832 0.880860 0.412687
O O3 0.782443 0.906696 0.149421
O O4 0.684071 0.047382 0.373345
O O5 0.688287 0.750000 0.664525
O O6 0.761621 0.572536 0.697799
O O7 0.521301 0.607563 0.732474
O O8 0.359808 0.750000 0.211071
O O9 0.183365 0.605633 0.277003
O O10 0.363110 0.601144 0.353706
O O11 0.416201 0.600847 0.034601
O O12 0.248153 0.570340 0.946020
O O13 0.091426 0.460093 0.181738
O O14 0.000000 0.500000 0.000000
O O15 0.000000 0.000000 0.500000
O O16 0.351686 0.750000 0.538786
O O17 0.640284 0.250000 0.093608
#
# Coordination Sequence:
#
# PCOD9162792 Si02
#       7
#     4   4   4   4   4   4   4
#     4  11  22  38  59  93 130 165 203 256 319 378
#     4  11  23  42  68  95 126 168 213 266 323 379
#     4   9  19  36  63  93 121 159 206 259 315 371
#     4  11  25  41  63  91 128 171 210 258 320 382
#     4  11  24  43  66  91 128 167 215 261 317 380
#     4  10  20  35  62  95 128 162 203 259 316 379
#     4   9  20  39  65  95 125 160 211 265 320 379
#
# _framework density 21.333983
#
# number of rings (size 3 to 8) (size 9 to 14) (size 15 to 20)
#    0.000    1.714    1.429    3.000    2.000    3.429 
#    0.000    5.714    0.000    0.000    0.000    0.000 
#    0.000    0.000    0.000    0.000    0.000    0.000 
#
# Total GULP energy -156053.506538 kJ/mol
# GULP energy per Si atom -5573.339519 kJ/mol
# Density = 2.128543 g / cm^3
# Si number density = 21.333983 Si / 1000 Ang^3
#
#
#
# Elastic Constant Matrix: (Units=GPa)
#
#
# Indices 1 2 3 4 5 6 
#
# 1 94.1925 11.8643 44.3534 0.0000 23.3469 0.0000
# 2 11.8643 59.3023 -1.9827 0.0000 -3.2835 0.0000
# 3 44.3534 -1.9827 165.2245 0.0000 23.4442 0.0000
# 4 0.0000 0.0000 0.0000 17.3620 0.0000 3.4316
# 5 23.3469 -3.2835 23.4442 0.0000 44.2527 0.0000
# 6 0.0000 0.0000 0.0000 3.4316 0.0000 14.8412
#
#
#
# Elastic Compliance Matrix: (Units=1/GPa)
#
#
# Indices 1 2 3 4 5 6 
#
# 1 0.013884 -0.003208 -0.002911 0.000000 -0.006021 0.000000
# 2 -0.003208 0.017674 0.000700 0.000000 0.002633 0.000000
# 3 -0.002911 0.000700 0.007155 0.000000 -0.002203 0.000000
# 4 0.000000 0.000000 0.000000 0.060356 0.000000 -0.013956
# 5 -0.006021 0.002633 -0.002203 0.000000 0.027136 0.000000
# 6 0.000000 0.000000 0.000000 -0.013956 0.000000 0.070607
#
#
# Mechanical properties :
#
#
# Convention : Reuss Voigt Hill
#
# Bulk Modulus (GPa) = 35.87744 47.46546 41.67145
# Shear Modulus (GPa) = 23.04768 32.92347 27.98558
#
# Velocity S-wave (km/s) = 3.29040 3.93267 3.62579
# Velocity P-wave (km/s) = 5.59367 6.55120 6.09128
#
# Compressibility (1/GPa) = 0.02787267
#
# Stress axis : x y z
#
# Youngs Moduli (GPa) = 72.02637 56.58085 139.76615
#
# Poissons Ratio (x) = 0.18153 0.40689
# Poissons Ratio (y) = 0.23109 -0.09779
# Poissons Ratio (z) = 0.20969 -0.03959
#
# Static dielectric constant tensor:
#      x y z
#    x 1.764210 0.000000 0.037040 
#    y 0.000000 1.818030 0.000000 
#    z 0.037040 0.000000 1.928880 
# 
# From -- ./inp_files/17954.got.cif
#   From: 2010.05.17/outbox.cif.g08.bks.cpg/sg11_9_cif.got.tgz:17954.got - 2010.06.03 12:22:45.
