data_PCOD9162723
_publ_section_title
;
Structure prediction by ZEFSAII (Michael W. Deem and Ramdas Pophale) SiO2 
 PCOD9162723
Probable space group: P 21/M
;
_chemical_formula_sum "Si O2"
_cell_formula_units_Z 20
_cell_length_a 21.709187
_cell_length_b 9.090952
_cell_length_c 13.639489
_cell_angle_alpha 90.000000
_cell_angle_beta 158.315088
_cell_angle_gamma 90.000000
_cell_volume 994.644536
_symmetry_space_group_name_H-M "P 21/M"
_symmetry_group_IT_number 11
_symmetry_cell_setting 'monoclinic'
loop_
_space_group_symop_operation_xyz
x,y,z
-x,1/2+y,-z
-x,-y,-z
x,1/2-y,z
loop_
_atom_site_type_symbol
_atom_site_label
_atom_site_fract_x
_atom_site_fract_y
_atom_site_fract_z
Si Si1 0.669576 0.573763 0.211059
Si Si2 0.179298 0.072577 0.775169
Si Si3 0.071198 0.924076 0.262796
Si Si4 0.213717 0.580637 0.257794
Si Si5 0.566158 0.579100 0.693462
O O1 0.657404 0.750000 0.204030
O O2 0.708738 0.540504 0.155130
O O3 0.826080 0.511133 0.503939
O O4 0.500000 0.500000 0.000000
O O5 0.163253 0.250000 0.756678
O O6 0.272945 0.020371 0.012028
O O7 0.000000 0.000000 0.500000
O O8 0.074090 0.750000 0.287327
O O9 0.161045 0.952914 0.290893
O O10 0.884544 0.980097 0.964993
O O11 0.163867 0.750000 0.164463
O O12 0.410738 0.570412 0.538209
O O13 0.500000 0.500000 0.500000
O O14 0.595323 0.750000 0.713247
#
# Coordination Sequence:
#
# PCOD9162723 Si02
#       5
#     4   4   4   4   4
#     4  11  23  40  63  90 123 162 207 256 311 371
#     4  10  24  44  64  90 127 166 207 257 312 373
#     4  10  20  35  59  89 120 155 198 250 306 365
#     4   9  19  37  58  83 120 158 197 248 306 360
#     4  10  22  40  61  85 117 157 203 251 301 359
#
# _framework density 20.107686000000001
#
# number of rings (size 3 to 8) (size 9 to 14) (size 15 to 20)
#    0.000    2.000    0.000    2.400    2.800    7.200 
#    0.000    2.000    0.000    0.000    0.000    0.000 
#    0.000    0.000    0.000    0.000    0.000    0.000 
#
# Total GULP energy -111724.063841 kJ/mol
# GULP energy per Si atom -5586.203192 kJ/mol
# Density = 2.006192 g / cm^3
# Si number density = 20.107686 Si / 1000 Ang^3
#
#
#
# Elastic Constant Matrix: (Units=GPa)
#
#
# Indices 1 2 3 4 5 6 
#
# 1 68.6909 38.4474 48.8603 0.0000 -14.9190 0.0000
# 2 38.4474 51.0299 46.3577 0.0000 -17.5382 0.0000
# 3 48.8603 46.3577 138.8053 0.0000 -32.1222 0.0000
# 4 0.0000 0.0000 0.0000 39.5446 0.0000 -0.4640
# 5 -14.9190 -17.5382 -32.1222 0.0000 31.2724 0.0000
# 6 0.0000 0.0000 0.0000 -0.4640 0.0000 29.8758
#
#
#
# Elastic Compliance Matrix: (Units=1/GPa)
#
#
# Indices 1 2 3 4 5 6 
#
# 1 0.026526 -0.016655 -0.003946 0.000000 -0.000739 0.000000
# 2 -0.016655 0.040217 -0.005494 0.000000 0.008966 0.000000
# 3 -0.003946 -0.005494 0.012173 0.000000 0.007540 0.000000
# 4 0.000000 0.000000 0.000000 0.025293 0.000000 0.000393
# 5 -0.000739 0.008966 0.007540 0.000000 0.044398 0.000000
# 6 0.000000 0.000000 0.000000 0.000393 0.000000 0.033478
#
#
# Mechanical properties :
#
#
# Convention : Reuss Voigt Hill
#
# Bulk Modulus (GPa) = 37.41596 58.42855 47.92226
# Shear Modulus (GPa) = 20.56052 28.46259 24.51156
#
# Velocity S-wave (km/s) = 3.20116 3.76641 3.49523
# Velocity P-wave (km/s) = 5.68431 6.93075 6.33825
#
# Compressibility (1/GPa) = 0.02672656
#
# Stress axis : x y z
#
# Youngs Moduli (GPa) = 37.69830 24.86501 82.14727
#
# Poissons Ratio (x) = 0.41413 0.32416
# Poissons Ratio (y) = 0.62786 0.45133
# Poissons Ratio (z) = 0.14876 0.13661
#
# Static dielectric constant tensor:
#      x y z
#    x 1.755050 0.000000 0.007630 
#    y 0.000000 1.701310 0.000000 
#    z 0.007630 0.000000 1.694910 
# 
# From -- ./inp_files/16064.got.cif
#   From: 2010.05.17/outbox.cif.g08.bks.cpg/sg11_9_cif.got.tgz:16064.got - 2010.06.03 12:22:45.
