data_PCOD9162901
_publ_section_title
;
Structure prediction by ZEFSAII (Michael W. Deem and Ramdas Pophale) SiO2 
 PCOD9162901
Probable space group: P 21/M
;
_chemical_formula_sum "Si O2"
_cell_formula_units_Z 32
_cell_length_a 12.765274
_cell_length_b 9.352583
_cell_length_c 20.503813
_cell_angle_alpha 90.000000
_cell_angle_beta 38.416707
_cell_angle_gamma 90.000000
_cell_volume 1521.076337
_symmetry_space_group_name_H-M "P 21/M"
_symmetry_group_IT_number 11
_symmetry_cell_setting 'monoclinic'
loop_
_space_group_symop_operation_xyz
x,y,z
-x,1/2+y,-z
-x,-y,-z
x,1/2-y,z
loop_
_atom_site_type_symbol
_atom_site_label
_atom_site_fract_x
_atom_site_fract_y
_atom_site_fract_z
Si Si1 0.637151 0.421556 0.385657
Si Si2 0.837321 0.081249 0.003814
Si Si3 0.961986 0.916263 0.275731
Si Si4 0.183119 0.920036 0.830484
Si Si5 0.262366 0.579100 0.367183
Si Si6 0.338279 0.586272 0.100046
Si Si7 0.480336 0.414904 0.857880
Si Si8 0.934654 0.587571 0.444146
O O1 0.500000 0.500000 0.500000
O O2 0.613740 0.250000 0.403317
O O3 0.818688 0.477591 0.321713
O O4 0.662508 0.454613 0.294874
O O5 0.847119 0.250000 0.988587
O O6 0.801725 0.054973 0.098842
O O7 0.676874 0.011626 0.047041
O O8 0.012803 0.008340 0.897543
O O9 0.938865 0.750000 0.264384
O O10 0.950104 0.912028 0.359770
O O11 0.153848 0.964742 0.169804
O O12 0.151715 0.750000 0.837535
O O13 0.267156 0.750000 0.368551
O O14 0.434673 0.531939 0.250052
O O15 0.216873 0.510217 0.457628
O O16 0.106870 0.538904 0.395187
O O17 0.351726 0.750000 0.071578
O O18 0.368345 0.586772 0.163560
O O19 0.500000 0.500000 0.000000
O O20 0.423073 0.250000 0.879066
O O21 0.903116 0.750000 0.481839
#
# Coordination Sequence:
#
# PCOD9162901 Si02
#       8
#     4   4   4   4   4   4   4   4
#     4  11  25  44  66  91 120 158 204 255 307 363
#     4  10  21  37  62  92 118 151 195 246 300 359
#     4  10  21  40  62  85 119 162 201 243 296 352
#     4   9  21  43  64  85 118 154 193 245 310 365
#     4   9  17  31  51  76 108 149 191 231 275 336
#     4  10  22  39  58  83 120 162 201 240 289 351
#     4  10  20  36  56  82 121 159 191 231 289 352
#     4   9  17  32  53  76 107 148 189 232 285 336
#
# _framework density 21.037735999999999
#
# number of rings (size 3 to 8) (size 9 to 14) (size 15 to 20)
#    0.000    2.250    1.250    0.750    1.750    4.500 
#    0.000    3.750    0.000    0.000    0.000    0.000 
#    0.000    0.000    0.000    0.000    0.000    0.000 
#
# Total GULP energy -178449.170517 kJ/mol
# GULP energy per Si atom -5576.536579 kJ/mol
# Density = 2.098985 g / cm^3
# Si number density = 21.037736 Si / 1000 Ang^3
#
#
#
# Elastic Constant Matrix: (Units=GPa)
#
#
# Indices 1 2 3 4 5 6 
#
# 1 45.4557 18.7870 26.9399 0.0000 -5.0192 0.0000
# 2 18.7870 29.1866 53.7648 0.0000 -5.9194 0.0000
# 3 26.9399 53.7648 166.8443 0.0000 6.6383 0.0000
# 4 0.0000 0.0000 0.0000 32.9825 0.0000 -0.7906
# 5 -5.0192 -5.9194 6.6383 0.0000 33.2607 0.0000
# 6 0.0000 0.0000 0.0000 -0.7906 0.0000 25.5378
#
#
#
# Elastic Compliance Matrix: (Units=1/GPa)
#
#
# Indices 1 2 3 4 5 6 
#
# 1 0.030794 -0.026825 0.003707 0.000000 -0.000867 0.000000
# 2 -0.026825 0.124449 -0.036784 0.000000 0.025441 0.000000
# 3 0.003707 -0.036784 0.017627 0.000000 -0.009505 0.000000
# 4 0.000000 0.000000 0.000000 0.030342 0.000000 0.000939
# 5 -0.000867 0.025441 -0.009505 0.000000 0.036360 0.000000
# 6 0.000000 0.000000 0.000000 0.000939 0.000000 0.039187
#
#
# Mechanical properties :
#
#
# Convention : Reuss Voigt Hill
#
# Bulk Modulus (GPa) = 18.84505 48.94110 33.89308
# Shear Modulus (GPa) = 12.01198 27.82252 19.91725
#
# Velocity S-wave (km/s) = 2.39210 3.64057 3.08025
# Velocity P-wave (km/s) = 4.07513 6.40201 5.36621
#
# Compressibility (1/GPa) = 0.05306433
#
# Stress axis : x y z
#
# Youngs Moduli (GPa) = 32.47389 8.03542 56.73207
#
# Poissons Ratio (x) = 0.21555 -0.21028
# Poissons Ratio (y) = 0.87113 2.08683
# Poissons Ratio (z) = -0.12037 0.29557
#
# Static dielectric constant tensor:
#      x y z
#    x 1.823940 0.000000 0.063090 
#    y 0.000000 1.708100 0.000000 
#    z 0.063090 0.000000 1.802960 
# 
# From -- ./inp_files/69027.got.cif
#   From: 2010.05.17/outbox.cif.g08.bks.cpg/sg11_35_cif.got.tgz:69027.got - 2010.06.03 12:22:45.
