data_PCOD9162922
_publ_section_title
;
Structure prediction by ZEFSAII (Michael W. Deem and Ramdas Pophale) SiO2 
 PCOD9162922
Probable space group: P 21/M
;
_chemical_formula_sum "Si O2"
_cell_formula_units_Z 24
_cell_length_a 8.734790
_cell_length_b 23.961886
_cell_length_c 12.637929
_cell_angle_alpha 90.000000
_cell_angle_beta 26.475110
_cell_angle_gamma 90.000000
_cell_volume 1179.229158
_symmetry_space_group_name_H-M "P 21/M"
_symmetry_group_IT_number 11
_symmetry_cell_setting 'monoclinic'
loop_
_space_group_symop_operation_xyz
x,y,z
-x,1/2+y,-z
-x,-y,-z
x,1/2-y,z
loop_
_atom_site_type_symbol
_atom_site_label
_atom_site_fract_x
_atom_site_fract_y
_atom_site_fract_z
Si Si1 0.034376 0.685349 0.437414
Si Si2 0.816248 0.115562 0.468322
Si Si3 0.261006 0.551780 0.683259
Si Si4 0.449881 0.970732 0.194738
Si Si5 0.460717 0.590730 0.792303
Si Si6 0.636010 0.110370 0.931350
O O1 0.949709 0.750000 0.485887
O O2 0.222447 0.669634 0.432193
O O3 0.709022 0.643813 0.628736
O O4 0.261694 0.664525 0.198346
O O5 0.679615 0.102589 0.436012
O O6 0.657023 0.067378 0.640585
O O7 0.226540 0.112080 0.198921
O O8 0.500000 0.500000 0.500000
O O9 0.320891 0.573039 0.765345
O O10 0.862528 0.532684 0.925782
O O11 0.359414 0.034087 0.275908
O O12 0.288392 0.943200 0.189317
O O13 0.211486 0.605370 0.045418
#
# Coordination Sequence:
#
# PCOD9162922 Si02
#       6
#     4   4   4   4   4   4
#     4  10  23  42  61  81 109 155 210 255 289 332
#     4   9  20  39  60  85 119 156 193 235 291 357
#     4  11  22  35  58  93 132 156 182 224 298 371
#     4  10  20  36  56  90 125 160 186 230 293 369
#     4  11  22  34  60  90 123 154 190 239 298 350
#     4   9  21  35  57  85 118 153 198 242 291 343
#
# _framework density 20.352277000000001
#
# number of rings (size 3 to 8) (size 9 to 14) (size 15 to 20)
#    0.000    2.000    1.667    1.000    2.333    8.667 
#    0.000    0.833    0.000    4.000    0.000    0.000 
#    0.000    0.000    0.000    0.000    0.000    0.000 
#
# Total GULP energy -133831.888025 kJ/mol
# GULP energy per Si atom -5576.328668 kJ/mol
# Density = 2.030595 g / cm^3
# Si number density = 20.352277 Si / 1000 Ang^3
#
#
#
# Elastic Constant Matrix: (Units=GPa)
#
#
# Indices 1 2 3 4 5 6 
#
# 1 126.7441 38.9168 33.9215 0.0000 41.4310 0.0000
# 2 38.9168 153.2433 39.6584 0.0000 7.7939 0.0000
# 3 33.9215 39.6584 102.2010 0.0000 18.2016 0.0000
# 4 0.0000 0.0000 0.0000 15.0522 0.0000 -2.8555
# 5 41.4310 7.7939 18.2016 0.0000 41.9105 0.0000
# 6 0.0000 0.0000 0.0000 -2.8555 0.0000 17.2047
#
#
#
# Elastic Compliance Matrix: (Units=1/GPa)
#
#
# Indices 1 2 3 4 5 6 
#
# 1 0.012734 -0.002317 -0.001259 0.000000 -0.011610 0.000000
# 2 -0.002317 0.007676 -0.002562 0.000000 0.001976 0.000000
# 3 -0.001259 -0.002562 0.011803 0.000000 -0.003405 0.000000
# 4 0.000000 0.000000 0.000000 0.068595 0.000000 0.011385
# 5 -0.011610 0.001976 -0.003405 0.000000 0.036449 0.000000
# 6 0.000000 0.000000 0.000000 0.011385 0.000000 0.060013
#
#
# Mechanical properties :
#
#
# Convention : Reuss Voigt Hill
#
# Bulk Modulus (GPa) = 50.15935 67.46465 58.81200
# Shear Modulus (GPa) = 23.12750 32.81292 27.97021
#
# Velocity S-wave (km/s) = 3.37465 4.01964 3.71118
# Velocity P-wave (km/s) = 6.31533 7.40025 6.87921
#
# Compressibility (1/GPa) = 0.01993646
#
# Stress axis : x y z
#
# Youngs Moduli (GPa) = 78.53146 130.26771 84.72422
#
# Poissons Ratio (x) = 0.30188 0.10671
# Poissons Ratio (y) = 0.18199 0.21702
# Poissons Ratio (z) = 0.09891 0.33369
#
# Static dielectric constant tensor:
#      x y z
#    x 1.815620 0.000000 0.020710 
#    y 0.000000 1.689860 0.000000 
#    z 0.020710 0.000000 1.809980 
# 
# From -- ./inp_files/33023.got.cif
#   From: 2010.05.17/outbox.cif.g08.bks.cpg/sg11_17_cif.got.tgz:33023.got - 2010.06.03 12:22:45.
