data_PCOD9162603
_publ_section_title
;
Structure prediction by ZEFSAII (Michael W. Deem and Ramdas Pophale) SiO2 
 PCOD9162603
Probable space group: P 21/M
;
_chemical_formula_sum "Si O2"
_cell_formula_units_Z 32
_cell_length_a 13.923116
_cell_length_b 11.865519
_cell_length_c 13.912542
_cell_angle_alpha 90.000000
_cell_angle_beta 42.809403
_cell_angle_gamma 90.000000
_cell_volume 1561.919221
_symmetry_space_group_name_H-M "P 21/M"
_symmetry_group_IT_number 11
_symmetry_cell_setting 'monoclinic'
loop_
_space_group_symop_operation_xyz
x,y,z
-x,1/2+y,-z
-x,-y,-z
x,1/2-y,z
loop_
_atom_site_type_symbol
_atom_site_label
_atom_site_fract_x
_atom_site_fract_y
_atom_site_fract_z
Si Si1 0.192612 0.955096 0.859945
Si Si2 0.344933 0.544156 0.314228
Si Si3 0.227687 0.378971 0.655568
Si Si4 0.819301 0.881290 0.713619
Si Si5 0.463998 0.125637 0.985906
Si Si6 0.500537 0.874236 0.664546
Si Si7 0.056269 0.129605 0.076452
Si Si8 0.090012 0.555876 0.624623
O O1 0.338009 0.889147 0.758070
O O2 0.060848 0.880824 0.922113
O O3 0.206849 0.049187 0.766301
O O4 0.155640 0.022416 0.984396
O O5 0.255033 0.455913 0.314251
O O6 0.441776 0.623760 0.178612
O O7 0.452162 0.469477 0.297114
O O8 0.230405 0.600669 0.468834
O O9 0.186601 0.250000 0.698818
O O10 0.392025 0.384076 0.503697
O O11 0.139175 0.436536 0.633991
O O12 0.844439 0.750000 0.667249
O O13 0.962391 0.940032 0.643209
O O14 0.706382 0.877721 0.884873
O O15 0.495757 0.250000 0.010574
O O16 0.500000 0.000000 0.000000
O O17 0.525005 0.750000 0.688816
O O18 0.130488 0.250000 0.016575
O O19 0.970027 0.121156 0.238834
#
# Coordination Sequence:
#
# PCOD9162603 Si02
#       8
#     4   4   4   4   4   4   4   4
#     4  10  20  35  58  83 113 149 199 240 291 363
#     4  10  21  38  58  86 121 155 203 247 299 356
#     4   9  19  37  58  84 119 154 193 247 306 363
#     4  10  20  37  61  84 115 159 198 242 305 362
#     4   9  20  38  60  84 116 154 199 252 305 360
#     4  10  20  35  58  85 116 154 197 250 308 365
#     4  10  21  36  55  80 114 151 188 240 300 352
#     4  10  21  36  57  86 116 154 199 245 292 360
#
# _framework density 20.487615000000002
#
# number of rings (size 3 to 8) (size 9 to 14) (size 15 to 20)
#    0.000    2.250    0.000    2.250    1.750    2.000 
#    0.000    3.750    0.000    2.250    0.000    0.000 
#    0.000    0.000    0.000    0.000    0.000    0.000 
#
# Total GULP energy -178274.311587 kJ/mol
# GULP energy per Si atom -5571.072237 kJ/mol
# Density = 2.044098 g / cm^3
# Si number density = 20.487615 Si / 1000 Ang^3
#
#
#
# Elastic Constant Matrix: (Units=GPa)
#
#
# Indices 1 2 3 4 5 6 
#
# 1 30.4047 -5.6344 7.2467 0.0000 -7.6892 0.0000
# 2 -5.6344 90.6150 27.4681 0.0000 1.3323 0.0000
# 3 7.2467 27.4681 86.9079 0.0000 0.0484 0.0000
# 4 0.0000 0.0000 0.0000 15.3870 0.0000 -3.0084
# 5 -7.6892 1.3323 0.0484 0.0000 31.7043 0.0000
# 6 0.0000 0.0000 0.0000 -3.0084 0.0000 7.9604
#
#
#
# Elastic Compliance Matrix: (Units=1/GPa)
#
#
# Indices 1 2 3 4 5 6 
#
# 1 0.036728 0.003411 -0.004146 0.000000 0.008771 0.000000
# 2 0.003411 0.012530 -0.004245 0.000000 0.000307 0.000000
# 3 -0.004146 -0.004245 0.013194 0.000000 -0.000847 0.000000
# 4 0.000000 0.000000 0.000000 0.070175 0.000000 0.026521
# 5 0.008771 0.000307 -0.000847 0.000000 0.033657 0.000000
# 6 0.000000 0.000000 0.000000 0.026521 0.000000 0.135645
#
#
# Mechanical properties :
#
#
# Convention : Reuss Voigt Hill
#
# Bulk Modulus (GPa) = 19.04977 29.56536 24.30756
# Shear Modulus (GPa) = 15.17979 22.93350 19.05664
#
# Velocity S-wave (km/s) = 2.72495 3.34935 3.05315
# Velocity P-wave (km/s) = 4.38393 5.42399 4.93146
#
# Compressibility (1/GPa) = 0.05249408
#
# Stress axis : x y z
#
# Youngs Moduli (GPa) = 27.22729 79.80816 75.79088
#
# Poissons Ratio (x) = -0.27226 0.31420
# Poissons Ratio (y) = -0.09288 0.32172
# Poissons Ratio (z) = 0.11287 0.33877
#
# Static dielectric constant tensor:
#      x y z
#    x 1.715640 0.000000 0.031020 
#    y 0.000000 1.735510 0.000000 
#    z 0.031020 0.000000 1.770650 
# 
# From -- ./inp_files/52284.got.cif
#   From: 2010.05.17/outbox.cif.g08.bks.cpg/sg11_27_cif.got.tgz:52284.got - 2010.06.03 12:22:45.
