data_PCOD9162522
_publ_section_title
;
Structure prediction by ZEFSAII (Michael W. Deem and Ramdas Pophale) SiO2 
 PCOD9162522
Probable space group: P 21/M
;
_chemical_formula_sum "Si O2"
_cell_formula_units_Z 32
_cell_length_a 29.578980
_cell_length_b 7.780742
_cell_length_c 12.669466
_cell_angle_alpha 90.000000
_cell_angle_beta 150.318774
_cell_angle_gamma 90.000000
_cell_volume 1443.844320
_symmetry_space_group_name_H-M "P 21/M"
_symmetry_group_IT_number 11
_symmetry_cell_setting 'monoclinic'
loop_
_space_group_symop_operation_xyz
x,y,z
-x,1/2+y,-z
-x,-y,-z
x,1/2-y,z
loop_
_atom_site_type_symbol
_atom_site_label
_atom_site_fract_x
_atom_site_fract_y
_atom_site_fract_z
Si Si1 0.131725 0.949666 0.544495
Si Si2 0.757572 0.948156 0.839385
Si Si3 0.683134 0.540359 0.466617
Si Si4 0.510381 0.448932 0.862364
Si Si5 0.275101 0.040931 0.000379
Si Si6 0.956298 0.053829 0.299106
Si Si7 0.532147 0.953971 0.682020
Si Si8 0.285666 0.547027 0.698991
O O1 0.114454 0.750000 0.485666
O O2 0.202930 0.023304 0.602567
O O3 0.035038 0.035997 0.370674
O O4 0.186540 0.966556 0.765585
O O5 0.727801 0.750000 0.775279
O O6 0.729900 0.020879 0.670059
O O7 0.713558 0.022786 0.856899
O O8 0.865711 0.953210 0.081969
O O9 0.683580 0.750000 0.464613
O O10 0.577068 0.479536 0.253558
O O11 0.731848 0.475545 0.460476
O O12 0.518184 0.250000 0.909069
O O13 0.485721 0.458945 0.687841
O O14 0.611626 0.528433 0.077405
O O15 0.268155 0.250000 0.987872
O O16 0.361537 0.993317 0.105125
O O17 0.927602 0.250000 0.250383
O O18 0.000000 0.000000 0.500000
O O19 0.525220 0.750000 0.681858
O O20 0.500000 0.000000 0.500000
O O21 0.290800 0.750000 0.736242
#
# Coordination Sequence:
#
# PCOD9162522 Si02
#       8
#     4   4   4   4   4   4   4   4
#     4  11  22  38  61  90 119 152 193 243 298 349
#     4  10  21  39  60  87 120 156 197 247 301 354
#     4  10  22  39  62  87 119 161 203 247 298 352
#     4  10  20  38  59  85 119 158 202 251 298 347
#     4  10  20  35  57  83 116 155 194 239 296 356
#     4  12  24  39  62  92 121 155 195 242 297 361
#     4  11  22  34  52  82 119 161 201 243 296 356
#     4  10  22  39  61  88 122 158 200 250 296 348
#
# _framework density 22.163056000000001
#
# number of rings (size 3 to 8) (size 9 to 14) (size 15 to 20)
#    0.000    1.500    2.500    3.000    0.000    5.000 
#    0.000    1.875    0.000    0.000    0.000    0.000 
#    0.000    0.000    0.000    0.000    0.000    0.000 
#
# Total GULP energy -178791.138373 kJ/mol
# GULP energy per Si atom -5587.223074 kJ/mol
# Density = 2.211261 g / cm^3
# Si number density = 22.163056 Si / 1000 Ang^3
#
#
#
# Elastic Constant Matrix: (Units=GPa)
#
#
# Indices 1 2 3 4 5 6 
#
# 1 149.7943 -0.9037 31.3670 0.0000 -5.6981 0.0000
# 2 -0.9037 47.9853 -4.5797 0.0000 2.3904 0.0000
# 3 31.3670 -4.5797 55.3713 0.0000 -4.1325 0.0000
# 4 0.0000 0.0000 0.0000 20.1513 0.0000 -5.5806
# 5 -5.6981 2.3904 -4.1325 0.0000 37.8061 0.0000
# 6 0.0000 0.0000 0.0000 -5.5806 0.0000 21.7120
#
#
#
# Elastic Compliance Matrix: (Units=1/GPa)
#
#
# Indices 1 2 3 4 5 6 
#
# 1 0.007596 -0.000300 -0.004276 0.000000 0.000696 0.000000
# 2 -0.000300 0.021067 0.001824 0.000000 -0.001178 0.000000
# 3 -0.004276 0.001824 0.020745 0.000000 0.001508 0.000000
# 4 0.000000 0.000000 0.000000 0.053428 0.000000 0.013732
# 5 0.000696 -0.001178 0.001508 0.000000 0.026795 0.000000
# 6 0.000000 0.000000 0.000000 0.013732 0.000000 0.049587
#
#
# Mechanical properties :
#
#
# Convention : Reuss Voigt Hill
#
# Bulk Modulus (GPa) = 22.77603 33.87981 28.32792
# Shear Modulus (GPa) = 25.08084 31.08503 28.08293
#
# Velocity S-wave (km/s) = 3.36765 3.74914 3.56350
# Velocity P-wave (km/s) = 5.04186 5.83620 5.45351
#
# Compressibility (1/GPa) = 0.04390581
#
# Stress axis : x y z
#
# Youngs Moduli (GPa) = 131.65086 47.46796 48.20329
#
# Poissons Ratio (x) = 0.01423 0.20611
# Poissons Ratio (y) = 0.03946 -0.08794
# Poissons Ratio (z) = 0.56291 -0.08660
#
# Static dielectric constant tensor:
#      x y z
#    x 1.829680 0.000000 0.003510 
#    y 0.000000 1.796190 0.000000 
#    z 0.003510 0.000000 1.866540 
# 
# From -- ./inp_files/45308.got.cif
#   From: 2010.05.17/outbox.cif.g08.bks.cpg/sg11_23_cif.got.tgz:45308.got - 2010.06.03 12:22:45.
