data_PCOD9162348
_publ_section_title
;
Structure prediction by ZEFSAII (Michael W. Deem and Ramdas Pophale) SiO2 
 PCOD9162348
Probable space group: P 21/M
;
_chemical_formula_sum "Si O2"
_cell_formula_units_Z 32
_cell_length_a 14.414426
_cell_length_b 18.610278
_cell_length_c 11.300740
_cell_angle_alpha 90.000000
_cell_angle_beta 30.362335
_cell_angle_gamma 90.000000
_cell_volume 1532.320492
_symmetry_space_group_name_H-M "P 21/M"
_symmetry_group_IT_number 11
_symmetry_cell_setting 'monoclinic'
loop_
_space_group_symop_operation_xyz
x,y,z
-x,1/2+y,-z
-x,-y,-z
x,1/2-y,z
loop_
_atom_site_type_symbol
_atom_site_label
_atom_site_fract_x
_atom_site_fract_y
_atom_site_fract_z
Si Si1 0.917203 0.664855 0.061545
Si Si2 0.181502 0.041936 0.153391
Si Si3 0.710885 0.092532 0.374991
Si Si4 0.468570 0.468296 0.314681
Si Si5 0.802230 0.528867 0.588604
Si Si6 0.056730 0.168566 0.688716
Si Si7 0.641127 0.666113 0.158252
Si Si8 0.636141 0.167114 0.205832
O O1 0.970316 0.750000 0.992783
O O2 0.079868 0.614698 0.832485
O O3 0.902472 0.650994 0.217889
O O4 0.735270 0.654702 0.183920
O O5 0.219706 0.022260 0.247518
O O6 0.229090 0.124169 0.075245
O O7 0.972772 0.020397 0.360632
O O8 0.324524 0.998990 0.913061
O O9 0.561736 0.132657 0.621210
O O10 0.670324 0.126274 0.291537
O O11 0.656069 0.009057 0.450630
O O12 0.374255 0.488497 0.294819
O O13 0.491258 0.383038 0.299583
O O14 0.860675 0.609487 0.488095
O O15 0.119473 0.250000 0.597100
O O16 0.834411 0.167495 0.924185
O O17 0.633615 0.750000 0.144485
O O18 0.579680 0.250000 0.286187
#
# Coordination Sequence:
#
# PCOD9162348 Si02
#       8
#     4   4   4   4   4   4   4   4
#     4   9  18  34  55  83 117 148 182 228 282 339
#     4  10  23  41  56  81 114 147 191 240 283 330
#     4  10  20  35  55  83 118 149 181 225 283 337
#     4  11  22  37  59  86 109 148 194 235 276 341
#     4  11  22  39  61  79 111 153 189 239 287 325
#     4   9  19  36  58  84 115 149 187 232 281 336
#     4  10  20  35  58  83 110 148 188 229 279 339
#     4  10  20  37  57  83 121 153 180 228 285 338
#
# _framework density 20.88336
#
# number of rings (size 3 to 8) (size 9 to 14) (size 15 to 20)
#    0.000    2.000    1.250    3.375    1.750    1.000 
#    0.000    1.875    0.000    0.000    0.000    0.000 
#    0.000    0.000    0.000    0.000    0.000    0.000 
#
# Total GULP energy -178745.102907 kJ/mol
# GULP energy per Si atom -5585.784466 kJ/mol
# Density = 2.083583 g / cm^3
# Si number density = 20.883360 Si / 1000 Ang^3
#
#
#
# Elastic Constant Matrix: (Units=GPa)
#
#
# Indices 1 2 3 4 5 6 
#
# 1 32.7424 -0.3898 -8.7165 0.0000 -10.1597 0.0000
# 2 -0.3898 81.2166 21.0099 0.0000 -3.1181 0.0000
# 3 -8.7165 21.0099 67.2020 0.0000 -10.2637 0.0000
# 4 0.0000 0.0000 0.0000 27.3062 0.0000 -2.2181
# 5 -10.1597 -3.1181 -10.2637 0.0000 23.1029 0.0000
# 6 0.0000 0.0000 0.0000 -2.2181 0.0000 23.9292
#
#
#
# Elastic Compliance Matrix: (Units=1/GPa)
#
#
# Indices 1 2 3 4 5 6 
#
# 1 0.039363 -0.001257 0.008707 0.000000 0.021009 0.000000
# 2 -0.001257 0.013436 -0.004475 0.000000 -0.000727 0.000000
# 3 0.008707 -0.004475 0.019205 0.000000 0.011757 0.000000
# 4 0.000000 0.000000 0.000000 0.036900 0.000000 0.003420
# 5 0.021009 -0.000727 0.011757 0.000000 0.057648 0.000000
# 6 0.000000 0.000000 0.000000 0.003420 0.000000 0.042107
#
#
# Mechanical properties :
#
#
# Convention : Reuss Voigt Hill
#
# Bulk Modulus (GPa) = 12.82788 22.77426 17.80107
# Shear Modulus (GPa) = 21.86334 26.15149 24.00742
#
# Velocity S-wave (km/s) = 3.23913 3.54257 3.39425
# Velocity P-wave (km/s) = 4.48835 5.25949 4.88915
#
# Compressibility (1/GPa) = 0.07795521
#
# Stress axis : x y z
#
# Youngs Moduli (GPa) = 25.40435 74.42471 52.07107
#
# Poissons Ratio (x) = 0.09355 -0.45340
# Poissons Ratio (y) = 0.03193 0.23301
# Poissons Ratio (z) = -0.22120 0.33304
#
# Static dielectric constant tensor:
#      x y z
#    x 1.755940 0.000000 -0.017970 
#    y 0.000000 1.769560 0.000000 
#    z -0.017970 0.000000 1.746180 
# 
# From -- ./inp_files/39944.got.cif
#   From: 2010.05.17/outbox.cif.g08.bks.cpg/sg11_20_cif.got.tgz:39944.got - 2010.06.03 12:22:45.
