data_PCOD9162737
_publ_section_title
;
Structure prediction by ZEFSAII (Michael W. Deem and Ramdas Pophale) SiO2 
 PCOD9162737
Probable space group: P 21/M
;
_chemical_formula_sum "Si O2"
_cell_formula_units_Z 20
_cell_length_a 18.038898
_cell_length_b 8.922762
_cell_length_c 7.225187
_cell_angle_alpha 90.000000
_cell_angle_beta 130.405353
_cell_angle_gamma 90.000000
_cell_volume 885.555170
_symmetry_space_group_name_H-M "P 21/M"
_symmetry_group_IT_number 11
_symmetry_cell_setting 'monoclinic'
loop_
_space_group_symop_operation_xyz
x,y,z
-x,1/2+y,-z
-x,-y,-z
x,1/2-y,z
loop_
_atom_site_type_symbol
_atom_site_label
_atom_site_fract_x
_atom_site_fract_y
_atom_site_fract_z
Si Si1 0.268337 0.926955 0.763313
Si Si2 0.071386 0.423923 0.379053
Si Si3 0.670460 0.074313 0.732293
Si Si4 0.417002 0.073061 0.740720
Si Si5 0.124720 0.076654 0.027349
O O1 0.264663 0.750000 0.712694
O O2 0.160267 0.990053 0.619073
O O3 0.317989 0.021017 0.681634
O O4 0.332465 0.946257 0.051936
O O5 0.064932 0.250000 0.424443
O O6 0.968478 0.507266 0.227079
O O7 0.098477 0.427158 0.203301
O O8 0.661882 0.250000 0.677239
O O9 0.592683 0.986498 0.483380
O O10 0.778074 0.016794 0.851484
O O11 0.427455 0.250000 0.758001
O O12 0.500000 0.000000 0.000000
O O13 0.140830 0.250000 0.001731
#
# Coordination Sequence:
#
# PCOD9162737 Si02
#       5
#     4   4   4   4   4
#     4  11  24  42  66  96 130 168 210 259 314 375
#     4  10  20  35  59  91 127 171 215 259 310 368
#     4  11  24  42  66  96 130 168 210 259 314 375
#     4  12  26  46  71  96 125 164 206 260 320 376
#     4  10  20  35  59  91 127 171 215 259 310 368
#
# _framework density 22.584702
#
# number of rings (size 3 to 8) (size 9 to 14) (size 15 to 20)
#    0.000    1.200    2.000    4.200    0.000    6.400 
#    0.000    0.000    0.000    0.000    0.000    0.000 
#    0.000    0.000    0.000    0.000    0.000    0.000 
#
# Total GULP energy -112024.701172 kJ/mol
# GULP energy per Si atom -5601.235059 kJ/mol
# Density = 2.253330 g / cm^3
# Si number density = 22.584702 Si / 1000 Ang^3
#
#
#
# Elastic Constant Matrix: (Units=GPa)
#
#
# Indices 1 2 3 4 5 6 
#
# 1 36.5498 5.3215 4.2712 0.0000 -3.4309 0.0000
# 2 5.3215 163.2826 71.1380 0.0000 -13.6267 0.0000
# 3 4.2712 71.1380 157.3848 0.0000 6.8099 0.0000
# 4 0.0000 0.0000 0.0000 43.1136 0.0000 5.9674
# 5 -3.4309 -13.6267 6.8099 0.0000 30.7252 0.0000
# 6 0.0000 0.0000 0.0000 5.9674 0.0000 22.2865
#
#
#
# Elastic Compliance Matrix: (Units=1/GPa)
#
#
# Indices 1 2 3 4 5 6 
#
# 1 0.027787 -0.000320 -0.000745 0.000000 0.003126 0.000000
# 2 -0.000320 0.008203 -0.003892 0.000000 0.004465 0.000000
# 3 -0.000745 -0.003892 0.008291 0.000000 -0.003647 0.000000
# 4 0.000000 0.000000 0.000000 0.024087 0.000000 -0.006450
# 5 0.003126 0.004465 -0.003647 0.000000 0.035684 0.000000
# 6 0.000000 0.000000 0.000000 -0.006450 0.000000 0.046597
#
#
# Mechanical properties :
#
#
# Convention : Reuss Voigt Hill
#
# Bulk Modulus (GPa) = 29.09778 57.63093 43.36435
# Shear Modulus (GPa) = 29.06638 37.65750 33.36194
#
# Velocity S-wave (km/s) = 3.59136 4.08780 3.84759
# Velocity P-wave (km/s) = 5.48717 6.91760 6.24348
#
# Compressibility (1/GPa) = 0.03436688
#
# Stress axis : x y z
#
# Youngs Moduli (GPa) = 35.98810 121.90322 120.60955
#
# Poissons Ratio (x) = 0.03905 0.08980
# Poissons Ratio (y) = 0.01153 0.46946
# Poissons Ratio (z) = 0.02679 0.47449
#
# Static dielectric constant tensor:
#      x y z
#    x 1.924710 0.000000 -0.035990 
#    y 0.000000 1.748240 0.000000 
#    z -0.035990 0.000000 1.856910 
# 
# From -- ./inp_files/27335.got.cif
#   From: 2010.05.17/outbox.cif.g08.bks.cpg/sg11_14_cif.got.tgz:27335.got - 2010.06.03 12:22:45.
