data_PCOD9162200
_publ_section_title
;
Structure prediction by ZEFSAII (Michael W. Deem and Ramdas Pophale) SiO2 
 PCOD9162200
Probable space group: P 21/M
;
_chemical_formula_sum "Si O2"
_cell_formula_units_Z 28
_cell_length_a 14.693182
_cell_length_b 13.809969
_cell_length_c 7.889118
_cell_angle_alpha 90.000000
_cell_angle_beta 53.178785
_cell_angle_gamma 90.000000
_cell_volume 1281.455449
_symmetry_space_group_name_H-M "P 21/M"
_symmetry_group_IT_number 11
_symmetry_cell_setting 'monoclinic'
loop_
_space_group_symop_operation_xyz
x,y,z
-x,1/2+y,-z
-x,-y,-z
x,1/2-y,z
loop_
_atom_site_type_symbol
_atom_site_label
_atom_site_fract_x
_atom_site_fract_y
_atom_site_fract_z
Si Si1 0.565280 0.137580 0.382302
Si Si2 0.712938 0.359264 0.533937
Si Si3 0.703146 0.860892 0.369583
Si Si4 0.773880 0.555311 0.646008
Si Si5 0.962260 0.356192 0.127181
Si Si6 0.014666 0.946608 0.252197
Si Si7 0.740712 0.502730 0.027798
O O1 0.593112 0.250000 0.315667
O O2 0.607573 0.119143 0.527716
O O3 0.431308 0.125238 0.511483
O O4 0.635984 0.066950 0.183205
O O5 0.701996 0.250000 0.617059
O O6 0.737328 0.445214 0.636926
O O7 0.824646 0.358096 0.288167
O O8 0.732553 0.750000 0.298234
O O9 0.730734 0.884041 0.533604
O O10 0.762049 0.935754 0.175057
O O11 0.910960 0.570059 0.495351
O O12 0.722883 0.573226 0.887740
O O13 0.999035 0.250000 0.142792
O O14 0.998330 0.443456 0.206235
O O15 0.002447 0.378809 0.892780
O O16 0.147132 0.941016 0.147943
#
# Coordination Sequence:
#
# PCOD9162200 Si02
#       7
#     4   4   4   4   4   4   4
#     4  10  21  41  67  91 119 156 203 256 308 358
#     4   9  17  35  60  89 121 153 196 250 303 355
#     4  11  25  45  63  86 123 163 206 255 300 355
#     4  11  24  39  62  92 125 161 201 245 303 364
#     4   9  16  30  57  83 114 161 201 238 297 353
#     4  10  20  35  53  90 126 154 197 249 291 356
#     4  12  23  40  66  90 124 161 204 245 307 362
#
# _framework density 21.850155000000001
#
# number of rings (size 3 to 8) (size 9 to 14) (size 15 to 20)
#    0.000    1.714    2.857    2.571    0.000    4.000 
#    0.000    0.000    0.000    5.143    0.000    0.000 
#    0.000    0.000    0.000    0.000    0.000    0.000 
#
# Total GULP energy -156424.761547 kJ/mol
# GULP energy per Si atom -5586.598627 kJ/mol
# Density = 2.180042 g / cm^3
# Si number density = 21.850155 Si / 1000 Ang^3
#
#
#
# Elastic Constant Matrix: (Units=GPa)
#
#
# Indices 1 2 3 4 5 6 
#
# 1 82.5527 0.5511 21.8371 0.0000 -11.0157 0.0000
# 2 0.5511 70.1619 3.6568 0.0000 -4.5967 0.0000
# 3 21.8371 3.6568 40.6767 0.0000 8.1475 0.0000
# 4 0.0000 0.0000 0.0000 12.8350 0.0000 -5.8424
# 5 -11.0157 -4.5967 8.1475 0.0000 32.8105 0.0000
# 6 0.0000 0.0000 0.0000 -5.8424 0.0000 21.0604
#
#
#
# Elastic Compliance Matrix: (Units=1/GPa)
#
#
# Indices 1 2 3 4 5 6 
#
# 1 0.015874 0.000931 -0.010207 0.000000 0.007994 0.000000
# 2 0.000931 0.014564 -0.002400 0.000000 0.002949 0.000000
# 3 -0.010207 -0.002400 0.032657 0.000000 -0.011873 0.000000
# 4 0.000000 0.000000 0.000000 0.089172 0.000000 0.024737
# 5 0.007994 0.002949 -0.011873 0.000000 0.036523 0.000000
# 6 0.000000 0.000000 0.000000 0.024737 0.000000 0.054345
#
#
# Mechanical properties :
#
#
# Convention : Reuss Voigt Hill
#
# Bulk Modulus (GPa) = 25.16106 27.27571 26.21839
# Shear Modulus (GPa) = 17.87408 24.49761 21.18584
#
# Velocity S-wave (km/s) = 2.86323 3.35201 3.11721
# Velocity P-wave (km/s) = 4.74036 5.24323 4.99812
#
# Compressibility (1/GPa) = 0.03974395
#
# Stress axis : x y z
#
# Youngs Moduli (GPa) = 62.99619 68.66382 30.62094
#
# Poissons Ratio (x) = -0.06393 0.31254
# Poissons Ratio (y) = -0.05865 0.07348
# Poissons Ratio (z) = 0.64299 0.16478
#
# Static dielectric constant tensor:
#      x y z
#    x 1.851320 0.000000 -0.008500 
#    y 0.000000 1.806460 0.000000 
#    z -0.008500 0.000000 1.788780 
# 
# From -- ./inp_files/22107.got.cif
#   From: 2010.05.17/outbox.cif.g08.bks.cpg/sg11_12_cif.got.tgz:22107.got - 2010.06.03 12:22:45.
