data_PCOD9162410
_publ_section_title
;
Structure prediction by ZEFSAII (Michael W. Deem and Ramdas Pophale) SiO2 
 PCOD9162410
Probable space group: P 21/M
;
_chemical_formula_sum "Si O2"
_cell_formula_units_Z 28
_cell_length_a 28.546783
_cell_length_b 7.641819
_cell_length_c 10.460391
_cell_angle_alpha 90.000000
_cell_angle_beta 35.324986
_cell_angle_gamma 90.000000
_cell_volume 1319.441225
_symmetry_space_group_name_H-M "P 21/M"
_symmetry_group_IT_number 11
_symmetry_cell_setting 'monoclinic'
loop_
_space_group_symop_operation_xyz
x,y,z
-x,1/2+y,-z
-x,-y,-z
x,1/2-y,z
loop_
_atom_site_type_symbol
_atom_site_label
_atom_site_fract_x
_atom_site_fract_y
_atom_site_fract_z
Si Si1 0.717258 0.540595 0.657950
Si Si2 0.159527 0.040804 0.400565
Si Si3 0.011290 0.960278 0.124368
Si Si4 0.188327 0.961293 0.809766
Si Si5 0.255488 0.538838 0.932386
Si Si6 0.465957 0.460507 0.936015
Si Si7 0.438363 0.539800 0.523369
O O1 0.713058 0.750000 0.684494
O O2 0.779275 0.471063 0.626831
O O3 0.753409 0.506835 0.437639
O O4 0.625881 0.472051 0.874143
O O5 0.155088 0.250000 0.428999
O O6 0.068514 0.973003 0.624838
O O7 0.197206 0.008288 0.178630
O O8 0.013929 0.750000 0.132425
O O9 0.097758 0.027488 0.981065
O O10 0.000000 0.000000 0.000000
O O11 0.185169 0.750000 0.822564
O O12 0.222312 0.024190 0.869667
O O13 0.258096 0.750000 0.921421
O O14 0.347313 0.474184 0.750006
O O15 0.462974 0.250000 0.930836
O O16 0.500000 0.500000 0.000000
O O17 0.523992 0.526275 0.693739
O O18 0.500000 0.500000 0.500000
O O19 0.432826 0.750000 0.526160
#
# Coordination Sequence:
#
# PCOD9162410 Si02
#       7
#     4   4   4   4   4   4   4
#     4  10  20  35  56  82 110 143 184 228 276 329
#     4  10  21  37  57  82 112 144 183 227 271 325
#     4  10  20  36  59  85 112 144 183 225 272 327
#     4  10  21  37  58  83 113 147 183 226 275 329
#     4  10  22  38  55  81 114 147 185 227 275 329
#     4  10  21  36  55  80 110 144 183 229 278 327
#     4  10  21  38  58  79 109 148 187 229 276 327
#
# _framework density 21.221104
#
# number of rings (size 3 to 8) (size 9 to 14) (size 15 to 20)
#    0.000    2.000    1.429    1.714    0.000    6.286 
#    0.000    0.000    0.000    0.000    0.000    0.000 
#    0.000    0.000    0.000    0.000    0.000    0.000 
#
# Total GULP energy -156482.168323 kJ/mol
# GULP energy per Si atom -5588.648869 kJ/mol
# Density = 2.117280 g / cm^3
# Si number density = 21.221104 Si / 1000 Ang^3
#
#
#
# Elastic Constant Matrix: (Units=GPa)
#
#
# Indices 1 2 3 4 5 6 
#
# 1 50.0548 -8.8921 8.1196 0.0000 -5.7338 0.0000
# 2 -8.8921 38.1188 -6.3775 0.0000 -9.1306 0.0000
# 3 8.1196 -6.3775 132.8059 0.0000 -9.5853 0.0000
# 4 0.0000 0.0000 0.0000 169.8720 0.0000 -14.4002
# 5 -5.7338 -9.1306 -9.5853 0.0000 45.4395 0.0000
# 6 0.0000 0.0000 0.0000 -14.4002 0.0000 20.9296
#
#
#
# Elastic Compliance Matrix: (Units=1/GPa)
#
#
# Indices 1 2 3 4 5 6 
#
# 1 0.021558 0.005791 -0.000771 0.000000 0.003721 0.000000
# 2 0.005791 0.029522 0.001568 0.000000 0.006994 0.000000
# 3 -0.000771 0.001568 0.007787 0.000000 0.001860 0.000000
# 4 0.000000 0.000000 0.000000 0.006251 0.000000 0.004301
# 5 0.003721 0.006994 0.001860 0.000000 0.024275 0.000000
# 6 0.000000 0.000000 0.000000 0.004301 0.000000 0.050739
#
#
# Mechanical properties :
#
#
# Convention : Reuss Voigt Hill
#
# Bulk Modulus (GPa) = 13.88040 22.96437 18.42239
# Shear Modulus (GPa) = 33.11923 62.45687 47.78805
#
# Velocity S-wave (km/s) = 3.95482 5.43097 4.75058
# Velocity P-wave (km/s) = 5.23538 7.08323 6.22822
#
# Compressibility (1/GPa) = 0.07204403
#
# Stress axis : x y z
#
# Youngs Moduli (GPa) = 46.38578 33.87261 128.42683
#
# Poissons Ratio (x) = -0.19617 0.09906
# Poissons Ratio (y) = -0.26864 -0.20143
# Poissons Ratio (z) = 0.03578 -0.05313
#
# Static dielectric constant tensor:
#      x y z
#    x 1.737070 0.000000 -0.032460 
#    y 0.000000 1.805650 0.000000 
#    z -0.032460 0.000000 1.739270 
# 
# From -- ./inp_files/26188.got.cif
#   From: 2010.05.17/outbox.cif.g08.bks.cpg/sg11_14_cif.got.tgz:26188.got - 2010.06.03 12:22:45.
