data_PCOD9162476
_publ_section_title
;
Structure prediction by ZEFSAII (Michael W. Deem and Ramdas Pophale) SiO2 
 PCOD9162476
Probable space group: P 21/M
;
_chemical_formula_sum "Si O2"
_cell_formula_units_Z 32
_cell_length_a 12.781399
_cell_length_b 22.723727
_cell_length_c 9.504261
_cell_angle_alpha 90.000000
_cell_angle_beta 30.319997
_cell_angle_gamma 90.000000
_cell_volume 1393.543546
_symmetry_space_group_name_H-M "P 21/M"
_symmetry_group_IT_number 11
_symmetry_cell_setting 'monoclinic'
loop_
_space_group_symop_operation_xyz
x,y,z
-x,1/2+y,-z
-x,-y,-z
x,1/2-y,z
loop_
_atom_site_type_symbol
_atom_site_label
_atom_site_fract_x
_atom_site_fract_y
_atom_site_fract_z
Si Si1 0.450773 0.317546 0.944590
Si Si2 0.831035 0.127480 0.650053
Si Si3 0.850032 0.819023 0.939136
Si Si4 0.650445 0.459307 0.228930
Si Si5 0.070295 0.315864 0.603482
Si Si6 0.049170 0.589279 0.903444
Si Si7 0.270415 0.079006 0.513425
Si Si8 0.054725 0.516144 0.625118
O O1 0.534456 0.250000 0.834269
O O2 0.605835 0.360535 0.846451
O O3 0.363792 0.337762 0.892650
O O4 0.250600 0.312903 0.276655
O O5 0.974250 0.166358 0.379568
O O6 0.876895 0.153124 0.750900
O O7 0.912079 0.060254 0.542984
O O8 0.834145 0.750000 0.982547
O O9 0.931077 0.853544 0.980593
O O10 0.500000 0.500000 0.500000
O O11 0.504526 0.426689 0.286236
O O12 0.767117 0.413184 0.196463
O O13 0.824692 0.495991 0.939718
O O14 0.019806 0.250000 0.708746
O O15 0.173188 0.357464 0.599349
O O16 0.124715 0.557655 0.674682
O O17 0.867127 0.554805 0.196534
O O18 0.207498 0.039242 0.453637
#
# Coordination Sequence:
#
# PCOD9162476 Si02
#       8
#     4   4   4   4   4   4   4   4
#     4   9  18  36  61  83 111 158 200 236 294 356
#     4  10  20  37  62  85 116 153 192 242 299 345
#     4   9  19  34  54  87 120 144 193 252 297 348
#     4  11  19  37  61  80 118 159 192 230 293 357
#     4  10  23  41  58  83 118 157 200 240 286 347
#     4  10  20  35  56  88 115 154 195 235 298 358
#     4  11  22  37  58  82 119 158 196 242 288 348
#     4  10  21  36  59  94 114 144 196 245 296 356
#
# _framework density 22.963042000000002
#
# number of rings (size 3 to 8) (size 9 to 14) (size 15 to 20)
#    0.000    2.000    2.500    2.625    0.000    8.000 
#    0.000    1.875    0.000    0.000    0.000    0.000 
#    0.000    0.000    0.000    0.000    0.000    0.000 
#
# Total GULP energy -178541.949053 kJ/mol
# GULP energy per Si atom -5579.435908 kJ/mol
# Density = 2.291078 g / cm^3
# Si number density = 22.963042 Si / 1000 Ang^3
#
#
#
# Elastic Constant Matrix: (Units=GPa)
#
#
# Indices 1 2 3 4 5 6 
#
# 1 123.4460 58.0031 42.1609 0.0000 -36.9720 0.0000
# 2 58.0031 92.8238 27.5694 0.0000 -20.6280 0.0000
# 3 42.1609 27.5694 77.7235 0.0000 -34.7903 0.0000
# 4 0.0000 0.0000 0.0000 25.7086 0.0000 -6.8016
# 5 -36.9720 -20.6280 -34.7903 0.0000 42.1845 0.0000
# 6 0.0000 0.0000 0.0000 -6.8016 0.0000 35.3186
#
#
#
# Elastic Compliance Matrix: (Units=1/GPa)
#
#
# Indices 1 2 3 4 5 6 
#
# 1 0.014110 -0.006561 -0.001946 0.000000 0.007554 0.000000
# 2 -0.006561 0.015478 -0.001771 0.000000 0.000358 0.000000
# 3 -0.001946 -0.001771 0.021240 0.000000 0.014945 0.000000
# 4 0.000000 0.000000 0.000000 0.040986 0.000000 0.007893
# 5 0.007554 0.000358 0.014945 0.000000 0.042827 0.000000
# 6 0.000000 0.000000 0.000000 0.007893 0.000000 0.029834
#
#
# Mechanical properties :
#
#
# Convention : Reuss Voigt Hill
#
# Bulk Modulus (GPa) = 33.03265 61.05113 47.04189
# Shear Modulus (GPa) = 25.62526 31.72634 28.67580
#
# Velocity S-wave (km/s) = 3.34419 3.72106 3.53764
# Velocity P-wave (km/s) = 5.41551 6.71611 6.10057
#
# Compressibility (1/GPa) = 0.03027308
#
# Stress axis : x y z
#
# Youngs Moduli (GPa) = 70.87066 64.60675 47.08201
#
# Poissons Ratio (x) = 0.42385 0.09161
# Poissons Ratio (y) = 0.46495 0.08340
# Poissons Ratio (z) = 0.13789 0.11444
#
# Static dielectric constant tensor:
#      x y z
#    x 1.983370 0.000000 0.003730 
#    y 0.000000 1.933950 0.000000 
#    z 0.003730 0.000000 1.867170 
# 
# From -- ./inp_files/36566.got.cif
#   From: 2010.05.17/outbox.cif.g08.bks.cpg/sg11_19_cif.got.tgz:36566.got - 2010.06.03 12:22:45.
