data_PCOD9162802
_publ_section_title
;
Structure prediction by ZEFSAII (Michael W. Deem and Ramdas Pophale) SiO2 
 PCOD9162802
Probable space group: P 21/M
;
_chemical_formula_sum "Si O2"
_cell_formula_units_Z 22
_cell_length_a 7.335547
_cell_length_b 19.927249
_cell_length_c 11.868903
_cell_angle_alpha 90.000000
_cell_angle_beta 146.371753
_cell_angle_gamma 90.000000
_cell_volume 960.826653
_symmetry_space_group_name_H-M "P 21/M"
_symmetry_group_IT_number 11
_symmetry_cell_setting 'monoclinic'
loop_
_space_group_symop_operation_xyz
x,y,z
-x,1/2+y,-z
-x,-y,-z
x,1/2-y,z
loop_
_atom_site_type_symbol
_atom_site_label
_atom_site_fract_x
_atom_site_fract_y
_atom_site_fract_z
Si Si1 0.414927 0.250000 0.752670
Si Si2 0.596174 0.394975 0.262202
Si Si3 0.719389 0.250000 0.321462
Si Si4 0.625229 0.606474 0.363204
Si Si5 0.326215 0.101455 0.366966
Si Si6 0.020151 0.250000 0.230620
Si Si7 0.777223 0.487245 0.994930
O O1 0.481854 0.181942 0.719514
O O2 0.014562 0.250000 0.567249
O O3 0.670481 0.250000 0.986486
O O4 0.506375 0.316740 0.211897
O O5 0.980523 0.397775 0.432756
O O6 0.531839 0.414364 0.359912
O O7 0.391260 0.441219 0.071274
O O8 0.928501 0.250000 0.314451
O O9 0.501390 0.588269 0.424554
O O10 0.503492 0.560872 0.198904
O O11 0.212457 0.180068 0.305670
O O12 0.005203 0.053522 0.196688
O O13 0.000000 0.500000 0.000000
#
# Coordination Sequence:
#
# PCOD9162802 Si02
#       7
#     2   4   2   4   4   2   4
#     4  10  20  35  66  89 117 158 207 247 306 361
#     4  10  22  40  63  91 125 161 206 254 306 368
#     4  10  21  42  59  91 121 156 210 254 305 373
#     4  11  21  42  63  90 127 164 202 255 303 367
#     4  11  22  39  67  89 124 166 204 253 312 362
#     4  12  19  39  67  88 118 168 199 257 317 350
#     4  10  23  40  61  96 126 164 207 251 305 367
#
# _framework density 22.896948999999999
#
# number of rings (size 3 to 8) (size 9 to 14) (size 15 to 20)
#    0.000    1.455    5.455    1.091    0.000    3.636 
#    0.000   10.909    0.000    0.000    0.000    0.000 
#    0.000    0.000    0.000    0.000    0.000    0.000 
#
# Total GULP energy -122862.541206 kJ/mol
# GULP energy per Si atom -5584.660964 kJ/mol
# Density = 2.284483 g / cm^3
# Si number density = 22.896949 Si / 1000 Ang^3
#
#
#
# Elastic Constant Matrix: (Units=GPa)
#
#
# Indices 1 2 3 4 5 6 
#
# 1 64.0825 -15.9040 -13.9673 0.0000 -11.3518 0.0000
# 2 -15.9040 95.7950 20.8962 0.0000 0.0909 0.0000
# 3 -13.9673 20.8962 64.0918 0.0000 -4.9615 0.0000
# 4 0.0000 0.0000 0.0000 11.6428 0.0000 3.8015
# 5 -11.3518 0.0909 -4.9615 0.0000 18.0492 0.0000
# 6 0.0000 0.0000 0.0000 3.8015 0.0000 25.3639
#
#
#
# Elastic Compliance Matrix: (Units=1/GPa)
#
#
# Indices 1 2 3 4 5 6 
#
# 1 0.019559 0.002235 0.004583 0.000000 0.013550 0.000000
# 2 0.002235 0.011514 -0.003232 0.000000 0.000459 0.000000
# 3 0.004583 -0.003232 0.018268 0.000000 0.007920 0.000000
# 4 0.000000 0.000000 0.000000 0.090309 0.000000 -0.013535
# 5 0.013550 0.000459 0.007920 0.000000 0.066101 0.000000
# 6 0.000000 0.000000 0.000000 -0.013535 0.000000 0.041455
#
#
# Mechanical properties :
#
#
# Convention : Reuss Voigt Hill
#
# Bulk Modulus (GPa) = 17.69521 22.89099 20.29310
# Shear Modulus (GPa) = 19.31460 26.54082 22.92771
#
# Velocity S-wave (km/s) = 2.90754 3.40831 3.16783
# Velocity P-wave (km/s) = 4.36081 5.05053 4.71829
#
# Compressibility (1/GPa) = 0.05651247
#
# Stress axis : x y z
#
# Youngs Moduli (GPa) = 51.12857 86.84751 54.74043
#
# Poissons Ratio (x) = -0.19407 -0.25086
# Poissons Ratio (y) = -0.11425 0.17690
# Poissons Ratio (z) = -0.23431 0.28065
#
# Static dielectric constant tensor:
#      x y z
#    x 1.857420 0.000000 0.004130 
#    y 0.000000 1.970080 0.000000 
#    z 0.004130 0.000000 1.866210 
# 
# From -- ./inp_files/32326.got.cif
#   From: 2010.05.17/outbox.cif.g08.bks.cpg/sg11_17_cif.got.tgz:32326.got - 2010.06.03 12:22:45.
