data_PCOD9162448
_publ_section_title
;
Structure prediction by ZEFSAII (Michael W. Deem and Ramdas Pophale) SiO2 
 PCOD9162448
Probable space group: P 21/M
;
_chemical_formula_sum "Si O2"
_cell_formula_units_Z 28
_cell_length_a 21.862417
_cell_length_b 8.389619
_cell_length_c 16.254591
_cell_angle_alpha 90.000000
_cell_angle_beta 152.006894
_cell_angle_gamma 90.000000
_cell_volume 1399.353559
_symmetry_space_group_name_H-M "P 21/M"
_symmetry_group_IT_number 11
_symmetry_cell_setting 'monoclinic'
loop_
_space_group_symop_operation_xyz
x,y,z
-x,1/2+y,-z
-x,-y,-z
x,1/2-y,z
loop_
_atom_site_type_symbol
_atom_site_label
_atom_site_fract_x
_atom_site_fract_y
_atom_site_fract_z
Si Si1 0.079923 0.443937 0.290451
Si Si2 0.786192 0.064286 0.216172
Si Si3 0.403202 0.559315 0.456055
Si Si4 0.955013 0.941850 0.565580
Si Si5 0.491170 0.065486 0.083088
Si Si6 0.363333 0.440143 0.583892
Si Si7 0.111445 0.942425 0.070345
O O1 0.082770 0.250000 0.292659
O O2 0.212933 0.499011 0.405200
O O3 0.080679 0.492149 0.385677
O O4 0.948351 0.492784 0.088361
O O5 0.748421 0.250000 0.165831
O O6 0.893156 0.028180 0.273551
O O7 0.865954 0.031745 0.394446
O O8 0.657596 0.959812 0.064928
O O9 0.500000 0.500000 0.500000
O O10 0.402533 0.750000 0.452909
O O11 0.433525 0.507360 0.585945
O O12 0.256267 0.498681 0.261525
O O13 0.934854 0.750000 0.531913
O O14 0.526653 0.250000 0.122325
O O15 0.577171 0.983963 0.256518
O O16 0.500000 0.000000 0.000000
O O17 0.364229 0.250000 0.578018
O O18 0.115649 0.750000 0.078310
O O19 0.000000 0.000000 0.000000
#
# Coordination Sequence:
#
# PCOD9162448 Si02
#       7
#     4   4   4   4   4   4   4
#     4   9  18  34  59  87 113 148 196 245 298 358
#     4  10  20  35  56  83 117 157 201 247 301 358
#     4  11  24  41  63  92 129 170 215 264 319 380
#     4   9  18  34  57  84 116 155 199 248 297 356
#     4  12  25  41  61  87 122 160 206 256 309 374
#     4  11  22  39  64  90 122 162 205 257 316 376
#     4  10  20  37  61  88 117 154 199 251 306 363
#
# _framework density 20.009238
#
# number of rings (size 3 to 8) (size 9 to 14) (size 15 to 20)
#    0.000    1.714    1.429    3.429    0.000    3.429 
#    0.000    4.286    0.000    0.000    0.000    0.000 
#    0.000    0.000    0.000    0.000    0.000    0.000 
#
# Total GULP energy -156316.427655 kJ/mol
# GULP energy per Si atom -5582.729559 kJ/mol
# Density = 1.996370 g / cm^3
# Si number density = 20.009238 Si / 1000 Ang^3
#
#
#
# Elastic Constant Matrix: (Units=GPa)
#
#
# Indices 1 2 3 4 5 6 
#
# 1 129.9299 22.2523 40.6848 0.0000 -11.1983 0.0000
# 2 22.2523 41.2848 10.1342 0.0000 -1.3929 0.0000
# 3 40.6848 10.1342 80.4998 0.0000 3.2192 0.0000
# 4 0.0000 0.0000 0.0000 23.9183 0.0000 -0.3103
# 5 -11.1983 -1.3929 3.2192 0.0000 26.1373 0.0000
# 6 0.0000 0.0000 0.0000 -0.3103 0.0000 28.7978
#
#
#
# Elastic Compliance Matrix: (Units=1/GPa)
#
#
# Indices 1 2 3 4 5 6 
#
# 1 0.010370 -0.004224 -0.004902 0.000000 0.004822 0.000000
# 2 -0.004224 0.026792 -0.001229 0.000000 -0.000230 0.000000
# 3 -0.004902 -0.001229 0.015216 0.000000 -0.004040 0.000000
# 4 0.000000 0.000000 0.000000 0.041815 0.000000 0.000451
# 5 0.004822 -0.000230 -0.004040 0.000000 0.040811 0.000000
# 6 0.000000 0.000000 0.000000 0.000451 0.000000 0.034730
#
#
# Mechanical properties :
#
#
# Convention : Reuss Voigt Hill
#
# Bulk Modulus (GPa) = 31.57650 44.20634 37.89142
# Shear Modulus (GPa) = 24.87552 27.68024 26.27788
#
# Velocity S-wave (km/s) = 3.52973 3.72341 3.62786
# Velocity P-wave (km/s) = 5.69449 6.37385 6.04372
#
# Compressibility (1/GPa) = 0.03166912
#
# Stress axis : x y z
#
# Youngs Moduli (GPa) = 96.42788 37.32406 65.71879
#
# Poissons Ratio (x) = 0.15764 0.32218
# Poissons Ratio (y) = 0.40727 0.08078
# Poissons Ratio (z) = 0.47272 0.04588
#
# Static dielectric constant tensor:
#      x y z
#    x 1.705690 0.000000 -0.005100 
#    y 0.000000 1.742330 0.000000 
#    z -0.005100 0.000000 1.722100 
# 
# From -- ./inp_files/54590.got.cif
#   From: 2010.05.17/outbox.cif.g08.bks.cpg/sg11_28_cif.got.tgz:54590.got - 2010.06.03 12:22:45.
