data_PCOD9162982
_publ_section_title
;
Structure prediction by ZEFSAII (Michael W. Deem and Ramdas Pophale) SiO2 
 PCOD9162982
Probable space group: P 21/M
;
_chemical_formula_sum "Si O2"
_cell_formula_units_Z 32
_cell_length_a 19.672297
_cell_length_b 16.247287
_cell_length_c 14.779015
_cell_angle_alpha 90.000000
_cell_angle_beta 160.969661
_cell_angle_gamma 90.000000
_cell_volume 1540.247906
_symmetry_space_group_name_H-M "P 21/M"
_symmetry_group_IT_number 11
_symmetry_cell_setting 'monoclinic'
loop_
_space_group_symop_operation_xyz
x,y,z
-x,1/2+y,-z
-x,-y,-z
x,1/2-y,z
loop_
_atom_site_type_symbol
_atom_site_label
_atom_site_fract_x
_atom_site_fract_y
_atom_site_fract_z
Si Si1 0.564315 0.650422 0.963600
Si Si2 0.648817 0.425114 0.479826
Si Si3 0.359893 0.382916 0.563918
Si Si4 0.915318 0.844460 0.938547
Si Si5 0.972513 0.149124 0.409271
Si Si6 0.511919 0.150272 0.493006
Si Si7 0.440139 0.650768 0.005888
Si Si8 0.778542 0.343068 0.988905
O O1 0.553544 0.750000 0.946150
O O2 0.443703 0.614523 0.727066
O O3 0.473569 0.622263 0.946024
O O4 0.807280 0.626058 0.271667
O O5 0.623027 0.522075 0.440080
O O6 0.532986 0.389313 0.421953
O O7 0.890519 0.401449 0.795873
O O8 0.158572 0.349507 0.258747
O O9 0.379783 0.372187 0.696049
O O10 0.562650 0.339148 0.775519
O O11 0.973292 0.750000 0.031892
O O12 0.709804 0.866506 0.738279
O O13 0.967428 0.250000 0.398286
O O14 0.778229 0.122014 0.225967
O O15 0.936307 0.119014 0.260417
O O16 0.529851 0.250000 0.509439
O O17 0.697914 0.119389 0.793506
O O18 0.436108 0.750000 0.998103
O O19 0.849472 0.250000 0.058562
#
# Coordination Sequence:
#
# PCOD9162982 Si02
#       8
#     4   4   4   4   4   4   4   4
#     4  10  21  35  52  77 107 144 188 224 263 326
#     4  12  24  36  52  82 121 149 175 219 277 338
#     4  10  20  36  57  83 112 141 179 231 285 327
#     4  10  21  39  61  82 107 144 190 230 265 320
#     4   8  15  31  55  80 102 127 173 232 274 308
#     4   9  19  36  58  80 105 142 182 222 270 323
#     4   9  18  36  60  80 103 142 190 236 273 309
#     4   8  15  32  57  81 103 134 183 234 273 317
#
# _framework density 20.775877000000001
#
# number of rings (size 3 to 8) (size 9 to 14) (size 15 to 20)
#    0.000    2.500    0.000    4.125    0.000    4.500 
#    0.000   10.000    0.000    0.000    0.000    0.000 
#    0.000    0.000    0.000    0.000    0.000    0.000 
#
# Total GULP energy -178646.772183 kJ/mol
# GULP energy per Si atom -5582.711631 kJ/mol
# Density = 2.072859 g / cm^3
# Si number density = 20.775877 Si / 1000 Ang^3
#
#
#
# Elastic Constant Matrix: (Units=GPa)
#
#
# Indices 1 2 3 4 5 6 
#
# 1 118.6203 22.4882 46.9779 0.0000 -23.1528 0.0000
# 2 22.4882 40.8419 12.0632 0.0000 -1.9376 0.0000
# 3 46.9779 12.0632 104.2809 0.0000 -21.5025 0.0000
# 4 0.0000 0.0000 0.0000 -809.6315 0.0000 618.1506
# 5 -23.1528 -1.9376 -21.5025 0.0000 36.8241 0.0000
# 6 0.0000 0.0000 0.0000 618.1506 0.0000 -461.8835
#
#
#
# Elastic Compliance Matrix: (Units=1/GPa)
#
#
# Indices 1 2 3 4 5 6 
#
# 1 0.011865 -0.005199 -0.003708 0.000000 0.005021 0.000000
# 2 -0.005199 0.027635 -0.001397 0.000000 -0.002631 0.000000
# 3 -0.003708 -0.001397 0.012421 0.000000 0.004848 0.000000
# 4 0.000000 0.000000 0.000000 0.056640 0.000000 0.075803
# 5 0.005021 -0.002631 0.004848 0.000000 0.033005 0.000000
# 6 0.000000 0.000000 0.000000 0.075803 0.000000 0.099284
#
#
# Mechanical properties :
#
#
# Convention : Reuss Voigt Hill
#
# Bulk Modulus (GPa) = 31.93655 47.42240 39.67948
# Shear Modulus (GPa) = 18.38932 -234.79060 -108.20064
#
# Velocity S-wave (km/s) = 2.97834 -10.64220 -7.22447
# Velocity P-wave (km/s) = 5.21849 11.31960 7.10284
#
# Compressibility (1/GPa) = 0.03131209
#
# Stress axis : x y z
#
# Youngs Moduli (GPa) = 84.28500 36.18560 80.50711
#
# Poissons Ratio (x) = 0.18814 0.29853
# Poissons Ratio (y) = 0.43823 0.11247
# Poissons Ratio (z) = 0.31254 0.05055
#
# Static dielectric constant tensor:
#      x y z
#    x 1.754330 0.000000 0.003940 
#    y 0.000000 1.741600 0.000000 
#    z 0.003940 0.000000 1.739840 
# 
# From -- ./inp_files/55039.got.cif
#   From: 2010.05.17/outbox.cif.g08.bks.cpg/sg11_28_cif.got.tgz:55039.got - 2010.06.03 12:22:45.
