data_PCOD9162700
_publ_section_title
;
Structure prediction by ZEFSAII (Michael W. Deem and Ramdas Pophale) SiO2 
 PCOD9162700
Probable space group: P 21/M
;
_chemical_formula_sum "Si O2"
_cell_formula_units_Z 32
_cell_length_a 12.795144
_cell_length_b 7.926847
_cell_length_c 29.356863
_cell_angle_alpha 90.000000
_cell_angle_beta 149.719391
_cell_angle_gamma 90.000000
_cell_volume 1501.373076
_symmetry_space_group_name_H-M "P 21/M"
_symmetry_group_IT_number 11
_symmetry_cell_setting 'monoclinic'
loop_
_space_group_symop_operation_xyz
x,y,z
-x,1/2+y,-z
-x,-y,-z
x,1/2-y,z
loop_
_atom_site_type_symbol
_atom_site_label
_atom_site_fract_x
_atom_site_fract_y
_atom_site_fract_z
Si Si1 0.241845 0.453772 0.174431
Si Si2 0.445744 0.047003 0.531617
Si Si3 0.136150 0.052292 0.796197
Si Si4 0.800739 0.056498 0.981594
Si Si5 0.992724 0.044908 0.347801
Si Si6 0.446328 0.551807 0.780110
Si Si7 0.565100 0.560633 0.974667
Si Si8 0.790370 0.046385 0.732554
O O1 0.235420 0.250000 0.168051
O O2 0.444951 0.517634 0.224530
O O3 0.236544 0.495935 0.225528
O O4 0.032642 0.516219 0.070293
O O5 0.453328 0.250000 0.536557
O O6 0.609459 0.983070 0.630632
O O7 0.208384 0.995597 0.452490
O O8 0.500000 0.000000 0.500000
O O9 0.191179 0.250000 0.821550
O O10 0.008976 0.993652 0.792369
O O11 0.997765 0.027346 0.699681
O O12 0.343992 0.948610 0.866222
O O13 0.805773 0.250000 0.968471
O O14 0.625782 0.966738 0.885799
O O15 0.722245 0.047889 0.004369
O O16 0.986769 0.250000 0.342728
O O17 0.776880 0.982285 0.288642
O O18 0.410368 0.750000 0.759304
O O19 0.646695 0.750000 0.007236
O O20 0.500000 0.500000 0.000000
O O21 0.791473 0.250000 0.730864
#
# Coordination Sequence:
#
# PCOD9162700 Si02
#       8
#     4   4   4   4   4   4   4   4
#     4  10  23  40  58  82 115 153 197 242 289 344
#     4  10  20  36  58  87 117 150 189 235 290 351
#     4  11  21  35  56  83 116 149 187 235 285 343
#     4  11  22  37  58  85 113 150 196 242 288 343
#     4  10  20  35  59  86 114 148 186 232 291 346
#     4  10  21  39  60  85 115 152 196 242 289 339
#     4  12  24  37  53  79 116 155 192 235 288 345
#     4  10  22  38  57  84 118 152 190 239 291 342
#
# _framework density 21.313821999999998
#
# number of rings (size 3 to 8) (size 9 to 14) (size 15 to 20)
#    0.000    1.500    2.500    3.000    0.000    5.000 
#    0.000    0.625    0.000    0.000    0.000    0.000 
#    0.000    0.000    0.000    0.000    0.000    0.000 
#
# Total GULP energy -178769.037654 kJ/mol
# GULP energy per Si atom -5586.532427 kJ/mol
# Density = 2.126531 g / cm^3
# Si number density = 21.313822 Si / 1000 Ang^3
#
#
#
# Elastic Constant Matrix: (Units=GPa)
#
#
# Indices 1 2 3 4 5 6 
#
# 1 133.7829 0.4194 35.9439 0.0000 21.5084 0.0000
# 2 0.4194 29.7617 0.1037 0.0000 4.7249 0.0000
# 3 35.9439 0.1037 96.2413 0.0000 16.7592 0.0000
# 4 0.0000 0.0000 0.0000 18.9497 0.0000 -4.0229
# 5 21.5084 4.7249 16.7592 0.0000 30.8552 0.0000
# 6 0.0000 0.0000 0.0000 -4.0229 0.0000 19.1155
#
#
#
# Elastic Compliance Matrix: (Units=1/GPa)
#
#
# Indices 1 2 3 4 5 6 
#
# 1 0.008939 0.000675 -0.002470 0.000000 -0.004993 0.000000
# 2 0.000675 0.034571 0.000789 0.000000 -0.006193 0.000000
# 3 -0.002470 0.000789 0.012186 0.000000 -0.005018 0.000000
# 4 0.000000 0.000000 0.000000 0.055239 0.000000 0.011625
# 5 -0.004993 -0.006193 -0.005018 0.000000 0.039564 0.000000
# 6 0.000000 0.000000 0.000000 0.011625 0.000000 0.054760
#
#
# Mechanical properties :
#
#
# Convention : Reuss Voigt Hill
#
# Bulk Modulus (GPa) = 18.62710 36.96889 27.79799
# Shear Modulus (GPa) = 22.20591 28.67200 25.43895
#
# Velocity S-wave (km/s) = 3.23128 3.67172 3.45852
# Velocity P-wave (km/s) = 4.76235 5.94626 5.38693
#
# Compressibility (1/GPa) = 0.05368523
#
# Stress axis : x y z
#
# Youngs Moduli (GPa) = 111.86961 28.92584 82.06182
#
# Poissons Ratio (x) = -0.01953 0.20267
# Poissons Ratio (y) = -0.07555 -0.06475
# Poissons Ratio (z) = 0.27629 -0.02282
#
# Static dielectric constant tensor:
#      x y z
#    x 1.782820 0.000000 0.007730 
#    y 0.000000 1.754260 0.000000 
#    z 0.007730 0.000000 1.821100 
# 
# From -- ./inp_files/73035.got.cif
#   From: 2010.05.17/outbox.cif.g08.bks.cpg/sg11_37_cif.got.tgz:73035.got - 2010.06.03 12:22:45.
