data_PCOD9162874
_publ_section_title
;
Structure prediction by ZEFSAII (Michael W. Deem and Ramdas Pophale) SiO2 
 PCOD9162874
Probable space group: P 21/M
;
_chemical_formula_sum "Si O2"
_cell_formula_units_Z 20
_cell_length_a 13.988405
_cell_length_b 7.703956
_cell_length_c 19.079637
_cell_angle_alpha 90.000000
_cell_angle_beta 27.348125
_cell_angle_gamma 90.000000
_cell_volume 944.580767
_symmetry_space_group_name_H-M "P 21/M"
_symmetry_group_IT_number 11
_symmetry_cell_setting 'monoclinic'
loop_
_space_group_symop_operation_xyz
x,y,z
-x,1/2+y,-z
-x,-y,-z
x,1/2-y,z
loop_
_atom_site_type_symbol
_atom_site_label
_atom_site_fract_x
_atom_site_fract_y
_atom_site_fract_z
Si Si1 0.164674 0.543154 0.332361
Si Si2 0.371243 0.036855 0.932066
Si Si3 0.971939 0.955093 0.734423
Si Si4 0.566151 0.459227 0.535791
Si Si5 0.763303 0.541371 0.134913
O O1 0.176680 0.750000 0.318891
O O2 0.395221 0.478811 0.202119
O O3 0.090885 0.476006 0.305239
O O4 0.000000 0.500000 0.500000
O O5 0.373649 0.250000 0.930760
O O6 0.299700 0.979929 0.901520
O O7 0.206441 0.976148 0.097669
O O8 0.983858 0.750000 0.741730
O O9 0.202119 0.026976 0.599098
O O10 0.500000 0.500000 0.500000
O O11 0.571069 0.250000 0.539735
O O12 0.396596 0.524842 0.702045
O O13 0.745614 0.750000 0.145067
O O14 0.000000 0.500000 0.000000
#
# Coordination Sequence:
#
# PCOD9162874 Si02
#       5
#     4   4   4   4   4
#     4  11  22  37  57  82 111 145 182 223 268 322
#     4   9  19  36  58  80 107 142 180 221 272 326
#     4  10  20  37  59  82 108 142 180 225 277 325
#     4  10  21  36  57  82 111 145 183 225 272 323
#     4  10  20  36  56  80 108 142 181 222 268 322
#
# _framework density 21.173413
#
# number of rings (size 3 to 8) (size 9 to 14) (size 15 to 20)
#    0.000    2.000    0.000    3.600    0.000    6.400 
#    0.000    6.000    0.000    0.000    0.000    0.000 
#    0.000    0.000    0.000    0.000    0.000    0.000 
#
# Total GULP energy -111799.070742 kJ/mol
# GULP energy per Si atom -5589.953537 kJ/mol
# Density = 2.112522 g / cm^3
# Si number density = 21.173413 Si / 1000 Ang^3
#
#
#
# Elastic Constant Matrix: (Units=GPa)
#
#
# Indices 1 2 3 4 5 6 
#
# 1 208.8887 -18.3051 143.5344 0.0000 -6.1468 0.0000
# 2 -18.3051 29.3122 0.4201 0.0000 -2.8874 0.0000
# 3 143.5344 0.4201 262.0755 0.0000 -2.5159 0.0000
# 4 0.0000 0.0000 0.0000 19.5844 0.0000 -0.6512
# 5 -6.1468 -2.8874 -2.5159 0.0000 49.5855 0.0000
# 6 0.0000 0.0000 0.0000 -0.6512 0.0000 30.0882
#
#
#
# Elastic Compliance Matrix: (Units=1/GPa)
#
#
# Indices 1 2 3 4 5 6 
#
# 1 0.008498 0.005486 -0.004652 0.000000 0.001137 0.000000
# 2 0.005486 0.037854 -0.003039 0.000000 0.002730 0.000000
# 3 -0.004652 -0.003039 0.006364 0.000000 -0.000431 0.000000
# 4 0.000000 0.000000 0.000000 0.051098 0.000000 0.001106
# 5 0.001137 0.002730 -0.000431 0.000000 0.020445 0.000000
# 6 0.000000 0.000000 0.000000 0.001106 0.000000 0.033260
#
#
# Mechanical properties :
#
#
# Convention : Reuss Voigt Hill
#
# Bulk Modulus (GPa) = 20.70169 83.50836 52.10502
# Shear Modulus (GPa) = 28.08499 44.82675 36.45587
#
# Velocity S-wave (km/s) = 3.64597 4.60621 4.15393
# Velocity P-wave (km/s) = 5.24619 8.23501 6.90427
#
# Compressibility (1/GPa) = 0.04830525
#
# Stress axis : x y z
#
# Youngs Moduli (GPa) = 117.67462 26.41754 157.12630
#
# Poissons Ratio (x) = -0.14492 0.73097
# Poissons Ratio (y) = -0.64551 0.47748
# Poissons Ratio (z) = 0.54743 0.08028
#
# Static dielectric constant tensor:
#      x y z
#    x 1.693070 0.000000 -0.007430 
#    y 0.000000 1.804990 0.000000 
#    z -0.007430 0.000000 1.745700 
# 
# From -- ./inp_files/15918.got.cif
#   From: 2010.05.17/outbox.cif.g08.bks.cpg/sg11_8_cif.got.tgz:15918.got - 2010.06.03 12:22:45.
