data_PCOD9162915
_publ_section_title
;
Structure prediction by ZEFSAII (Michael W. Deem and Ramdas Pophale) SiO2 
 PCOD9162915
Probable space group: P 21/M
;
_chemical_formula_sum "Si O2"
_cell_formula_units_Z 28
_cell_length_a 23.410658
_cell_length_b 8.974643
_cell_length_c 15.197463
_cell_angle_alpha 90.000000
_cell_angle_beta 26.671267
_cell_angle_gamma 90.000000
_cell_volume 1433.254707
_symmetry_space_group_name_H-M "P 21/M"
_symmetry_group_IT_number 11
_symmetry_cell_setting 'monoclinic'
loop_
_space_group_symop_operation_xyz
x,y,z
-x,1/2+y,-z
-x,-y,-z
x,1/2-y,z
loop_
_atom_site_type_symbol
_atom_site_label
_atom_site_fract_x
_atom_site_fract_y
_atom_site_fract_z
Si Si1 0.636575 0.925205 0.051980
Si Si2 0.066068 0.072344 0.322232
Si Si3 0.616437 0.927423 0.564643
Si Si4 0.966291 0.078228 0.820718
Si Si5 0.118459 0.070920 0.890937
Si Si6 0.254667 0.080764 0.428985
Si Si7 0.615965 0.424288 0.891799
O O1 0.613675 0.750000 0.073693
O O2 0.517714 0.993701 0.269135
O O3 0.780319 0.946007 0.887361
O O4 0.634374 0.002659 0.960207
O O5 0.038052 0.250000 0.359815
O O6 0.026939 0.991719 0.285690
O O7 0.000000 0.000000 0.500000
O O8 0.600958 0.750000 0.574755
O O9 0.743090 0.974119 0.337820
O O10 0.653293 0.953280 0.616438
O O11 0.922292 0.250000 0.876363
O O12 0.110337 0.080542 0.659467
O O13 0.889142 0.982876 0.997636
O O14 0.108292 0.250000 0.898641
O O15 0.000000 0.000000 0.000000
O O16 0.281762 0.250000 0.359727
O O17 0.268607 0.964701 0.331465
O O18 0.597221 0.250000 0.926743
O O19 0.500000 0.500000 0.000000
#
# Coordination Sequence:
#
# PCOD9162915 Si02
#       7
#     4   4   4   4   4   4   4
#     4  11  24  41  61  87 122 161 205 258 311 365
#     4  11  25  45  67  94 126 164 211 262 311 370
#     4  10  21  38  60  88 124 161 200 249 306 366
#     4  11  23  41  65  93 125 164 210 259 312 371
#     4  11  22  39  63  94 130 167 208 259 315 373
#     4  10  20  36  56  85 123 157 197 250 303 360
#     4  12  23  34  53  83 118 156 199 244 302 370
#
# _framework density 19.535955000000001
#
# number of rings (size 3 to 8) (size 9 to 14) (size 15 to 20)
#    0.000    1.143    2.857    3.857    0.000    8.000 
#    0.000    0.714    0.000    0.000    0.000    0.000 
#    0.000    0.000    0.000    0.000    0.000    0.000 
#
# Total GULP energy -156374.520568 kJ/mol
# GULP energy per Si atom -5584.804306 kJ/mol
# Density = 1.949149 g / cm^3
# Si number density = 19.535955 Si / 1000 Ang^3
#
#
#
# Elastic Constant Matrix: (Units=GPa)
#
#
# Indices 1 2 3 4 5 6 
#
# 1 55.6369 34.3761 18.1743 0.0000 8.5311 0.0000
# 2 34.3761 80.8450 57.0787 0.0000 -7.4493 0.0000
# 3 18.1743 57.0787 120.3507 0.0000 8.7389 0.0000
# 4 0.0000 0.0000 0.0000 35.7690 0.0000 2.1585
# 5 8.5311 -7.4493 8.7389 0.0000 28.2073 0.0000
# 6 0.0000 0.0000 0.0000 2.1585 0.0000 27.2706
#
#
#
# Elastic Compliance Matrix: (Units=1/GPa)
#
#
# Indices 1 2 3 4 5 6 
#
# 1 0.029362 -0.017287 0.004850 0.000000 -0.014948 0.000000
# 2 -0.017287 0.030628 -0.013179 0.000000 0.017400 0.000000
# 3 0.004850 -0.013179 0.014513 0.000000 -0.009443 0.000000
# 4 0.000000 0.000000 0.000000 0.028091 0.000000 -0.002223
# 5 -0.014948 0.017400 -0.009443 0.000000 0.047494 0.000000
# 6 0.000000 0.000000 0.000000 -0.002223 0.000000 0.036845
#
#
# Mechanical properties :
#
#
# Convention : Reuss Voigt Hill
#
# Bulk Modulus (GPa) = 42.97074 52.89898 47.93486
# Shear Modulus (GPa) = 20.33172 28.06295 24.19733
#
# Velocity S-wave (km/s) = 3.22954 3.79420 3.52320
# Velocity P-wave (km/s) = 5.99584 6.80670 6.41409
#
# Compressibility (1/GPa) = 0.02327165
#
# Stress axis : x y z
#
# Youngs Moduli (GPa) = 34.05717 32.65028 68.90561
#
# Poissons Ratio (x) = 0.56442 -0.33419
# Poissons Ratio (y) = 0.58874 0.90809
# Poissons Ratio (z) = -0.16518 0.43029
#
# Static dielectric constant tensor:
#      x y z
#    x 1.654460 0.000000 -0.026720 
#    y 0.000000 1.669720 0.000000 
#    z -0.026720 0.000000 1.707920 
# 
# From -- ./inp_files/54458.got.cif
#   From: 2010.05.17/outbox.cif.g08.bks.cpg/sg11_28_cif.got.tgz:54458.got - 2010.06.03 12:22:45.
