data_PCOD9162297
_publ_section_title
;
Structure prediction by ZEFSAII (Michael W. Deem and Ramdas Pophale) SiO2 
 PCOD9162297
Probable space group: P 21/M
;
_chemical_formula_sum "Si O2"
_cell_formula_units_Z 32
_cell_length_a 26.799946
_cell_length_b 8.165765
_cell_length_c 15.234579
_cell_angle_alpha 90.000000
_cell_angle_beta 29.834992
_cell_angle_gamma 90.000000
_cell_volume 1658.661203
_symmetry_space_group_name_H-M "P 21/M"
_symmetry_group_IT_number 11
_symmetry_cell_setting 'monoclinic'
loop_
_space_group_symop_operation_xyz
x,y,z
-x,1/2+y,-z
-x,-y,-z
x,1/2-y,z
loop_
_atom_site_type_symbol
_atom_site_label
_atom_site_fract_x
_atom_site_fract_y
_atom_site_fract_z
Si Si1 0.771371 0.949682 0.443931
Si Si2 0.774590 0.553354 0.721794
Si Si3 0.702789 0.950282 0.358701
Si Si4 0.065649 0.051602 0.666144
Si Si5 0.727964 0.443756 0.985882
Si Si6 0.386216 0.053033 0.169612
Si Si7 0.161091 0.444851 0.011462
Si Si8 0.488173 0.948085 0.619346
O O1 0.772872 0.750000 0.440190
O O2 0.752248 0.006135 0.374311
O O3 0.871710 0.000118 0.342857
O O4 0.678402 0.000060 0.647450
O O5 0.775510 0.750000 0.715698
O O6 0.869056 0.498217 0.518543
O O7 0.674727 0.494660 0.823039
O O8 0.770299 0.506203 0.829235
O O9 0.703564 0.750000 0.358449
O O10 0.587366 0.001333 0.520987
O O11 0.767651 0.004809 0.176221
O O12 0.062434 0.250000 0.670762
O O13 0.953719 0.986684 0.832940
O O14 0.718191 0.250000 0.992737
O O15 0.616752 0.509979 0.180183
O O16 0.801040 0.482887 0.954843
O O17 0.383848 0.250000 0.172527
O O18 0.500000 0.000000 0.000000
O O19 0.172586 0.250000 0.999237
O O20 0.486194 0.750000 0.623891
O O21 0.500000 0.000000 0.500000
#
# Coordination Sequence:
#
# PCOD9162297 Si02
#       8
#     4   4   4   4   4   4   4   4
#     4   8  16  33  56  78 106 144 180 216 265 323
#     4   9  20  38  56  78 110 147 182 222 276 327
#     4   9  18  33  54  81 110 143 181 214 262 329
#     4   9  19  38  60  80 106 142 183 228 270 320
#     4  11  23  36  56  85 110 142 186 228 269 322
#     4   9  18  32  53  79 108 143 181 219 265 319
#     4  11  22  36  57  81 109 146 180 225 279 323
#     4  10  20  35  55  79 110 146 181 220 268 321
#
# _framework density 19.292667999999999
#
# number of rings (size 3 to 8) (size 9 to 14) (size 15 to 20)
#    0.000    2.500    1.250    2.250    1.750    2.500 
#    0.000    1.875    0.000    3.000    0.000    0.000 
#    0.000    0.000    0.000    0.000    0.000    0.000 
#
# Total GULP energy -178546.534975 kJ/mol
# GULP energy per Si atom -5579.579218 kJ/mol
# Density = 1.924876 g / cm^3
# Si number density = 19.292668 Si / 1000 Ang^3
#
#
#
# Elastic Constant Matrix: (Units=GPa)
#
#
# Indices 1 2 3 4 5 6 
#
# 1 125.1006 -5.5720 33.2638 0.0000 8.9314 0.0000
# 2 -5.5720 6.4324 -2.3580 0.0000 3.3617 0.0000
# 3 33.2638 -2.3580 44.0475 0.0000 -24.0761 0.0000
# 4 0.0000 0.0000 0.0000 19.9851 0.0000 -6.6987
# 5 8.9314 3.3617 -24.0761 0.0000 29.2094 0.0000
# 6 0.0000 0.0000 0.0000 -6.6987 0.0000 14.1563
#
#
#
# Elastic Compliance Matrix: (Units=1/GPa)
#
#
# Indices 1 2 3 4 5 6 
#
# 1 0.022042 0.026621 -0.037453 0.000000 -0.040674 0.000000
# 2 0.026621 0.197759 -0.048060 0.000000 -0.070514 0.000000
# 3 -0.037453 -0.048060 0.105005 0.000000 0.103534 0.000000
# 4 0.000000 0.000000 0.000000 0.059470 0.000000 0.028141
# 5 -0.040674 -0.070514 0.103534 0.000000 0.140127 0.000000
# 6 0.000000 0.000000 0.000000 0.028141 0.000000 0.083956
#
#
# Mechanical properties :
#
#
# Convention : Reuss Voigt Hill
#
# Bulk Modulus (GPa) = 4.83038 25.13867 14.98452
# Shear Modulus (GPa) = 6.28814 22.68661 14.48737
#
# Velocity S-wave (km/s) = 1.80732 3.43289 2.74328
# Velocity P-wave (km/s) = 2.62000 5.36390 4.22113
#
# Compressibility (1/GPa) = 0.20702302
#
# Stress axis : x y z
#
# Youngs Moduli (GPa) = 45.36847 5.05667 9.52337
#
# Poissons Ratio (x) = -0.13462 0.35668
# Poissons Ratio (y) = -1.20777 0.45769
# Poissons Ratio (z) = 1.69917 0.24302
#
# Static dielectric constant tensor:
#      x y z
#    x 1.663920 0.000000 0.001760 
#    y 0.000000 1.679610 0.000000 
#    z 0.001760 0.000000 1.662050 
# 
# From -- ./inp_files/51781.got.cif
#   From: 2010.05.17/outbox.cif.g08.bks.cpg/sg11_26_cif.got.tgz:51781.got - 2010.06.03 12:22:45.
