data_PCOD9162483
_publ_section_title
;
Structure prediction by ZEFSAII (Michael W. Deem and Ramdas Pophale) SiO2 
 PCOD9162483
Probable space group: P 21/M
;
_chemical_formula_sum "Si O2"
_cell_formula_units_Z 24
_cell_length_a 7.632123
_cell_length_b 24.979596
_cell_length_c 7.250324
_cell_angle_alpha 90.000000
_cell_angle_beta 56.747360
_cell_angle_gamma 90.000000
_cell_volume 1155.925841
_symmetry_space_group_name_H-M "P 21/M"
_symmetry_group_IT_number 11
_symmetry_cell_setting 'monoclinic'
loop_
_space_group_symop_operation_xyz
x,y,z
-x,1/2+y,-z
-x,-y,-z
x,1/2-y,z
loop_
_atom_site_type_symbol
_atom_site_label
_atom_site_fract_x
_atom_site_fract_y
_atom_site_fract_z
Si Si1 0.772314 0.982260 0.694103
Si Si2 0.452101 0.807929 0.207978
Si Si3 0.544029 0.921412 0.111059
Si Si4 0.650122 0.896143 0.471652
Si Si5 0.700728 0.188934 0.310762
Si Si6 0.104309 0.190876 0.827795
O O1 0.637240 0.035192 0.808980
O O2 0.594079 0.915937 0.298387
O O3 0.000000 0.000000 0.500000
O O4 0.745831 0.943747 0.886656
O O5 0.420860 0.750000 0.133712
O O6 0.465474 0.862966 0.089924
O O7 0.287240 0.813669 0.472051
O O8 0.679007 0.806198 0.180153
O O9 0.675680 0.946305 0.587541
O O10 0.467054 0.856110 0.641951
O O11 0.855336 0.858078 0.333877
O O12 0.626559 0.250000 0.316010
O O13 0.915063 0.181228 0.077616
O O14 0.075266 0.250000 0.758863
#
# Coordination Sequence:
#
# PCOD9162483 Si02
#       6
#     4   4   4   4   4   4
#     4  11  24  39  55  77 109 144 183 228 265 308
#     4   8  15  30  53  81 109 135 171 218 266 320
#     4   9  21  39  57  80 108 140 179 220 267 321
#     4  10  20  35  57  80 106 143 184 222 266 319
#     4   8  14  27  51  80 109 140 173 216 269 320
#     4   8  14  26  49  82 111 137 175 220 267 320
#
# _framework density 20.762577
#
# number of rings (size 3 to 8) (size 9 to 14) (size 15 to 20)
#    0.000    3.333    0.000    2.000    0.000    8.667 
#    0.000    1.667    0.000    2.000    0.000    0.000 
#    0.000    0.000    0.000    0.000    0.000    0.000 
#
# Total GULP energy -133747.044587 kJ/mol
# GULP energy per Si atom -5572.793524 kJ/mol
# Density = 2.071532 g / cm^3
# Si number density = 20.762577 Si / 1000 Ang^3
#
#
#
# Elastic Constant Matrix: (Units=GPa)
#
#
# Indices 1 2 3 4 5 6 
#
# 1 11.9908 0.2056 3.8246 0.0000 3.5569 0.0000
# 2 0.2056 143.2150 22.2116 0.0000 -0.6854 0.0000
# 3 3.8246 22.2116 77.9596 0.0000 -18.3537 0.0000
# 4 0.0000 0.0000 0.0000 621.2969 0.0000 384.5817
# 5 3.5569 -0.6854 -18.3537 0.0000 30.3544 0.0000
# 6 0.0000 0.0000 0.0000 384.5817 0.0000 257.7493
#
#
#
# Elastic Compliance Matrix: (Units=1/GPa)
#
#
# Indices 1 2 3 4 5 6 
#
# 1 0.090746 0.001108 -0.008471 0.000000 -0.015731 0.000000
# 2 0.001108 0.007361 -0.002499 0.000000 -0.001475 0.000000
# 3 -0.008471 -0.002499 0.016528 0.000000 0.010930 0.000000
# 4 0.000000 0.000000 0.000000 0.021065 0.000000 -0.031431
# 5 -0.015731 -0.001475 0.010930 0.000000 0.041363 0.000000
# 6 0.000000 0.000000 0.000000 -0.031431 0.000000 0.050777
#
#
# Mechanical properties :
#
#
# Convention : Reuss Voigt Hill
#
# Bulk Modulus (GPa) = 10.53606 31.73878 21.13742
# Shear Modulus (GPa) = 17.90821 195.67503 106.79162
#
# Velocity S-wave (km/s) = 2.94006 9.71847 7.17958
# Velocity P-wave (km/s) = 4.07564 11.88492 8.88432
#
# Compressibility (1/GPa) = 0.09491214
#
# Stress axis : x y z
#
# Youngs Moduli (GPa) = 11.01973 135.84338 60.50401
#
# Poissons Ratio (x) = -0.15055 0.51253
# Poissons Ratio (y) = -0.01221 0.15119
# Poissons Ratio (z) = 0.09335 0.33946
#
# Static dielectric constant tensor:
#      x y z
#    x 1.746570 0.000000 0.013960 
#    y 0.000000 1.807990 0.000000 
#    z 0.013960 0.000000 1.754330 
# 
# From -- ./inp_files/14202.got.cif
#   From: 2010.05.17/outbox.cif.g08.bks.cpg/sg11_8_cif.got.tgz:14202.got - 2010.06.03 12:22:45.
