data_PCOD9162248
_publ_section_title
;
Structure prediction by ZEFSAII (Michael W. Deem and Ramdas Pophale) SiO2 
 PCOD9162248
Probable space group: P 21/M
;
_chemical_formula_sum "Si O2"
_cell_formula_units_Z 32
_cell_length_a 13.494685
_cell_length_b 7.961450
_cell_length_c 14.294820
_cell_angle_alpha 90.000000
_cell_angle_beta 89.327018
_cell_angle_gamma 90.000000
_cell_volume 1535.690351
_symmetry_space_group_name_H-M "P 21/M"
_symmetry_group_IT_number 11
_symmetry_cell_setting 'monoclinic'
loop_
_space_group_symop_operation_xyz
x,y,z
-x,1/2+y,-z
-x,-y,-z
x,1/2-y,z
loop_
_atom_site_type_symbol
_atom_site_label
_atom_site_fract_x
_atom_site_fract_y
_atom_site_fract_z
Si Si1 0.721595 0.946352 0.389360
Si Si2 0.998330 0.046789 0.108317
Si Si3 0.812040 0.947716 0.782035
Si Si4 0.505740 0.450682 0.390551
Si Si5 0.794308 0.054138 0.200267
Si Si6 0.601145 0.947668 0.095143
Si Si7 0.712141 0.544066 0.603725
Si Si8 0.386112 0.555140 0.117205
O O1 0.745461 0.750000 0.390406
O O2 0.726937 0.011386 0.496272
O O3 0.607486 0.967491 0.356820
O O4 0.789045 0.034068 0.311888
O O5 0.999066 0.250000 0.113824
O O6 0.896573 0.986818 0.156934
O O7 0.095778 0.981377 0.161090
O O8 0.000000 0.000000 0.000000
O O9 0.831606 0.750000 0.770144
O O10 0.791866 0.015572 0.678049
O O11 0.708883 0.965021 0.838878
O O12 0.500000 0.500000 0.500000
O O13 0.515030 0.250000 0.380375
O O14 0.397343 0.505259 0.357319
O O15 0.786848 0.250000 0.176278
O O16 0.697896 0.969458 0.156467
O O17 0.586528 0.750000 0.075800
O O18 0.497016 0.009021 0.141215
O O19 0.617066 0.036846 0.995459
O O20 0.710901 0.750000 0.600919
O O21 0.377941 0.750000 0.143717
#
# Coordination Sequence:
#
# PCOD9162248 Si02
#       8
#     4   4   4   4   4   4   4   4
#     4  10  20  35  54  80 114 152 193 238 283 338
#     4  10  23  41  62  85 111 144 187 239 289 341
#     4  10  20  37  60  83 109 148 192 232 284 343
#     4   9  16  29  49  77 110 150 189 229 276 331
#     4  11  23  38  57  83 114 149 191 238 287 339
#     4  10  21  37  56  81 113 149 185 226 282 346
#     4   8  17  33  54  80 111 148 191 232 276 332
#     4  10  21  36  54  83 117 145 179 229 285 342
#
# _framework density 20.837534000000002
#
# number of rings (size 3 to 8) (size 9 to 14) (size 15 to 20)
#    0.000    2.250    0.000    3.375    1.750    5.000 
#    0.000    3.750    0.000    0.000    0.000    0.000 
#    0.000    0.000    0.000    0.000    0.000    0.000 
#
# Total GULP energy -178625.072315 kJ/mol
# GULP energy per Si atom -5582.033510 kJ/mol
# Density = 2.079011 g / cm^3
# Si number density = 20.837534 Si / 1000 Ang^3
#
#
#
# Elastic Constant Matrix: (Units=GPa)
#
#
# Indices 1 2 3 4 5 6 
#
# 1 148.1699 1.7975 87.1594 0.0000 8.3867 0.0000
# 2 1.7975 27.9728 -7.3012 0.0000 3.9710 0.0000
# 3 87.1594 -7.3012 118.5568 0.0000 5.6627 0.0000
# 4 0.0000 0.0000 0.0000 22.6582 0.0000 0.0662
# 5 8.3867 3.9710 5.6627 0.0000 40.2953 0.0000
# 6 0.0000 0.0000 0.0000 0.0662 0.0000 14.8875
#
#
#
# Elastic Compliance Matrix: (Units=1/GPa)
#
#
# Indices 1 2 3 4 5 6 
#
# 1 0.012198 -0.003025 -0.009108 0.000000 -0.000961 0.000000
# 2 -0.003025 0.037709 0.004725 0.000000 -0.003751 0.000000
# 3 -0.009108 0.004725 0.015457 0.000000 -0.000742 0.000000
# 4 0.000000 0.000000 0.000000 0.044135 0.000000 -0.000196
# 5 -0.000961 -0.003751 -0.000742 0.000000 0.025491 0.000000
# 6 0.000000 0.000000 0.000000 -0.000196 0.000000 0.067171
#
#
# Mechanical properties :
#
#
# Convention : Reuss Voigt Hill
#
# Bulk Modulus (GPa) = 19.78279 50.89010 35.33644
# Shear Modulus (GPa) = 21.38358 29.77113 25.57735
#
# Velocity S-wave (km/s) = 3.20692 3.78395 3.50732
# Velocity P-wave (km/s) = 4.81943 6.60048 5.77898
#
# Compressibility (1/GPa) = 0.05054898
#
# Stress axis : x y z
#
# Youngs Moduli (GPa) = 81.98361 26.51884 64.69611
#
# Poissons Ratio (x) = 0.08021 0.58923
# Poissons Ratio (y) = 0.24797 -0.30569
# Poissons Ratio (z) = 0.74668 -0.12530
#
# Static dielectric constant tensor:
#      x y z
#    x 1.756720 0.000000 0.018590 
#    y 0.000000 1.739410 0.000000 
#    z 0.018590 0.000000 1.753820 
# 
# From -- ./inp_files/49357.got.cif
#   From: 2010.05.17/outbox.cif.g08.bks.cpg/sg11_25_cif.got.tgz:49357.got - 2010.06.03 12:22:45.
