data_PCOD9162203
_publ_section_title
;
Structure prediction by ZEFSAII (Michael W. Deem and Ramdas Pophale) SiO2 
 PCOD9162203
Probable space group: P 21/M
;
_chemical_formula_sum "Si O2"
_cell_formula_units_Z 32
_cell_length_a 6.853882
_cell_length_b 29.780104
_cell_length_c 10.981918
_cell_angle_alpha 90.000000
_cell_angle_beta 145.876741
_cell_angle_gamma 90.000000
_cell_volume 1257.432299
_symmetry_space_group_name_H-M "P 21/M"
_symmetry_group_IT_number 11
_symmetry_cell_setting 'monoclinic'
loop_
_space_group_symop_operation_xyz
x,y,z
-x,1/2+y,-z
-x,-y,-z
x,1/2-y,z
loop_
_atom_site_type_symbol
_atom_site_label
_atom_site_fract_x
_atom_site_fract_y
_atom_site_fract_z
Si Si1 0.726113 0.803340 0.977048
Si Si2 0.487314 0.554426 0.976887
Si Si3 0.516707 0.300479 0.425118
Si Si4 0.145530 0.387419 0.276936
Si Si5 0.518747 0.451345 0.768194
Si Si6 0.665334 0.139362 0.794463
Si Si7 0.337826 0.045209 0.204532
Si Si8 0.334361 0.300150 0.803989
O O1 0.797889 0.750000 0.025660
O O2 0.066375 0.833917 0.147571
O O3 0.504677 0.816182 0.982904
O O4 0.570075 0.808180 0.762563
O O5 0.656600 0.565637 0.196698
O O6 0.500000 0.500000 0.000000
O O7 0.121211 0.581668 0.783059
O O8 0.647622 0.562955 0.926890
O O9 0.396306 0.250000 0.399052
O O10 0.931916 0.299226 0.631307
O O11 0.333582 0.340470 0.406895
O O12 0.428769 0.419137 0.354866
O O13 0.897002 0.372604 0.034658
O O14 0.524146 0.409123 0.680856
O O15 0.428295 0.500069 0.668818
O O16 0.923494 0.462137 0.014746
O O17 0.382879 0.170922 0.709853
O O18 0.467513 0.250000 0.846943
#
# Coordination Sequence:
#
# PCOD9162203 Si02
#       8
#     4   4   4   4   4   4   4   4
#     4   9  18  34  54  75 101 136 174 212 259 309
#     4   8  13  23  42  70 100 128 166 209 246 298
#     4   9  19  36  54  75 107 139 172 216 258 307
#     4   9  18  29  48  74 100 136 170 207 260 301
#     4   8  15  23  39  68  98 129 163 203 253 295
#     4   9  17  29  48  75 102 130 172 218 253 303
#     4   8  13  25  41  65  99 129 164 205 244 302
#     4  10  20  35  54  74 102 140 174 212 263 310
#
# _framework density 25.448687
#
# number of rings (size 3 to 8) (size 9 to 14) (size 15 to 20)
#    0.000    3.500    0.000    1.125    0.000    6.500 
#    0.000    3.750    0.000   13.500    0.000   10.500 
#    0.000    3.000    0.000    0.375    0.000    0.000 
#
# Total GULP energy -178210.501867 kJ/mol
# GULP energy per Si atom -5569.078183 kJ/mol
# Density = 2.539076 g / cm^3
# Si number density = 25.448687 Si / 1000 Ang^3
#
#
#
# Elastic Constant Matrix: (Units=GPa)
#
#
# Indices 1 2 3 4 5 6 
#
# 1 126.3701 60.0747 -4.4039 0.0000 -14.1376 0.0000
# 2 60.0747 118.6145 -12.9830 0.0000 0.4756 0.0000
# 3 -4.4039 -12.9830 23.0289 0.0000 2.5155 0.0000
# 4 0.0000 0.0000 0.0000 14.3818 0.0000 3.3293
# 5 -14.1376 0.4756 2.5155 0.0000 21.0864 0.0000
# 6 0.0000 0.0000 0.0000 3.3293 0.0000 41.9071
#
#
#
# Elastic Compliance Matrix: (Units=1/GPa)
#
#
# Indices 1 2 3 4 5 6 
#
# 1 0.011707 -0.006199 -0.002156 0.000000 0.008246 0.000000
# 2 -0.006199 0.012281 0.006305 0.000000 -0.005185 0.000000
# 3 -0.002156 0.006305 0.047356 0.000000 -0.007237 0.000000
# 4 0.000000 0.000000 0.000000 0.070835 0.000000 -0.005627
# 5 0.008246 -0.005185 -0.007237 0.000000 0.053933 0.000000
# 6 0.000000 0.000000 0.000000 -0.005627 0.000000 0.024309
#
#
# Mechanical properties :
#
#
# Convention : Reuss Voigt Hill
#
# Bulk Modulus (GPa) = 14.87127 39.26546 27.06837
# Shear Modulus (GPa) = 20.24805 30.49678 25.37241
#
# Velocity S-wave (km/s) = 2.82377 3.46549 3.16096
# Velocity P-wave (km/s) = 4.06053 5.61031 4.89712
#
# Compressibility (1/GPa) = 0.06724374
#
# Stress axis : x y z
#
# Youngs Moduli (GPa) = 85.41619 81.42712 21.11652
#
# Poissons Ratio (x) = 0.50473 0.04554
# Poissons Ratio (y) = 0.52946 -0.13313
# Poissons Ratio (z) = 0.18420 -0.51336
#
# Static dielectric constant tensor:
#      x y z
#    x 2.057250 0.000000 -0.101920 
#    y 0.000000 2.185650 0.000000 
#    z -0.101920 0.000000 2.179010 
# 
# From -- ./inp_files/48547.got.cif
#   From: 2010.05.17/outbox.cif.g08.bks.cpg/sg11_25_cif.got.tgz:48547.got - 2010.06.03 12:22:45.
