data_PCOD9162305
_publ_section_title
;
Structure prediction by ZEFSAII (Michael W. Deem and Ramdas Pophale) SiO2 
 PCOD9162305
Probable space group: P 21/M
;
_chemical_formula_sum "Si O2"
_cell_formula_units_Z 28
_cell_length_a 24.325990
_cell_length_b 9.409540
_cell_length_c 9.424069
_cell_angle_alpha 90.000000
_cell_angle_beta 134.110862
_cell_angle_gamma 90.000000
_cell_volume 1548.810927
_symmetry_space_group_name_H-M "P 21/M"
_symmetry_group_IT_number 11
_symmetry_cell_setting 'monoclinic'
loop_
_space_group_symop_operation_xyz
x,y,z
-x,1/2+y,-z
-x,-y,-z
x,1/2-y,z
loop_
_atom_site_type_symbol
_atom_site_label
_atom_site_fract_x
_atom_site_fract_y
_atom_site_fract_z
Si Si1 0.573379 0.581978 0.190883
Si Si2 0.803825 0.092094 0.611787
Si Si3 0.062107 0.413836 0.025068
Si Si4 0.335623 0.911841 0.420449
Si Si5 0.067279 0.084704 0.698994
Si Si6 0.753355 0.581625 0.983940
Si Si7 0.280462 0.087182 0.753344
O O1 0.559201 0.750000 0.186367
O O2 0.600866 0.507885 0.386761
O O3 0.640908 0.569981 0.193550
O O4 0.500000 0.500000 0.000000
O O5 0.837355 0.250000 0.655919
O O6 0.728925 0.101657 0.574219
O O7 0.858472 0.985612 0.791715
O O8 0.779413 0.023374 0.419741
O O9 0.061525 0.250000 0.065644
O O10 0.050484 0.423403 0.836304
O O11 0.000000 0.500000 0.000000
O O12 0.360877 0.750000 0.430551
O O13 0.294455 0.990512 0.215272
O O14 0.064674 0.250000 0.648962
O O15 0.156559 0.037980 0.841939
O O16 0.000000 0.000000 0.500000
O O17 0.753513 0.750000 0.943134
O O18 0.715205 0.568544 0.070436
O O19 0.254199 0.250000 0.680417
#
# Coordination Sequence:
#
# PCOD9162305 Si02
#       7
#     4   4   4   4   4   4   4
#     4  10  20  37  61  88 118 150 185 229 277 333
#     4  10  20  35  55  80 108 142 185 232 277 329
#     4  11  23  38  55  78 107 143 187 235 285 336
#     4  10  20  35  58  86 113 147 186 227 276 332
#     4  10  23  39  56  79 111 149 190 235 287 339
#     4  10  20  38  59  82 112 149 190 233 282 336
#     4   9  20  36  58  85 113 147 186 229 279 331
#
# _framework density 18.078385000000001
#
# number of rings (size 3 to 8) (size 9 to 14) (size 15 to 20)
#    0.000    2.000    1.429    1.714    2.000    4.000 
#    0.000    0.714    0.000    0.000    0.000    0.000 
#    0.000    0.000    0.000    0.000    0.000    0.000 
#
# Total GULP energy -156146.032856 kJ/mol
# GULP energy per Si atom -5576.644031 kJ/mol
# Density = 1.803724 g / cm^3
# Si number density = 18.078385 Si / 1000 Ang^3
#
#
#
# Elastic Constant Matrix: (Units=GPa)
#
#
# Indices 1 2 3 4 5 6 
#
# 1 26.1703 33.8424 19.8827 0.0000 -9.0564 0.0000
# 2 33.8424 152.7766 96.6503 0.0000 0.4419 0.0000
# 3 19.8827 96.6503 140.1047 0.0000 3.3591 0.0000
# 4 0.0000 0.0000 0.0000 35.9629 0.0000 1.6220
# 5 -9.0564 0.4419 3.3591 0.0000 22.5112 0.0000
# 6 0.0000 0.0000 0.0000 1.6220 0.0000 23.5350
#
#
#
# Elastic Compliance Matrix: (Units=1/GPa)
#
#
# Indices 1 2 3 4 5 6 
#
# 1 0.066890 -0.015044 0.000234 0.000000 0.027171 0.000000
# 2 -0.015044 0.015019 -0.008102 0.000000 -0.005138 0.000000
# 3 0.000234 -0.008102 0.012733 0.000000 -0.001647 0.000000
# 4 0.000000 0.000000 0.000000 0.027893 0.000000 -0.001922
# 5 0.027171 -0.005138 -0.001647 0.000000 0.055700 0.000000
# 6 0.000000 0.000000 0.000000 -0.001922 0.000000 0.042622
#
#
# Mechanical properties :
#
#
# Convention : Reuss Voigt Hill
#
# Bulk Modulus (GPa) = 20.48454 68.86692 44.67573
# Shear Modulus (GPa) = 17.67071 27.64690 22.65880
#
# Velocity S-wave (km/s) = 3.12981 3.91484 3.54413
# Velocity P-wave (km/s) = 4.94131 7.65577 6.44311
#
# Compressibility (1/GPa) = 0.04881731
#
# Stress axis : x y z
#
# Youngs Moduli (GPa) = 14.94989 66.58444 78.53489
#
# Poissons Ratio (x) = 1.00167 -0.01836
# Poissons Ratio (y) = 0.22490 0.63632
# Poissons Ratio (z) = -0.00349 0.53949
#
# Static dielectric constant tensor:
#      x y z
#    x 1.593460 0.000000 0.013760 
#    y 0.000000 1.623710 0.000000 
#    z 0.013760 0.000000 1.607070 
# 
# From -- ./inp_files/24105.got.cif
#   From: 2010.05.17/outbox.cif.g08.bks.cpg/sg11_13_cif.got.tgz:24105.got - 2010.06.03 12:22:45.
