data_PCOD9162931
_publ_section_title
;
Structure prediction by ZEFSAII (Michael W. Deem and Ramdas Pophale) SiO2 
 PCOD9162931
Probable space group: P 21/M
;
_chemical_formula_sum "Si O2"
_cell_formula_units_Z 24
_cell_length_a 14.307988
_cell_length_b 7.410694
_cell_length_c 12.743034
_cell_angle_alpha 90.000000
_cell_angle_beta 42.543790
_cell_angle_gamma 90.000000
_cell_volume 913.598942
_symmetry_space_group_name_H-M "P 21/M"
_symmetry_group_IT_number 11
_symmetry_cell_setting 'monoclinic'
loop_
_space_group_symop_operation_xyz
x,y,z
-x,1/2+y,-z
-x,-y,-z
x,1/2-y,z
loop_
_atom_site_type_symbol
_atom_site_label
_atom_site_fract_x
_atom_site_fract_y
_atom_site_fract_z
Si Si1 0.888528 0.465920 0.000037
Si Si2 0.986399 0.029359 0.688817
Si Si3 0.278652 0.035794 0.490966
Si Si4 0.509349 0.453852 0.168144
Si Si5 0.710357 0.469943 0.827105
Si Si6 0.656369 0.462101 0.335723
O O1 0.879055 0.250000 0.995891
O O2 0.740190 0.536114 0.166218
O O3 0.936718 0.530705 0.846058
O O4 0.000000 0.500000 0.000000
O O5 0.989699 0.250000 0.685817
O O6 0.869400 0.975353 0.702941
O O7 0.143209 0.965164 0.544413
O O8 0.288342 0.250000 0.464296
O O9 0.426912 0.959149 0.332527
O O10 0.257654 0.011919 0.631507
O O11 0.551023 0.250000 0.163052
O O12 0.384051 0.452528 0.186428
O O13 0.636597 0.528463 0.997239
O O14 0.700017 0.250000 0.830044
O O15 0.500000 0.500000 0.500000
O O16 0.660238 0.250000 0.319055
#
# Coordination Sequence:
#
# PCOD9162931 Si02
#       6
#     4   4   4   4   4   4
#     4  10  20  36  58  81 110 145 183 223 270 326
#     4   9  18  33  55  80 105 140 179 217 269 325
#     4  10  20  36  57  79 109 144 180 224 274 326
#     4   9  19  34  54  78 106 140 178 222 271 321
#     4   9  18  34  55  76 103 140 180 221 269 325
#     4  11  24  38  56  83 114 148 186 226 273 325
#
# _framework density 26.269731
#
# number of rings (size 3 to 8) (size 9 to 14) (size 15 to 20)
#    0.000    2.333    1.667    0.500    2.333    2.000 
#    0.000    1.667    0.000    0.000    0.000    0.000 
#    0.000    0.000    0.000    0.000    0.000    0.000 
#
# Total GULP energy -134138.145995 kJ/mol
# GULP energy per Si atom -5589.089416 kJ/mol
# Density = 2.620994 g / cm^3
# Si number density = 26.269731 Si / 1000 Ang^3
#
#
#
# Elastic Constant Matrix: (Units=GPa)
#
#
# Indices 1 2 3 4 5 6 
#
# 1 85.0368 -9.9353 0.6607 0.0000 -16.7443 0.0000
# 2 -9.9353 100.0500 4.8664 0.0000 -0.9724 0.0000
# 3 0.6607 4.8664 99.1056 0.0000 -10.4454 0.0000
# 4 0.0000 0.0000 0.0000 3.7716 0.0000 -0.9310
# 5 -16.7443 -0.9724 -10.4454 0.0000 54.8756 0.0000
# 6 0.0000 0.0000 0.0000 -0.9310 0.0000 15.0183
#
#
#
# Elastic Compliance Matrix: (Units=1/GPa)
#
#
# Indices 1 2 3 4 5 6 
#
# 1 0.012684 0.001285 0.000268 0.000000 0.003944 0.000000
# 2 0.001285 0.010149 -0.000456 0.000000 0.000485 0.000000
# 3 0.000268 -0.000456 0.010326 0.000000 0.002039 0.000000
# 4 0.000000 0.000000 0.000000 0.269258 0.000000 0.016691
# 5 0.003944 0.000485 0.002039 0.000000 0.019823 0.000000
# 6 0.000000 0.000000 0.000000 0.016691 0.000000 0.067620
#
#
# Mechanical properties :
#
#
# Convention : Reuss Voigt Hill
#
# Bulk Modulus (GPa) = 28.28551 30.59735 29.44143
# Shear Modulus (GPa) = 12.51717 33.97313 23.24515
#
# Velocity S-wave (km/s) = 2.18523 3.60007 2.97789
# Velocity P-wave (km/s) = 4.14218 5.38083 4.80161
#
# Compressibility (1/GPa) = 0.03535379
#
# Stress axis : x y z
#
# Youngs Moduli (GPa) = 78.83772 98.52722 96.84510
#
# Poissons Ratio (x) = -0.12660 -0.02596
# Poissons Ratio (y) = -0.10130 0.04414
# Poissons Ratio (z) = -0.02113 0.04491
#
# Static dielectric constant tensor:
#      x y z
#    x 2.067040 0.000000 0.004910 
#    y 0.000000 1.974620 0.000000 
#    z 0.004910 0.000000 2.104130 
# 
# From -- ./inp_files/23744.got.cif
#   From: 2010.05.17/outbox.cif.g08.bks.cpg/sg11_12_cif.got.tgz:23744.got - 2010.06.03 12:22:45.
