data_PCOD9162586
_publ_section_title
;
Structure prediction by ZEFSAII (Michael W. Deem and Ramdas Pophale) SiO2 
 PCOD9162586
Probable space group: P 21/M
;
_chemical_formula_sum "Si O2"
_cell_formula_units_Z 20
_cell_length_a 13.543830
_cell_length_b 8.986744
_cell_length_c 21.492209
_cell_angle_alpha 90.000000
_cell_angle_beta 158.036204
_cell_angle_gamma 90.000000
_cell_volume 978.409140
_symmetry_space_group_name_H-M "P 21/M"
_symmetry_group_IT_number 11
_symmetry_cell_setting 'monoclinic'
loop_
_space_group_symop_operation_xyz
x,y,z
-x,1/2+y,-z
-x,-y,-z
x,1/2-y,z
loop_
_atom_site_type_symbol
_atom_site_label
_atom_site_fract_x
_atom_site_fract_y
_atom_site_fract_z
Si Si1 0.278388 0.570725 0.179429
Si Si2 0.296759 0.570972 0.332836
Si Si3 0.177419 0.073259 0.550816
Si Si4 0.192405 0.078943 0.754902
Si Si5 0.272102 0.423216 0.950051
O O1 0.256612 0.750000 0.163888
O O2 0.351987 0.531421 0.293612
O O3 0.518516 0.523181 0.275135
O O4 0.000000 0.500000 0.000000
O O5 0.500000 0.500000 0.500000
O O6 0.310549 0.750000 0.347406
O O7 0.994154 0.527775 0.171362
O O8 0.173073 0.250000 0.555068
O O9 0.000000 0.000000 0.500000
O O10 0.036763 0.025287 0.404630
O O11 0.143506 0.250000 0.708618
O O12 0.214081 0.070748 0.842077
O O13 0.470056 0.022523 0.889056
O O14 0.328512 0.250000 0.998775
#
# Coordination Sequence:
#
# PCOD9162586 Si02
#       5
#     4   4   4   4   4
#     4  10  24  43  63  91 126 162 205 253 307 368
#     4  10  21  38  61  89 120 157 201 248 304 366
#     4  11  24  41  61  86 119 159 206 253 301 360
#     4  10  20  35  57  87 120 154 198 246 299 357
#     4   9  19  35  57  86 120 156 194 242 300 360
#
# _framework density 20.441345999999999
#
# number of rings (size 3 to 8) (size 9 to 14) (size 15 to 20)
#    0.000    2.000    0.000    2.400    2.800    4.000 
#    0.000    0.000    0.000    0.000    0.000    0.000 
#    0.000    0.000    0.000    0.000    0.000    0.000 
#
# Total GULP energy -111774.018634 kJ/mol
# GULP energy per Si atom -5588.700932 kJ/mol
# Density = 2.039482 g / cm^3
# Si number density = 20.441346 Si / 1000 Ang^3
#
#
#
# Elastic Constant Matrix: (Units=GPa)
#
#
# Indices 1 2 3 4 5 6 
#
# 1 95.1420 33.1616 49.4768 0.0000 32.2637 0.0000
# 2 33.1616 34.5475 29.0133 0.0000 13.6181 0.0000
# 3 49.4768 29.0133 114.2224 0.0000 25.4698 0.0000
# 4 0.0000 0.0000 0.0000 40.3750 0.0000 -1.7088
# 5 32.2637 13.6181 25.4698 0.0000 41.1084 0.0000
# 6 0.0000 0.0000 0.0000 -1.7088 0.0000 26.6030
#
#
#
# Elastic Compliance Matrix: (Units=1/GPa)
#
#
# Indices 1 2 3 4 5 6 
#
# 1 0.019743 -0.012512 -0.003298 0.000000 -0.009307 0.000000
# 2 -0.012512 0.046787 -0.006031 0.000000 -0.001942 0.000000
# 3 -0.003298 -0.006031 0.012407 0.000000 -0.003100 0.000000
# 4 0.000000 0.000000 0.000000 0.024835 0.000000 0.001595
# 5 -0.009307 -0.001942 -0.003100 0.000000 0.034194 0.000000
# 6 0.000000 0.000000 0.000000 0.001595 0.000000 0.037692
#
#
# Mechanical properties :
#
#
# Convention : Reuss Voigt Hill
#
# Bulk Modulus (GPa) = 28.36678 51.91277 40.13977
# Shear Modulus (GPa) = 21.63626 30.43462 26.03544
#
# Velocity S-wave (km/s) = 3.25692 3.86278 3.57272
# Velocity P-wave (km/s) = 5.29629 6.73393 6.05791
#
# Compressibility (1/GPa) = 0.03525251
#
# Stress axis : x y z
#
# Youngs Moduli (GPa) = 50.65072 21.37358 80.60031
#
# Poissons Ratio (x) = 0.26744 0.26586
# Poissons Ratio (y) = 0.63376 0.48611
# Poissons Ratio (z) = 0.16707 0.12891
#
# Static dielectric constant tensor:
#      x y z
#    x 1.770530 0.000000 -0.000970 
#    y 0.000000 1.692780 0.000000 
#    z -0.000970 0.000000 1.713710 
# 
# From -- ./inp_files/36940.got.cif
#   From: 2010.05.17/outbox.cif.g08.bks.cpg/sg11_19_cif.got.tgz:36940.got - 2010.06.03 12:22:45.
