data_PCOD9162055
_publ_section_title
;
Structure prediction by ZEFSAII (Michael W. Deem and Ramdas Pophale) SiO2 
 PCOD9162055
Probable space group: P 21/M
;
_chemical_formula_sum "Si O2"
_cell_formula_units_Z 32
_cell_length_a 12.753387
_cell_length_b 9.258844
_cell_length_c 28.719841
_cell_angle_alpha 90.000000
_cell_angle_beta 152.681386
_cell_angle_gamma 90.000000
_cell_volume 1556.390473
_symmetry_space_group_name_H-M "P 21/M"
_symmetry_group_IT_number 11
_symmetry_cell_setting 'monoclinic'
loop_
_space_group_symop_operation_xyz
x,y,z
-x,1/2+y,-z
-x,-y,-z
x,1/2-y,z
loop_
_atom_site_type_symbol
_atom_site_label
_atom_site_fract_x
_atom_site_fract_y
_atom_site_fract_z
Si Si1 0.355849 0.908560 0.979123
Si Si2 0.807996 0.921356 0.649715
Si Si3 0.817182 0.578971 0.461805
Si Si4 0.206902 0.089314 0.785814
Si Si5 0.463021 0.920174 0.813257
Si Si6 0.328446 0.923427 0.501399
Si Si7 0.903274 0.920092 0.051723
Si Si8 0.575824 0.082438 0.766700
O O1 0.292345 0.750000 0.936436
O O2 0.545147 0.893994 0.094159
O O3 0.500000 0.000000 0.000000
O O4 0.151788 0.991199 0.923567
O O5 0.827966 0.750000 0.649917
O O6 0.603753 0.945565 0.605622
O O7 0.753486 0.003229 0.579362
O O8 0.047293 0.995126 0.756595
O O9 0.873564 0.750000 0.489732
O O10 0.783486 0.499956 0.498101
O O11 0.574632 0.570203 0.339038
O O12 0.000000 0.500000 0.500000
O O13 0.112340 0.250000 0.741559
O O14 0.261397 0.003063 0.760426
O O15 0.421658 0.750000 0.799195
O O16 0.477402 0.978733 0.767104
O O17 0.708183 0.947909 0.935649
O O18 0.290006 0.750000 0.487308
O O19 0.888181 0.750000 0.056619
O O20 0.157986 0.951730 0.135374
O O21 0.559295 0.250000 0.776075
#
# Coordination Sequence:
#
# PCOD9162055 Si02
#       8
#     4   4   4   4   4   4   4   4
#     4  10  21  36  55  81 114 153 190 231 284 341
#     4  10  21  38  63  92 118 150 193 244 298 352
#     4  11  25  43  62  85 118 159 202 249 300 358
#     4  10  21  36  56  83 116 153 193 235 286 347
#     4  10  20  34  57  87 118 151 192 242 288 342
#     4  10  22  41  63  87 118 152 192 245 301 356
#     4   9  19  37  58  83 115 149 190 239 288 345
#     4  10  22  39  59  83 113 154 195 236 295 352
#
# _framework density 20.560393999999999
#
# number of rings (size 3 to 8) (size 9 to 14) (size 15 to 20)
#    0.000    2.000    0.000    2.625    1.750    6.000 
#    0.000    3.750    0.000    0.000    0.000    0.000 
#    0.000    0.000    0.000    0.000    0.000    0.000 
#
# Total GULP energy -178592.281710 kJ/mol
# GULP energy per Si atom -5581.008803 kJ/mol
# Density = 2.051360 g / cm^3
# Si number density = 20.560394 Si / 1000 Ang^3
#
#
#
# Elastic Constant Matrix: (Units=GPa)
#
#
# Indices 1 2 3 4 5 6 
#
# 1 108.4787 68.2388 3.2629 0.0000 5.6498 0.0000
# 2 68.2388 98.1583 13.5139 0.0000 8.6751 0.0000
# 3 3.2629 13.5139 39.1058 0.0000 15.3428 0.0000
# 4 0.0000 0.0000 0.0000 26.8801 0.0000 3.0875
# 5 5.6498 8.6751 15.3428 0.0000 24.7133 0.0000
# 6 0.0000 0.0000 0.0000 3.0875 0.0000 37.8092
#
#
#
# Elastic Compliance Matrix: (Units=1/GPa)
#
#
# Indices 1 2 3 4 5 6 
#
# 1 0.016715 -0.011936 0.003418 0.000000 -0.001754 0.000000
# 2 -0.011936 0.019290 -0.005399 0.000000 -0.000691 0.000000
# 3 0.003418 -0.005399 0.035318 0.000000 -0.020813 0.000000
# 4 0.000000 0.000000 0.000000 0.037555 0.000000 -0.003067
# 5 -0.001754 -0.000691 -0.020813 0.000000 0.054028 0.000000
# 6 0.000000 0.000000 0.000000 -0.003067 0.000000 0.026699
#
#
# Mechanical properties :
#
#
# Convention : Reuss Voigt Hill
#
# Bulk Modulus (GPa) = 22.99448 46.19711 34.59580
# Shear Modulus (GPa) = 21.55778 28.59566 25.07672
#
# Velocity S-wave (km/s) = 3.24158 3.73341 3.49615
# Velocity P-wave (km/s) = 5.02182 6.41110 5.75851
#
# Compressibility (1/GPa) = 0.04348870
#
# Stress axis : x y z
#
# Youngs Moduli (GPa) = 59.82579 51.84119 28.31429
#
# Poissons Ratio (x) = 0.61877 -0.09678
# Poissons Ratio (y) = 0.71407 0.15287
# Poissons Ratio (z) = -0.20448 0.27990
#
# Static dielectric constant tensor:
#      x y z
#    x 1.698770 0.000000 -0.008860 
#    y 0.000000 1.670760 0.000000 
#    z -0.008860 0.000000 1.825160 
# 
# From -- ./inp_files/73182.got.cif
#   From: 2010.05.17/outbox.cif.g08.bks.cpg/sg11_37_cif.got.tgz:73182.got - 2010.06.03 12:22:45.
