data_PCOD9162242
_publ_section_title
;
Structure prediction by ZEFSAII (Michael W. Deem and Ramdas Pophale) SiO2 
 PCOD9162242
Probable space group: P 21/M
;
_chemical_formula_sum "Si O2"
_cell_formula_units_Z 28
_cell_length_a 16.454389
_cell_length_b 8.045930
_cell_length_c 21.938207
_cell_angle_alpha 90.000000
_cell_angle_beta 28.040130
_cell_angle_gamma 90.000000
_cell_volume 1365.337529
_symmetry_space_group_name_H-M "P 21/M"
_symmetry_group_IT_number 11
_symmetry_cell_setting 'monoclinic'
loop_
_space_group_symop_operation_xyz
x,y,z
-x,1/2+y,-z
-x,-y,-z
x,1/2-y,z
loop_
_atom_site_type_symbol
_atom_site_label
_atom_site_fract_x
_atom_site_fract_y
_atom_site_fract_z
Si Si1 0.412265 0.951050 0.970650
Si Si2 0.549554 0.551784 0.398898
Si Si3 0.069536 0.049569 0.887727
Si Si4 0.087198 0.060043 0.505262
Si Si5 0.714531 0.047375 0.076035
Si Si6 0.582948 0.950975 0.639110
Si Si7 0.224200 0.446181 0.212291
O O1 0.405588 0.750000 0.978491
O O2 0.273186 0.021215 0.110047
O O3 0.373998 0.004934 0.927835
O O4 0.603595 0.001052 0.865315
O O5 0.500000 0.500000 0.500000
O O6 0.556855 0.750000 0.393262
O O7 0.741285 0.484507 0.254655
O O8 0.421202 0.499930 0.429040
O O9 0.078118 0.250000 0.879806
O O10 0.912915 0.993341 0.947932
O O11 0.000000 0.000000 0.000000
O O12 0.132706 0.250000 0.462285
O O13 0.260006 0.985066 0.421995
O O14 0.000000 0.000000 0.500000
O O15 0.939834 0.041982 0.653910
O O16 0.713948 0.250000 0.077523
O O17 0.596775 0.992536 0.210666
O O18 0.588708 0.750000 0.636728
O O19 0.197148 0.250000 0.240743
#
# Coordination Sequence:
#
# PCOD9162242 Si02
#       7
#     4   4   4   4   4   4   4
#     4   9  18  34  56  81 110 149 195 237 282 345
#     4  11  24  40  60  90 125 163 204 249 305 365
#     4  10  20  36  60  86 113 146 189 238 291 349
#     4  11  23  38  59  86 116 154 198 242 296 361
#     4   9  17  33  59  84 108 143 189 238 287 343
#     4  10  21  39  62  85 114 156 201 246 299 359
#     4  10  20  35  54  79 115 152 191 239 291 343
#
# _framework density 20.507750000000001
#
# number of rings (size 3 to 8) (size 9 to 14) (size 15 to 20)
#    0.000    2.000    1.429    2.143    0.000    5.714 
#    0.000    4.286    0.000    0.000    0.000    0.000 
#    0.000    0.000    0.000    0.000    0.000    0.000 
#
# Total GULP energy -156247.908502 kJ/mol
# GULP energy per Si atom -5580.282446 kJ/mol
# Density = 2.046107 g / cm^3
# Si number density = 20.507750 Si / 1000 Ang^3
#
#
#
# Elastic Constant Matrix: (Units=GPa)
#
#
# Indices 1 2 3 4 5 6 
#
# 1 143.1176 12.3047 52.4524 0.0000 6.4142 0.0000
# 2 12.3047 20.8131 2.1745 0.0000 -4.9026 0.0000
# 3 52.4524 2.1745 97.2588 0.0000 -6.2327 0.0000
# 4 0.0000 0.0000 0.0000 21.1827 0.0000 6.4484
# 5 6.4142 -4.9026 -6.2327 0.0000 25.5961 0.0000
# 6 0.0000 0.0000 0.0000 6.4484 0.0000 27.1419
#
#
#
# Elastic Compliance Matrix: (Units=1/GPa)
#
#
# Indices 1 2 3 4 5 6 
#
# 1 0.009751 -0.006372 -0.005436 0.000000 -0.004988 0.000000
# 2 -0.006372 0.054506 0.003036 0.000000 0.012776 0.000000
# 3 -0.005436 0.003036 0.013480 0.000000 0.005226 0.000000
# 4 0.000000 0.000000 0.000000 0.050889 0.000000 -0.012090
# 5 -0.004988 0.012776 0.005226 0.000000 0.044038 0.000000
# 6 0.000000 0.000000 0.000000 -0.012090 0.000000 0.039716
#
#
# Mechanical properties :
#
#
# Convention : Reuss Voigt Hill
#
# Bulk Modulus (GPa) = 16.61275 43.89475 30.25375
# Shear Modulus (GPa) = 20.00107 27.73467 23.86787
#
# Velocity S-wave (km/s) = 3.12636 3.68149 3.41522
# Velocity P-wave (km/s) = 4.59896 6.28662 5.50781
#
# Compressibility (1/GPa) = 0.06019474
#
# Stress axis : x y z
#
# Youngs Moduli (GPa) = 102.55543 18.34674 74.18135
#
# Poissons Ratio (x) = 0.11690 0.40324
# Poissons Ratio (y) = 0.65344 -0.22524
# Poissons Ratio (z) = 0.55748 -0.05571
#
# Static dielectric constant tensor:
#      x y z
#    x 1.748800 0.000000 -0.027100 
#    y 0.000000 1.740770 0.000000 
#    z -0.027100 0.000000 1.724570 
# 
# From -- ./inp_files/54582.got.cif
#   From: 2010.05.17/outbox.cif.g08.bks.cpg/sg11_28_cif.got.tgz:54582.got - 2010.06.03 12:22:45.
