data_PCOD9162500
_publ_section_title
;
Structure prediction by ZEFSAII (Michael W. Deem and Ramdas Pophale) SiO2 
 PCOD9162500
Probable space group: P 21/M
;
_chemical_formula_sum "Si O2"
_cell_formula_units_Z 32
_cell_length_a 29.076120
_cell_length_b 8.910199
_cell_length_c 14.486980
_cell_angle_alpha 90.000000
_cell_angle_beta 27.854928
_cell_angle_gamma 90.000000
_cell_volume 1753.624379
_symmetry_space_group_name_H-M "P 21/M"
_symmetry_group_IT_number 11
_symmetry_cell_setting 'monoclinic'
loop_
_space_group_symop_operation_xyz
x,y,z
-x,1/2+y,-z
-x,-y,-z
x,1/2-y,z
loop_
_atom_site_type_symbol
_atom_site_label
_atom_site_fract_x
_atom_site_fract_y
_atom_site_fract_z
Si Si1 0.019829 0.929208 0.565155
Si Si2 0.420533 0.427228 0.282334
Si Si3 0.629979 0.572089 0.955702
Si Si4 0.764003 0.429071 0.860617
Si Si5 0.282887 0.571350 0.374202
Si Si6 0.826134 0.429205 0.959994
Si Si7 0.106599 0.929295 0.825623
Si Si8 0.243181 0.073200 0.737293
O O1 0.007039 0.750000 0.584844
O O2 0.135106 0.959381 0.375712
O O3 0.000000 0.000000 0.500000
O O4 0.935659 0.001528 0.777082
O O5 0.427489 0.250000 0.247900
O O6 0.369510 0.514382 0.288370
O O7 0.345822 0.444922 0.500901
O O8 0.526065 0.493579 0.119471
O O9 0.619410 0.750000 0.971248
O O10 0.675756 0.518096 0.971026
O O11 0.703235 0.514624 0.745721
O O12 0.745909 0.250000 0.888146
O O13 0.786098 0.467665 0.928449
O O14 0.290915 0.750000 0.345642
O O15 0.180477 0.540010 0.608717
O O16 0.832610 0.250000 0.953386
O O17 0.759460 0.494560 0.159166
O O18 0.099485 0.750000 0.848560
O O19 0.160332 0.999267 0.819226
O O20 0.000000 0.000000 0.000000
O O21 0.223619 0.250000 0.781944
#
# Coordination Sequence:
#
# PCOD9162500 Si02
#       8
#     4   4   4   4   4   4   4   4
#     4   9  17  31  52  76 105 140 178 220 266 317
#     4  10  21  39  60  81 108 140 178 225 273 326
#     4  12  24  36  56  83 109 141 180 226 277 325
#     4   9  20  37  54  77 110 145 181 225 273 318
#     4  10  21  38  59  82 110 144 181 221 268 324
#     4  10  20  35  57  82 110 146 185 226 272 324
#     4  10  21  37  58  84 116 150 183 224 270 318
#     4  10  21  37  59  83 108 144 186 225 270 326
#
# _framework density 18.247921999999999
#
# number of rings (size 3 to 8) (size 9 to 14) (size 15 to 20)
#    0.000    2.000    0.000    4.500    0.000    7.000 
#    0.000    1.875    0.000    0.000    0.000    0.000 
#    0.000    0.000    0.000    0.000    0.000    0.000 
#
# Total GULP energy -178668.171938 kJ/mol
# GULP energy per Si atom -5583.380373 kJ/mol
# Density = 1.820639 g / cm^3
# Si number density = 18.247922 Si / 1000 Ang^3
#
#
#
# Elastic Constant Matrix: (Units=GPa)
#
#
# Indices 1 2 3 4 5 6 
#
# 1 68.2320 35.0395 43.6240 0.0000 -4.1200 0.0000
# 2 35.0395 70.3995 39.1526 0.0000 -5.6231 0.0000
# 3 43.6240 39.1526 56.2654 0.0000 -7.4376 0.0000
# 4 0.0000 0.0000 0.0000 32.5540 0.0000 2.4536
# 5 -4.1200 -5.6231 -7.4376 0.0000 29.9730 0.0000
# 6 0.0000 0.0000 0.0000 2.4536 0.0000 30.8867
#
#
#
# Elastic Compliance Matrix: (Units=1/GPa)
#
#
# Indices 1 2 3 4 5 6 
#
# 1 0.029584 -0.003229 -0.020919 0.000000 -0.001730 0.000000
# 2 -0.003229 0.023528 -0.013797 0.000000 0.000547 0.000000
# 3 -0.020919 -0.013797 0.044324 0.000000 0.005535 0.000000
# 4 0.000000 0.000000 0.000000 0.030903 0.000000 -0.002455
# 5 -0.001730 0.000547 0.005535 0.000000 0.034602 0.000000
# 6 0.000000 0.000000 0.000000 -0.002455 0.000000 0.032571
#
#
# Mechanical properties :
#
#
# Convention : Reuss Voigt Hill
#
# Bulk Modulus (GPa) = 46.40952 47.83657 47.12305
# Shear Modulus (GPa) = 17.94782 23.82147 20.88464
#
# Velocity S-wave (km/s) = 3.13957 3.61700 3.38671
# Velocity P-wave (km/s) = 6.21534 6.61175 6.41661
#
# Compressibility (1/GPa) = 0.02154730
#
# Stress axis : x y z
#
# Youngs Moduli (GPa) = 33.80178 42.50194 22.56091
#
# Poissons Ratio (x) = 0.13723 0.47196
# Poissons Ratio (y) = 0.10914 0.31127
# Poissons Ratio (z) = 0.70711 0.58639
#
# Static dielectric constant tensor:
#      x y z
#    x 1.609900 0.000000 0.003920 
#    y 0.000000 1.601830 0.000000 
#    z 0.003920 0.000000 1.631420 
# 
# From -- ./inp_files/56455.got.cif
#   From: 2010.05.17/outbox.cif.g08.bks.cpg/sg11_29_cif.got.tgz:56455.got - 2010.06.03 12:22:45.
