data_PCOD9162617
_publ_section_title
;
Structure prediction by ZEFSAII (Michael W. Deem and Ramdas Pophale) SiO2 
 PCOD9162617
Probable space group: P 21/M
;
_chemical_formula_sum "Si O2"
_cell_formula_units_Z 28
_cell_length_a 8.633130
_cell_length_b 8.498739
_cell_length_c 27.145636
_cell_angle_alpha 90.000000
_cell_angle_beta 134.744399
_cell_angle_gamma 90.000000
_cell_volume 1414.609599
_symmetry_space_group_name_H-M "P 21/M"
_symmetry_group_IT_number 11
_symmetry_cell_setting 'monoclinic'
loop_
_space_group_symop_operation_xyz
x,y,z
-x,1/2+y,-z
-x,-y,-z
x,1/2-y,z
loop_
_atom_site_type_symbol
_atom_site_label
_atom_site_fract_x
_atom_site_fract_y
_atom_site_fract_z
Si Si1 0.601046 0.424437 0.949339
Si Si2 0.823560 0.570024 0.922150
Si Si3 0.333720 0.559800 0.651670
Si Si4 0.805037 0.069727 0.099772
Si Si5 0.253794 0.566857 0.199554
Si Si6 0.149832 0.059799 0.419434
Si Si7 0.506635 0.059773 0.422620
O O1 0.634936 0.250000 0.936291
O O2 0.617642 0.556917 0.912182
O O3 0.363002 0.442716 0.918226
O O4 0.769133 0.444549 0.032533
O O5 0.860858 0.750000 0.915788
O O6 0.771464 0.462091 0.864322
O O7 0.000000 0.500000 0.000000
O O8 0.329672 0.750000 0.650102
O O9 0.521410 0.500430 0.730133
O O10 0.414121 0.508411 0.614497
O O11 0.095185 0.507692 0.619093
O O12 0.746635 0.250000 0.098014
O O13 0.045277 0.030509 0.171972
O O14 0.233305 0.750000 0.206682
O O15 0.145775 0.250000 0.418302
O O16 0.271264 0.012036 0.394752
O O17 0.312732 0.000872 0.498497
O O18 0.507275 0.250000 0.422179
#
# Coordination Sequence:
#
# PCOD9162617 Si02
#       7
#     4   4   4   4   4   4   4
#     4  10  20  35  58  85 111 140 185 240 292 351
#     4  12  23  38  60  84 111 147 192 244 299 355
#     4  10  21  38  57  80 119 160 196 239 293 357
#     4  10  20  36  58  82 111 146 185 236 294 352
#     4  12  25  40  58  81 114 153 194 244 299 356
#     4   9  18  34  59  90 119 151 192 238 285 346
#     4   9  18  34  59  89 118 152 191 238 289 344
#
# _framework density 19.793447
#
# number of rings (size 3 to 8) (size 9 to 14) (size 15 to 20)
#    0.000    1.714    1.429    3.857    0.000    2.286 
#    2.571    0.000    0.000    0.000    0.000    0.000 
#    0.000    0.000    0.000    0.000    0.000    0.000 
#
# Total GULP energy -155926.946657 kJ/mol
# GULP energy per Si atom -5568.819523 kJ/mol
# Density = 1.974840 g / cm^3
# Si number density = 19.793447 Si / 1000 Ang^3
#
#
#
# Elastic Constant Matrix: (Units=GPa)
#
#
# Indices 1 2 3 4 5 6 
#
# 1 121.7400 18.5142 55.9953 0.0000 14.0876 0.0000
# 2 18.5142 32.0780 6.4083 0.0000 3.8081 0.0000
# 3 55.9953 6.4083 93.8636 0.0000 20.6968 0.0000
# 4 0.0000 0.0000 0.0000 27.2518 0.0000 2.1619
# 5 14.0876 3.8081 20.6968 0.0000 24.5246 0.0000
# 6 0.0000 0.0000 0.0000 2.1619 0.0000 25.9070
#
#
#
# Elastic Compliance Matrix: (Units=1/GPa)
#
#
# Indices 1 2 3 4 5 6 
#
# 1 0.012271 -0.005668 -0.006847 0.000000 -0.000390 0.000000
# 2 -0.005668 0.034513 0.001829 0.000000 -0.003647 0.000000
# 3 -0.006847 0.001829 0.016966 0.000000 -0.010669 0.000000
# 4 0.000000 0.000000 0.000000 0.036939 0.000000 -0.003083
# 5 -0.000390 -0.003647 -0.010669 0.000000 0.050569 0.000000
# 6 0.000000 0.000000 0.000000 -0.003083 0.000000 0.038857
#
#
# Mechanical properties :
#
#
# Convention : Reuss Voigt Hill
#
# Bulk Modulus (GPa) = 23.59745 45.50193 34.54969
# Shear Modulus (GPa) = 22.16180 26.65429 24.40804
#
# Velocity S-wave (km/s) = 3.34975 3.67362 3.51542
# Velocity P-wave (km/s) = 5.18737 6.40564 5.82842
#
# Compressibility (1/GPa) = 0.04237746
#
# Stress axis : x y z
#
# Youngs Moduli (GPa) = 81.49396 28.97471 58.94074
#
# Poissons Ratio (x) = 0.16423 0.40359
# Poissons Ratio (y) = 0.46191 -0.10781
# Poissons Ratio (z) = 0.55802 -0.05300
#
# Static dielectric constant tensor:
#      x y z
#    x 1.896380 0.000000 0.030620 
#    y 0.000000 1.657870 0.000000 
#    z 0.030620 0.000000 1.647170 
# 
# From -- ./inp_files/70907.got.cif
#   From: 2010.05.17/outbox.cif.g08.bks.cpg/sg11_36_cif.got.tgz:70907.got - 2010.06.03 12:22:45.
