data_PCOD9162624
_publ_section_title
;
Structure prediction by ZEFSAII (Michael W. Deem and Ramdas Pophale) SiO2 
 PCOD9162624
Probable space group: P 21/M
;
_chemical_formula_sum "Si O2"
_cell_formula_units_Z 24
_cell_length_a 15.089583
_cell_length_b 13.670894
_cell_length_c 8.816996
_cell_angle_alpha 90.000000
_cell_angle_beta 141.598293
_cell_angle_gamma 90.000000
_cell_volume 1129.811679
_symmetry_space_group_name_H-M "P 21/M"
_symmetry_group_IT_number 11
_symmetry_cell_setting 'monoclinic'
loop_
_space_group_symop_operation_xyz
x,y,z
-x,1/2+y,-z
-x,-y,-z
x,1/2-y,z
loop_
_atom_site_type_symbol
_atom_site_label
_atom_site_fract_x
_atom_site_fract_y
_atom_site_fract_z
Si Si1 0.510161 0.641413 0.298999
Si Si2 0.774899 0.974846 0.678073
Si Si3 0.014116 0.466321 0.771407
Si Si4 0.923319 0.866869 0.455830
Si Si5 0.439263 0.643697 0.547951
Si Si6 0.613731 0.534254 0.022853
O O1 0.479544 0.750000 0.201290
O O2 0.668571 0.605864 0.466398
O O3 0.515991 0.642321 0.489095
O O4 0.391758 0.563790 0.087529
O O5 0.871198 0.024981 0.679203
O O6 0.673857 0.058460 0.606316
O O7 0.868550 0.939851 0.945167
O O8 0.024852 0.575073 0.710583
O O9 0.021175 0.392811 0.639320
O O10 0.913339 0.750000 0.465626
O O11 0.770569 0.923961 0.266130
O O12 0.373196 0.750000 0.479850
O O13 0.541994 0.618367 0.824550
O O14 0.500000 0.500000 0.000000
#
# Coordination Sequence:
#
# PCOD9162624 Si02
#       6
#     4   4   4   4   4   4
#     4  10  21  38  63  90 115 151 195 241 295 348
#     4  10  20  38  60  83 117 149 192 248 288 333
#     4  10  23  39  58  86 114 154 201 238 278 339
#     4  11  23  41  61  83 119 161 195 231 287 351
#     4  10  20  35  58  85 113 148 190 240 295 343
#     4  11  22  37  59  88 118 147 187 240 291 345
#
# _framework density 21.242477999999998
#
# number of rings (size 3 to 8) (size 9 to 14) (size 15 to 20)
#    0.000    1.667    0.000    6.500    0.000    6.667 
#    0.000    8.333    0.000    0.000    0.000    0.000 
#    0.000    0.000    0.000    0.000    0.000    0.000 
#
# Total GULP energy -133855.971226 kJ/mol
# GULP energy per Si atom -5577.332134 kJ/mol
# Density = 2.119413 g / cm^3
# Si number density = 21.242478 Si / 1000 Ang^3
#
#
#
# Elastic Constant Matrix: (Units=GPa)
#
#
# Indices 1 2 3 4 5 6 
#
# 1 79.0576 0.4310 13.0772 0.0000 -13.2017 0.0000
# 2 0.4310 119.9002 5.9835 0.0000 3.4426 0.0000
# 3 13.0772 5.9835 32.0498 0.0000 -2.8492 0.0000
# 4 0.0000 0.0000 0.0000 2.4859 0.0000 -1.0458
# 5 -13.2017 3.4426 -2.8492 0.0000 16.7158 0.0000
# 6 0.0000 0.0000 0.0000 -1.0458 0.0000 10.0730
#
#
#
# Elastic Compliance Matrix: (Units=1/GPa)
#
#
# Indices 1 2 3 4 5 6 
#
# 1 0.015406 -0.000117 -0.005260 0.000000 0.011295 0.000000
# 2 -0.000117 0.008488 -0.001727 0.000000 -0.002135 0.000000
# 3 -0.005260 -0.001727 0.033845 0.000000 0.001970 0.000000
# 4 0.000000 0.000000 0.000000 0.420633 0.000000 0.043672
# 5 0.011295 -0.002135 0.001970 0.000000 0.069520 0.000000
# 6 0.000000 0.000000 0.000000 0.043672 0.000000 0.103809
#
#
# Mechanical properties :
#
#
# Convention : Reuss Voigt Hill
#
# Bulk Modulus (GPa) = 22.97193 29.99899 26.48546
# Shear Modulus (GPa) = 7.34841 19.95601 13.65221
#
# Velocity S-wave (km/s) = 1.86194 3.06835 2.53787
# Velocity P-wave (km/s) = 3.93193 5.16777 4.59162
#
# Compressibility (1/GPa) = 0.04353139
#
# Stress axis : x y z
#
# Youngs Moduli (GPa) = 64.91055 117.81115 29.54633
#
# Poissons Ratio (x) = 0.01381 0.15541
# Poissons Ratio (y) = 0.00761 0.05102
# Poissons Ratio (z) = 0.34143 0.20342
#
# Static dielectric constant tensor:
#      x y z
#    x 1.823900 0.000000 -0.031970 
#    y 0.000000 1.770950 0.000000 
#    z -0.031970 0.000000 1.878120 
# 
# From -- ./inp_files/22309.got.cif
#   From: 2010.05.17/outbox.cif.g08.bks.cpg/sg11_12_cif.got.tgz:22309.got - 2010.06.03 12:22:45.
