data_PCOD9162275
_publ_section_title
;
Structure prediction by ZEFSAII (Michael W. Deem and Ramdas Pophale) SiO2 
 PCOD9162275
Probable space group: P 21/M
;
_chemical_formula_sum "Si O2"
_cell_formula_units_Z 24
_cell_length_a 9.701896
_cell_length_b 13.552250
_cell_length_c 15.404495
_cell_angle_alpha 90.000000
_cell_angle_beta 140.548084
_cell_angle_gamma 90.000000
_cell_volume 1287.014661
_symmetry_space_group_name_H-M "P 21/M"
_symmetry_group_IT_number 11
_symmetry_cell_setting 'monoclinic'
loop_
_space_group_symop_operation_xyz
x,y,z
-x,1/2+y,-z
-x,-y,-z
x,1/2-y,z
loop_
_atom_site_type_symbol
_atom_site_label
_atom_site_fract_x
_atom_site_fract_y
_atom_site_fract_z
Si Si1 0.973393 0.631091 0.842082
Si Si2 0.051933 0.130858 0.976318
Si Si3 0.084505 0.631051 0.278993
Si Si4 0.736432 0.480770 0.154385
Si Si5 0.472222 0.869424 0.589033
Si Si6 0.435612 0.868741 0.767736
O O1 0.985188 0.750000 0.847010
O O2 0.723625 0.603750 0.700380
O O3 0.133740 0.588640 0.849085
O O4 0.024483 0.596676 0.965708
O O5 0.035802 0.250000 0.972038
O O6 0.928308 0.101552 0.828763
O O7 0.308599 0.110740 0.091122
O O8 0.067281 0.750000 0.275185
O O9 0.304525 0.599105 0.433821
O O10 0.880103 0.579865 0.226133
O O11 0.704445 0.427840 0.230938
O O12 0.500000 0.500000 0.000000
O O13 0.470383 0.750000 0.588507
O O14 0.396037 0.898650 0.648627
O O15 0.404677 0.750000 0.761339
#
# Coordination Sequence:
#
# PCOD9162275 Si02
#       6
#     4   4   4   4   4   4
#     4   9  19  36  58  81 104 133 179 223 260 314
#     4   8  15  32  56  77 101 137 173 217 264 305
#     4  10  20  35  55  78 108 139 180 224 267 316
#     4  12  23  32  52  85 109 145 178 214 267 312
#     4   8  17  36  60  78 100 141 180 220 269 313
#     4   9  17  34  56  78 106 140 179 216 262 323
#
# _framework density 18.647807
#
# number of rings (size 3 to 8) (size 9 to 14) (size 15 to 20)
#    0.000    2.667    1.667    2.500    0.000    2.667 
#    0.000    0.000    3.667    0.000    0.000    0.000 
#    0.000    0.000    0.000    0.000    0.000    0.000 
#
# Total GULP energy -133910.604492 kJ/mol
# GULP energy per Si atom -5579.608520 kJ/mol
# Density = 1.860536 g / cm^3
# Si number density = 18.647807 Si / 1000 Ang^3
#
#
#
# Elastic Constant Matrix: (Units=GPa)
#
#
# Indices 1 2 3 4 5 6 
#
# 1 148.9665 39.7436 71.6512 0.0000 -14.1573 0.0000
# 2 39.7436 67.3177 32.6216 0.0000 -4.6135 0.0000
# 3 71.6512 32.6216 153.9568 0.0000 -19.3158 0.0000
# 4 0.0000 0.0000 0.0000 22.5219 0.0000 3.5567
# 5 -14.1573 -4.6135 -19.3158 0.0000 26.8942 0.0000
# 6 0.0000 0.0000 0.0000 3.5567 0.0000 38.9420
#
#
#
# Elastic Compliance Matrix: (Units=1/GPa)
#
#
# Indices 1 2 3 4 5 6 
#
# 1 0.009558 -0.003870 -0.003385 0.000000 0.001936 0.000000
# 2 -0.003870 0.018124 -0.002094 0.000000 -0.000431 0.000000
# 3 -0.003385 -0.002094 0.009062 0.000000 0.004368 0.000000
# 4 0.000000 0.000000 0.000000 0.045051 0.000000 -0.004115
# 5 0.001936 -0.000431 0.004368 0.000000 0.041265 0.000000
# 6 0.000000 0.000000 0.000000 -0.004115 0.000000 0.026055
#
#
# Mechanical properties :
#
#
# Convention : Reuss Voigt Hill
#
# Bulk Modulus (GPa) = 55.40906 73.14154 64.27530
# Shear Modulus (GPa) = 28.76408 32.75325 30.75867
#
# Velocity S-wave (km/s) = 3.93172 4.19550 4.06575
# Velocity P-wave (km/s) = 7.09853 7.92322 7.52219
#
# Compressibility (1/GPa) = 0.01804759
#
# Stress axis : x y z
#
# Youngs Moduli (GPa) = 104.62924 55.17414 110.34599
#
# Poissons Ratio (x) = 0.21350 0.37355
# Poissons Ratio (y) = 0.40486 0.23102
# Poissons Ratio (z) = 0.35420 0.11551
#
# Static dielectric constant tensor:
#      x y z
#    x 1.612050 0.000000 -0.029430 
#    y 0.000000 1.690220 0.000000 
#    z -0.029430 0.000000 1.647060 
# 
# From -- ./inp_files/12621.got.cif
#   From: 2010.05.17/outbox.cif.g08.bks.cpg/sg11_7_cif.got.tgz:12621.got - 2010.06.03 12:22:45.
