data_PCOD9162628
_publ_section_title
;
Structure prediction by ZEFSAII (Michael W. Deem and Ramdas Pophale) SiO2 
 PCOD9162628
Probable space group: P 21/M
;
_chemical_formula_sum "Si O2"
_cell_formula_units_Z 32
_cell_length_a 22.092558
_cell_length_b 8.242024
_cell_length_c 28.413122
_cell_angle_alpha 90.000000
_cell_angle_beta 18.825270
_cell_angle_gamma 90.000000
_cell_volume 1669.456706
_symmetry_space_group_name_H-M "P 21/M"
_symmetry_group_IT_number 11
_symmetry_cell_setting 'monoclinic'
loop_
_space_group_symop_operation_xyz
x,y,z
-x,1/2+y,-z
-x,-y,-z
x,1/2-y,z
loop_
_atom_site_type_symbol
_atom_site_label
_atom_site_fract_x
_atom_site_fract_y
_atom_site_fract_z
Si Si1 0.000125 0.443713 0.553401
Si Si2 0.768321 0.448125 0.377423
Si Si3 0.874676 0.059529 0.195734
Si Si4 0.636990 0.941066 0.284692
Si Si5 0.713669 0.556253 0.842381
Si Si6 0.980455 0.055447 0.310042
Si Si7 0.279259 0.940644 0.879806
Si Si8 0.309279 0.053604 0.398875
O O1 0.995208 0.250000 0.557958
O O2 0.826048 0.505123 0.712811
O O3 0.000000 0.500000 0.500000
O O4 0.188635 0.496923 0.442295
O O5 0.772414 0.250000 0.373519
O O6 0.797380 0.502332 0.302638
O O7 0.566380 0.495423 0.546691
O O8 0.928768 0.503856 0.295916
O O9 0.829153 0.250000 0.224605
O O10 0.783385 0.968800 0.218891
O O11 0.097469 0.035467 0.030585
O O12 0.626530 0.750000 0.280884
O O13 0.695658 0.033984 0.194566
O O14 0.715496 0.750000 0.843224
O O15 0.837389 0.492803 0.795803
O O16 0.500000 0.500000 0.000000
O O17 0.997891 0.250000 0.294505
O O18 0.803058 0.015005 0.473749
O O19 0.252872 0.750000 0.909047
O O20 0.474826 0.997001 0.758961
O O21 0.305786 0.250000 0.404720
#
# Coordination Sequence:
#
# PCOD9162628 Si02
#       8
#     4   4   4   4   4   4   4   4
#     4  10  20  37  59  85 116 149 188 231 281 334
#     4   9  19  36  58  82 109 139 181 228 272 323
#     4  11  23  38  54  79 114 147 179 225 278 327
#     4  11  21  37  61  83 105 140 184 229 276 329
#     4  10  20  35  58  85 117 151 188 231 277 331
#     4   9  17  34  59  83 108 142 186 228 267 322
#     4  11  22  38  57  81 111 144 184 226 273 328
#     4   9  19  35  57  82 111 143 182 230 273 321
#
# _framework density 19.167912999999999
#
# number of rings (size 3 to 8) (size 9 to 14) (size 15 to 20)
#    0.000    2.000    1.250    2.625    0.000    1.500 
#    2.250    3.125    0.000    0.000    0.000    0.000 
#    0.000    0.000    0.000    0.000    0.000    0.000 
#
# Total GULP energy -178660.563275 kJ/mol
# GULP energy per Si atom -5583.142602 kJ/mol
# Density = 1.912429 g / cm^3
# Si number density = 19.167913 Si / 1000 Ang^3
#
#
#
# Elastic Constant Matrix: (Units=GPa)
#
#
# Indices 1 2 3 4 5 6 
#
# 1 70.2996 0.7185 6.6695 0.0000 -10.8466 0.0000
# 2 0.7185 19.4867 -0.3408 0.0000 -1.8069 0.0000
# 3 6.6695 -0.3408 53.6818 0.0000 -18.8907 0.0000
# 4 0.0000 0.0000 0.0000 19.3686 0.0000 0.3416
# 5 -10.8466 -1.8069 -18.8907 0.0000 28.6555 0.0000
# 6 0.0000 0.0000 0.0000 0.3416 0.0000 15.5991
#
#
#
# Elastic Compliance Matrix: (Units=1/GPa)
#
#
# Indices 1 2 3 4 5 6 
#
# 1 0.015108 -0.000013 0.000176 0.000000 0.005834 0.000000
# 2 -0.000013 0.051771 0.001924 0.000000 0.004528 0.000000
# 3 0.000176 0.001924 0.024329 0.000000 0.016226 0.000000
# 4 0.000000 0.000000 0.000000 0.051650 0.000000 -0.001131
# 5 0.005834 0.004528 0.016226 0.000000 0.048088 0.000000
# 6 0.000000 0.000000 0.000000 -0.001131 0.000000 0.064131
#
#
# Mechanical properties :
#
#
# Convention : Reuss Voigt Hill
#
# Bulk Modulus (GPa) = 10.48428 17.50692 13.99560
# Shear Modulus (GPa) = 17.68672 21.81935 19.75303
#
# Velocity S-wave (km/s) = 3.04093 3.37757 3.21366
# Velocity P-wave (km/s) = 4.22034 4.93598 4.59212
#
# Compressibility (1/GPa) = 0.09538090
#
# Stress axis : x y z
#
# Youngs Moduli (GPa) = 66.18833 19.31579 41.10378
#
# Poissons Ratio (x) = 0.00025 -0.00722
# Poissons Ratio (y) = 0.00086 -0.07907
# Poissons Ratio (z) = -0.01163 -0.03716
#
# Static dielectric constant tensor:
#      x y z
#    x 1.679900 0.000000 -0.031940 
#    y 0.000000 1.718570 0.000000 
#    z -0.031940 0.000000 1.636790 
# 
# From -- ./inp_files/67254.got.cif
#   From: 2010.05.17/outbox.cif.g08.bks.cpg/sg11_34_cif.got.tgz:67254.got - 2010.06.03 12:22:45.
