data_PCOD9162475
_publ_section_title
;
Structure prediction by ZEFSAII (Michael W. Deem and Ramdas Pophale) SiO2 
 PCOD9162475
Probable space group: P 21/M
;
_chemical_formula_sum "Si O2"
_cell_formula_units_Z 32
_cell_length_a 12.594124
_cell_length_b 11.413672
_cell_length_c 12.011852
_cell_angle_alpha 90.000000
_cell_angle_beta 68.350802
_cell_angle_gamma 90.000000
_cell_volume 1604.848540
_symmetry_space_group_name_H-M "P 21/M"
_symmetry_group_IT_number 11
_symmetry_cell_setting 'monoclinic'
loop_
_space_group_symop_operation_xyz
x,y,z
-x,1/2+y,-z
-x,-y,-z
x,1/2-y,z
loop_
_atom_site_type_symbol
_atom_site_label
_atom_site_fract_x
_atom_site_fract_y
_atom_site_fract_z
Si Si1 0.966777 0.019554 0.139747
Si Si2 0.181214 0.118563 0.178327
Si Si3 0.285583 0.954917 0.489058
Si Si4 0.170947 0.622229 0.320145
Si Si5 0.568413 0.881944 0.942939
Si Si6 0.469527 0.114014 0.303269
Si Si7 0.077680 0.121078 0.631817
Si Si8 0.713529 0.382778 0.263826
O O1 0.836178 0.062190 0.193024
O O2 0.063874 0.103928 0.154980
O O3 0.965318 0.910781 0.226932
O O4 0.000000 0.000000 0.000000
O O5 0.179129 0.250000 0.232479
O O6 0.300686 0.114006 0.064692
O O7 0.189273 0.001200 0.250305
O O8 0.250704 0.878966 0.396631
O O9 0.308166 0.889059 0.595204
O O10 0.389330 0.037656 0.412705
O O11 0.172569 0.031565 0.556625
O O12 0.188036 0.750000 0.255029
O O13 0.035733 0.618753 0.399493
O O14 0.521637 0.750000 0.989857
O O15 0.575247 0.885183 0.805683
O O16 0.500000 0.000000 0.000000
O O17 0.472174 0.250000 0.339973
O O18 0.599254 0.065838 0.253264
O O19 0.127988 0.250000 0.610513
O O20 0.721559 0.250000 0.221298
#
# Coordination Sequence:
#
# PCOD9162475 Si02
#       8
#     4   4   4   4   4   4   4   4
#     4  10  22  38  61  85 115 157 200 249 305 359
#     4  10  21  39  62  90 119 154 200 245 298 360
#     4  11  19  35  58  84 116 155 201 245 297 359
#     4  10  20  35  56  87 122 154 193 245 300 354
#     4  10  22  40  62  89 120 155 202 252 301 357
#     4  10  21  38  60  84 116 159 200 244 301 359
#     4   9  20  35  53  83 118 152 196 248 301 361
#     4  10  22  38  56  84 119 155 198 247 300 361
#
# _framework density 19.939575999999999
#
# number of rings (size 3 to 8) (size 9 to 14) (size 15 to 20)
#    0.000    2.000    1.250    1.875    1.750    2.000 
#    0.000    3.125    0.000    1.500    0.000    0.000 
#    0.000    0.000    0.000    0.000    0.000    0.000 
#
# Total GULP energy -178184.901224 kJ/mol
# GULP energy per Si atom -5568.278163 kJ/mol
# Density = 1.989419 g / cm^3
# Si number density = 19.939576 Si / 1000 Ang^3
#
#
#
# Elastic Constant Matrix: (Units=GPa)
#
#
# Indices 1 2 3 4 5 6 
#
# 1 115.1623 19.6470 17.8396 0.0000 -13.1219 0.0000
# 2 19.6470 129.7622 23.3902 0.0000 -13.4818 0.0000
# 3 17.8396 23.3902 58.0873 0.0000 -7.5016 0.0000
# 4 0.0000 0.0000 0.0000 8.3327 0.0000 0.4403
# 5 -13.1219 -13.4818 -7.5016 0.0000 23.4070 0.0000
# 6 0.0000 0.0000 0.0000 0.4403 0.0000 15.9328
#
#
#
# Elastic Compliance Matrix: (Units=1/GPa)
#
#
# Indices 1 2 3 4 5 6 
#
# 1 0.009616 -0.000618 -0.002143 0.000000 0.004348 0.000000
# 2 -0.000618 0.008700 -0.002828 0.000000 0.003758 0.000000
# 3 -0.002143 -0.002828 0.019452 0.000000 0.003404 0.000000
# 4 0.000000 0.000000 0.000000 0.120184 0.000000 -0.003321
# 5 0.004348 0.003758 0.003404 0.000000 0.048415 0.000000
# 6 0.000000 0.000000 0.000000 -0.003321 0.000000 0.062855
#
#
# Mechanical properties :
#
#
# Convention : Reuss Voigt Hill
#
# Bulk Modulus (GPa) = 37.60770 47.19614 42.40192
# Shear Modulus (GPa) = 17.28520 25.67685 21.48102
#
# Velocity S-wave (km/s) = 2.94747 3.59239 3.28579
# Velocity P-wave (km/s) = 5.52135 6.39750 5.97550
#
# Compressibility (1/GPa) = 0.02659030
#
# Stress axis : x y z
#
# Youngs Moduli (GPa) = 103.99102 114.93943 51.40850
#
# Poissons Ratio (x) = 0.07103 0.11017
# Poissons Ratio (y) = 0.06426 0.14539
# Poissons Ratio (z) = 0.22285 0.32507
#
# Static dielectric constant tensor:
#      x y z
#    x 1.747910 0.000000 0.008610 
#    y 0.000000 1.594210 0.000000 
#    z 0.008610 0.000000 1.692430 
# 
# From -- ./inp_files/35042.got.cif
#   From: 2010.05.17/outbox.cif.g08.bks.cpg/sg11_18_cif.got.tgz:35042.got - 2010.06.03 12:22:45.
