data_PCOD9162236
_publ_section_title
;
Structure prediction by ZEFSAII (Michael W. Deem and Ramdas Pophale) SiO2 
 PCOD9162236
Probable space group: P 21/M
;
_chemical_formula_sum "Si O2"
_cell_formula_units_Z 32
_cell_length_a 7.845072
_cell_length_b 13.834202
_cell_length_c 19.043402
_cell_angle_alpha 90.000000
_cell_angle_beta 46.904830
_cell_angle_gamma 90.000000
_cell_volume 1509.208458
_symmetry_space_group_name_H-M "P 21/M"
_symmetry_group_IT_number 11
_symmetry_cell_setting 'monoclinic'
loop_
_space_group_symop_operation_xyz
x,y,z
-x,1/2+y,-z
-x,-y,-z
x,1/2-y,z
loop_
_atom_site_type_symbol
_atom_site_label
_atom_site_fract_x
_atom_site_fract_y
_atom_site_fract_z
Si Si1 0.757986 0.856863 0.799817
Si Si2 0.715810 0.866314 0.318212
Si Si3 0.294050 0.637353 0.682274
Si Si4 0.250690 0.132015 0.529420
Si Si5 0.648378 0.909965 0.983935
Si Si6 0.535621 0.435662 0.823220
Si Si7 0.765597 0.136526 0.620028
Si Si8 0.864075 0.502289 0.160611
O O1 0.703728 0.750000 0.783417
O O2 0.690047 0.850412 0.901580
O O3 0.038112 0.871868 0.719271
O O4 0.639508 0.955768 0.805820
O O5 0.733401 0.750000 0.307497
O O6 0.760752 0.896141 0.385596
O O7 0.452817 0.895455 0.366672
O O8 0.892948 0.918437 0.214650
O O9 0.328517 0.750000 0.687416
O O10 0.503547 0.604363 0.573726
O O11 0.284867 0.579435 0.757227
O O12 0.243622 0.250000 0.531843
O O13 0.029427 0.096466 0.546063
O O14 0.901480 0.953041 0.931355
O O15 0.510993 0.877631 0.091832
O O16 0.500000 0.000000 0.000000
O O17 0.685629 0.380441 0.722938
O O18 0.284270 0.450756 0.858473
O O19 0.785209 0.250000 0.599126
#
# Coordination Sequence:
#
# PCOD9162236 Si02
#       8
#     4   4   4   4   4   4   4   4
#     4   9  19  36  54  76 107 140 180 221 258 316
#     4   9  19  35  53  78 110 139 176 225 271 319
#     4   9  19  36  54  76 105 142 183 217 261 317
#     4   9  18  34  56  77 104 146 184 221 271 317
#     4   9  19  34  55  75 103 136 175 215 261 317
#     4  10  20  35  54  81 107 139 174 220 272 318
#     4   9  19  35  54  80 111 138 178 227 271 323
#     4  10  20  35  54  79 107 140 172 220 270 319
#
# _framework density 21.203167000000001
#
# number of rings (size 3 to 8) (size 9 to 14) (size 15 to 20)
#    0.000    2.750    0.000    0.375    5.250    1.500 
#    2.250    3.750    0.000    4.500    0.000    0.000 
#    0.000    0.000    0.000    0.000    0.000    0.000 
#
# Total GULP energy -178322.426258 kJ/mol
# GULP energy per Si atom -5572.575821 kJ/mol
# Density = 2.115491 g / cm^3
# Si number density = 21.203167 Si / 1000 Ang^3
#
#
#
# Elastic Constant Matrix: (Units=GPa)
#
#
# Indices 1 2 3 4 5 6 
#
# 1 38.7170 -0.7458 2.9050 0.0000 0.7471 0.0000
# 2 -0.7458 53.5918 -0.7006 0.0000 -2.3272 0.0000
# 3 2.9050 -0.7006 37.0739 0.0000 -5.5289 0.0000
# 4 0.0000 0.0000 0.0000 32.0124 0.0000 1.3629
# 5 0.7471 -2.3272 -5.5289 0.0000 21.6797 0.0000
# 6 0.0000 0.0000 0.0000 1.3629 0.0000 24.0454
#
#
#
# Elastic Compliance Matrix: (Units=1/GPa)
#
#
# Indices 1 2 3 4 5 6 
#
# 1 0.026030 0.000270 -0.002250 0.000000 -0.001442 0.000000
# 2 0.000270 0.018766 0.000657 0.000000 0.002173 0.000000
# 3 -0.002250 0.000657 0.028259 0.000000 0.007355 0.000000
# 4 0.000000 0.000000 0.000000 0.031313 0.000000 -0.001775
# 5 -0.001442 0.002173 0.007355 0.000000 0.048285 0.000000
# 6 0.000000 0.000000 0.000000 -0.001775 0.000000 0.041689
#
#
# Mechanical properties :
#
#
# Convention : Reuss Voigt Hill
#
# Bulk Modulus (GPa) = 14.20219 14.69997 14.45108
# Shear Modulus (GPa) = 22.68026 24.07579 23.37803
#
# Velocity S-wave (km/s) = 3.27412 3.37335 3.32410
# Velocity P-wave (km/s) = 4.58321 4.70325 4.64362
#
# Compressibility (1/GPa) = 0.07041165
#
# Stress axis : x y z
#
# Youngs Moduli (GPa) = 38.41679 53.28708 35.38740
#
# Poissons Ratio (x) = -0.01440 0.07961
# Poissons Ratio (y) = -0.01038 -0.02327
# Poissons Ratio (z) = 0.08642 -0.03504
#
# Static dielectric constant tensor:
#      x y z
#    x 1.744100 0.000000 0.025710 
#    y 0.000000 1.774760 0.000000 
#    z 0.025710 0.000000 1.757910 
# 
# From -- ./inp_files/21851.got.cif
#   From: 2010.05.17/outbox.cif.g08.bks.cpg/sg11_11_cif.got.tgz:21851.got - 2010.06.03 12:22:45.
