data_PCOD9162018
_publ_section_title
;
Structure prediction by ZEFSAII (Michael W. Deem and Ramdas Pophale) SiO2 
 PCOD9162018
Probable space group: P 21/M
;
_chemical_formula_sum "Si O2"
_cell_formula_units_Z 32
_cell_length_a 9.661996
_cell_length_b 21.986427
_cell_length_c 14.266947
_cell_angle_alpha 90.000000
_cell_angle_beta 30.505408
_cell_angle_gamma 90.000000
_cell_volume 1538.477032
_symmetry_space_group_name_H-M "P 21/M"
_symmetry_group_IT_number 11
_symmetry_cell_setting 'monoclinic'
loop_
_space_group_symop_operation_xyz
x,y,z
-x,1/2+y,-z
-x,-y,-z
x,1/2-y,z
loop_
_atom_site_type_symbol
_atom_site_label
_atom_site_fract_x
_atom_site_fract_y
_atom_site_fract_z
Si Si1 0.766898 0.820538 0.067280
Si Si2 0.350281 0.180157 0.237648
Si Si3 0.136310 0.489036 0.817975
Si Si4 0.168670 0.179659 0.633046
Si Si5 0.388117 0.911081 0.542221
Si Si6 0.974527 0.818508 0.737530
Si Si7 0.808693 0.321599 0.668606
Si Si8 0.115911 0.870495 0.030933
O O1 0.739065 0.750000 0.117409
O O2 0.927559 0.818371 0.875776
O O3 0.471598 0.846556 0.209931
O O4 0.934252 0.858930 0.045330
O O5 0.432790 0.250000 0.202584
O O6 0.306899 0.167572 0.152819
O O7 0.047903 0.173590 0.453511
O O8 0.565787 0.140122 0.166733
O O9 0.427306 0.454226 0.632118
O O10 0.192182 0.548855 0.723786
O O11 0.935085 0.437060 0.896474
O O12 0.000000 0.500000 0.000000
O O13 0.255425 0.250000 0.561912
O O14 0.416338 0.133159 0.509636
O O15 0.962888 0.157099 0.672374
O O16 0.992967 0.177615 0.830192
O O17 0.207438 0.866968 0.584450
O O18 0.054452 0.750000 0.662536
O O19 0.746911 0.250000 0.722817
#
# Coordination Sequence:
#
# PCOD9162018 Si02
#       8
#     4   4   4   4   4   4   4   4
#     4  10  20  34  56  89 125 161 202 248 310 385
#     4  10  21  36  56  89 129 160 195 249 312 375
#     4  10  23  41  62  85 121 165 213 266 307 348
#     4  10  20  35  60  89 123 157 194 249 317 379
#     4  10  22  40  62  92 120 160 213 256 309 375
#     4  10  21  37  62  91 128 161 193 251 319 375
#     4   9  20  34  52  84 127 163 192 242 311 379
#     4  11  22  37  62  89 117 163 214 255 301 367
#
# _framework density 20.799790000000002
#
# number of rings (size 3 to 8) (size 9 to 14) (size 15 to 20)
#    0.000    2.000    0.000    3.000    7.000    2.000 
#    0.000    0.625    0.000    5.250    0.000    0.000 
#    0.000    0.000    0.000    0.000    0.000    0.000 
#
# Total GULP energy -178367.157860 kJ/mol
# GULP energy per Si atom -5573.973683 kJ/mol
# Density = 2.075245 g / cm^3
# Si number density = 20.799790 Si / 1000 Ang^3
#
#
#
# Elastic Constant Matrix: (Units=GPa)
#
#
# Indices 1 2 3 4 5 6 
#
# 1 109.4690 32.6176 36.5202 0.0000 -7.3311 0.0000
# 2 32.6176 84.5244 35.3010 0.0000 -14.7143 0.0000
# 3 36.5202 35.3010 73.9959 0.0000 -6.9981 0.0000
# 4 0.0000 0.0000 0.0000 32.4169 0.0000 5.1263
# 5 -7.3311 -14.7143 -6.9981 0.0000 38.9510 0.0000
# 6 0.0000 0.0000 0.0000 5.1263 0.0000 1.9862
#
#
#
# Elastic Compliance Matrix: (Units=1/GPa)
#
#
# Indices 1 2 3 4 5 6 
#
# 1 0.011366 -0.002482 -0.004386 0.000000 0.000413 0.000000
# 2 -0.002482 0.016093 -0.006024 0.000000 0.004530 0.000000
# 3 -0.004386 -0.006024 0.018575 0.000000 0.000236 0.000000
# 4 0.000000 0.000000 0.000000 0.052120 0.000000 -0.134517
# 5 0.000413 0.004530 0.000236 0.000000 0.027505 0.000000
# 6 0.000000 0.000000 0.000000 -0.134517 0.000000 0.850642
#
#
# Mechanical properties :
#
#
# Convention : Reuss Voigt Hill
#
# Bulk Modulus (GPa) = 49.38440 52.98520 51.18480
# Shear Modulus (GPa) = 4.95621 25.57420 15.26521
#
# Velocity S-wave (km/s) = 1.54531 3.51029 2.71202
# Velocity P-wave (km/s) = 5.19406 6.47755 5.87099
#
# Compressibility (1/GPa) = 0.02024931
#
# Stress axis : x y z
#
# Youngs Moduli (GPa) = 87.98519 62.13790 53.83506
#
# Poissons Ratio (x) = 0.15423 0.23613
# Poissons Ratio (y) = 0.21839 0.32431
# Poissons Ratio (z) = 0.38592 0.37433
#
# Static dielectric constant tensor:
#      x y z
#    x 1.800490 0.000000 0.029890 
#    y 0.000000 1.780420 0.000000 
#    z 0.029890 0.000000 1.815260 
# 
# From -- ./inp_files/48447.got.cif
#   From: 2010.05.17/outbox.cif.g08.bks.cpg/sg11_25_cif.got.tgz:48447.got - 2010.06.03 12:22:45.
