data_PCOD9162142
_publ_section_title
;
Structure prediction by ZEFSAII (Michael W. Deem and Ramdas Pophale) SiO2 
 PCOD9162142
Probable space group: P 21/M
;
_chemical_formula_sum "Si O2"
_cell_formula_units_Z 32
_cell_length_a 19.783259
_cell_length_b 9.023645
_cell_length_c 12.888046
_cell_angle_alpha 90.000000
_cell_angle_beta 114.995550
_cell_angle_gamma 90.000000
_cell_volume 2085.251077
_symmetry_space_group_name_H-M "P 21/M"
_symmetry_group_IT_number 11
_symmetry_cell_setting 'monoclinic'
loop_
_space_group_symop_operation_xyz
x,y,z
-x,1/2+y,-z
-x,-y,-z
x,1/2-y,z
loop_
_atom_site_type_symbol
_atom_site_label
_atom_site_fract_x
_atom_site_fract_y
_atom_site_fract_z
Si Si1 0.839300 0.928044 0.999011
Si Si2 0.195813 0.927614 0.463939
Si Si3 0.043458 0.075573 0.434481
Si Si4 0.691566 0.426256 0.292137
Si Si5 0.850807 0.072425 0.795035
Si Si6 0.733126 0.576004 0.120962
Si Si7 0.993805 0.425866 0.167995
Si Si8 0.574903 0.576715 0.085604
O O1 0.844117 0.750000 0.994312
O O2 0.782017 0.965797 0.054369
O O3 0.816596 0.998574 0.874713
O O4 0.919364 0.996795 0.079598
O O5 0.186487 0.750000 0.468029
O O6 0.269954 0.968888 0.575091
O O7 0.193291 0.961873 0.340025
O O8 0.124611 0.004976 0.469560
O O9 0.050686 0.250000 0.458738
O O10 0.000873 0.055969 0.297030
O O11 0.000000 0.000000 0.500000
O O12 0.682840 0.250000 0.281899
O O13 0.745630 0.480388 0.233008
O O14 0.613574 0.503857 0.212040
O O15 0.856104 0.250000 0.809689
O O16 0.933236 0.003199 0.832902
O O17 0.746917 0.750000 0.152966
O O18 0.643554 0.560176 0.047964
O O19 0.993908 0.250000 0.144367
O O20 0.562209 0.750000 0.093957
O O21 0.500000 0.500000 0.000000
#
# Coordination Sequence:
#
# PCOD9162142 Si02
#       8
#     4   4   4   4   4   4   4   4
#     4  11  21  34  50  69  95 126 161 205 249 290
#     4   9  19  34  49  67  93 123 159 199 240 285
#     4  10  21  32  45  64  89 121 158 198 245 293
#     4   9  17  30  50  73  98 126 155 190 231 280
#     4  10  20  35  51  68  91 125 166 209 249 288
#     4   8  19  33  46  70 101 128 156 189 236 287
#     4  10  21  35  48  66  89 122 165 207 249 295
#     4   9  17  31  49  75 105 133 158 186 228 280
#
# _framework density 15.345874
#
# number of rings (size 3 to 8) (size 9 to 14) (size 15 to 20)
#    0.750    1.750    0.000    2.250    1.750    4.000 
#    0.000    0.000    0.000    0.000    0.000    0.875 
#    0.000    0.000    0.000    0.000    0.000    0.000 
#
# Total GULP energy -178204.789567 kJ/mol
# GULP energy per Si atom -5568.899674 kJ/mol
# Density = 1.531095 g / cm^3
# Si number density = 15.345874 Si / 1000 Ang^3
#
#
#
# Elastic Constant Matrix: (Units=GPa)
#
#
# Indices 1 2 3 4 5 6 
#
# 1 35.8314 27.5065 43.8246 0.0000 6.1692 0.0000
# 2 27.5065 61.1343 51.0481 0.0000 6.3501 0.0000
# 3 43.8246 51.0481 100.9255 0.0000 19.7288 0.0000
# 4 0.0000 0.0000 0.0000 23.5578 0.0000 -2.3269
# 5 6.1692 6.3501 19.7288 0.0000 19.2578 0.0000
# 6 0.0000 0.0000 0.0000 -2.3269 0.0000 23.0145
#
#
#
# Elastic Compliance Matrix: (Units=1/GPa)
#
#
# Indices 1 2 3 4 5 6 
#
# 1 0.063425 -0.008789 -0.024621 0.000000 0.007803 0.000000
# 2 -0.008789 0.030238 -0.012603 0.000000 0.005756 0.000000
# 3 -0.024621 -0.012603 0.030785 0.000000 -0.019495 0.000000
# 4 0.000000 0.000000 0.000000 0.042877 0.000000 0.004335
# 5 0.007803 0.005756 -0.019495 0.000000 0.067501 0.000000
# 6 0.000000 0.000000 0.000000 0.004335 0.000000 0.043889
#
#
# Mechanical properties :
#
#
# Convention : Reuss Voigt Hill
#
# Bulk Modulus (GPa) = 30.84324 49.18330 40.01327
# Shear Modulus (GPa) = 13.10453 18.20015 15.65234
#
# Velocity S-wave (km/s) = 2.92540 3.44757 3.19716
# Velocity P-wave (km/s) = 5.61721 6.92582 6.30555
#
# Compressibility (1/GPa) = 0.03242201
#
# Stress axis : x y z
#
# Youngs Moduli (GPa) = 15.76664 33.07121 32.48366
#
# Poissons Ratio (x) = 0.29066 0.79977
# Poissons Ratio (y) = 0.13857 0.40939
# Poissons Ratio (z) = 0.38819 0.41680
#
# Static dielectric constant tensor:
#      x y z
#    x 1.484950 0.000000 -0.004230 
#    y 0.000000 1.511650 0.000000 
#    z -0.004230 0.000000 1.529370 
# 
# From -- ./inp_files/42555.got.cif
#   From: 2010.05.17/outbox.cif.g08.bks.cpg/sg11_22_cif.got.tgz:42555.got - 2010.06.03 12:22:45.
