data_PCOD9162743
_publ_section_title
;
Structure prediction by ZEFSAII (Michael W. Deem and Ramdas Pophale) SiO2 
 PCOD9162743
Probable space group: P 21/M
;
_chemical_formula_sum "Si O2"
_cell_formula_units_Z 28
_cell_length_a 8.973809
_cell_length_b 15.158264
_cell_length_c 21.223462
_cell_angle_alpha 90.000000
_cell_angle_beta 32.068530
_cell_angle_gamma 90.000000
_cell_volume 1532.789125
_symmetry_space_group_name_H-M "P 21/M"
_symmetry_group_IT_number 11
_symmetry_cell_setting 'monoclinic'
loop_
_space_group_symop_operation_xyz
x,y,z
-x,1/2+y,-z
-x,-y,-z
x,1/2-y,z
loop_
_atom_site_type_symbol
_atom_site_label
_atom_site_fract_x
_atom_site_fract_y
_atom_site_fract_z
Si Si1 0.731698 0.008523 0.860135
Si Si2 0.288238 0.474586 0.737226
Si Si3 0.151164 0.909585 0.425944
Si Si4 0.619784 0.148264 0.791557
Si Si5 0.033739 0.094999 0.955491
Si Si6 0.596601 0.848059 0.672253
Si Si7 0.405657 0.348793 0.181439
O O1 0.673094 0.091247 0.835000
O O2 0.051752 0.016245 0.769325
O O3 0.702160 0.921786 0.827707
O O4 0.500000 0.000000 0.000000
O O5 0.566684 0.413064 0.632476
O O6 0.123420 0.428994 0.853245
O O7 0.404983 0.572022 0.714856
O O8 0.247207 0.897668 0.318901
O O9 0.896211 0.844272 0.530349
O O10 0.000000 0.000000 0.500000
O O11 0.712939 0.250000 0.762771
O O12 0.286484 0.145041 0.898404
O O13 0.742926 0.145381 0.059982
O O14 0.000000 0.000000 0.000000
O O15 0.464163 0.750000 0.717140
O O16 0.666759 0.868669 0.720048
O O17 0.311785 0.250000 0.199284
#
# Coordination Sequence:
#
# PCOD9162743 Si02
#       7
#     4   4   4   4   4   4   4
#     4  12  23  39  56  83 130 161 190 241 302 371
#     4  10  20  35  60  84 113 159 194 237 301 359
#     4   9  19  39  64  86 111 149 201 251 297 345
#     4  11  23  38  61  88 119 160 206 251 300 357
#     4  11  17  37  59  82 114 152 200 251 299 351
#     4  10  20  37  61  88 113 146 199 254 297 349
#     4  11  22  36  59  86 116 155 201 248 300 361
#
# _framework density 18.267353
#
# number of rings (size 3 to 8) (size 9 to 14) (size 15 to 20)
#    0.000    1.429    4.286    2.571    0.000    1.143 
#    0.000    7.857    0.000    3.429    0.000    0.000 
#    0.000    0.000    0.000    0.000    0.000    0.000 
#
# Total GULP energy -155989.819137 kJ/mol
# GULP energy per Si atom -5571.064969 kJ/mol
# Density = 1.822578 g / cm^3
# Si number density = 18.267353 Si / 1000 Ang^3
#
#
#
# Elastic Constant Matrix: (Units=GPa)
#
#
# Indices 1 2 3 4 5 6 
#
# 1 119.3020 42.8750 33.1585 0.0000 -4.1204 0.0000
# 2 42.8750 108.6024 3.9290 0.0000 12.2237 0.0000
# 3 33.1585 3.9290 81.7409 0.0000 4.3221 0.0000
# 4 0.0000 0.0000 0.0000 6.8018 0.0000 -21.8201
# 5 -4.1204 12.2237 4.3221 0.0000 15.4423 0.0000
# 6 0.0000 0.0000 0.0000 -21.8201 0.0000 -22.7827
#
#
#
# Elastic Compliance Matrix: (Units=1/GPa)
#
#
# Indices 1 2 3 4 5 6 
#
# 1 0.012156 -0.005643 -0.005143 0.000000 0.009150 0.000000
# 2 -0.005643 0.012728 0.002324 0.000000 -0.012231 0.000000
# 3 -0.005143 0.002324 0.014594 0.000000 -0.007297 0.000000
# 4 0.000000 0.000000 0.000000 0.036101 0.000000 -0.034576
# 5 0.009150 -0.012231 -0.007297 0.000000 0.078923 0.000000
# 6 0.000000 0.000000 0.000000 -0.034576 0.000000 -0.010778
#
#
# Mechanical properties :
#
#
# Convention : Reuss Voigt Hill
#
# Bulk Modulus (GPa) = 44.33883 52.17445 48.25664
# Shear Modulus (GPa) = 29.73255 15.20449 22.46852
#
# Velocity S-wave (km/s) = 4.03877 2.88815 3.51092
# Velocity P-wave (km/s) = 6.78777 6.30440 6.55054
#
# Compressibility (1/GPa) = 0.02255359
#
# Stress axis : x y z
#
# Youngs Moduli (GPa) = 82.26726 78.56607 68.51965
#
# Poissons Ratio (x) = 0.44332 0.35243
# Poissons Ratio (y) = 0.46420 -0.15923
# Poissons Ratio (z) = 0.42314 -0.18258
#
# Static dielectric constant tensor:
#      x y z
#    x 1.613570 0.000000 0.003160 
#    y 0.000000 1.677800 0.000000 
#    z 0.003160 0.000000 1.733890 
# 
# From -- ./inp_files/22123.got.cif
#   From: 2010.05.17/outbox.cif.g08.bks.cpg/sg11_12_cif.got.tgz:22123.got - 2010.06.03 12:22:45.
