data_PCOD9162727
_publ_section_title
;
Structure prediction by ZEFSAII (Michael W. Deem and Ramdas Pophale) SiO2 
 PCOD9162727
Probable space group: P 21/M
;
_chemical_formula_sum "Si O2"
_cell_formula_units_Z 28
_cell_length_a 9.812733
_cell_length_b 8.951872
_cell_length_c 27.703500
_cell_angle_alpha 90.000000
_cell_angle_beta 141.482491
_cell_angle_gamma 90.000000
_cell_volume 1515.496186
_symmetry_space_group_name_H-M "P 21/M"
_symmetry_group_IT_number 11
_symmetry_cell_setting 'monoclinic'
loop_
_space_group_symop_operation_xyz
x,y,z
-x,1/2+y,-z
-x,-y,-z
x,1/2-y,z
loop_
_atom_site_type_symbol
_atom_site_label
_atom_site_fract_x
_atom_site_fract_y
_atom_site_fract_z
Si Si1 0.845822 0.430051 0.498639
Si Si2 0.962699 0.926448 0.192354
Si Si3 0.723564 0.078321 0.046658
Si Si4 0.672604 0.426120 0.194538
Si Si5 0.920212 0.928283 0.623173
Si Si6 0.628976 0.428894 0.626333
Si Si7 0.770256 0.421916 0.944686
O O1 0.851877 0.250000 0.498562
O O2 0.598327 0.491308 0.424893
O O3 0.000000 0.500000 0.500000
O O4 0.917439 0.490809 0.571066
O O5 0.924943 0.750000 0.179398
O O6 0.196678 0.952631 0.282166
O O7 0.922355 0.998063 0.129218
O O8 0.784832 0.997442 0.179277
O O9 0.719285 0.250000 0.061055
O O10 0.736529 0.072599 0.992912
O O11 0.500000 0.000000 0.000000
O O12 0.651591 0.250000 0.180051
O O13 0.845477 0.448409 0.285707
O O14 0.435455 0.496504 0.136617
O O15 0.879420 0.750000 0.606827
O O16 0.739901 0.000383 0.609150
O O17 0.599894 0.250000 0.611706
O O18 0.776635 0.250000 0.930906
O O19 0.000000 0.500000 0.000000
#
# Coordination Sequence:
#
# PCOD9162727 Si02
#       7
#     4   4   4   4   4   4   4
#     4  12  25  42  63  88 121 159 196 240 295 354
#     4  10  20  35  59  90 120 152 195 244 293 343
#     4  11  22  36  59  87 117 155 198 244 294 348
#     4  10  20  36  61  88 118 154 195 243 293 345
#     4  10  21  39  64  93 120 154 198 243 293 349
#     4  10  21  39  63  91 122 156 198 245 291 347
#     4  11  24  40  58  83 117 158 201 245 295 351
#
# _framework density 18.475795999999999
#
# number of rings (size 3 to 8) (size 9 to 14) (size 15 to 20)
#    0.000    1.429    1.429    4.286    0.000    5.143 
#    2.571    0.000    0.000    0.000    0.000    0.000 
#    0.000    0.000    0.000    0.000    0.000    0.000 
#
# Total GULP energy -156471.453940 kJ/mol
# GULP energy per Si atom -5588.266212 kJ/mol
# Density = 1.843374 g / cm^3
# Si number density = 18.475796 Si / 1000 Ang^3
#
#
#
# Elastic Constant Matrix: (Units=GPa)
#
#
# Indices 1 2 3 4 5 6 
#
# 1 87.9905 67.9860 56.0136 0.0000 20.9454 0.0000
# 2 67.9860 163.2219 85.8584 0.0000 13.5316 0.0000
# 3 56.0136 85.8584 112.9725 0.0000 15.6643 0.0000
# 4 0.0000 0.0000 0.0000 36.2847 0.0000 0.1310
# 5 20.9454 13.5316 15.6643 0.0000 32.0266 0.0000
# 6 0.0000 0.0000 0.0000 0.1310 0.0000 31.8970
#
#
#
# Elastic Compliance Matrix: (Units=1/GPa)
#
#
# Indices 1 2 3 4 5 6 
#
# 1 0.020760 -0.005238 -0.005081 0.000000 -0.008879 0.000000
# 2 -0.005238 0.011538 -0.006405 0.000000 0.001684 0.000000
# 3 -0.005081 -0.006405 0.016523 0.000000 -0.002052 0.000000
# 4 0.000000 0.000000 0.000000 0.027560 0.000000 -0.000113
# 5 -0.008879 0.001684 -0.002052 0.000000 0.037323 0.000000
# 6 0.000000 0.000000 0.000000 -0.000113 0.000000 0.031351
#
#
# Mechanical properties :
#
#
# Convention : Reuss Voigt Hill
#
# Bulk Modulus (GPa) = 65.04992 87.10011 76.07502
# Shear Modulus (GPa) = 27.22859 30.33011 28.77935
#
# Velocity S-wave (km/s) = 3.84310 4.05608 3.95103
# Velocity P-wave (km/s) = 7.41466 8.31750 7.87902
#
# Compressibility (1/GPa) = 0.01537281
#
# Stress axis : x y z
#
# Youngs Moduli (GPa) = 48.16868 86.66857 60.51996
#
# Poissons Ratio (x) = 0.45400 0.30751
# Poissons Ratio (y) = 0.25232 0.38764
# Poissons Ratio (z) = 0.24475 0.55513
#
# Static dielectric constant tensor:
#      x y z
#    x 1.601010 0.000000 -0.007410 
#    y 0.000000 1.622580 0.000000 
#    z -0.007410 0.000000 1.652950 
# 
# From -- ./inp_files/23985.got.cif
#   From: 2010.05.17/outbox.cif.g08.bks.cpg/sg11_12_cif.got.tgz:23985.got - 2010.06.03 12:22:45.
