data_PCOD9162572
_publ_section_title
;
Structure prediction by ZEFSAII (Michael W. Deem and Ramdas Pophale) SiO2 
 PCOD9162572
Probable space group: P 21/M
;
_chemical_formula_sum "Si O2"
_cell_formula_units_Z 16
_cell_length_a 5.160875
_cell_length_b 9.286828
_cell_length_c 14.539799
_cell_angle_alpha 90.000000
_cell_angle_beta 82.331798
_cell_angle_gamma 90.000000
_cell_volume 690.634003
_symmetry_space_group_name_H-M "P 21/M"
_symmetry_group_IT_number 11
_symmetry_cell_setting 'monoclinic'
loop_
_space_group_symop_operation_xyz
x,y,z
-x,1/2+y,-z
-x,-y,-z
x,1/2-y,z
loop_
_atom_site_type_symbol
_atom_site_label
_atom_site_fract_x
_atom_site_fract_y
_atom_site_fract_z
Si Si1 0.416632 0.401858 0.146787
Si Si2 0.774384 0.901667 0.047833
Si Si3 0.000510 0.421633 0.315933
Si Si4 0.476369 0.573201 0.400732
O O1 0.527157 0.250000 0.179146
O O2 0.607013 0.535949 0.138923
O O3 0.142096 0.424117 0.209521
O O4 0.389010 0.384013 0.038622
O O5 0.890469 0.750000 0.070297
O O6 0.000000 0.000000 0.000000
O O7 0.975686 0.250000 0.342326
O O8 0.212292 0.506999 0.368686
O O9 0.727589 0.504879 0.336688
O O10 0.500000 0.500000 0.500000
O O11 0.475969 0.750000 0.402618
#
# Coordination Sequence:
#
# PCOD9162572 Si02
#       4
#     4   4   4   4
#     4   9  21  39  58  84 120 164 211 257 315 377
#     4  10  20  35  57  85 120 163 208 259 313 371
#     4  11  24  44  70  99 133 175 220 271 328 392
#     4  12  26  46  70 100 134 171 216 269 331 396
#
# _framework density 23.167117999999999
#
# number of rings (size 3 to 8) (size 9 to 14) (size 15 to 20)
#    0.000    1.500    0.000    4.500    3.500    3.000 
#    0.000    0.000    0.000    0.000    0.000    0.000 
#    0.000    0.000    0.000    0.000    0.000    0.000 
#
# Total GULP energy -89230.656895 kJ/mol
# GULP energy per Si atom -5576.916056 kJ/mol
# Density = 2.311439 g / cm^3
# Si number density = 23.167118 Si / 1000 Ang^3
#
#
#
# Elastic Constant Matrix: (Units=GPa)
#
#
# Indices 1 2 3 4 5 6 
#
# 1 64.5199 45.7704 9.4044 0.0000 2.4307 0.0000
# 2 45.7704 221.0603 35.9251 0.0000 -23.7641 0.0000
# 3 9.4044 35.9251 106.2079 0.0000 -8.8538 0.0000
# 4 0.0000 0.0000 0.0000 28.7748 0.0000 -11.7115
# 5 2.4307 -23.7641 -8.8538 0.0000 38.3152 0.0000
# 6 0.0000 0.0000 0.0000 -11.7115 0.0000 37.5583
#
#
#
# Elastic Compliance Matrix: (Units=1/GPa)
#
#
# Indices 1 2 3 4 5 6 
#
# 1 0.018712 -0.004205 -0.000562 0.000000 -0.003925 0.000000
# 2 -0.004205 0.006010 -0.001354 0.000000 0.003682 0.000000
# 3 -0.000562 -0.001354 0.010050 0.000000 0.001518 0.000000
# 4 0.000000 0.000000 0.000000 0.039804 0.000000 0.012412
# 5 -0.003925 0.003682 0.001518 0.000000 0.028983 0.000000
# 6 0.000000 0.000000 0.000000 0.012412 0.000000 0.030496
#
#
# Mechanical properties :
#
#
# Convention : Reuss Voigt Hill
#
# Bulk Modulus (GPa) = 44.38354 63.77643 54.07999
# Shear Modulus (GPa) = 32.50873 40.97556 36.74215
#
# Velocity S-wave (km/s) = 3.75003 4.21015 3.98673
# Velocity P-wave (km/s) = 6.16035 7.15698 6.67729
#
# Compressibility (1/GPa) = 0.02253087
#
# Stress axis : x y z
#
# Youngs Moduli (GPa) = 53.44224 166.38850 99.50561
#
# Poissons Ratio (x) = 0.69965 0.05590
# Poissons Ratio (y) = 0.22472 0.13470
# Poissons Ratio (z) = 0.03002 0.22524
#
# Static dielectric constant tensor:
#      x y z
#    x 1.909720 0.000000 0.084350 
#    y 0.000000 1.943870 0.000000 
#    z 0.084350 0.000000 1.884380 
# 
# From -- ./inp_files/5909.got.cif
#   From: 2010.05.17/outbox.cif.g08.bks.cpg/sg11_3_cif.got.tgz:5909.got - 2010.06.03 12:22:45.
