data_PCOD9162694
_publ_section_title
;
Structure prediction by ZEFSAII (Michael W. Deem and Ramdas Pophale) SiO2 
 PCOD9162694
Probable space group: P 21/M
;
_chemical_formula_sum "Si O2"
_cell_formula_units_Z 24
_cell_length_a 17.666545
_cell_length_b 15.735397
_cell_length_c 12.135239
_cell_angle_alpha 90.000000
_cell_angle_beta 158.736178
_cell_angle_gamma 90.000000
_cell_volume 1223.434577
_symmetry_space_group_name_H-M "P 21/M"
_symmetry_group_IT_number 11
_symmetry_cell_setting 'monoclinic'
loop_
_space_group_symop_operation_xyz
x,y,z
-x,1/2+y,-z
-x,-y,-z
x,1/2-y,z
loop_
_atom_site_type_symbol
_atom_site_label
_atom_site_fract_x
_atom_site_fract_y
_atom_site_fract_z
Si Si1 0.821669 0.153922 0.128626
Si Si2 0.517977 0.654185 0.728598
Si Si3 0.517280 0.409201 0.904348
Si Si4 0.267628 0.411017 0.768876
Si Si5 0.436302 0.346470 0.463139
Si Si6 0.239583 0.012232 0.348734
O O1 0.901483 0.250000 0.238176
O O2 0.024091 0.095534 0.410874
O O3 0.660713 0.141745 0.012490
O O4 0.679974 0.141992 0.827537
O O5 0.437303 0.750000 0.637266
O O6 0.603638 0.651168 0.720635
O O7 0.348397 0.579571 0.501170
O O8 0.685116 0.631536 0.049267
O O9 0.420892 0.369965 0.884348
O O10 0.314110 0.442235 0.562022
O O11 0.657428 0.491389 0.123596
O O12 0.381569 0.250000 0.428428
O O13 0.325011 0.424333 0.371126
O O14 0.000000 0.000000 0.000000
#
# Coordination Sequence:
#
# PCOD9162694 Si02
#       6
#     4   4   4   4   4   4
#     4  10  20  35  59  84 108 150 193 236 296 349
#     4  10  21  38  57  86 120 152 195 245 297 356
#     4   9  21  39  56  85 118 149 197 249 284 353
#     4  10  20  38  60  82 116 156 193 239 298 356
#     4   9  20  39  59  85 118 150 199 252 292 352
#     4  10  21  37  60  88 116 158 199 240 303 352
#
# _framework density 19.616906
#
# number of rings (size 3 to 8) (size 9 to 14) (size 15 to 20)
#    0.000    2.333    0.000    1.500    2.333    2.000 
#    9.000    0.000    0.000    0.000    0.000    0.000 
#    0.000    0.000    0.000    0.000    0.000    0.000 
#
# Total GULP energy -133792.668512 kJ/mol
# GULP energy per Si atom -5574.694521 kJ/mol
# Density = 1.957226 g / cm^3
# Si number density = 19.616906 Si / 1000 Ang^3
#
#
#
# Elastic Constant Matrix: (Units=GPa)
#
#
# Indices 1 2 3 4 5 6 
#
# 1 78.1100 13.3224 32.9895 0.0000 -22.0670 0.0000
# 2 13.3224 74.7842 39.0650 0.0000 -8.5268 0.0000
# 3 32.9895 39.0650 103.4910 0.0000 5.2626 0.0000
# 4 0.0000 0.0000 0.0000 -0.9010 0.0000 -26.9438
# 5 -22.0670 -8.5268 5.2626 0.0000 18.9482 0.0000
# 6 0.0000 0.0000 0.0000 -26.9438 0.0000 -8.2084
#
#
#
# Elastic Compliance Matrix: (Units=1/GPa)
#
#
# Indices 1 2 3 4 5 6 
#
# 1 0.028961 0.006685 -0.013819 0.000000 0.040575 0.000000
# 2 0.006685 0.020020 -0.010693 0.000000 0.019765 0.000000
# 3 -0.013819 -0.010693 0.019442 0.000000 -0.026305 0.000000
# 4 0.000000 0.000000 0.000000 0.011423 0.000000 -0.037496
# 5 0.040575 0.019765 -0.026305 0.000000 0.116228 0.000000
# 6 0.000000 0.000000 0.000000 -0.037496 0.000000 0.001254
#
#
# Mechanical properties :
#
#
# Convention : Reuss Voigt Hill
#
# Bulk Modulus (GPa) = 30.51561 47.45990 38.98776
# Shear Modulus (GPa) = 20.49978 13.36831 16.93404
#
# Velocity S-wave (km/s) = 3.23616 2.61333 2.94128
# Velocity P-wave (km/s) = 5.43629 5.77511 5.60826
#
# Compressibility (1/GPa) = 0.03277011
#
# Stress axis : x y z
#
# Youngs Moduli (GPa) = 34.52885 49.94954 51.43598
#
# Poissons Ratio (x) = -0.33393 0.71078
# Poissons Ratio (y) = -0.23084 0.55002
# Poissons Ratio (z) = 0.47714 0.53412
#
# Static dielectric constant tensor:
#      x y z
#    x 1.730170 0.000000 -0.020600 
#    y 0.000000 1.736010 0.000000 
#    z -0.020600 0.000000 1.667090 
# 
# From -- ./inp_files/41915.got.cif
#   From: 2010.05.17/outbox.cif.g08.bks.cpg/sg11_21_cif.got.tgz:41915.got - 2010.06.03 12:22:45.
