data_PCOD9162269
_publ_section_title
;
Structure prediction by ZEFSAII (Michael W. Deem and Ramdas Pophale) SiO2 
 PCOD9162269
Probable space group: P 21/M
;
_chemical_formula_sum "Si O2"
_cell_formula_units_Z 24
_cell_length_a 9.793676
_cell_length_b 7.777860
_cell_length_c 22.134725
_cell_angle_alpha 90.000000
_cell_angle_beta 146.381794
_cell_angle_gamma 90.000000
_cell_volume 933.512508
_symmetry_space_group_name_H-M "P 21/M"
_symmetry_group_IT_number 11
_symmetry_cell_setting 'monoclinic'
loop_
_space_group_symop_operation_xyz
x,y,z
-x,1/2+y,-z
-x,-y,-z
x,1/2-y,z
loop_
_atom_site_type_symbol
_atom_site_label
_atom_site_fract_x
_atom_site_fract_y
_atom_site_fract_z
Si Si1 0.103617 0.549332 0.894249
Si Si2 0.008459 0.461048 0.371711
Si Si3 0.511819 0.055258 0.127337
Si Si4 0.330501 0.950479 0.179240
Si Si5 0.236499 0.457246 0.335003
Si Si6 0.324233 0.450425 0.591491
O O1 0.051686 0.750000 0.880535
O O2 0.910937 0.460755 0.868512
O O3 0.017294 0.500203 0.795165
O O4 0.376835 0.520430 0.019657
O O5 0.002957 0.250000 0.372746
O O6 0.751306 0.521829 0.248553
O O7 0.204763 0.511611 0.392318
O O8 0.093172 0.524125 0.468884
O O9 0.576164 0.250000 0.134983
O O10 0.318542 0.047751 0.111796
O O11 0.374111 0.750000 0.182116
O O12 0.552820 0.026161 0.302971
O O13 0.267110 0.250000 0.345439
O O14 0.455109 0.537835 0.376806
O O15 0.279872 0.250000 0.587123
#
# Coordination Sequence:
#
# PCOD9162269 Si02
#       6
#     4   4   4   4   4   4
#     4  10  20  35  55  78 103 132 170 214 256 300
#     4   9  19  35  53  76 107 139 168 203 254 308
#     4  11  22  35  52  74 104 141 174 207 252 304
#     4  10  20  35  55  78 103 132 170 214 256 300
#     4   9  18  34  56  79 103 133 169 210 254 301
#     4   9  18  34  56  79 103 133 169 210 254 301
#
# _framework density 25.709351000000002
#
# number of rings (size 3 to 8) (size 9 to 14) (size 15 to 20)
#    0.000    2.333    0.000    2.500    0.000    2.667 
#    0.000    3.333    0.000    0.000    0.000    0.000 
#    0.000    0.000    0.000    0.000    0.000    0.000 
#
# Total GULP energy -134170.070184 kJ/mol
# GULP energy per Si atom -5590.419591 kJ/mol
# Density = 2.565084 g / cm^3
# Si number density = 25.709351 Si / 1000 Ang^3
#
#
#
# Elastic Constant Matrix: (Units=GPa)
#
#
# Indices 1 2 3 4 5 6 
#
# 1 66.2092 3.1291 16.6353 0.0000 -17.3716 0.0000
# 2 3.1291 54.6538 13.6691 0.0000 -4.2943 0.0000
# 3 16.6353 13.6691 171.2735 0.0000 -18.0000 0.0000
# 4 0.0000 0.0000 0.0000 18.9204 0.0000 2.2656
# 5 -17.3716 -4.2943 -18.0000 0.0000 42.5584 0.0000
# 6 0.0000 0.0000 0.0000 2.2656 0.0000 18.6665
#
#
#
# Elastic Compliance Matrix: (Units=1/GPa)
#
#
# Indices 1 2 3 4 5 6 
#
# 1 0.017070 -0.000225 -0.000952 0.000000 0.006542 0.000000
# 2 -0.000225 0.018743 -0.001345 0.000000 0.001231 0.000000
# 3 -0.000952 -0.001345 0.006262 0.000000 0.002124 0.000000
# 4 0.000000 0.000000 0.000000 0.053633 0.000000 -0.006510
# 5 0.006542 0.001231 0.002124 0.000000 0.027190 0.000000
# 6 0.000000 0.000000 0.000000 -0.006510 0.000000 0.054362
#
#
# Mechanical properties :
#
#
# Convention : Reuss Voigt Hill
#
# Bulk Modulus (GPa) = 27.00492 39.88927 33.44710
# Shear Modulus (GPa) = 25.68754 33.27592 29.48173
#
# Velocity S-wave (km/s) = 3.16437 3.60156 3.39002
# Velocity P-wave (km/s) = 4.88648 5.73098 5.32549
#
# Compressibility (1/GPa) = 0.03703029
#
# Stress axis : x y z
#
# Youngs Moduli (GPa) = 58.58201 53.35359 159.70229
#
# Poissons Ratio (x) = 0.01201 0.15211
# Poissons Ratio (y) = 0.01318 0.21474
# Poissons Ratio (z) = 0.05580 0.07174
#
# Static dielectric constant tensor:
#      x y z
#    x 2.039940 0.000000 0.075780 
#    y 0.000000 1.833370 0.000000 
#    z 0.075780 0.000000 2.093150 
# 
# From -- ./inp_files/33789.got.cif
#   From: 2010.05.17/outbox.cif.g08.bks.cpg/sg11_17_cif.got.tgz:33789.got - 2010.06.03 12:22:45.
