data_PCOD9162852
_publ_section_title
;
Structure prediction by ZEFSAII (Michael W. Deem and Ramdas Pophale) SiO2 
 PCOD9162852
Probable space group: P 21/M
;
_chemical_formula_sum "Si O2"
_cell_formula_units_Z 32
_cell_length_a 28.922692
_cell_length_b 8.445017
_cell_length_c 23.594845
_cell_angle_alpha 90.000000
_cell_angle_beta 17.750963
_cell_angle_gamma 90.000000
_cell_volume 1757.056560
_symmetry_space_group_name_H-M "P 21/M"
_symmetry_group_IT_number 11
_symmetry_cell_setting 'monoclinic'
loop_
_space_group_symop_operation_xyz
x,y,z
-x,1/2+y,-z
-x,-y,-z
x,1/2-y,z
loop_
_atom_site_type_symbol
_atom_site_label
_atom_site_fract_x
_atom_site_fract_y
_atom_site_fract_z
Si Si1 0.400965 0.058978 0.350976
Si Si2 0.211667 0.942975 0.923722
Si Si3 0.458544 0.440978 0.924854
Si Si4 0.536713 0.941026 0.594473
Si Si5 0.084451 0.058406 0.663590
Si Si6 0.842014 0.560531 0.659451
Si Si7 0.774171 0.439458 0.613400
Si Si8 0.658312 0.060417 0.341889
O O1 0.407682 0.250000 0.343167
O O2 0.432186 0.003336 0.378200
O O3 0.233425 0.012052 0.525461
O O4 0.516074 0.997718 0.168898
O O5 0.209956 0.750000 0.926611
O O6 0.369411 0.992942 0.768970
O O7 0.218827 0.989442 0.848950
O O8 0.066494 0.997139 0.128316
O O9 0.459277 0.250000 0.924306
O O10 0.606411 0.493837 0.788393
O O11 0.302635 0.497011 0.135007
O O12 0.537178 0.750000 0.593789
O O13 0.658033 0.995817 0.405857
O O14 0.080954 0.250000 0.664496
O O15 0.110125 0.992593 0.570774
O O16 0.842605 0.750000 0.660997
O O17 0.817206 0.507769 0.623844
O O18 0.000000 0.500000 0.500000
O O19 0.772392 0.250000 0.618786
O O20 0.656156 0.250000 0.346534
O O21 0.500000 0.000000 0.500000
#
# Coordination Sequence:
#
# PCOD9162852 Si02
#       8
#     4   4   4   4   4   4   4   4
#     4   9  18  31  50  73  98 128 165 203 243 291
#     4   8  15  28  47  67  91 123 162 201 241 289
#     4   9  20  37  56  76 102 134 170 208 248 295
#     4   9  17  30  46  68  95 125 160 200 242 290
#     4   9  17  32  51  71  96 130 166 202 243 292
#     4  11  23  38  55  79 107 135 166 206 252 297
#     4  10  20  36  56  78 103 134 169 207 248 298
#     4   9  16  28  46  68  92 123 160 199 241 290
#
# _framework density 18.212275999999999
#
# number of rings (size 3 to 8) (size 9 to 14) (size 15 to 20)
#    0.000    2.750    0.000    2.250    0.000    3.000 
#    0.000    5.000    0.000    0.000    0.000    0.000 
#    0.000    0.000    0.000    0.000    0.000    0.000 
#
# Total GULP energy -178383.804797 kJ/mol
# GULP energy per Si atom -5574.493900 kJ/mol
# Density = 1.817082 g / cm^3
# Si number density = 18.212276 Si / 1000 Ang^3
#
#
#
# Elastic Constant Matrix: (Units=GPa)
#
#
# Indices 1 2 3 4 5 6 
#
# 1 176.8551 23.4308 120.3870 0.0000 43.3205 0.0000
# 2 23.4308 16.1501 23.6489 0.0000 5.1683 0.0000
# 3 120.3870 23.6489 224.9117 0.0000 44.4497 0.0000
# 4 0.0000 0.0000 0.0000 23.3638 0.0000 6.2350
# 5 43.3205 5.1683 44.4497 0.0000 24.7664 0.0000
# 6 0.0000 0.0000 0.0000 6.2350 0.0000 22.8669
#
#
#
# Elastic Compliance Matrix: (Units=1/GPa)
#
#
# Indices 1 2 3 4 5 6 
#
# 1 0.012349 -0.009200 -0.002717 0.000000 -0.014805 0.000000
# 2 -0.009200 0.080124 -0.005232 0.000000 0.008763 0.000000
# 3 -0.002717 -0.005232 0.008206 0.000000 -0.008885 0.000000
# 4 0.000000 0.000000 0.000000 0.046160 0.000000 -0.012586
# 5 -0.014805 0.008763 -0.008885 0.000000 0.080390 0.000000
# 6 0.000000 0.000000 0.000000 -0.012586 0.000000 0.047163
#
#
# Mechanical properties :
#
#
# Convention : Reuss Voigt Hill
#
# Bulk Modulus (GPa) = 15.06445 83.65003 49.35724
# Shear Modulus (GPa) = 15.11405 30.89608 23.00507
#
# Velocity S-wave (km/s) = 2.88389 4.12326 3.55796
# Velocity P-wave (km/s) = 4.40212 8.28846 6.63616
#
# Compressibility (1/GPa) = 0.06638144
#
# Stress axis : x y z
#
# Youngs Moduli (GPa) = 80.97901 12.48064 121.85664
#
# Poissons Ratio (x) = 0.11482 0.33105
# Poissons Ratio (y) = 0.74502 0.63757
# Poissons Ratio (z) = 0.21999 0.06530
#
# Static dielectric constant tensor:
#      x y z
#    x 1.610550 0.000000 0.012400 
#    y 0.000000 1.625700 0.000000 
#    z 0.012400 0.000000 1.631280 
# 
# From -- ./inp_files/66969.got.cif
#   From: 2010.05.17/outbox.cif.g08.bks.cpg/sg11_34_cif.got.tgz:66969.got - 2010.06.03 12:22:45.
