data_PCOD9162896
_publ_section_title
;
Structure prediction by ZEFSAII (Michael W. Deem and Ramdas Pophale) SiO2 
 PCOD9162896
Probable space group: P 21/M
;
_chemical_formula_sum "Si O2"
_cell_formula_units_Z 28
_cell_length_a 29.983471
_cell_length_b 8.581599
_cell_length_c 9.419351
_cell_angle_alpha 90.000000
_cell_angle_beta 141.734762
_cell_angle_gamma 90.000000
_cell_volume 1500.977346
_symmetry_space_group_name_H-M "P 21/M"
_symmetry_group_IT_number 11
_symmetry_cell_setting 'monoclinic'
loop_
_space_group_symop_operation_xyz
x,y,z
-x,1/2+y,-z
-x,-y,-z
x,1/2-y,z
loop_
_atom_site_type_symbol
_atom_site_label
_atom_site_fract_x
_atom_site_fract_y
_atom_site_fract_z
Si Si1 0.497751 0.438000 0.654132
Si Si2 0.225973 0.939065 0.654677
Si Si3 0.933349 0.935841 0.422238
Si Si4 0.362792 0.939015 0.814833
Si Si5 0.065221 0.937182 0.255636
Si Si6 0.357901 0.062926 0.483713
Si Si7 0.778014 0.062760 0.025557
O O1 0.500000 0.500000 0.500000
O O2 0.497863 0.250000 0.648732
O O3 0.425934 0.488280 0.557975
O O4 0.567953 0.486329 0.919289
O O5 0.228126 0.750000 0.659985
O O6 0.290473 0.992480 0.715518
O O7 0.145556 0.984786 0.405273
O O8 0.235049 0.986698 0.842358
O O9 0.933169 0.750000 0.419923
O O10 0.941273 0.998101 0.601974
O O11 0.856076 0.998623 0.176606
O O12 0.000000 0.000000 0.500000
O O13 0.361921 0.750000 0.805866
O O14 0.366250 0.003372 0.664822
O O15 0.062979 0.750000 0.253555
O O16 0.000000 0.000000 0.000000
O O17 0.356000 0.250000 0.479217
O O18 0.285385 0.998432 0.231712
O O19 0.779971 0.250000 0.027308
#
# Coordination Sequence:
#
# PCOD9162896 Si02
#       7
#     4   4   4   4   4   4   4
#     4  10  22  38  59  84 112 146 189 233 280 336
#     4   8  17  34  57  80 104 137 186 235 277 329
#     4  11  22  38  59  85 116 151 191 239 289 343
#     4  10  20  37  58  81 109 147 189 232 279 334
#     4  10  20  36  56  82 114 151 193 240 290 343
#     4  11  23  37  53  83 119 148 182 232 284 335
#     4  10  20  38  61  83 109 148 191 233 282 340
#
# _framework density 18.654513000000001
#
# number of rings (size 3 to 8) (size 9 to 14) (size 15 to 20)
#    0.000    2.000    0.000    4.714    0.000    4.000 
#    0.000    8.571    0.000    0.000    0.000    0.000 
#    0.000    0.000    0.000    0.000    0.000    0.000 
#
# Total GULP energy -156389.266772 kJ/mol
# GULP energy per Si atom -5585.330956 kJ/mol
# Density = 1.861205 g / cm^3
# Si number density = 18.654513 Si / 1000 Ang^3
#
#
#
# Elastic Constant Matrix: (Units=GPa)
#
#
# Indices 1 2 3 4 5 6 
#
# 1 176.6989 43.9438 112.6440 0.0000 23.4228 0.0000
# 2 43.9438 63.3383 51.0113 0.0000 7.6683 0.0000
# 3 112.6440 51.0113 207.7998 0.0000 14.6144 0.0000
# 4 0.0000 0.0000 0.0000 30.1869 0.0000 -5.4850
# 5 23.4228 7.6683 14.6144 0.0000 28.0404 0.0000
# 6 0.0000 0.0000 0.0000 -5.4850 0.0000 27.2825
#
#
#
# Elastic Compliance Matrix: (Units=1/GPa)
#
#
# Indices 1 2 3 4 5 6 
#
# 1 0.009721 -0.002701 -0.004243 0.000000 -0.005170 0.000000
# 2 -0.002701 0.020671 -0.003499 0.000000 -0.001573 0.000000
# 3 -0.004243 -0.003499 0.007946 0.000000 0.000360 0.000000
# 4 0.000000 0.000000 0.000000 0.034383 0.000000 0.006912
# 5 -0.005170 -0.001573 0.000360 0.000000 0.040224 0.000000
# 6 0.000000 0.000000 0.000000 0.006912 0.000000 0.038043
#
#
# Mechanical properties :
#
#
# Convention : Reuss Voigt Hill
#
# Bulk Modulus (GPa) = 57.30336 95.89282 76.59809
# Shear Modulus (GPa) = 28.13824 33.11780 30.62802
#
# Velocity S-wave (km/s) = 3.88801 4.21803 4.05638
# Velocity P-wave (km/s) = 7.13726 8.67402 7.94289
#
# Compressibility (1/GPa) = 0.01745098
#
# Stress axis : x y z
#
# Youngs Moduli (GPa) = 102.86558 48.37632 125.84779
#
# Poissons Ratio (x) = 0.13069 0.53397
# Poissons Ratio (y) = 0.27789 0.44039
# Poissons Ratio (z) = 0.43646 0.16929
#
# Static dielectric constant tensor:
#      x y z
#    x 1.627790 0.000000 0.020760 
#    y 0.000000 1.608040 0.000000 
#    z 0.020760 0.000000 1.621240 
# 
# From -- ./inp_files/26050.got.cif
#   From: 2010.05.17/outbox.cif.g08.bks.cpg/sg11_14_cif.got.tgz:26050.got - 2010.06.03 12:22:45.
