data_PCOD9162696
_publ_section_title
;
Structure prediction by ZEFSAII (Michael W. Deem and Ramdas Pophale) SiO2 
 PCOD9162696
Probable space group: P 21/M
;
_chemical_formula_sum "Si O2"
_cell_formula_units_Z 32
_cell_length_a 17.648250
_cell_length_b 14.698762
_cell_length_c 6.515129
_cell_angle_alpha 90.000000
_cell_angle_beta 78.537186
_cell_angle_gamma 90.000000
_cell_volume 1656.362471
_symmetry_space_group_name_H-M "P 21/M"
_symmetry_group_IT_number 11
_symmetry_cell_setting 'monoclinic'
loop_
_space_group_symop_operation_xyz
x,y,z
-x,1/2+y,-z
-x,-y,-z
x,1/2-y,z
loop_
_atom_site_type_symbol
_atom_site_label
_atom_site_fract_x
_atom_site_fract_y
_atom_site_fract_z
Si Si1 0.537289 0.554349 0.288320
Si Si2 0.677370 0.527738 0.452323
Si Si3 0.923712 0.526462 0.664233
Si Si4 0.709623 0.352392 0.155188
Si Si5 0.603605 0.433096 0.879439
Si Si6 0.828992 0.646304 0.420056
Si Si7 0.128998 0.850269 0.142887
Si Si8 0.963176 0.850409 0.009085
O O1 0.500000 0.500000 0.500000
O O2 0.615210 0.588452 0.356857
O O3 0.467230 0.608960 0.217127
O O4 0.566434 0.489392 0.088577
O O5 0.687308 0.432134 0.324735
O O6 0.646652 0.500320 0.695389
O O7 0.757001 0.581538 0.415088
O O8 0.874646 0.605584 0.587309
O O9 0.871151 0.436751 0.709906
O O10 0.952383 0.566808 0.862451
O O11 0.000000 0.500000 0.500000
O O12 0.692792 0.250000 0.239476
O O13 0.663602 0.368424 0.965136
O O14 0.800488 0.358894 0.053206
O O15 0.803952 0.750000 0.466785
O O16 0.892377 0.645232 0.205353
O O17 0.135719 0.750000 0.237918
O O18 0.045383 0.854630 0.079397
O O19 0.960827 0.750000 0.907862
#
# Coordination Sequence:
#
# PCOD9162696 Si02
#       8
#     4   4   4   4   4   4   4   4
#     4   8  16  33  60  88 114 153 192 229 281 344
#     4  10  20  35  59  85 117 155 193 238 293 345
#     4  12  23  35  61  82 108 147 196 243 295 348
#     4  10  21  35  54  83 119 153 192 241 292 349
#     4   9  17  34  59  86 117 151 191 233 284 345
#     4  11  24  41  59  84 116 153 199 246 294 349
#     4  10  21  38  56  80 116 152 194 243 290 347
#     4  10  22  40  58  80 114 153 195 244 292 341
#
# _framework density 19.319443
#
# number of rings (size 3 to 8) (size 9 to 14) (size 15 to 20)
#    0.000    2.000    1.250    2.250    1.750    2.000 
#    0.000    1.250    0.000   23.250    0.000    0.000 
#    0.000    0.000    0.000    0.000    0.000    0.000 
#
# Total GULP energy -178288.444840 kJ/mol
# GULP energy per Si atom -5571.513901 kJ/mol
# Density = 1.927547 g / cm^3
# Si number density = 19.319443 Si / 1000 Ang^3
#
#
#
# Elastic Constant Matrix: (Units=GPa)
#
#
# Indices 1 2 3 4 5 6 
#
# 1 112.4386 18.6938 24.7718 0.0000 3.6495 0.0000
# 2 18.6938 99.7744 37.9867 0.0000 -2.1757 0.0000
# 3 24.7718 37.9867 78.4883 0.0000 -3.6148 0.0000
# 4 0.0000 0.0000 0.0000 20.8449 0.0000 -1.8580
# 5 3.6495 -2.1757 -3.6148 0.0000 23.9741 0.0000
# 6 0.0000 0.0000 0.0000 -1.8580 0.0000 -3.9663
#
#
#
# Elastic Compliance Matrix: (Units=1/GPa)
#
#
# Indices 1 2 3 4 5 6 
#
# 1 0.009700 -0.000809 -0.002760 0.000000 -0.001966 0.000000
# 2 -0.000809 0.012355 -0.005707 0.000000 0.000384 0.000000
# 3 -0.002760 -0.005707 0.016484 0.000000 0.002388 0.000000
# 4 0.000000 0.000000 0.000000 0.046051 0.000000 -0.021573
# 5 -0.001966 0.000384 0.002388 0.000000 0.042406 0.000000
# 6 0.000000 0.000000 0.000000 -0.021573 0.000000 -0.242021
#
#
# Mechanical properties :
#
#
# Convention : Reuss Voigt Hill
#
# Bulk Modulus (GPa) = 50.03321 50.40067 50.21694
# Shear Modulus (GPa) = -55.67312 22.12047 -16.77632
#
# Velocity S-wave (km/s) = -5.37398 3.38743 -2.95000
# Velocity P-wave (km/s) = 3.54291 6.43772 3.80080
#
# Compressibility (1/GPa) = 0.01998673
#
# Stress axis : x y z
#
# Youngs Moduli (GPa) = 103.08981 80.93710 60.66569
#
# Poissons Ratio (x) = 0.06551 0.16746
# Poissons Ratio (y) = 0.08344 0.34619
# Poissons Ratio (z) = 0.28456 0.46187
#
# Static dielectric constant tensor:
#      x y z
#    x 1.710280 0.000000 0.019630 
#    y 0.000000 1.735920 0.000000 
#    z 0.019630 0.000000 1.669150 
# 
# From -- ./inp_files/8087.got.cif
#   From: 2010.05.17/outbox.cif.g08.bks.cpg/sg11_5_cif.got.tgz:8087.got - 2010.06.03 12:22:45.
