data_PCOD9162290
_publ_section_title
;
Structure prediction by ZEFSAII (Michael W. Deem and Ramdas Pophale) SiO2 
 PCOD9162290
Probable space group: P 21/M
;
_chemical_formula_sum "Si O2"
_cell_formula_units_Z 32
_cell_length_a 32.176520
_cell_length_b 8.685781
_cell_length_c 12.412467
_cell_angle_alpha 90.000000
_cell_angle_beta 29.923118
_cell_angle_gamma 90.000000
_cell_volume 1730.474204
_symmetry_space_group_name_H-M "P 21/M"
_symmetry_group_IT_number 11
_symmetry_cell_setting 'monoclinic'
loop_
_space_group_symop_operation_xyz
x,y,z
-x,1/2+y,-z
-x,-y,-z
x,1/2-y,z
loop_
_atom_site_type_symbol
_atom_site_label
_atom_site_fract_x
_atom_site_fract_y
_atom_site_fract_z
Si Si1 0.529383 0.066397 0.548580
Si Si2 0.227012 0.935841 0.204296
Si Si3 0.379320 0.935430 0.019448
Si Si4 0.286360 0.434304 0.846383
Si Si5 0.258486 0.435775 0.670583
Si Si6 0.919624 0.435696 0.314873
Si Si7 0.891949 0.564013 0.143773
Si Si8 0.593186 0.065871 0.798311
O O1 0.532728 0.250000 0.535790
O O2 0.500000 0.000000 0.500000
O O3 0.620209 0.999584 0.366806
O O4 0.462563 0.012293 0.786582
O O5 0.228622 0.750000 0.193759
O O6 0.301954 0.981131 0.117406
O O7 0.140294 0.984602 0.453650
O O8 0.242708 0.002574 0.051303
O O9 0.387937 0.750000 0.992240
O O10 0.369907 0.974287 0.166327
O O11 0.289854 0.250000 0.845111
O O12 0.245253 0.478594 0.824887
O O13 0.262523 0.250000 0.656293
O O14 0.182775 0.488428 0.764817
O O15 0.345071 0.500360 0.430397
O O16 0.916989 0.250000 0.315864
O O17 0.885126 0.499233 0.279490
O O18 0.016370 0.482528 0.105145
O O19 0.890245 0.750000 0.152269
O O20 0.589425 0.250000 0.797891
O O21 0.500000 0.000000 0.000000
#
# Coordination Sequence:
#
# PCOD9162290 Si02
#       8
#     4   4   4   4   4   4   4   4
#     4  12  23  36  55  79 107 142 184 227 274 325
#     4  10  20  35  55  79 108 142 180 226 279 329
#     4  10  21  36  54  78 109 142 180 227 277 326
#     4  11  23  38  55  77 108 147 190 232 274 324
#     4  10  22  39  57  79 112 152 189 228 275 328
#     4   9  18  34  58  87 115 142 178 227 280 330
#     4   9  18  35  59  85 113 147 183 222 274 333
#     4  11  23  38  57  82 112 146 184 229 276 328
#
# _framework density 18.492042000000001
#
# number of rings (size 3 to 8) (size 9 to 14) (size 15 to 20)
#    0.000    1.750    1.250    3.375    0.000    7.000 
#    0.000    0.625    0.000    0.000    0.000    0.000 
#    0.000    0.000    0.000    0.000    0.000    0.000 
#
# Total GULP energy -178772.881537 kJ/mol
# GULP energy per Si atom -5586.652548 kJ/mol
# Density = 1.844995 g / cm^3
# Si number density = 18.492042 Si / 1000 Ang^3
#
#
#
# Elastic Constant Matrix: (Units=GPa)
#
#
# Indices 1 2 3 4 5 6 
#
# 1 118.2657 26.5268 61.9913 0.0000 5.8088 0.0000
# 2 26.5268 16.6875 26.2697 0.0000 6.5097 0.0000
# 3 61.9913 26.2697 130.0191 0.0000 16.1644 0.0000
# 4 0.0000 0.0000 0.0000 25.2202 0.0000 6.8532
# 5 5.8088 6.5097 16.1644 0.0000 30.5365 0.0000
# 6 0.0000 0.0000 0.0000 6.8532 0.0000 25.8966
#
#
#
# Elastic Compliance Matrix: (Units=1/GPa)
#
#
# Indices 1 2 3 4 5 6 
#
# 1 0.014240 -0.018387 -0.003452 0.000000 0.003038 0.000000
# 2 -0.018387 0.114560 -0.012608 0.000000 -0.014250 0.000000
# 3 -0.003452 -0.012608 0.012277 0.000000 -0.003154 0.000000
# 4 0.000000 0.000000 0.000000 0.042723 0.000000 -0.011306
# 5 0.003038 -0.014250 -0.003154 0.000000 0.036877 0.000000
# 6 0.000000 0.000000 0.000000 -0.011306 0.000000 0.041607
#
#
# Mechanical properties :
#
#
# Convention : Reuss Voigt Hill
#
# Bulk Modulus (GPa) = 13.85378 54.94976 34.40177
# Shear Modulus (GPa) = 14.07501 26.34296 20.20899
#
# Velocity S-wave (km/s) = 2.76187 3.77842 3.30941
# Velocity P-wave (km/s) = 4.20459 6.98679 5.76601
#
# Compressibility (1/GPa) = 0.07218248
#
# Stress axis : x y z
#
# Youngs Moduli (GPa) = 70.22484 8.72903 81.45539
#
# Poissons Ratio (x) = 0.16050 0.28120
# Poissons Ratio (y) = 1.29122 1.02700
# Poissons Ratio (z) = 0.24243 0.11006
#
# Static dielectric constant tensor:
#      x y z
#    x 1.638060 0.000000 -0.000810 
#    y 0.000000 1.623620 0.000000 
#    z -0.000810 0.000000 1.622120 
# 
# From -- ./inp_files/45218.got.cif
#   From: 2010.05.17/outbox.cif.g08.bks.cpg/sg11_23_cif.got.tgz:45218.got - 2010.06.03 12:22:45.
