data_PCOD9162173
_publ_section_title
;
Structure prediction by ZEFSAII (Michael W. Deem and Ramdas Pophale) SiO2 
 PCOD9162173
Probable space group: P 21/M
;
_chemical_formula_sum "Si O2"
_cell_formula_units_Z 28
_cell_length_a 10.167714
_cell_length_b 8.219873
_cell_length_c 31.530012
_cell_angle_alpha 90.000000
_cell_angle_beta 143.725670
_cell_angle_gamma 90.000000
_cell_volume 1559.117814
_symmetry_space_group_name_H-M "P 21/M"
_symmetry_group_IT_number 11
_symmetry_cell_setting 'monoclinic'
loop_
_space_group_symop_operation_xyz
x,y,z
-x,1/2+y,-z
-x,-y,-z
x,1/2-y,z
loop_
_atom_site_type_symbol
_atom_site_label
_atom_site_fract_x
_atom_site_fract_y
_atom_site_fract_z
Si Si1 0.044952 0.443963 0.559089
Si Si2 0.651884 0.945951 1.000000
Si Si3 0.155210 0.946794 0.721432
Si Si4 0.750495 0.943963 0.559089
Si Si5 0.956236 0.447007 0.843165
Si Si6 0.740413 0.052993 0.156835
Si Si7 0.451950 0.446794 0.721432
O O1 0.051966 0.250000 0.561309
O O2 0.277609 0.503944 0.640092
O O3 0.000000 0.500000 0.500000
O O4 0.852659 0.500000 0.541063
O O5 0.659168 0.750000 1.000000
O O6 0.507823 0.001801 0.922172
O O7 0.896965 0.001801 0.077828
O O8 0.500000 0.000000 0.000000
O O9 0.151792 0.750000 0.721403
O O10 0.194306 0.005246 0.779437
O O11 0.922851 0.003944 0.640092
O O12 0.347943 1.000000 0.739177
O O13 0.754580 0.750000 0.561309
O O14 0.500000 0.000000 0.500000
O O15 0.953796 0.250000 0.842625
O O16 0.702880 0.505246 0.779437
O O17 0.085952 0.500000 0.834381
O O18 0.740673 0.250000 0.157375
O O19 0.455223 0.250000 0.721403
#
# Coordination Sequence:
#
# PCOD9162173 Si02
#       7
#     4   4   4   4   4   4   4
#     4  10  20  35  53  73  97 127 161 199 241 287
#     4   8  14  26  45  66  92 122 152 190 233 272
#     4   9  19  34  50  69  96 127 158 191 233 281
#     4  10  20  35  53  73  97 127 161 199 241 287
#     4   9  17  30  48  71  95 122 157 195 233 276
#     4   9  17  30  48  71  95 122 157 195 233 276
#     4   9  19  34  50  69  96 127 158 191 233 281
#
# _framework density 17.958873000000001
#
# number of rings (size 3 to 8) (size 9 to 14) (size 15 to 20)
#    0.000    2.857    0.000    0.857    0.000    3.429 
#    0.000    3.571    0.000    0.000    0.000    0.000 
#    0.000    0.000    0.000    0.000    0.000    0.000 
#
# Total GULP energy -155970.873525 kJ/mol
# GULP energy per Si atom -5570.388340 kJ/mol
# Density = 1.791800 g / cm^3
# Si number density = 17.958873 Si / 1000 Ang^3
#
#
#
# Elastic Constant Matrix: (Units=GPa)
#
#
# Indices 1 2 3 4 5 6 
#
# 1 110.2838 11.6860 126.5626 0.0000 -1.1971 0.0000
# 2 11.6860 11.6193 20.2230 0.0000 -0.1148 0.0000
# 3 126.5626 20.2230 185.4363 0.0000 0.1863 0.0000
# 4 0.0000 0.0000 0.0000 14.9762 0.0000 0.1633
# 5 -1.1971 -0.1148 0.1863 0.0000 36.3458 0.0000
# 6 0.0000 0.0000 0.0000 0.1633 0.0000 27.1175
#
#
#
# Elastic Compliance Matrix: (Units=1/GPa)
#
#
# Indices 1 2 3 4 5 6 
#
# 1 0.042777 0.009640 -0.030249 0.000000 0.001594 0.000000
# 2 0.009640 0.108404 -0.018403 0.000000 0.000754 0.000000
# 3 -0.030249 -0.018403 0.028046 0.000000 -0.001198 0.000000
# 4 0.000000 0.000000 0.000000 0.066777 0.000000 -0.000402
# 5 0.001594 0.000754 -0.001198 0.000000 0.027575 0.000000
# 6 0.000000 0.000000 0.000000 -0.000402 0.000000 0.036879
#
#
# Mechanical properties :
#
#
# Convention : Reuss Voigt Hill
#
# Bulk Modulus (GPa) = 9.88091 69.36475 39.62283
# Shear Modulus (GPa) = 11.84229 25.61242 18.72736
#
# Velocity S-wave (km/s) = 2.57069 3.78056 3.23273
# Velocity P-wave (km/s) = 3.78486 7.60033 6.00375
#
# Compressibility (1/GPa) = 0.10120526
#
# Stress axis : x y z
#
# Youngs Moduli (GPa) = 23.37690 9.22472 35.65554
#
# Poissons Ratio (x) = -0.08893 1.07854
# Poissons Ratio (y) = -0.22536 0.65616
# Poissons Ratio (z) = 0.70713 0.16976
#
# Static dielectric constant tensor:
#      x y z
#    x 1.559100 0.000000 -0.001520 
#    y 0.000000 1.640040 0.000000 
#    z -0.001520 0.000000 1.671760 
# 
# From -- ./inp_files/28970.got.cif
#   From: 2010.05.17/outbox.cif.g08.bks.cpg/sg11_15_cif.got.tgz:28970.got - 2010.06.03 12:22:45.
