data_PCOD9162132
_publ_section_title
;
Structure prediction by ZEFSAII (Michael W. Deem and Ramdas Pophale) SiO2 
 PCOD9162132
Probable space group: P 21/M
;
_chemical_formula_sum "Si O2"
_cell_formula_units_Z 24
_cell_length_a 14.333891
_cell_length_b 14.092864
_cell_length_c 11.376919
_cell_angle_alpha 90.000000
_cell_angle_beta 148.157435
_cell_angle_gamma 90.000000
_cell_volume 1212.501094
_symmetry_space_group_name_H-M "P 21/M"
_symmetry_group_IT_number 11
_symmetry_cell_setting 'monoclinic'
loop_
_space_group_symop_operation_xyz
x,y,z
-x,1/2+y,-z
-x,-y,-z
x,1/2-y,z
loop_
_atom_site_type_symbol
_atom_site_label
_atom_site_fract_x
_atom_site_fract_y
_atom_site_fract_z
Si Si1 0.632685 0.548094 0.381201
Si Si2 0.019085 0.045544 0.393167
Si Si3 0.192143 0.954979 0.209385
Si Si4 0.291122 0.455121 0.077962
Si Si5 0.735744 0.250000 0.776528
Si Si6 0.728324 0.750000 0.578217
Si Si7 0.920542 0.250000 0.205264
Si Si8 0.348223 0.250000 0.243570
O O1 0.713934 0.482854 0.570704
O O2 0.440340 0.502920 0.155048
O O3 0.629472 0.654125 0.431968
O O4 0.777134 0.548248 0.431879
O O5 0.940619 0.152622 0.298920
O O6 0.000000 0.000000 0.500000
O O7 0.900011 0.981877 0.178076
O O8 0.174002 0.844169 0.172982
O O9 0.302399 0.994004 0.216811
O O10 0.000000 0.000000 0.000000
O O11 0.318481 0.344258 0.134696
O O12 0.541841 0.250000 0.511357
O O13 0.754603 0.250000 0.938499
O O14 0.764695 0.750000 0.756634
O O15 0.912375 0.750000 0.704867
#
# Coordination Sequence:
#
# PCOD9162132 Si02
#       8
#     4   4   4   4   2   2   2   2
#     4  11  22  41  63  97 134 166 212 269 325 391
#     4  11  26  46  67  91 125 175 231 277 313 373
#     4  12  21  37  62  99 132 168 203 268 330 399
#     4  12  24  40  63  94 135 169 211 262 333 383
#     4  12  22  36  63  98 134 166 214 255 325 414
#     4  10  20  34  62  96 131 165 207 247 321 402
#     4  10  22  41  66  93 121 170 219 271 321 378
#     4  12  24  35  61 103 138 173 198 259 337 408
#
# _framework density 19.793797000000001
#
# number of rings (size 3 to 8) (size 9 to 14) (size 15 to 20)
#    0.000    0.667    6.667    2.500    0.000    1.333 
#    0.000    1.667    0.000    0.000    0.000    0.000 
#    0.000    0.000    0.000    0.000    0.000    0.000 
#
# Total GULP energy -134144.081448 kJ/mol
# GULP energy per Si atom -5589.336727 kJ/mol
# Density = 1.974875 g / cm^3
# Si number density = 19.793797 Si / 1000 Ang^3
#
#
#
# Elastic Constant Matrix: (Units=GPa)
#
#
# Indices 1 2 3 4 5 6 
#
# 1 83.2588 45.1466 17.0481 0.0000 0.7472 0.0000
# 2 45.1466 196.4874 29.1885 0.0000 -0.0472 0.0000
# 3 17.0481 29.1885 45.2543 0.0000 13.9523 0.0000
# 4 0.0000 0.0000 0.0000 70.1682 0.0000 53.2803
# 5 0.7472 -0.0472 13.9523 0.0000 34.5103 0.0000
# 6 0.0000 0.0000 0.0000 53.2803 0.0000 85.5702
#
#
#
# Elastic Compliance Matrix: (Units=1/GPa)
#
#
# Indices 1 2 3 4 5 6 
#
# 1 0.014283 -0.002678 -0.004063 0.000000 0.001330 0.000000
# 2 -0.002678 0.006218 -0.003453 0.000000 0.001462 0.000000
# 3 -0.004063 -0.003453 0.029507 0.000000 -0.011846 0.000000
# 4 0.000000 0.000000 0.000000 0.027032 0.000000 -0.016831
# 5 0.001330 0.001462 -0.011846 0.000000 0.033739 0.000000
# 6 0.000000 0.000000 0.000000 -0.016831 0.000000 0.022166
#
#
# Mechanical properties :
#
#
# Convention : Reuss Voigt Hill
#
# Bulk Modulus (GPa) = 33.76050 56.41855 45.08952
# Shear Modulus (GPa) = 30.63592 53.62422 42.13007
#
# Velocity S-wave (km/s) = 3.93842 5.21059 4.61852
# Velocity P-wave (km/s) = 6.14611 8.04769 7.16031
#
# Compressibility (1/GPa) = 0.02962041
#
# Stress axis : x y z
#
# Youngs Moduli (GPa) = 70.01393 160.82635 33.88991
#
# Poissons Ratio (x) = 0.43066 0.13771
# Poissons Ratio (y) = 0.18748 0.11701
# Poissons Ratio (z) = 0.28450 0.55526
#
# Static dielectric constant tensor:
#      x y z
#    x 1.730890 0.000000 0.063890 
#    y 0.000000 1.692690 0.000000 
#    z 0.063890 0.000000 1.736950 
# 
# From -- ./inp_files/39774.got.cif
#   From: 2010.05.17/outbox.cif.g08.bks.cpg/sg11_20_cif.got.tgz:39774.got - 2010.06.03 12:22:45.
