data_PCOD9162657
_publ_section_title
;
Structure prediction by ZEFSAII (Michael W. Deem and Ramdas Pophale) SiO2 
 PCOD9162657
Probable space group: P 21/M
;
_chemical_formula_sum "Si O2"
_cell_formula_units_Z 24
_cell_length_a 14.945112
_cell_length_b 8.957312
_cell_length_c 19.593311
_cell_angle_alpha 90.000000
_cell_angle_beta 31.294595
_cell_angle_gamma 90.000000
_cell_volume 1362.444585
_symmetry_space_group_name_H-M "P 21/M"
_symmetry_group_IT_number 11
_symmetry_cell_setting 'monoclinic'
loop_
_space_group_symop_operation_xyz
x,y,z
-x,1/2+y,-z
-x,-y,-z
x,1/2-y,z
loop_
_atom_site_type_symbol
_atom_site_label
_atom_site_fract_x
_atom_site_fract_y
_atom_site_fract_z
Si Si1 0.968085 0.572162 0.594099
Si Si2 0.048979 0.572267 0.896450
Si Si3 0.954733 0.072300 0.820740
Si Si4 0.687908 0.071871 0.875278
Si Si5 0.450337 0.927417 0.604571
Si Si6 0.235070 0.572804 0.539521
O O1 0.942298 0.750000 0.605157
O O2 0.806326 0.499396 0.738878
O O3 0.000000 0.500000 0.500000
O O4 0.133468 0.546853 0.535332
O O5 0.021858 0.750000 0.915289
O O6 0.251278 0.543744 0.750560
O O7 0.945534 0.499480 0.901148
O O8 0.000000 0.500000 0.000000
O O9 0.980598 0.250000 0.808861
O O10 0.790101 0.044382 0.879672
O O11 0.115521 0.998782 0.676190
O O12 0.677093 0.250000 0.872488
O O13 0.500000 0.000000 0.000000
O O14 0.476614 0.750000 0.583857
O O15 0.500000 0.000000 0.500000
O O16 0.579067 0.998051 0.575998
O O17 0.248008 0.750000 0.542732
#
# Coordination Sequence:
#
# PCOD9162657 Si02
#       6
#     4   4   4   4   4   4
#     4  10  21  38  60  86 118 153 190 238 290 341
#     4  11  24  40  58  83 116 153 191 234 286 338
#     4  10  20  36  60  85 113 150 191 234 283 338
#     4  10  21  38  61  88 115 150 194 237 285 343
#     4  11  22  36  59  87 114 148 191 235 279 336
#     4  10  20  35  58  87 115 148 192 234 281 337
#
# _framework density 17.615394999999999
#
# number of rings (size 3 to 8) (size 9 to 14) (size 15 to 20)
#    0.000    1.667    1.667    3.000    0.000    6.000 
#    3.000    0.000    0.000    0.000    0.000    0.000 
#    0.000    0.000    0.000    0.000    0.000    0.000 
#
# Total GULP energy -134079.593894 kJ/mol
# GULP energy per Si atom -5586.649746 kJ/mol
# Density = 1.757530 g / cm^3
# Si number density = 17.615395 Si / 1000 Ang^3
#
#
#
# Elastic Constant Matrix: (Units=GPa)
#
#
# Indices 1 2 3 4 5 6 
#
# 1 132.5306 90.3773 87.7402 0.0000 12.5426 0.0000
# 2 90.3773 111.8418 85.7313 0.0000 2.6189 0.0000
# 3 87.7402 85.7313 107.2156 0.0000 9.4207 0.0000
# 4 0.0000 0.0000 0.0000 33.5893 0.0000 -0.1984
# 5 12.5426 2.6189 9.4207 0.0000 37.5410 0.0000
# 6 0.0000 0.0000 0.0000 -0.1984 0.0000 35.8932
#
#
#
# Elastic Compliance Matrix: (Units=1/GPa)
#
#
# Indices 1 2 3 4 5 6 
#
# 1 0.020048 -0.009812 -0.008213 0.000000 -0.003953 0.000000
# 2 -0.009812 0.028259 -0.015012 0.000000 0.005074 0.000000
# 3 -0.008213 -0.015012 0.028344 0.000000 -0.003321 0.000000
# 4 0.000000 0.000000 0.000000 0.029772 0.000000 0.000165
# 5 -0.003953 0.005074 -0.003321 0.000000 0.028438 0.000000
# 6 0.000000 0.000000 0.000000 0.000165 0.000000 0.027861
#
#
# Mechanical properties :
#
#
# Convention : Reuss Voigt Hill
#
# Bulk Modulus (GPa) = 94.55427 97.69840 96.12633
# Shear Modulus (GPa) = 21.52164 27.25398 24.38781
#
# Velocity S-wave (km/s) = 3.49915 3.93767 3.72487
# Velocity P-wave (km/s) = 8.37371 8.73247 8.55497
#
# Compressibility (1/GPa) = 0.01057594
#
# Stress axis : x y z
#
# Youngs Moduli (GPa) = 49.87930 35.38669 35.28065
#
# Poissons Ratio (x) = 0.34723 0.28976
# Poissons Ratio (y) = 0.48944 0.52964
# Poissons Ratio (z) = 0.40967 0.53124
#
# Static dielectric constant tensor:
#      x y z
#    x 1.609540 0.000000 -0.011460 
#    y 0.000000 1.584530 0.000000 
#    z -0.011460 0.000000 1.564110 
# 
# From -- ./inp_files/20313.got.cif
#   From: 2010.05.17/outbox.cif.g08.bks.cpg/sg11_11_cif.got.tgz:20313.got - 2010.06.03 12:22:45.
