data_PCOD9162607
_publ_section_title
;
Structure prediction by ZEFSAII (Michael W. Deem and Ramdas Pophale) SiO2 
 PCOD9162607
Probable space group: P 21/M
;
_chemical_formula_sum "Si O2"
_cell_formula_units_Z 20
_cell_length_a 7.817963
_cell_length_b 13.079986
_cell_length_c 9.337308
_cell_angle_alpha 90.000000
_cell_angle_beta 102.861519
_cell_angle_gamma 90.000000
_cell_volume 930.866726
_symmetry_space_group_name_H-M "P 21/M"
_symmetry_group_IT_number 11
_symmetry_cell_setting 'monoclinic'
loop_
_space_group_symop_operation_xyz
x,y,z
-x,1/2+y,-z
-x,-y,-z
x,1/2-y,z
loop_
_atom_site_type_symbol
_atom_site_label
_atom_site_fract_x
_atom_site_fract_y
_atom_site_fract_z
Si Si1 0.285243 0.628499 0.126611
Si Si2 0.824114 0.870210 0.385213
Si Si3 0.367859 0.127499 0.952153
Si Si4 0.167688 0.981869 0.370719
Si Si5 0.071504 0.370622 0.113785
O O1 0.309714 0.750000 0.154608
O O2 0.432746 0.595084 0.040212
O O3 0.293470 0.574615 0.282071
O O4 0.092393 0.615562 0.022848
O O5 0.802947 0.750000 0.415943
O O6 0.735170 0.889797 0.215328
O O7 0.750953 0.948384 0.490089
O O8 0.029480 0.900332 0.407701
O O9 0.375418 0.250000 0.972886
O O10 0.247117 0.095331 0.062220
O O11 0.058158 0.062375 0.252832
O O12 0.081158 0.250000 0.149678
#
# Coordination Sequence:
#
# PCOD9162607 Si02
#       5
#     4   4   4   4   4
#     4  10  20  35  58  84 111 144 182 223 270 324
#     4  10  21  38  56  79 112 146 182 227 273 325
#     4   9  19  36  58  79 110 149 179 218 275 323
#     4  11  21  34  58  85 107 145 187 222 274 322
#     4  10  20  37  57  82 114 143 179 227 270 321
#
# _framework density 21.485354999999998
#
# number of rings (size 3 to 8) (size 9 to 14) (size 15 to 20)
#    0.000    2.000    2.000    1.800    0.000    1.600 
#    0.000    0.000    0.000    0.000    0.000    0.000 
#    0.000    0.000    0.000    0.000    0.000    0.000 
#
# Total GULP energy -111720.642532 kJ/mol
# GULP energy per Si atom -5586.032127 kJ/mol
# Density = 2.143645 g / cm^3
# Si number density = 21.485355 Si / 1000 Ang^3
#
#
#
# Elastic Constant Matrix: (Units=GPa)
#
#
# Indices 1 2 3 4 5 6 
#
# 1 76.9314 10.9431 4.1026 0.0000 -18.4640 0.0000
# 2 10.9431 81.2101 11.9750 0.0000 -8.4910 0.0000
# 3 4.1026 11.9750 44.0242 0.0000 -20.2470 0.0000
# 4 0.0000 0.0000 0.0000 42.2747 0.0000 -9.5905
# 5 -18.4640 -8.4910 -20.2470 0.0000 22.9834 0.0000
# 6 0.0000 0.0000 0.0000 -9.5905 0.0000 28.5194
#
#
#
# Elastic Compliance Matrix: (Units=1/GPa)
#
#
# Indices 1 2 3 4 5 6 
#
# 1 0.017873 -0.001436 0.008548 0.000000 0.021358 0.000000
# 2 -0.001436 0.013052 -0.002907 0.000000 0.001108 0.000000
# 3 0.008548 -0.002907 0.042655 0.000000 0.043369 0.000000
# 4 0.000000 0.000000 0.000000 0.025608 0.000000 0.008612
# 5 0.021358 0.001108 0.043369 0.000000 0.099283 0.000000
# 6 0.000000 0.000000 0.000000 0.008612 0.000000 0.037960
#
#
# Mechanical properties :
#
#
# Convention : Reuss Voigt Hill
#
# Bulk Modulus (GPa) = 12.19668 28.46744 20.33206
# Shear Modulus (GPa) = 19.58094 30.43184 25.00639
#
# Velocity S-wave (km/s) = 3.02215 3.76759 3.41527
# Velocity P-wave (km/s) = 4.22693 5.67493 5.00358
#
# Compressibility (1/GPa) = 0.08198949
#
# Stress axis : x y z
#
# Youngs Moduli (GPa) = 55.95008 76.61860 23.44406
#
# Poissons Ratio (x) = 0.11000 -0.20039
# Poissons Ratio (y) = 0.08033 0.06815
# Poissons Ratio (z) = -0.47824 0.22273
#
# Static dielectric constant tensor:
#      x y z
#    x 1.798670 0.000000 -0.011050 
#    y 0.000000 1.832310 0.000000 
#    z -0.011050 0.000000 1.754490 
# 
# From -- ./inp_files/12228.got.cif
#   From: 2010.05.17/outbox.cif.g08.bks.cpg/sg11_7_cif.got.tgz:12228.got - 2010.06.03 12:22:45.
