data_PCOD9162397
_publ_section_title
;
Structure prediction by ZEFSAII (Michael W. Deem and Ramdas Pophale) SiO2 
 PCOD9162397
Probable space group: P 21/M
;
_chemical_formula_sum "Si O2"
_cell_formula_units_Z 32
_cell_length_a 8.793865
_cell_length_b 15.234317
_cell_length_c 14.738202
_cell_angle_alpha 90.000000
_cell_angle_beta 120.177200
_cell_angle_gamma 90.000000
_cell_volume 1706.866979
_symmetry_space_group_name_H-M "P 21/M"
_symmetry_group_IT_number 11
_symmetry_cell_setting 'monoclinic'
loop_
_space_group_symop_operation_xyz
x,y,z
-x,1/2+y,-z
-x,-y,-z
x,1/2-y,z
loop_
_atom_site_type_symbol
_atom_site_label
_atom_site_fract_x
_atom_site_fract_y
_atom_site_fract_z
Si Si1 0.415007 0.154983 0.633564
Si Si2 0.039429 0.508714 0.118122
Si Si3 0.810958 0.849731 0.726526
Si Si4 0.541220 0.400101 0.486162
Si Si5 0.799126 0.473597 0.427374
Si Si6 0.285206 0.848921 0.132668
Si Si7 0.677376 0.444484 0.049833
Si Si8 0.180813 0.850774 0.737753
O O1 0.320221 0.250000 0.600711
O O2 0.537544 0.149929 0.580429
O O3 0.532612 0.153085 0.758622
O O4 0.301105 0.066886 0.600186
O O5 0.148831 0.425364 0.188146
O O6 0.153942 0.595849 0.157005
O O7 0.850256 0.506564 0.109217
O O8 0.000000 0.500000 0.000000
O O9 0.817703 0.750000 0.765088
O O10 0.623523 0.865582 0.622737
O O11 0.974261 0.857281 0.704810
O O12 0.500000 0.500000 0.500000
O O13 0.717560 0.409685 0.480194
O O14 0.777849 0.420535 0.327642
O O15 0.000000 0.500000 0.500000
O O16 0.221146 0.750000 0.099471
O O17 0.308077 0.895116 0.042241
O O18 0.703997 0.375886 0.139464
O O19 0.500000 0.500000 0.000000
O O20 0.213625 0.750000 0.720227
#
# Coordination Sequence:
#
# PCOD9162397 Si02
#       8
#     4   4   4   4   4   4   4   4
#     4  10  21  38  59  81 110 150 193 235 281 336
#     4   9  19  34  55  81 109 144 186 233 282 333
#     4  10  20  36  59  84 112 148 192 240 288 337
#     4  10  20  35  56  81 111 145 186 230 279 334
#     4  11  23  37  56  84 117 151 185 231 287 346
#     4  10  20  37  59  81 109 148 193 236 281 337
#     4  10  20  36  58  84 117 152 185 231 288 346
#     4  10  21  37  58  84 115 152 192 236 288 343
#
# _framework density 18.747798
#
# number of rings (size 3 to 8) (size 9 to 14) (size 15 to 20)
#    0.000    2.000    0.000    4.500    0.000    7.500 
#    0.000    1.250    0.000    6.750    0.000    0.000 
#    0.000    0.000    0.000    0.000    0.000    0.000 
#
# Total GULP energy -178387.304006 kJ/mol
# GULP energy per Si atom -5574.603250 kJ/mol
# Density = 1.870513 g / cm^3
# Si number density = 18.747798 Si / 1000 Ang^3
#
#
#
# Elastic Constant Matrix: (Units=GPa)
#
#
# Indices 1 2 3 4 5 6 
#
# 1 80.5900 59.4333 39.1770 0.0000 4.5499 0.0000
# 2 59.4333 149.6926 35.2838 0.0000 -6.0428 0.0000
# 3 39.1770 35.2838 88.2691 0.0000 -10.0867 0.0000
# 4 0.0000 0.0000 0.0000 22.5698 0.0000 0.7917
# 5 4.5499 -6.0428 -10.0867 0.0000 27.4210 0.0000
# 6 0.0000 0.0000 0.0000 0.7917 0.0000 24.3718
#
#
#
# Elastic Compliance Matrix: (Units=1/GPa)
#
#
# Indices 1 2 3 4 5 6 
#
# 1 0.021977 -0.007215 -0.007796 0.000000 -0.008104 0.000000
# 2 -0.007215 0.009752 -0.000327 0.000000 0.003226 0.000000
# 3 -0.007796 -0.000327 0.015720 0.000000 0.007004 0.000000
# 4 0.000000 0.000000 0.000000 0.044357 0.000000 -0.001441
# 5 -0.008104 0.003226 0.007004 0.000000 0.041101 0.000000
# 6 0.000000 0.000000 0.000000 -0.001441 0.000000 0.041078
#
#
# Mechanical properties :
#
#
# Convention : Reuss Voigt Hill
#
# Bulk Modulus (GPa) = 59.62147 65.14888 62.38518
# Shear Modulus (GPa) = 23.78077 27.18304 25.48190
#
# Velocity S-wave (km/s) = 3.56540 3.81193 3.69073
# Velocity P-wave (km/s) = 6.98716 7.36206 7.17706
#
# Compressibility (1/GPa) = 0.01677248
#
# Stress axis : x y z
#
# Youngs Moduli (GPa) = 45.50209 102.53849 63.61143
#
# Poissons Ratio (x) = 0.73984 0.49593
# Poissons Ratio (y) = 0.32831 0.02082
# Poissons Ratio (z) = 0.35474 0.03356
#
# Static dielectric constant tensor:
#      x y z
#    x 1.674060 0.000000 -0.002060 
#    y 0.000000 1.665830 0.000000 
#    z -0.002060 0.000000 1.651710 
# 
# From -- ./inp_files/47631.got.cif
#   From: 2010.05.17/outbox.cif.g08.bks.cpg/sg11_24_cif.got.tgz:47631.got - 2010.06.03 12:22:45.
