data_PCOD9162084
_publ_section_title
;
Structure prediction by ZEFSAII (Michael W. Deem and Ramdas Pophale) SiO2 
 PCOD9162084
Probable space group: P 21/M
;
_chemical_formula_sum "Si O2"
_cell_formula_units_Z 30
_cell_length_a 11.925453
_cell_length_b 19.194329
_cell_length_c 9.500222
_cell_angle_alpha 90.000000
_cell_angle_beta 37.249956
_cell_angle_gamma 90.000000
_cell_volume 1316.277614
_symmetry_space_group_name_H-M "P 21/M"
_symmetry_group_IT_number 11
_symmetry_cell_setting 'monoclinic'
loop_
_space_group_symop_operation_xyz
x,y,z
-x,1/2+y,-z
-x,-y,-z
x,1/2-y,z
loop_
_atom_site_type_symbol
_atom_site_label
_atom_site_fract_x
_atom_site_fract_y
_atom_site_fract_z
Si Si1 0.184258 0.674832 0.227105
Si Si2 0.748590 0.020444 0.942924
Si Si3 0.323449 0.575144 0.708910
Si Si4 0.307489 0.367520 0.508595
Si Si5 0.337165 0.988045 0.389366
Si Si6 0.002542 0.602947 0.641663
Si Si7 0.985269 0.668854 0.960420
Si Si8 0.540031 0.750000 0.851310
O O1 0.147384 0.750000 0.185545
O O2 0.193310 0.600242 0.143484
O O3 0.030275 0.663498 0.500324
O O4 0.395609 0.690435 0.063452
O O5 0.763075 0.017774 0.099031
O O6 0.534045 0.005095 0.125100
O O7 0.866151 0.961156 0.749868
O O8 0.498597 0.609786 0.611244
O O9 0.373126 0.541349 0.510624
O O10 0.170840 0.633184 0.831798
O O11 0.232474 0.438672 0.514271
O O12 0.350940 0.310720 0.347693
O O13 0.172746 0.342305 0.765786
O O14 0.206034 0.932277 0.447635
O O15 0.945431 0.633927 0.849269
O O16 0.014623 0.750000 0.908110
#
# Coordination Sequence:
#
# PCOD9162084 Si02
#       8
#     4   4   4   4   4   4   4   2
#     4  10  21  40  62  81 117 157 191 234 284 338
#     4  11  20  38  61  86 111 151 199 235 281 336
#     4  10  20  34  58  85 118 146 184 240 292 336
#     4  11  19  38  59  84 115 145 190 240 286 333
#     4  10  20  36  58  87 115 147 185 239 291 336
#     4  11  23  38  59  86 118 154 190 232 285 344
#     4  11  23  34  56  90 118 152 190 231 290 347
#     4  10  20  38  60  82 110 156 190 230 290 332
#
# _framework density 22.791544999999999
#
# number of rings (size 3 to 8) (size 9 to 14) (size 15 to 20)
#    0.400    1.067    3.333    4.800    0.933    3.200 
#    0.000    0.000    0.000    4.000    0.000    0.000 
#    0.000    0.000    0.000    0.000    0.000    0.000 
#
# Total GULP energy -167067.592141 kJ/mol
# GULP energy per Si atom -5568.919738 kJ/mol
# Density = 2.273967 g / cm^3
# Si number density = 22.791545 Si / 1000 Ang^3
#
#
#
# Elastic Constant Matrix: (Units=GPa)
#
#
# Indices 1 2 3 4 5 6 
#
# 1 -12.5463 -43.9226 17.0594 0.0000 37.7076 0.0000
# 2 -43.9226 71.0700 59.2121 0.0000 40.7758 0.0000
# 3 17.0594 59.2121 119.6050 0.0000 4.4516 0.0000
# 4 0.0000 0.0000 0.0000 50.5702 0.0000 5.5141
# 5 37.7076 40.7758 4.4516 0.0000 -0.9487 0.0000
# 6 0.0000 0.0000 0.0000 5.5141 0.0000 17.5821
#
#
#
# Elastic Compliance Matrix: (Units=1/GPa)
#
#
# Indices 1 2 3 4 5 6 
#
# 1 0.008471 -0.007573 0.001808 0.000000 0.019700 0.000000
# 2 -0.007573 0.007496 -0.002911 0.000000 0.007529 0.000000
# 3 0.001808 -0.002911 0.009813 0.000000 -0.007229 0.000000
# 4 0.000000 0.000000 0.000000 0.020475 0.000000 -0.006421
# 5 0.019700 0.007529 -0.007229 0.000000 0.018595 0.000000
# 6 0.000000 0.000000 0.000000 -0.006421 0.000000 0.058890
#
#
# Mechanical properties :
#
#
# Convention : Reuss Voigt Hill
#
# Bulk Modulus (GPa) = 118.65444 26.98072 72.81758
# Shear Modulus (GPa) = 34.74577 23.15940 28.95258
#
# Velocity S-wave (km/s) = 3.90872 3.19115 3.56802
# Velocity P-wave (km/s) = 8.51731 5.04397 6.99951
#
# Compressibility (1/GPa) = 0.00842783
#
# Stress axis : x y z
#
# Youngs Moduli (GPa) = 118.04433 133.40225 101.90259
#
# Poissons Ratio (x) = 1.01025 -0.18420
# Poissons Ratio (y) = 0.89395 0.29665
# Poissons Ratio (z) = -0.21338 0.38835
#
# Static dielectric constant tensor:
#      x y z
#    x 1.934470 0.000000 0.015140 
#    y 0.000000 1.845140 0.000000 
#    z 0.015140 0.000000 1.873310 
# 
# From -- ./inp_files/36124.got.cif
#   From: 2010.05.17/outbox.cif.g08.bks.cpg/sg11_19_cif.got.tgz:36124.got - 2010.06.03 12:22:45.
