data_PCOD9162404
_publ_section_title
;
Structure prediction by ZEFSAII (Michael W. Deem and Ramdas Pophale) SiO2 
 PCOD9162404
Probable space group: P 21/M
;
_chemical_formula_sum "Si O2"
_cell_formula_units_Z 32
_cell_length_a 16.355373
_cell_length_b 14.216158
_cell_length_c 11.983994
_cell_angle_alpha 90.000000
_cell_angle_beta 35.313436
_cell_angle_gamma 90.000000
_cell_volume 1610.678746
_symmetry_space_group_name_H-M "P 21/M"
_symmetry_group_IT_number 11
_symmetry_cell_setting 'monoclinic'
loop_
_space_group_symop_operation_xyz
x,y,z
-x,1/2+y,-z
-x,-y,-z
x,1/2-y,z
loop_
_atom_site_type_symbol
_atom_site_label
_atom_site_fract_x
_atom_site_fract_y
_atom_site_fract_z
Si Si1 0.850273 0.020352 0.059661
Si Si2 0.657895 0.481997 0.067380
Si Si3 0.076264 0.356688 0.671841
Si Si4 0.398827 0.362840 0.278308
Si Si5 0.080145 0.592031 0.368429
Si Si6 0.218284 0.642958 0.441258
Si Si7 0.933777 0.363669 0.164328
Si Si8 0.463675 0.362912 0.947303
O O1 0.971821 0.075844 0.854829
O O2 0.717962 0.009713 0.125098
O O3 0.831150 0.087034 0.188189
O O4 0.917811 0.919318 0.015823
O O5 0.517806 0.419132 0.212521
O O6 0.627529 0.581231 0.041427
O O7 0.780120 0.432665 0.857703
O O8 0.063454 0.250000 0.729182
O O9 0.239605 0.385828 0.492405
O O10 0.024709 0.357374 0.600486
O O11 0.419036 0.250000 0.268461
O O12 0.417534 0.383641 0.125499
O O13 0.131755 0.641232 0.423208
O O14 0.000000 0.500000 0.500000
O O15 0.248954 0.750000 0.437860
O O16 0.124630 0.609038 0.648219
O O17 0.374018 0.601908 0.248295
O O18 0.943816 0.250000 0.142390
O O19 0.453536 0.250000 0.944885
#
# Coordination Sequence:
#
# PCOD9162404 Si02
#       8
#     4   4   4   4   4   4   4   4
#     4  10  23  41  62  90 112 150 197 243 296 343
#     4  11  22  35  59  86 119 154 189 243 289 341
#     4  10  21  36  58  86 121 157 193 243 294 345
#     4  10  21  35  55  87 123 161 195 230 287 348
#     4  11  21  32  53  87 120 152 196 241 290 347
#     4  10  20  35  56  81 113 153 193 236 284 343
#     4  10  22  41  64  85 113 150 196 244 291 346
#     4  10  21  35  54  83 122 160 193 230 285 348
#
# _framework density 19.867401000000001
#
# number of rings (size 3 to 8) (size 9 to 14) (size 15 to 20)
#    0.000    1.750    1.250    3.375    3.500    3.000 
#    0.000    3.750    0.000    0.000    0.000    0.000 
#    0.000    0.000    0.000    0.000    0.000    0.000 
#
# Total GULP energy -178664.873037 kJ/mol
# GULP energy per Si atom -5583.277282 kJ/mol
# Density = 1.982218 g / cm^3
# Si number density = 19.867401 Si / 1000 Ang^3
#
#
#
# Elastic Constant Matrix: (Units=GPa)
#
#
# Indices 1 2 3 4 5 6 
#
# 1 125.1234 20.1839 5.6463 0.0000 -7.2037 0.0000
# 2 20.1839 86.2883 4.5781 0.0000 -10.0194 0.0000
# 3 5.6463 4.5781 32.2933 0.0000 -11.8166 0.0000
# 4 0.0000 0.0000 0.0000 17.9137 0.0000 7.0550
# 5 -7.2037 -10.0194 -11.8166 0.0000 34.8609 0.0000
# 6 0.0000 0.0000 0.0000 7.0550 0.0000 20.9838
#
#
#
# Elastic Compliance Matrix: (Units=1/GPa)
#
#
# Indices 1 2 3 4 5 6 
#
# 1 0.008376 -0.001807 -0.000873 0.000000 0.000916 0.000000
# 2 -0.001807 0.012386 -0.000313 0.000000 0.003081 0.000000
# 3 -0.000873 -0.000313 0.035463 0.000000 0.011750 0.000000
# 4 0.000000 0.000000 0.000000 0.064343 0.000000 -0.021633
# 5 0.000916 0.003081 0.011750 0.000000 0.033743 0.000000
# 6 0.000000 0.000000 0.000000 -0.021633 0.000000 0.054929
#
#
# Mechanical properties :
#
#
# Convention : Reuss Voigt Hill
#
# Bulk Modulus (GPa) = 19.90490 33.83574 26.87032
# Shear Modulus (GPa) = 21.55444 28.97146 25.26295
#
# Velocity S-wave (km/s) = 3.29738 3.82284 3.56979
# Velocity P-wave (km/s) = 4.95354 6.04592 5.52679
#
# Compressibility (1/GPa) = 0.05023889
#
# Stress axis : x y z
#
# Youngs Moduli (GPa) = 119.39383 80.73684 28.19862
#
# Poissons Ratio (x) = 0.14585 0.02463
# Poissons Ratio (y) = 0.21569 0.00882
# Poissons Ratio (z) = 0.10427 0.02526
#
# Static dielectric constant tensor:
#      x y z
#    x 1.700350 0.000000 0.010910 
#    y 0.000000 1.728290 0.000000 
#    z 0.010910 0.000000 1.715030 
# 
# From -- ./inp_files/22240.got.cif
#   From: 2010.05.17/outbox.cif.g08.bks.cpg/sg11_12_cif.got.tgz:22240.got - 2010.06.03 12:22:45.
