data_PCOD9162742
_publ_section_title
;
Structure prediction by ZEFSAII (Michael W. Deem and Ramdas Pophale) SiO2 
 PCOD9162742
Probable space group: P 21/M
;
_chemical_formula_sum "Si O2"
_cell_formula_units_Z 28
_cell_length_a 5.765299
_cell_length_b 18.037760
_cell_length_c 13.248656
_cell_angle_alpha 90.000000
_cell_angle_beta 112.907018
_cell_angle_gamma 90.000000
_cell_volume 1269.114593
_symmetry_space_group_name_H-M "P 21/M"
_symmetry_group_IT_number 11
_symmetry_cell_setting 'monoclinic'
loop_
_space_group_symop_operation_xyz
x,y,z
-x,1/2+y,-z
-x,-y,-z
x,1/2-y,z
loop_
_atom_site_type_symbol
_atom_site_label
_atom_site_fract_x
_atom_site_fract_y
_atom_site_fract_z
Si Si1 0.803320 0.987810 0.559933
Si Si2 0.008884 0.666201 0.674862
Si Si3 0.765996 0.446976 0.754091
Si Si4 0.575890 0.336854 0.872224
Si Si5 0.934785 0.666986 0.905528
Si Si6 0.271443 0.470367 0.896226
Si Si7 0.467066 0.580955 0.778148
O O1 0.852251 0.902230 0.602530
O O2 0.500000 0.000000 0.500000
O O3 0.871533 0.047966 0.659451
O O4 0.000000 0.000000 0.500000
O O5 0.948018 0.750000 0.630671
O O6 0.979194 0.666060 0.792185
O O7 0.302490 0.646003 0.702361
O O8 0.648480 0.371719 0.775802
O O9 0.579612 0.516879 0.727722
O O10 0.981152 0.465508 0.873827
O O11 0.519601 0.250000 0.859424
O O12 0.351470 0.389114 0.872448
O O13 0.809612 0.347951 0.990076
O O14 0.856434 0.750000 0.922102
O O15 0.696914 0.614048 0.881629
O O16 0.274693 0.533875 0.811802
O O17 0.500000 0.500000 0.000000
#
# Coordination Sequence:
#
# PCOD9162742 Si02
#       7
#     4   4   4   4   4   4   4
#     4  12  27  49  75 101 134 182 244 303 360 423
#     4  11  23  41  68 103 136 172 222 295 368 422
#     4  11  23  41  64  93 131 180 229 288 353 424
#     4  10  23  39  60  95 140 189 233 281 348 434
#     4  10  20  35  59  95 138 177 220 278 350 425
#     4  11  21  34  62  95 134 180 228 278 344 436
#     4  11  18  35  60  94 133 170 220 275 348 427
#
# _framework density 22.062622999999999
#
# number of rings (size 3 to 8) (size 9 to 14) (size 15 to 20)
#    0.000    1.143    2.857    3.857    2.000    2.857 
#    0.000    5.000    0.000    0.000    0.000    0.000 
#    0.000    0.000    0.000    0.000    0.000    0.000 
#
# Total GULP energy -156121.839201 kJ/mol
# GULP energy per Si atom -5575.779971 kJ/mol
# Density = 2.201241 g / cm^3
# Si number density = 22.062623 Si / 1000 Ang^3
#
#
#
# Elastic Constant Matrix: (Units=GPa)
#
#
# Indices 1 2 3 4 5 6 
#
# 1 58.0975 48.0349 18.8288 0.0000 10.9583 0.0000
# 2 48.0349 173.6839 38.6965 0.0000 2.5328 0.0000
# 3 18.8288 38.6965 67.4911 0.0000 5.2883 0.0000
# 4 0.0000 0.0000 0.0000 27.8079 0.0000 8.9052
# 5 10.9583 2.5328 5.2883 0.0000 38.5529 0.0000
# 6 0.0000 0.0000 0.0000 8.9052 0.0000 32.0582
#
#
#
# Elastic Compliance Matrix: (Units=1/GPa)
#
#
# Indices 1 2 3 4 5 6 
#
# 1 0.024230 -0.005976 -0.002855 0.000000 -0.006103 0.000000
# 2 -0.005976 0.008075 -0.003087 0.000000 0.001592 0.000000
# 3 -0.002855 -0.003087 0.017492 0.000000 -0.001385 0.000000
# 4 0.000000 0.000000 0.000000 0.039472 0.000000 -0.010965
# 5 -0.006103 0.001592 -0.001385 0.000000 0.027758 0.000000
# 6 0.000000 0.000000 0.000000 -0.010965 0.000000 0.034239
#
#
# Mechanical properties :
#
#
# Convention : Reuss Voigt Hill
#
# Bulk Modulus (GPa) = 38.52104 56.71032 47.61568
# Shear Modulus (GPa) = 27.20984 32.59795 29.90389
#
# Velocity S-wave (km/s) = 3.51565 3.84802 3.68558
# Velocity P-wave (km/s) = 5.82902 6.74560 6.30399
#
# Compressibility (1/GPa) = 0.02595984
#
# Stress axis : x y z
#
# Youngs Moduli (GPa) = 41.27146 123.83904 57.16911
#
# Poissons Ratio (x) = 0.74006 0.16322
# Poissons Ratio (y) = 0.24664 0.17650
# Poissons Ratio (z) = 0.11783 0.38234
#
# Static dielectric constant tensor:
#      x y z
#    x 1.892680 0.000000 -0.045080 
#    y 0.000000 1.778010 0.000000 
#    z -0.045080 0.000000 1.969720 
# 
# From -- ./inp_files/6778.got.cif
#   From: 2010.05.17/outbox.cif.g08.bks.cpg/sg11_4_cif.got.tgz:6778.got - 2010.06.03 12:22:45.
