data_PCOD9162895
_publ_section_title
;
Structure prediction by ZEFSAII (Michael W. Deem and Ramdas Pophale) SiO2 
 PCOD9162895
Probable space group: P 21/M
;
_chemical_formula_sum "Si O2"
_cell_formula_units_Z 32
_cell_length_a 32.299354
_cell_length_b 8.745148
_cell_length_c 12.406320
_cell_angle_alpha 90.000000
_cell_angle_beta 150.307028
_cell_angle_gamma 90.000000
_cell_volume 1735.873216
_symmetry_space_group_name_H-M "P 21/M"
_symmetry_group_IT_number 11
_symmetry_cell_setting 'monoclinic'
loop_
_space_group_symop_operation_xyz
x,y,z
-x,1/2+y,-z
-x,-y,-z
x,1/2-y,z
loop_
_atom_site_type_symbol
_atom_site_label
_atom_site_fract_x
_atom_site_fract_y
_atom_site_fract_z
Si Si1 0.899126 0.934624 0.880430
Si Si2 0.466492 0.568096 0.536088
Si Si3 0.081033 0.432806 0.321960
Si Si4 0.592686 0.565232 0.197399
Si Si5 0.715873 0.566822 0.854492
Si Si6 0.631698 0.568089 0.044384
Si Si7 0.227121 0.931437 0.790820
Si Si8 0.253220 0.436192 0.312939
O O1 0.905542 0.750000 0.901284
O O2 0.887337 0.973329 0.727533
O O3 0.822022 0.985439 0.779735
O O4 0.986577 0.006544 0.115069
O O5 0.500000 0.500000 0.500000
O O6 0.452905 0.750000 0.494278
O O7 0.380261 0.486171 0.368201
O O8 0.538811 0.543356 0.787549
O O9 0.082395 0.250000 0.334609
O O10 0.142000 0.505361 0.547121
O O11 0.587154 0.750000 0.186917
O O12 0.657668 0.514579 0.436310
O O13 0.500000 0.500000 0.000000
O O14 0.631209 0.522375 0.168165
O O15 0.719033 0.750000 0.869757
O O16 0.756764 0.517689 0.833731
O O17 0.755795 0.497112 0.051865
O O18 0.649805 0.750000 0.078868
O O19 0.698035 0.484544 0.118952
O O20 0.225449 0.750000 0.791873
O O21 0.253917 0.250000 0.316734
#
# Coordination Sequence:
#
# PCOD9162895 Si02
#       8
#     4   4   4   4   4   4   4   4
#     4   9  18  37  63  89 115 146 185 225 274 337
#     4  11  21  34  53  78 109 149 191 234 281 329
#     4  10  20  36  61  90 120 146 175 225 285 337
#     4  10  20  36  56  82 114 149 186 228 278 330
#     4  11  22  37  56  79 111 150 192 236 283 334
#     4  10  21  36  56  80 111 147 186 233 287 337
#     4  12  24  37  56  82 111 145 189 235 281 334
#     4   9  19  36  59  82 110 151 190 227 277 335
#
# _framework density 18.434525000000001
#
# number of rings (size 3 to 8) (size 9 to 14) (size 15 to 20)
#    0.000    1.750    1.250    3.750    0.000    3.500 
#    0.000    3.125    0.000    0.000    0.000    0.000 
#    0.000    0.000    0.000    0.000    0.000    0.000 
#
# Total GULP energy -178783.862421 kJ/mol
# GULP energy per Si atom -5586.995701 kJ/mol
# Density = 1.839257 g / cm^3
# Si number density = 18.434525 Si / 1000 Ang^3
#
#
#
# Elastic Constant Matrix: (Units=GPa)
#
#
# Indices 1 2 3 4 5 6 
#
# 1 127.9984 30.8448 71.9118 0.0000 -3.5518 0.0000
# 2 30.8448 45.7463 46.3318 0.0000 -7.2308 0.0000
# 3 71.9118 46.3318 117.9808 0.0000 -12.1047 0.0000
# 4 0.0000 0.0000 0.0000 31.1228 0.0000 5.1760
# 5 -3.5518 -7.2308 -12.1047 0.0000 30.5575 0.0000
# 6 0.0000 0.0000 0.0000 5.1760 0.0000 16.5680
#
#
#
# Elastic Compliance Matrix: (Units=1/GPa)
#
#
# Indices 1 2 3 4 5 6 
#
# 1 0.011997 -0.001285 -0.006980 0.000000 -0.001674 0.000000
# 2 -0.001285 0.036711 -0.013298 0.000000 0.003270 0.000000
# 3 -0.006980 -0.013298 0.018290 0.000000 0.003287 0.000000
# 4 0.000000 0.000000 0.000000 0.033892 0.000000 -0.010588
# 5 -0.001674 0.003270 0.003287 0.000000 0.034606 0.000000
# 6 0.000000 0.000000 0.000000 -0.010588 0.000000 0.063665
#
#
# Mechanical properties :
#
#
# Convention : Reuss Voigt Hill
#
# Bulk Modulus (GPa) = 41.88877 65.54471 53.71674
# Shear Modulus (GPa) = 19.98050 25.15880 22.56965
#
# Velocity S-wave (km/s) = 3.29578 3.69828 3.50282
# Velocity P-wave (km/s) = 6.10370 7.33955 6.74997
#
# Compressibility (1/GPa) = 0.02387274
#
# Stress axis : x y z
#
# Youngs Moduli (GPa) = 83.35368 27.23972 54.67529
#
# Poissons Ratio (x) = 0.03499 0.38162
# Poissons Ratio (y) = 0.10708 0.72708
# Poissons Ratio (z) = 0.58179 0.36224
#
# Static dielectric constant tensor:
#      x y z
#    x 1.635400 0.000000 -0.014820 
#    y 0.000000 1.619750 0.000000 
#    z -0.014820 0.000000 1.617020 
# 
# From -- ./inp_files/45223.got.cif
#   From: 2010.05.17/outbox.cif.g08.bks.cpg/sg11_23_cif.got.tgz:45223.got - 2010.06.03 12:22:45.
