data_PCOD9162506
_publ_section_title
;
Structure prediction by ZEFSAII (Michael W. Deem and Ramdas Pophale) SiO2 
 PCOD9162506
Probable space group: P 21/M
;
_chemical_formula_sum "Si O2"
_cell_formula_units_Z 32
_cell_length_a 17.804587
_cell_length_b 14.930201
_cell_length_c 20.690060
_cell_angle_alpha 90.000000
_cell_angle_beta 160.793853
_cell_angle_gamma 90.000000
_cell_volume 1809.309710
_symmetry_space_group_name_H-M "P 21/M"
_symmetry_group_IT_number 11
_symmetry_cell_setting 'monoclinic'
loop_
_space_group_symop_operation_xyz
x,y,z
-x,1/2+y,-z
-x,-y,-z
x,1/2-y,z
loop_
_atom_site_type_symbol
_atom_site_label
_atom_site_fract_x
_atom_site_fract_y
_atom_site_fract_z
Si Si1 0.862969 0.645293 0.291097
Si Si2 0.004094 0.850710 0.043124
Si Si3 0.109357 0.353652 0.532291
Si Si4 0.501642 0.427636 0.558862
Si Si5 0.020019 0.352858 0.130678
Si Si6 0.672867 0.503606 0.833534
Si Si7 0.609121 0.144314 0.163245
Si Si8 0.298388 0.967354 0.633460
O O1 0.920879 0.750000 0.327297
O O2 0.847311 0.633072 0.355750
O O3 0.061117 0.582550 0.424673
O O4 0.619787 0.627101 0.061917
O O5 0.943820 0.750000 0.013286
O O6 0.274906 0.866412 0.270785
O O7 0.949212 0.862123 0.922254
O O8 0.860687 0.923234 0.965604
O O9 0.160085 0.250000 0.557131
O O10 0.244607 0.428595 0.603523
O O11 0.836703 0.369576 0.305565
O O12 0.500000 0.500000 0.500000
O O13 0.258985 0.378185 0.358079
O O14 0.547690 0.471784 0.666095
O O15 0.960076 0.250000 0.095404
O O16 0.815545 0.420992 0.979735
O O17 0.488185 0.540457 0.733103
O O18 0.614971 0.250000 0.187238
O O19 0.622625 0.081593 0.236589
#
# Coordination Sequence:
#
# PCOD9162506 Si02
#       8
#     4   4   4   4   4   4   4   4
#     4   9  18  35  58  81 106 140 182 223 262 313
#     4  10  20  35  57  83 104 137 183 225 271 324
#     4   9  19  35  54  78 105 140 186 227 259 306
#     4  11  18  37  62  77 104 139 186 230 269 309
#     4  10  20  37  60  80 102 138 185 229 270 318
#     4  11  23  36  53  82 116 147 172 225 275 328
#     4   9  18  35  59  81 105 140 181 223 265 314
#     4  11  22  33  53  80 115 146 174 214 274 327
#
# _framework density 17.686302999999999
#
# number of rings (size 3 to 8) (size 9 to 14) (size 15 to 20)
#    0.000    2.000    2.500    3.750    0.000    5.000 
#    0.000    0.000    0.000    1.500    0.000    0.000 
#    0.000    0.000    0.000    0.000    0.000    0.000 
#
# Total GULP energy -178566.091871 kJ/mol
# GULP energy per Si atom -5580.190371 kJ/mol
# Density = 1.764605 g / cm^3
# Si number density = 17.686303 Si / 1000 Ang^3
#
#
#
# Elastic Constant Matrix: (Units=GPa)
#
#
# Indices 1 2 3 4 5 6 
#
# 1 15.6655 2.5421 8.7734 0.0000 5.1129 0.0000
# 2 2.5421 52.8917 22.4506 0.0000 -2.9533 0.0000
# 3 8.7734 22.4506 113.9539 0.0000 -10.9751 0.0000
# 4 0.0000 0.0000 0.0000 24.1354 0.0000 -3.0537
# 5 5.1129 -2.9533 -10.9751 0.0000 9.8211 0.0000
# 6 0.0000 0.0000 0.0000 -3.0537 0.0000 4.1432
#
#
#
# Elastic Compliance Matrix: (Units=1/GPa)
#
#
# Indices 1 2 3 4 5 6 
#
# 1 0.091725 -0.002561 -0.012585 0.000000 -0.062587 0.000000
# 2 -0.002561 0.020734 -0.003540 0.000000 0.003613 0.000000
# 3 -0.012585 -0.003540 0.012293 0.000000 0.019225 0.000000
# 4 0.000000 0.000000 0.000000 0.045694 0.000000 0.033678
# 5 -0.062587 0.003613 0.019225 0.000000 0.156976 0.000000
# 6 0.000000 0.000000 0.000000 0.033678 0.000000 0.266181
#
#
# Mechanical properties :
#
#
# Convention : Reuss Voigt Hill
#
# Bulk Modulus (GPa) = 11.44422 27.78258 19.61340
# Shear Modulus (GPa) = 7.57458 17.53627 12.55542
#
# Velocity S-wave (km/s) = 2.07172 3.15225 2.66728
# Velocity P-wave (km/s) = 3.49391 5.38438 4.53867
#
# Compressibility (1/GPa) = 0.08738035
#
# Stress axis : x y z
#
# Youngs Moduli (GPa) = 10.90211 48.23032 81.34415
#
# Poissons Ratio (x) = 0.12353 1.02374
# Poissons Ratio (y) = 0.02792 0.28794
# Poissons Ratio (z) = 0.13721 0.17072
#
# Static dielectric constant tensor:
#      x y z
#    x 1.557210 0.000000 -0.007040 
#    y 0.000000 1.626010 0.000000 
#    z -0.007040 0.000000 1.603330 
# 
# From -- ./inp_files/66304.got.cif
#   From: 2010.05.17/outbox.cif.g08.bks.cpg/sg11_34_cif.got.tgz:66304.got - 2010.06.03 12:22:45.
