data_PCOD9162927
_publ_section_title
;
Structure prediction by ZEFSAII (Michael W. Deem and Ramdas Pophale) SiO2 
 PCOD9162927
Probable space group: P 21/M
;
_chemical_formula_sum "Si O2"
_cell_formula_units_Z 32
_cell_length_a 22.022583
_cell_length_b 9.293391
_cell_length_c 27.762354
_cell_angle_alpha 90.000000
_cell_angle_beta 18.358281
_cell_angle_gamma 90.000000
_cell_volume 1789.581403
_symmetry_space_group_name_H-M "P 21/M"
_symmetry_group_IT_number 11
_symmetry_cell_setting 'monoclinic'
loop_
_space_group_symop_operation_xyz
x,y,z
-x,1/2+y,-z
-x,-y,-z
x,1/2-y,z
loop_
_atom_site_type_symbol
_atom_site_label
_atom_site_fract_x
_atom_site_fract_y
_atom_site_fract_z
Si Si1 0.474383 0.916311 0.094231
Si Si2 0.568366 0.583133 0.495939
Si Si3 0.496401 0.919482 0.357727
Si Si4 0.905007 0.424260 0.383019
Si Si5 0.008276 0.582639 0.138537
Si Si6 0.213270 0.076273 0.067154
Si Si7 0.930366 0.580823 0.004560
Si Si8 0.200544 0.416788 0.235286
O O1 0.422245 0.750000 0.139953
O O2 0.292838 0.002118 0.210780
O O3 0.586369 0.965901 0.057819
O O4 0.638285 0.921379 0.928786
O O5 0.500000 0.500000 0.500000
O O6 0.509294 0.750000 0.538302
O O7 0.493436 0.507296 0.600441
O O8 0.800786 0.576745 0.320729
O O9 0.466562 0.750000 0.392089
O O10 0.311738 0.969297 0.465882
O O11 0.697978 0.930914 0.178582
O O12 0.906024 0.250000 0.386051
O O13 0.043852 0.458154 0.233303
O O14 0.008874 0.477046 0.353600
O O15 0.055274 0.750000 0.094564
O O16 0.162690 0.504870 0.056443
O O17 0.989429 0.497783 0.102764
O O18 0.213279 0.250000 0.060487
O O19 0.981189 0.750000 0.967669
O O20 0.000000 0.500000 0.000000
O O21 0.171162 0.250000 0.269881
#
# Coordination Sequence:
#
# PCOD9162927 Si02
#       8
#     4   4   4   4   4   4   4   4
#     4   8  14  23  37  63  97 132 167 200 240 292
#     4  11  23  36  53  78 103 130 166 206 255 310
#     4  10  20  36  57  78 100 131 171 213 256 304
#     4   8  14  27  48  72  99 130 166 208 252 299
#     4  11  23  37  53  77 106 135 170 211 256 307
#     4   9  16  29  50  72  99 136 171 207 254 299
#     4  11  24  40  58  78 101 134 173 212 259 310
#     4   8  13  22  38  62  94 133 166 194 240 296
#
# _framework density 17.881276
#
# number of rings (size 3 to 8) (size 9 to 14) (size 15 to 20)
#    0.000    2.500    1.250    3.375    0.000    6.000 
#    0.000    2.500    0.000    0.000    0.000    0.875 
#    0.000    0.000    0.000    0.000    0.000    0.000 
#
# Total GULP energy -178393.405563 kJ/mol
# GULP energy per Si atom -5574.793924 kJ/mol
# Density = 1.784058 g / cm^3
# Si number density = 17.881276 Si / 1000 Ang^3
#
#
#
# Elastic Constant Matrix: (Units=GPa)
#
#
# Indices 1 2 3 4 5 6 
#
# 1 75.2750 29.3249 3.6503 0.0000 -25.7864 0.0000
# 2 29.3249 62.7577 11.6473 0.0000 -6.0304 0.0000
# 3 3.6503 11.6473 28.3236 0.0000 -8.9988 0.0000
# 4 0.0000 0.0000 0.0000 17.6803 0.0000 -3.9637
# 5 -25.7864 -6.0304 -8.9988 0.0000 31.2278 0.0000
# 6 0.0000 0.0000 0.0000 -3.9637 0.0000 32.7264
#
#
#
# Elastic Compliance Matrix: (Units=1/GPa)
#
#
# Indices 1 2 3 4 5 6 
#
# 1 0.023864 -0.010657 0.007611 0.000000 0.019841 0.000000
# 2 -0.010657 0.022067 -0.010064 0.000000 -0.007439 0.000000
# 3 0.007611 -0.010064 0.043859 0.000000 0.016980 0.000000
# 4 0.000000 0.000000 0.000000 0.058139 0.000000 0.007042
# 5 0.019841 -0.007439 0.016980 0.000000 0.051863 0.000000
# 6 0.000000 0.000000 0.000000 0.007042 0.000000 0.031409
#
#
# Mechanical properties :
#
#
# Convention : Reuss Voigt Hill
#
# Bulk Modulus (GPa) = 15.73114 28.40013 22.06563
# Shear Modulus (GPa) = 17.94613 24.44247 21.19430
#
# Velocity S-wave (km/s) = 3.17144 3.70121 3.44652
# Velocity P-wave (km/s) = 4.71459 5.84657 5.31083
#
# Compressibility (1/GPa) = 0.06356819
#
# Stress axis : x y z
#
# Youngs Moduli (GPa) = 41.90428 45.31644 22.80044
#
# Poissons Ratio (x) = 0.48293 -0.17352
# Poissons Ratio (y) = 0.44657 0.22947
# Poissons Ratio (z) = -0.31891 0.45609
#
# Static dielectric constant tensor:
#      x y z
#    x 1.612240 0.000000 -0.032130 
#    y 0.000000 1.597640 0.000000 
#    z -0.032130 0.000000 1.626530 
# 
# From -- ./inp_files/71987.got.cif
#   From: 2010.05.17/outbox.cif.g08.bks.cpg/sg11_36_cif.got.tgz:71987.got - 2010.06.03 12:22:45.
