data_PCOD9162911
_publ_section_title
;
Structure prediction by ZEFSAII (Michael W. Deem and Ramdas Pophale) SiO2 
 PCOD9162911
Probable space group: P 21/M
;
_chemical_formula_sum "Si O2"
_cell_formula_units_Z 30
_cell_length_a 32.332239
_cell_length_b 9.669363
_cell_length_c 12.441569
_cell_angle_alpha 90.000000
_cell_angle_beta 21.866856
_cell_angle_gamma 90.000000
_cell_volume 1448.698245
_symmetry_space_group_name_H-M "P 21/M"
_symmetry_group_IT_number 11
_symmetry_cell_setting 'monoclinic'
loop_
_space_group_symop_operation_xyz
x,y,z
-x,1/2+y,-z
-x,-y,-z
x,1/2-y,z
loop_
_atom_site_type_symbol
_atom_site_label
_atom_site_fract_x
_atom_site_fract_y
_atom_site_fract_z
Si Si1 0.335858 0.405590 0.370089
Si Si2 0.898601 0.091156 0.873907
Si Si3 0.157396 0.408184 0.183716
Si Si4 0.487296 0.593897 0.687278
Si Si5 0.896946 0.987755 0.118347
Si Si6 0.568448 0.408931 0.681860
Si Si7 0.333332 0.405970 0.935724
Si Si8 0.965984 0.250000 0.096179
O O1 0.325336 0.250000 0.440938
O O2 0.228828 0.437590 0.556621
O O3 0.350591 0.518562 0.428074
O O4 0.447518 0.409507 0.030717
O O5 0.861791 0.250000 0.974024
O O6 0.027481 0.094790 0.525755
O O7 0.831082 0.010225 0.944542
O O8 0.899444 0.013463 0.984814
O O9 0.192888 0.250000 0.071727
O O10 0.227416 0.449235 0.120378
O O11 0.465391 0.750000 0.778674
O O12 0.552785 0.502856 0.615401
O O13 0.375291 0.513926 0.922817
O O14 0.566442 0.603250 0.392213
O O15 0.922702 0.128711 0.117409
O O16 0.981993 0.871159 0.950322
O O17 0.596734 0.250000 0.589391
O O18 0.314724 0.250000 0.024192
#
# Coordination Sequence:
#
# PCOD9162911 Si02
#       8
#     4   4   4   4   4   4   4   2
#     4  10  22  41  62  85 119 153 199 243 296 347
#     4  10  21  38  59  86 121 149 196 244 296 342
#     4   9  20  38  59  86 115 154 196 247 289 351
#     4  10  20  36  56  84 118 151 191 237 288 346
#     4  11  22  43  62  90 117 165 195 252 293 359
#     4  10  22  39  60  89 117 152 195 249 293 355
#     4   9  19  37  57  80 113 154 195 233 285 347
#     4  10  24  42  62  86 126 150 208 242 296 350
#
# _framework density 20.708247
#
# number of rings (size 3 to 8) (size 9 to 14) (size 15 to 20)
#    0.000    2.133    1.333    0.800    3.733    1.600 
#    4.800    0.000    0.000    0.000    0.000    0.000 
#    0.000    0.000    0.000    0.000    0.000    0.000 
#
# Total GULP energy -167027.644751 kJ/mol
# GULP energy per Si atom -5567.588158 kJ/mol
# Density = 2.066111 g / cm^3
# Si number density = 20.708247 Si / 1000 Ang^3
#
#
#
# Elastic Constant Matrix: (Units=GPa)
#
#
# Indices 1 2 3 4 5 6 
#
# 1 71.4938 46.1140 7.2015 0.0000 -12.9970 0.0000
# 2 46.1140 150.5905 8.3369 0.0000 -4.3448 0.0000
# 3 7.2015 8.3369 19.7467 0.0000 -2.9493 0.0000
# 4 0.0000 0.0000 0.0000 8.3017 0.0000 -0.2565
# 5 -12.9970 -4.3448 -2.9493 0.0000 13.5688 0.0000
# 6 0.0000 0.0000 0.0000 -0.2565 0.0000 26.0876
#
#
#
# Elastic Compliance Matrix: (Units=1/GPa)
#
#
# Indices 1 2 3 4 5 6 
#
# 1 0.021292 -0.005858 -0.002611 0.000000 0.017952 0.000000
# 2 -0.005858 0.008445 -0.001926 0.000000 -0.003325 0.000000
# 3 -0.002611 -0.001926 0.053684 0.000000 0.008551 0.000000
# 4 0.000000 0.000000 0.000000 0.120494 0.000000 0.001185
# 5 0.017952 -0.003325 0.008551 0.000000 0.091688 0.000000
# 6 0.000000 0.000000 0.000000 0.001185 0.000000 0.038344
#
#
# Mechanical properties :
#
#
# Convention : Reuss Voigt Hill
#
# Bulk Modulus (GPa) = 15.96623 40.57065 28.26844
# Shear Modulus (GPa) = 13.31161 21.60353 17.45757
#
# Velocity S-wave (km/s) = 2.53813 3.23342 2.90664
# Velocity P-wave (km/s) = 4.03935 5.79431 4.99452
#
# Compressibility (1/GPa) = 0.06263218
#
# Stress axis : x y z
#
# Youngs Moduli (GPa) = 46.96645 118.41471 18.62761
#
# Poissons Ratio (x) = 0.69362 0.04863
# Poissons Ratio (y) = 0.27511 0.03587
# Poissons Ratio (z) = 0.12262 0.22805
#
# Static dielectric constant tensor:
#      x y z
#    x 1.711280 0.000000 -0.010390 
#    y 0.000000 1.731900 0.000000 
#    z -0.010390 0.000000 1.792100 
# 
# From -- ./inp_files/45047.got.cif
#   From: 2010.05.17/outbox.cif.g08.bks.cpg/sg11_23_cif.got.tgz:45047.got - 2010.06.03 12:22:45.
