data_PCOD9162784
_publ_section_title
;
Structure prediction by ZEFSAII (Michael W. Deem and Ramdas Pophale) SiO2 
 PCOD9162784
Probable space group: P 21/M
;
_chemical_formula_sum "Si O2"
_cell_formula_units_Z 18
_cell_length_a 6.914941
_cell_length_b 7.751213
_cell_length_c 12.435922
_cell_angle_alpha 90.000000
_cell_angle_beta 69.630956
_cell_angle_gamma 90.000000
_cell_volume 624.875651
_symmetry_space_group_name_H-M "P 21/M"
_symmetry_group_IT_number 11
_symmetry_cell_setting 'monoclinic'
loop_
_space_group_symop_operation_xyz
x,y,z
-x,1/2+y,-z
-x,-y,-z
x,1/2-y,z
loop_
_atom_site_type_symbol
_atom_site_label
_atom_site_fract_x
_atom_site_fract_y
_atom_site_fract_z
Si Si1 0.336069 0.439515 0.916294
Si Si2 0.048740 0.951749 0.163890
Si Si3 0.926769 0.544141 0.416177
Si Si4 0.531308 0.750000 0.774383
Si Si5 0.427120 0.953041 0.416005
O O1 0.430133 0.250000 0.893320
O O2 0.174799 0.456648 0.848649
O O3 0.486025 0.598130 0.872773
O O4 0.193567 0.460068 0.048690
O O5 0.103859 0.750000 0.163902
O O6 0.027008 0.031966 0.286767
O O7 0.902250 0.750000 0.414379
O O8 0.847458 0.452989 0.548023
O O9 0.661309 0.502191 0.439970
O O10 0.547026 0.599804 0.678249
O O11 0.463443 0.750000 0.386015
#
# Coordination Sequence:
#
# PCOD9162784 Si02
#       5
#     4   4   4   2   4
#     4  10  20  35  61  95 126 169 211 268 327 379
#     4   9  19  36  59  89 130 165 215 268 324 381
#     4  11  23  42  65  98 133 174 218 272 326 386
#     4  12  22  38  58  88 130 162 212 258 324 386
#     4  12  24  41  64  96 131 175 216 268 332 388
#
# _framework density 28.805734000000001
#
# number of rings (size 3 to 8) (size 9 to 14) (size 15 to 20)
#    0.000    1.333    3.333    2.667    1.556    3.556 
#    0.000    0.000    0.000    1.333    0.000    0.000 
#    0.000    0.000    0.000    0.000    0.000    0.000 
#
# Total GULP energy -100363.704912 kJ/mol
# GULP energy per Si atom -5575.761384 kJ/mol
# Density = 2.874017 g / cm^3
# Si number density = 28.805734 Si / 1000 Ang^3
#
#
#
# Elastic Constant Matrix: (Units=GPa)
#
#
# Indices 1 2 3 4 5 6 
#
# 1 219.7752 21.8590 53.5306 0.0000 14.4356 0.0000
# 2 21.8590 230.3614 65.7014 0.0000 -7.0379 0.0000
# 3 53.5306 65.7014 198.0356 0.0000 9.5164 0.0000
# 4 0.0000 0.0000 0.0000 37.6370 0.0000 -9.9473
# 5 14.4356 -7.0379 9.5164 0.0000 42.3824 0.0000
# 6 0.0000 0.0000 0.0000 -9.9473 0.0000 16.2860
#
#
#
# Elastic Compliance Matrix: (Units=1/GPa)
#
#
# Indices 1 2 3 4 5 6 
#
# 1 0.004958 -0.000168 -0.001215 0.000000 -0.001444 0.000000
# 2 -0.000168 0.004858 -0.001625 0.000000 0.001229 0.000000
# 3 -0.001215 -0.001625 0.005975 0.000000 -0.001198 0.000000
# 4 0.000000 0.000000 0.000000 0.031684 0.000000 0.019353
# 5 -0.001444 0.001229 -0.001198 0.000000 0.024559 0.000000
# 6 0.000000 0.000000 0.000000 0.019353 0.000000 0.073223
#
#
# Mechanical properties :
#
#
# Convention : Reuss Voigt Hill
#
# Bulk Modulus (GPa) = 102.31490 103.37269 102.84380
# Shear Modulus (GPa) = 32.35584 53.06649 42.71117
#
# Velocity S-wave (km/s) = 3.35512 4.29676 3.85480
# Velocity P-wave (km/s) = 7.11373 7.78334 7.45605
#
# Compressibility (1/GPa) = 0.00977375
#
# Stress axis : x y z
#
# Youngs Moduli (GPa) = 201.71185 205.84322 167.36944
#
# Poissons Ratio (x) = 0.03458 0.20335
# Poissons Ratio (y) = 0.03389 0.27204
# Poissons Ratio (z) = 0.24507 0.33457
#
# Static dielectric constant tensor:
#      x y z
#    x 2.677770 0.000000 -0.082780 
#    y 0.000000 1.933090 0.000000 
#    z -0.082780 0.000000 2.184650 
# 
# From -- ./inp_files/60647.got.cif
#   From: 2010.05.17/outbox.cif.g08.bks.cpg/sg11_31_cif.got.tgz:60647.got - 2010.06.03 12:22:45.
