data_PCOD9162056
_publ_section_title
;
Structure prediction by ZEFSAII (Michael W. Deem and Ramdas Pophale) SiO2 
 PCOD9162056
Probable space group: P 21/M
;
_chemical_formula_sum "Si O2"
_cell_formula_units_Z 32
_cell_length_a 12.414806
_cell_length_b 16.712694
_cell_length_c 9.842982
_cell_angle_alpha 90.000000
_cell_angle_beta 137.746651
_cell_angle_gamma 90.000000
_cell_volume 1373.242705
_symmetry_space_group_name_H-M "P 21/M"
_symmetry_group_IT_number 11
_symmetry_cell_setting 'monoclinic'
loop_
_space_group_symop_operation_xyz
x,y,z
-x,1/2+y,-z
-x,-y,-z
x,1/2-y,z
loop_
_atom_site_type_symbol
_atom_site_label
_atom_site_fract_x
_atom_site_fract_y
_atom_site_fract_z
Si Si1 0.018832 0.659376 0.683785
Si Si2 0.921970 0.841800 0.297430
Si Si3 0.209564 0.835887 0.220156
Si Si4 0.141953 0.336126 0.168351
Si Si5 0.249360 0.996095 0.880767
Si Si6 0.313090 0.004120 0.346779
Si Si7 0.600768 0.003475 0.268982
Si Si8 0.302572 0.664990 0.608176
O O1 0.093839 0.750000 0.747794
O O2 0.905220 0.656799 0.446072
O O3 0.134792 0.581869 0.782828
O O4 0.926187 0.656636 0.740874
O O5 0.879857 0.750000 0.213027
O O6 0.115355 0.851379 0.462412
O O7 0.835881 0.920350 0.155335
O O8 0.242491 0.750000 0.178252
O O9 0.309546 0.832764 0.451832
O O10 0.238356 0.926954 0.202253
O O11 0.019934 0.834552 0.070921
O O12 0.224947 0.250000 0.233046
O O13 0.244672 0.412776 0.232023
O O14 0.300945 0.016096 0.773379
O O15 0.420163 0.972288 0.107774
O O16 0.500000 0.000000 0.500000
O O17 0.297924 0.004985 0.497859
O O18 0.579379 0.098646 0.230701
O O19 0.343061 0.750000 0.705715
#
# Coordination Sequence:
#
# PCOD9162056 Si02
#       8
#     4   4   4   4   4   4   4   4
#     4  10  21  36  61  89 113 149 195 239 289 342
#     4  10  20  34  57  88 111 143 191 235 287 338
#     4   9  20  38  60  85 112 148 196 242 288 337
#     4  10  22  40  62  87 116 151 196 244 286 341
#     4  11  22  36  59  83 118 155 189 242 281 346
#     4  11  24  39  59  86 119 158 195 239 293 351
#     4  10  23  38  52  84 119 155 195 228 297 343
#     4   9  18  35  57  80 112 148 184 236 290 343
#
# _framework density 23.302508
#
# number of rings (size 3 to 8) (size 9 to 14) (size 15 to 20)
#    0.000    2.000    1.250    1.500    5.250    2.000 
#    0.000    2.500    0.000    0.000    0.000    0.000 
#    0.000    0.000    0.000    0.000    0.000    0.000 
#
# Total GULP energy -178372.956163 kJ/mol
# GULP energy per Si atom -5574.154880 kJ/mol
# Density = 2.324947 g / cm^3
# Si number density = 23.302508 Si / 1000 Ang^3
#
#
#
# Elastic Constant Matrix: (Units=GPa)
#
#
# Indices 1 2 3 4 5 6 
#
# 1 44.2573 33.9365 7.9729 0.0000 -9.7293 0.0000
# 2 33.9365 241.6624 47.0285 0.0000 33.6438 0.0000
# 3 7.9729 47.0285 42.9534 0.0000 -11.5218 0.0000
# 4 0.0000 0.0000 0.0000 17.5712 0.0000 7.9151
# 5 -9.7293 33.6438 -11.5218 0.0000 34.2301 0.0000
# 6 0.0000 0.0000 0.0000 7.9151 0.0000 -39.9711
#
#
#
# Elastic Compliance Matrix: (Units=1/GPa)
#
#
# Indices 1 2 3 4 5 6 
#
# 1 0.033369 -0.010024 0.010957 0.000000 0.023025 0.000000
# 2 -0.010024 0.011245 -0.015587 0.000000 -0.019148 0.000000
# 3 0.010957 -0.015587 0.047551 0.000000 0.034440 0.000000
# 4 0.000000 0.000000 0.000000 0.052251 0.000000 0.010347
# 5 0.023025 -0.019148 0.034440 0.000000 0.066171 0.000000
# 6 0.000000 0.000000 0.000000 0.010347 0.000000 -0.022969
#
#
# Mechanical properties :
#
#
# Convention : Reuss Voigt Hill
#
# Bulk Modulus (GPa) = 15.90897 56.30543 36.10720
# Shear Modulus (GPa) = 21.01923 18.36172 19.69047
#
# Velocity S-wave (km/s) = 3.00662 2.81013 2.91003
# Velocity P-wave (km/s) = 4.34683 5.89444 5.17877
#
# Compressibility (1/GPa) = 0.06285763
#
# Stress axis : x y z
#
# Youngs Moduli (GPa) = 29.96774 88.93101 21.02991
#
# Poissons Ratio (x) = 0.89143 -0.23043
# Poissons Ratio (y) = 0.30039 0.32780
# Poissons Ratio (z) = -0.32836 1.38618
#
# Static dielectric constant tensor:
#      x y z
#    x 1.935930 0.000000 -0.077070 
#    y 0.000000 1.951920 0.000000 
#    z -0.077070 0.000000 1.876960 
# 
# From -- ./inp_files/39690.got.cif
#   From: 2010.05.17/outbox.cif.g08.bks.cpg/sg11_20_cif.got.tgz:39690.got - 2010.06.03 12:22:45.
