data_PCOD9162816
_publ_section_title
;
Structure prediction by ZEFSAII (Michael W. Deem and Ramdas Pophale) SiO2 
 PCOD9162816
Probable space group: P 21/M
;
_chemical_formula_sum "Si O2"
_cell_formula_units_Z 32
_cell_length_a 26.846390
_cell_length_b 7.367086
_cell_length_c 21.014109
_cell_angle_alpha 90.000000
_cell_angle_beta 17.931972
_cell_angle_gamma 90.000000
_cell_volume 1279.631077
_symmetry_space_group_name_H-M "P 21/M"
_symmetry_group_IT_number 11
_symmetry_cell_setting 'monoclinic'
loop_
_space_group_symop_operation_xyz
x,y,z
-x,1/2+y,-z
-x,-y,-z
x,1/2-y,z
loop_
_atom_site_type_symbol
_atom_site_label
_atom_site_fract_x
_atom_site_fract_y
_atom_site_fract_z
Si Si1 0.311832 0.472436 0.163425
Si Si2 0.307658 0.043444 0.303773
Si Si3 0.357613 0.028645 0.381980
Si Si4 0.806963 0.968185 0.967471
Si Si5 0.975737 0.534847 0.183085
Si Si6 0.734693 0.540954 0.919588
Si Si7 0.494293 0.033595 0.583118
Si Si8 0.162475 0.966096 0.840510
O O1 0.317371 0.250000 0.156754
O O2 0.240016 0.530639 0.319119
O O3 0.496213 0.542253 0.940809
O O4 0.240559 0.533708 0.182075
O O5 0.249301 0.250000 0.379543
O O6 0.297434 0.960683 0.385825
O O7 0.366241 0.250000 0.370862
O O8 0.206548 0.969328 0.608926
O O9 0.540081 0.964151 0.170050
O O10 0.792226 0.750000 0.980267
O O11 0.811994 0.039729 0.889276
O O12 0.653247 0.039025 0.195330
O O13 0.962465 0.007707 0.820817
O O14 0.969229 0.750000 0.180002
O O15 0.115195 0.460074 0.967661
O O16 0.785659 0.750000 0.853125
O O17 0.484734 0.250000 0.602778
O O18 0.670304 0.962441 0.390590
O O19 0.500000 0.000000 0.500000
O O20 0.186463 0.750000 0.816109
O O21 0.000000 0.000000 0.000000
#
# Coordination Sequence:
#
# PCOD9162816 Si02
#       8
#     4   4   4   4   4   4   4   4
#     4   8  13  23  41  65  93 122 152 190 235 277
#     4   8  13  23  41  65  92 122 154 190 232 278
#     4   9  18  31  48  72  99 126 160 198 238 285
#     4  10  21  35  52  73  96 127 164 199 237 283
#     4  10  21  37  52  70  98 130 162 197 237 285
#     4   9  18  31  48  73 100 125 158 199 240 283
#     4  10  20  36  55  74  96 124 161 200 236 280
#     4  10  22  37  53  75 100 125 156 196 240 285
#
# _framework density 25.007207999999999
#
# number of rings (size 3 to 8) (size 9 to 14) (size 15 to 20)
#    0.000    2.750    1.250    0.000    1.750    2.000 
#    0.000    0.000    0.000    0.750    0.000    0.000 
#    0.000    0.000    0.000    0.000    0.000    0.000 
#
# Total GULP energy -178449.087509 kJ/mol
# GULP energy per Si atom -5576.533985 kJ/mol
# Density = 2.495029 g / cm^3
# Si number density = 25.007208 Si / 1000 Ang^3
#
#
#
# Elastic Constant Matrix: (Units=GPa)
#
#
# Indices 1 2 3 4 5 6 
#
# 1 102.9382 -16.9014 -7.0729 0.0000 -0.8891 0.0000
# 2 -16.9014 103.2821 -7.7341 0.0000 7.3883 0.0000
# 3 -7.0729 -7.7341 22.2098 0.0000 -11.2234 0.0000
# 4 0.0000 0.0000 0.0000 5.0012 0.0000 -5.6850
# 5 -0.8891 7.3883 -11.2234 0.0000 15.6431 0.0000
# 6 0.0000 0.0000 0.0000 -5.6850 0.0000 14.6487
#
#
#
# Elastic Compliance Matrix: (Units=1/GPa)
#
#
# Indices 1 2 3 4 5 6 
#
# 1 0.010472 0.001876 0.006026 0.000000 0.004032 0.000000
# 2 0.001876 0.010399 0.002809 0.000000 -0.002789 0.000000
# 3 0.006026 0.002809 0.074399 0.000000 0.052395 0.000000
# 4 0.000000 0.000000 0.000000 0.357785 0.000000 0.138852
# 5 0.004032 -0.002789 0.052395 0.000000 0.103064 0.000000
# 6 0.000000 0.000000 0.000000 0.138852 0.000000 0.122152
#
#
# Mechanical properties :
#
#
# Convention : Reuss Voigt Hill
#
# Bulk Modulus (GPa) = 8.56949 18.33480 13.45214
# Shear Modulus (GPa) = 7.18654 24.40118 15.79386
#
# Velocity S-wave (km/s) = 1.69706 3.12711 2.51584
# Velocity P-wave (km/s) = 2.69709 4.51511 3.71890
#
# Compressibility (1/GPa) = 0.11669309
#
# Stress axis : x y z
#
# Youngs Moduli (GPa) = 95.49722 96.16137 13.44097
#
# Poissons Ratio (x) = -0.18043 -0.08099
# Poissons Ratio (y) = -0.17919 -0.03776
# Poissons Ratio (z) = -0.57545 -0.27015
#
# Static dielectric constant tensor:
#      x y z
#    x 2.071490 0.000000 0.076050 
#    y 0.000000 2.082060 0.000000 
#    z 0.076050 0.000000 2.163800 
# 
# From -- ./inp_files/66473.got.cif
#   From: 2010.05.17/outbox.cif.g08.bks.cpg/sg11_34_cif.got.tgz:66473.got - 2010.06.03 12:22:45.
