data_PCOD9162009
_publ_section_title
;
Structure prediction by ZEFSAII (Michael W. Deem and Ramdas Pophale) SiO2 
 PCOD9162009
Probable space group: P 21/M
;
_chemical_formula_sum "Si O2"
_cell_formula_units_Z 32
_cell_length_a 11.498343
_cell_length_b 8.608817
_cell_length_c 16.346591
_cell_angle_alpha 90.000000
_cell_angle_beta 90.353186
_cell_angle_gamma 90.000000
_cell_volume 1618.071397
_symmetry_space_group_name_H-M "P 21/M"
_symmetry_group_IT_number 11
_symmetry_cell_setting 'monoclinic'
loop_
_space_group_symop_operation_xyz
x,y,z
-x,1/2+y,-z
-x,-y,-z
x,1/2-y,z
loop_
_atom_site_type_symbol
_atom_site_label
_atom_site_fract_x
_atom_site_fract_y
_atom_site_fract_z
Si Si1 0.557461 0.069376 0.874011
Si Si2 0.848760 0.561577 0.164310
Si Si3 0.722452 0.936202 0.331140
Si Si4 0.071095 0.935084 0.259623
Si Si5 0.679898 0.932612 0.727316
Si Si6 0.509593 0.935961 0.591320
Si Si7 0.680678 0.935175 0.027538
Si Si8 0.945460 0.065395 0.417060
O O1 0.567161 0.250000 0.851262
O O2 0.430552 0.045235 0.912856
O O3 0.583797 0.965568 0.795921
O O4 0.649376 0.025456 0.945218
O O5 0.843711 0.750000 0.161867
O O6 0.769227 0.514162 0.241740
O O7 0.792314 0.509212 0.079158
O O8 0.980425 0.517522 0.187871
O O9 0.713637 0.750000 0.330827
O O10 0.600820 0.007239 0.357241
O O11 0.821479 0.988734 0.395351
O O12 0.058399 0.750000 0.270891
O O13 0.203942 0.978526 0.246628
O O14 0.027859 0.018882 0.341646
O O15 0.705371 0.750000 0.722997
O O16 0.625842 0.985393 0.640602
O O17 0.509712 0.750000 0.588619
O O18 0.500000 0.000000 0.500000
O O19 0.689490 0.750000 0.009599
O O20 0.933006 0.250000 0.421755
O O21 0.000000 0.000000 0.500000
#
# Coordination Sequence:
#
# PCOD9162009 Si02
#       8
#     4   4   4   4   4   4   4   4
#     4  10  20  34  56  88 118 151 190 231 286 345
#     4   8  16  33  58  85 111 145 186 231 284 338
#     4  10  20  37  59  84 114 145 186 235 286 341
#     4  10  21  38  59  84 112 149 195 241 290 345
#     4  11  24  41  59  81 115 155 194 236 288 350
#     4  11  25  41  58  82 112 148 191 236 288 348
#     4   9  17  33  58  86 118 149 185 234 285 340
#     4  11  22  37  58  83 112 147 190 238 288 337
#
# _framework density 19.776630999999998
#
# number of rings (size 3 to 8) (size 9 to 14) (size 15 to 20)
#    0.000    2.000    0.000    4.500    1.750    3.500 
#    0.000    4.375    0.000    0.000    0.000    0.000 
#    0.000    0.000    0.000    0.000    0.000    0.000 
#
# Total GULP energy -178735.939913 kJ/mol
# GULP energy per Si atom -5585.498122 kJ/mol
# Density = 1.973162 g / cm^3
# Si number density = 19.776631 Si / 1000 Ang^3
#
#
#
# Elastic Constant Matrix: (Units=GPa)
#
#
# Indices 1 2 3 4 5 6 
#
# 1 57.8874 10.4123 14.0106 0.0000 13.9810 0.0000
# 2 10.4123 35.0146 8.2449 0.0000 4.9656 0.0000
# 3 14.0106 8.2449 58.4305 0.0000 30.3127 0.0000
# 4 0.0000 0.0000 0.0000 27.8964 0.0000 -2.8213
# 5 13.9810 4.9656 30.3127 0.0000 30.0066 0.0000
# 6 0.0000 0.0000 0.0000 -2.8213 0.0000 29.8300
#
#
#
# Elastic Compliance Matrix: (Units=1/GPa)
#
#
# Indices 1 2 3 4 5 6 
#
# 1 0.020232 -0.004853 0.000646 0.000000 -0.009276 0.000000
# 2 -0.004853 0.030734 -0.003588 0.000000 0.000800 0.000000
# 3 0.000646 -0.003588 0.036379 0.000000 -0.036457 0.000000
# 4 0.000000 0.000000 0.000000 0.036193 0.000000 0.003423
# 5 -0.009276 0.000800 -0.036457 0.000000 0.074345 0.000000
# 6 0.000000 0.000000 0.000000 0.003423 0.000000 0.033847
#
#
# Mechanical properties :
#
#
# Convention : Reuss Voigt Hill
#
# Bulk Modulus (GPa) = 13.93640 24.07422 19.00531
# Shear Modulus (GPa) = 18.43392 25.45758 21.94575
#
# Velocity S-wave (km/s) = 3.05635 3.59173 3.33480
# Velocity P-wave (km/s) = 4.41783 5.42219 4.94558
#
# Compressibility (1/GPa) = 0.07175456
#
# Stress axis : x y z
#
# Youngs Moduli (GPa) = 49.42702 32.53714 27.48819
#
# Poissons Ratio (x) = 0.15790 -0.01775
# Poissons Ratio (y) = 0.23987 0.09863
# Poissons Ratio (z) = -0.03191 0.11675
#
# Static dielectric constant tensor:
#      x y z
#    x 1.707280 0.000000 0.012420 
#    y 0.000000 1.666850 0.000000 
#    z 0.012420 0.000000 1.667270 
# 
# From -- ./inp_files/49343.got.cif
#   From: 2010.05.17/outbox.cif.g08.bks.cpg/sg11_25_cif.got.tgz:49343.got - 2010.06.03 12:22:45.
