data_PCOD9162754
_publ_section_title
;
Structure prediction by ZEFSAII (Michael W. Deem and Ramdas Pophale) SiO2 
 PCOD9162754
Probable space group: P 21/M
;
_chemical_formula_sum "Si O2"
_cell_formula_units_Z 20
_cell_length_a 13.662862
_cell_length_b 11.242379
_cell_length_c 9.582802
_cell_angle_alpha 90.000000
_cell_angle_beta 37.551018
_cell_angle_gamma 90.000000
_cell_volume 897.104535
_symmetry_space_group_name_H-M "P 21/M"
_symmetry_group_IT_number 11
_symmetry_cell_setting 'monoclinic'
loop_
_space_group_symop_operation_xyz
x,y,z
-x,1/2+y,-z
-x,-y,-z
x,1/2-y,z
loop_
_atom_site_type_symbol
_atom_site_label
_atom_site_fract_x
_atom_site_fract_y
_atom_site_fract_z
Si Si1 0.371962 0.480471 0.454220
Si Si2 0.052662 0.879506 0.516631
Si Si3 0.576088 0.378073 0.861188
Si Si4 0.314616 0.617270 0.799628
Si Si5 0.021062 0.476189 0.811479
O O1 0.407365 0.597320 0.322802
O O2 0.337263 0.521453 0.651120
O O3 0.533664 0.402823 0.270293
O O4 0.203315 0.426665 0.588636
O O5 0.984672 0.750000 0.552514
O O6 0.243891 0.873628 0.284552
O O7 0.017819 0.905794 0.719864
O O8 0.000000 0.000000 0.500000
O O9 0.497003 0.250000 0.977907
O O10 0.500000 0.500000 0.000000
O O11 0.324797 0.750000 0.731452
O O12 0.134152 0.598881 0.060215
O O13 0.000000 0.500000 0.000000
#
# Coordination Sequence:
#
# PCOD9162754 Si02
#       5
#     4   4   4   4   4
#     4   9  20  39  57  85 122 157 200 253 312 368
#     4  10  23  43  64  92 129 169 212 265 321 386
#     4  10  22  40  62  86 121 164 208 255 309 369
#     4  10  20  35  60  89 119 156 202 254 311 376
#     4   9  20  39  62  89 122 161 208 261 316 376
#
# _framework density 22.293944
#
# number of rings (size 3 to 8) (size 9 to 14) (size 15 to 20)
#    0.000    2.400    0.000    0.600    2.800    8.000 
#    0.000   12.000    0.000    0.000    0.000    0.000 
#    0.000    0.000    0.000    0.000    0.000    0.000 
#
# Total GULP energy -111379.099527 kJ/mol
# GULP energy per Si atom -5568.954976 kJ/mol
# Density = 2.224320 g / cm^3
# Si number density = 22.293944 Si / 1000 Ang^3
#
#
#
# Elastic Constant Matrix: (Units=GPa)
#
#
# Indices 1 2 3 4 5 6 
#
# 1 59.7708 32.8809 39.4139 0.0000 -14.0218 0.0000
# 2 32.8809 126.2314 55.4132 0.0000 -8.3039 0.0000
# 3 39.4139 55.4132 94.2693 0.0000 -32.3960 0.0000
# 4 0.0000 0.0000 0.0000 20.0709 0.0000 -3.7320
# 5 -14.0218 -8.3039 -32.3960 0.0000 48.4716 0.0000
# 6 0.0000 0.0000 0.0000 -3.7320 0.0000 13.1537
#
#
#
# Elastic Compliance Matrix: (Units=1/GPa)
#
#
# Indices 1 2 3 4 5 6 
#
# 1 0.023689 -0.002576 -0.008031 0.000000 0.001044 0.000000
# 2 -0.002576 0.011321 -0.006708 0.000000 -0.003289 0.000000
# 3 -0.008031 -0.006708 0.021700 0.000000 0.011030 0.000000
# 4 0.000000 0.000000 0.000000 0.052598 0.000000 0.014924
# 5 0.001044 -0.003289 0.011030 0.000000 0.027741 0.000000
# 6 0.000000 0.000000 0.000000 0.014924 0.000000 0.080259
#
#
# Mechanical properties :
#
#
# Convention : Reuss Voigt Hill
#
# Bulk Modulus (GPa) = 45.29303 59.52082 52.40692
# Shear Modulus (GPa) = 19.28283 26.51013 22.89648
#
# Velocity S-wave (km/s) = 2.94417 3.45210 3.20820
# Velocity P-wave (km/s) = 5.64959 6.53035 6.10587
#
# Compressibility (1/GPa) = 0.02207845
#
# Stress axis : x y z
#
# Youngs Moduli (GPa) = 42.21456 88.32837 46.08398
#
# Poissons Ratio (x) = 0.22755 0.37011
# Poissons Ratio (y) = 0.10875 0.30914
# Poissons Ratio (z) = 0.33903 0.59252
#
# Static dielectric constant tensor:
#      x y z
#    x 1.870040 0.000000 0.002600 
#    y 0.000000 1.813390 0.000000 
#    z 0.002600 0.000000 1.876460 
# 
# From -- ./inp_files/39124.got.cif
#   From: 2010.05.17/outbox.cif.g08.bks.cpg/sg11_20_cif.got.tgz:39124.got - 2010.06.03 12:22:45.
