data_PCOD9162012
_publ_section_title
;
Structure prediction by ZEFSAII (Michael W. Deem and Ramdas Pophale) SiO2 
 PCOD9162012
Probable space group: P 21/M
;
_chemical_formula_sum "Si O2"
_cell_formula_units_Z 32
_cell_length_a 22.174245
_cell_length_b 8.731593
_cell_length_c 28.773594
_cell_angle_alpha 90.000000
_cell_angle_beta 162.106532
_cell_angle_gamma 90.000000
_cell_volume 1711.692251
_symmetry_space_group_name_H-M "P 21/M"
_symmetry_group_IT_number 11
_symmetry_cell_setting 'monoclinic'
loop_
_space_group_symop_operation_xyz
x,y,z
-x,1/2+y,-z
-x,-y,-z
x,1/2-y,z
loop_
_atom_site_type_symbol
_atom_site_label
_atom_site_fract_x
_atom_site_fract_y
_atom_site_fract_z
Si Si1 0.881375 0.431675 0.577049
Si Si2 0.037485 0.932178 0.602712
Si Si3 0.450519 0.566545 0.249669
Si Si4 0.499067 0.433987 0.551038
Si Si5 0.088534 0.434345 0.299565
Si Si6 0.309564 0.566222 0.043725
Si Si7 0.783649 0.567398 0.835172
Si Si8 0.698601 0.067480 0.289085
O O1 0.856857 0.250000 0.557861
O O2 0.033193 0.484590 0.648880
O O3 0.674927 0.512105 0.413092
O O4 0.934656 0.486679 0.667661
O O5 0.027933 0.750000 0.602625
O O6 0.219867 0.968177 0.702584
O O7 0.845775 0.985643 0.433136
O O8 0.443860 0.750000 0.251268
O O9 0.346737 0.527142 0.124868
O O10 0.344528 0.485941 0.214822
O O11 0.500000 0.500000 0.500000
O O12 0.510796 0.250000 0.558401
O O13 0.295873 0.476283 0.428182
O O14 0.677538 0.500924 0.711838
O O15 0.089634 0.250000 0.307006
O O16 0.905990 0.474121 0.132597
O O17 0.332396 0.750000 0.056459
O O18 0.479747 0.487458 0.138573
O O19 0.791125 0.750000 0.837941
O O20 0.000000 0.500000 0.000000
O O21 0.715017 0.250000 0.308000
#
# Coordination Sequence:
#
# PCOD9162012 Si02
#       8
#     4   4   4   4   4   4   4   4
#     4  12  23  37  61  92 120 159 208 254 303 360
#     4  10  20  35  57  85 120 161 201 250 309 365
#     4  11  22  39  64  92 124 160 202 255 310 363
#     4  11  24  43  67  93 125 166 208 253 309 371
#     4  10  23  43  64  87 122 166 204 246 304 367
#     4  10  22  39  62  90 122 163 204 247 307 368
#     4  12  26  44  66  95 128 163 208 259 311 366
#     4  10  20  34  56  88 122 156 200 254 308 362
#
# _framework density 18.694949000000001
#
# number of rings (size 3 to 8) (size 9 to 14) (size 15 to 20)
#    0.000    1.250    2.500    3.750    1.750    3.000 
#    0.000    0.625    0.000    0.000    0.000    0.000 
#    0.000    0.000    0.000    0.000    0.000    0.000 
#
# Total GULP energy -178917.518672 kJ/mol
# GULP energy per Si atom -5591.172458 kJ/mol
# Density = 1.865240 g / cm^3
# Si number density = 18.694949 Si / 1000 Ang^3
#
#
#
# Elastic Constant Matrix: (Units=GPa)
#
#
# Indices 1 2 3 4 5 6 
#
# 1 130.8543 48.8444 46.4727 0.0000 -17.2964 0.0000
# 2 48.8444 70.9221 39.0356 0.0000 -9.6311 0.0000
# 3 46.4727 39.0356 104.9904 0.0000 -18.7593 0.0000
# 4 0.0000 0.0000 0.0000 24.1649 0.0000 2.4226
# 5 -17.2964 -9.6311 -18.7593 0.0000 29.5959 0.0000
# 6 0.0000 0.0000 0.0000 2.4226 0.0000 35.9061
#
#
#
# Elastic Compliance Matrix: (Units=1/GPa)
#
#
# Indices 1 2 3 4 5 6 
#
# 1 0.011054 -0.006036 -0.002081 0.000000 0.003177 0.000000
# 2 -0.006036 0.021109 -0.005164 0.000000 0.000068 0.000000
# 3 -0.002081 -0.005164 0.013362 0.000000 0.005572 0.000000
# 4 0.000000 0.000000 0.000000 0.041664 0.000000 -0.002811
# 5 0.003177 0.000068 0.005572 0.000000 0.039199 0.000000
# 6 0.000000 0.000000 0.000000 -0.002811 0.000000 0.028040
#
#
# Mechanical properties :
#
#
# Convention : Reuss Voigt Hill
#
# Bulk Modulus (GPa) = 52.73850 63.94135 58.33993
# Shear Modulus (GPa) = 26.69342 29.42767 28.06054
#
# Velocity S-wave (km/s) = 3.78278 3.97179 3.87844
# Velocity P-wave (km/s) = 6.88117 7.43709 7.16452
#
# Compressibility (1/GPa) = 0.01896148
#
# Stress axis : x y z
#
# Youngs Moduli (GPa) = 90.46261 47.37348 74.84142
#
# Poissons Ratio (x) = 0.28596 0.15575
# Poissons Ratio (y) = 0.54606 0.38650
# Poissons Ratio (z) = 0.18826 0.24465
#
# Static dielectric constant tensor:
#      x y z
#    x 1.646630 0.000000 0.008130 
#    y 0.000000 1.625710 0.000000 
#    z 0.008130 0.000000 1.625460 
# 
# From -- ./inp_files/72229.got.cif
#   From: 2010.05.17/outbox.cif.g08.bks.cpg/sg11_37_cif.got.tgz:72229.got - 2010.06.03 12:22:45.
