data_PCOD9162964
_publ_section_title
;
Structure prediction by ZEFSAII (Michael W. Deem and Ramdas Pophale) SiO2 
 PCOD9162964
Probable space group: P 21/M
;
_chemical_formula_sum "Si O2"
_cell_formula_units_Z 32
_cell_length_a 12.676051
_cell_length_b 8.510013
_cell_length_c 15.560968
_cell_angle_alpha 90.000000
_cell_angle_beta 92.386166
_cell_angle_gamma 90.000000
_cell_volume 1677.158378
_symmetry_space_group_name_H-M "P 21/M"
_symmetry_group_IT_number 11
_symmetry_cell_setting 'monoclinic'
loop_
_space_group_symop_operation_xyz
x,y,z
-x,1/2+y,-z
-x,-y,-z
x,1/2-y,z
loop_
_atom_site_type_symbol
_atom_site_label
_atom_site_fract_x
_atom_site_fract_y
_atom_site_fract_z
Si Si1 0.464175 0.439865 0.869293
Si Si2 0.734970 0.560003 0.441399
Si Si3 0.043376 0.937459 0.592264
Si Si4 0.696254 0.939344 0.634580
Si Si5 0.670437 0.439457 0.979736
Si Si6 0.093986 0.561709 0.063214
Si Si7 0.896268 0.559654 0.745621
Si Si8 0.533157 0.560435 0.326412
O O1 0.461089 0.250000 0.872142
O O2 0.375781 0.503758 0.930928
O O3 0.448247 0.491399 0.771012
O O4 0.580105 0.489736 0.908146
O O5 0.740832 0.750000 0.439117
O O6 0.836218 0.491536 0.397532
O O7 0.735161 0.511365 0.541265
O O8 0.626976 0.509121 0.392256
O O9 0.035896 0.750000 0.589265
O O10 0.975421 0.990473 0.672089
O O11 0.000000 0.000000 0.500000
O O12 0.694170 0.750000 0.634626
O O13 0.779708 0.989961 0.709657
O O14 0.579970 0.001318 0.647096
O O15 0.672162 0.250000 0.979339
O O16 0.788829 0.494613 0.962601
O O17 0.094171 0.750000 0.059247
O O18 0.077941 0.508261 0.160755
O O19 0.000000 0.500000 0.000000
O O20 0.898845 0.750000 0.750638
O O21 0.531697 0.750000 0.326945
#
# Coordination Sequence:
#
# PCOD9162964 Si02
#       8
#     4   4   4   4   4   4   4   4
#     4   9  18  34  56  83 111 142 184 233 282 336
#     4  10  21  38  56  81 118 154 191 241 295 344
#     4  11  22  39  62  86 116 152 196 247 295 348
#     4  10  20  36  57  81 116 153 190 239 290 346
#     4   9  19  36  57  80 110 145 185 232 281 336
#     4  11  24  41  61  87 119 154 193 241 292 349
#     4  10  22  40  61  87 118 153 193 243 295 346
#     4  10  21  35  54  82 117 151 189 238 287 346
#
# _framework density 19.079892000000001
#
# number of rings (size 3 to 8) (size 9 to 14) (size 15 to 20)
#    0.000    2.000    1.250    1.875    0.000    6.000 
#    0.000    5.000    0.000    0.000    0.000    0.000 
#    0.000    0.000    0.000    0.000    0.000    0.000 
#
# Total GULP energy -178709.565914 kJ/mol
# GULP energy per Si atom -5584.673935 kJ/mol
# Density = 1.903647 g / cm^3
# Si number density = 19.079892 Si / 1000 Ang^3
#
#
#
# Elastic Constant Matrix: (Units=GPa)
#
#
# Indices 1 2 3 4 5 6 
#
# 1 140.5477 24.0494 96.5273 0.0000 2.0674 0.0000
# 2 24.0494 12.1354 27.1960 0.0000 3.1713 0.0000
# 3 96.5273 27.1960 100.2179 0.0000 6.4913 0.0000
# 4 0.0000 0.0000 0.0000 26.7458 0.0000 -2.8524
# 5 2.0674 3.1713 6.4913 0.0000 28.8779 0.0000
# 6 0.0000 0.0000 0.0000 -2.8524 0.0000 31.5721
#
#
#
# Elastic Compliance Matrix: (Units=1/GPa)
#
#
# Indices 1 2 3 4 5 6 
#
# 1 0.021665 0.008960 -0.023476 0.000000 0.002742 0.000000
# 2 0.008960 0.217134 -0.066941 0.000000 -0.009439 0.000000
# 3 -0.023476 -0.066941 0.050911 0.000000 -0.002412 0.000000
# 4 0.000000 0.000000 0.000000 0.037753 0.000000 0.003411
# 5 0.002742 -0.009439 -0.002412 0.000000 0.036011 0.000000
# 6 0.000000 0.000000 0.000000 0.003411 0.000000 0.031982
#
#
# Mechanical properties :
#
#
# Convention : Reuss Voigt Hill
#
# Bulk Modulus (GPa) = 7.88676 60.93848 34.41262
# Shear Modulus (GPa) = 8.32452 24.44772 16.38612
#
# Velocity S-wave (km/s) = 2.09104 3.58346 2.93374
# Velocity P-wave (km/s) = 3.15792 7.00924 5.43608
#
# Compressibility (1/GPa) = 0.12679483
#
# Stress axis : x y z
#
# Youngs Moduli (GPa) = 46.15845 4.60545 19.64198
#
# Poissons Ratio (x) = -0.04126 0.46111
# Poissons Ratio (y) = -0.41356 1.31486
# Poissons Ratio (z) = 1.08360 0.30830
#
# Static dielectric constant tensor:
#      x y z
#    x 1.653510 0.000000 0.004850 
#    y 0.000000 1.657400 0.000000 
#    z 0.004850 0.000000 1.645250 
# 
# From -- ./inp_files/49305.got.cif
#   From: 2010.05.17/outbox.cif.g08.bks.cpg/sg11_25_cif.got.tgz:49305.got - 2010.06.03 12:22:45.
