data_PCOD9162775
_publ_section_title
;
Structure prediction by ZEFSAII (Michael W. Deem and Ramdas Pophale) SiO2 
 PCOD9162775
Probable space group: P 21/M
;
_chemical_formula_sum "Si O2"
_cell_formula_units_Z 28
_cell_length_a 10.101364
_cell_length_b 24.123493
_cell_length_c 9.220806
_cell_angle_alpha 90.000000
_cell_angle_beta 147.290627
_cell_angle_gamma 90.000000
_cell_volume 1214.190242
_symmetry_space_group_name_H-M "P 21/M"
_symmetry_group_IT_number 11
_symmetry_cell_setting 'monoclinic'
loop_
_space_group_symop_operation_xyz
x,y,z
-x,1/2+y,-z
-x,-y,-z
x,1/2-y,z
loop_
_atom_site_type_symbol
_atom_site_label
_atom_site_fract_x
_atom_site_fract_y
_atom_site_fract_z
Si Si1 0.932449 0.385709 0.624440
Si Si2 0.515165 0.910020 0.590677
Si Si3 0.966601 0.556480 0.558048
Si Si4 0.429253 0.120741 0.676438
Si Si5 0.914826 0.186126 0.130340
Si Si6 0.847079 0.993328 0.007897
Si Si7 0.117651 0.188725 0.013295
O O1 0.681989 0.388648 0.479122
O O2 0.923751 0.396669 0.446465
O O3 0.044016 0.327980 0.782609
O O4 0.068823 0.439034 0.821723
O O5 0.470802 0.908611 0.378284
O O6 0.587528 0.970554 0.714799
O O7 0.719723 0.862837 0.790599
O O8 0.094065 0.544015 0.830366
O O9 0.000000 0.500000 0.500000
O O10 0.683489 0.573292 0.323586
O O11 0.657090 0.158029 0.937680
O O12 0.173978 0.156114 0.412535
O O13 0.925970 0.250000 0.189187
O O14 0.911416 0.187563 0.949264
O O15 0.000000 0.000000 0.000000
O O16 0.229386 0.250000 0.123538
#
# Coordination Sequence:
#
# PCOD9162775 Si02
#       7
#     4   4   4   4   4   4   4
#     4  10  21  39  58  89 122 161 209 262 320 391
#     4  10  20  35  61  89 120 159 218 259 311 386
#     4  10  23  43  59  91 132 170 213 269 338 391
#     4  11  21  41  65  96 131 172 217 273 325 392
#     4  10  21  39  68  98 125 165 221 278 327 380
#     4  10  20  38  59  86 121 161 214 261 321 380
#     4   9  19  36  61  90 122 159 207 264 319 383
#
# _framework density 23.060637
#
# number of rings (size 3 to 8) (size 9 to 14) (size 15 to 20)
#    0.000    2.000    2.857    0.429    0.000    2.286 
#   12.857    1.429    0.000    0.000    0.000    0.000 
#    0.000    0.000    0.000    0.000    0.000    0.000 
#
# Total GULP energy -156008.542597 kJ/mol
# GULP energy per Si atom -5571.733664 kJ/mol
# Density = 2.300815 g / cm^3
# Si number density = 23.060637 Si / 1000 Ang^3
#
#
#
# Elastic Constant Matrix: (Units=GPa)
#
#
# Indices 1 2 3 4 5 6 
#
# 1 111.8964 13.5888 26.6580 0.0000 -12.0627 0.0000
# 2 13.5888 97.4232 28.8547 0.0000 -4.5020 0.0000
# 3 26.6580 28.8547 72.1417 0.0000 -7.0364 0.0000
# 4 0.0000 0.0000 0.0000 20.8880 0.0000 1.6410
# 5 -12.0627 -4.5020 -7.0364 0.0000 33.2873 0.0000
# 6 0.0000 0.0000 0.0000 1.6410 0.0000 40.4066
#
#
#
# Elastic Compliance Matrix: (Units=1/GPa)
#
#
# Indices 1 2 3 4 5 6 
#
# 1 0.010078 -0.000286 -0.003326 0.000000 0.002910 0.000000
# 2 -0.000286 0.011664 -0.004509 0.000000 0.000521 0.000000
# 3 -0.003326 -0.004509 0.017069 0.000000 0.001793 0.000000
# 4 0.000000 0.000000 0.000000 0.048028 0.000000 -0.001951
# 5 0.002910 0.000521 0.001793 0.000000 0.031546 0.000000
# 6 0.000000 0.000000 0.000000 -0.001951 0.000000 0.024828
#
#
# Mechanical properties :
#
#
# Convention : Reuss Voigt Hill
#
# Bulk Modulus (GPa) = 44.30801 46.62938 45.46869
# Shear Modulus (GPa) = 29.94460 33.07370 31.50915
#
# Velocity S-wave (km/s) = 3.60740 3.79120 3.70044
# Velocity P-wave (km/s) = 6.05033 6.27921 6.16583
#
# Compressibility (1/GPa) = 0.02256928
#
# Stress axis : x y z
#
# Youngs Moduli (GPa) = 99.22988 85.73498 58.58667
#
# Poissons Ratio (x) = 0.02454 0.19484
# Poissons Ratio (y) = 0.02840 0.26415
# Poissons Ratio (z) = 0.33000 0.38655
#
# Static dielectric constant tensor:
#      x y z
#    x 1.764990 0.000000 -0.071470 
#    y 0.000000 1.929840 0.000000 
#    z -0.071470 0.000000 1.976660 
# 
# From -- ./inp_files/15300.got.cif
#   From: 2010.05.17/outbox.cif.g08.bks.cpg/sg11_8_cif.got.tgz:15300.got - 2010.06.03 12:22:45.
