data_PCOD9162306
_publ_section_title
;
Structure prediction by ZEFSAII (Michael W. Deem and Ramdas Pophale) SiO2 
 PCOD9162306
Probable space group: P 21/M
;
_chemical_formula_sum "Si O2"
_cell_formula_units_Z 28
_cell_length_a 26.593208
_cell_length_b 9.229399
_cell_length_c 9.515097
_cell_angle_alpha 90.000000
_cell_angle_beta 137.012896
_cell_angle_gamma 90.000000
_cell_volume 1592.340183
_symmetry_space_group_name_H-M "P 21/M"
_symmetry_group_IT_number 11
_symmetry_cell_setting 'monoclinic'
loop_
_space_group_symop_operation_xyz
x,y,z
-x,1/2+y,-z
-x,-y,-z
x,1/2-y,z
loop_
_atom_site_type_symbol
_atom_site_label
_atom_site_fract_x
_atom_site_fract_y
_atom_site_fract_z
Si Si1 0.559804 0.419920 0.714565
Si Si2 0.190059 0.416132 0.102064
Si Si3 0.738575 0.419138 0.493799
Si Si4 0.077717 0.579898 0.665962
Si Si5 0.800708 0.084438 0.312112
Si Si6 0.430588 0.925410 0.936148
Si Si7 0.304752 0.411089 0.089789
O O1 0.500000 0.500000 0.500000
O O2 0.546840 0.250000 0.685301
O O3 0.635301 0.465053 0.795712
O O4 0.564343 0.463762 0.887798
O O5 0.165059 0.250000 0.072252
O O6 0.219096 0.488857 0.303135
O O7 0.260885 0.412203 0.144695
O O8 0.129000 0.506360 0.890381
O O9 0.735648 0.250000 0.531066
O O10 0.786313 0.426103 0.447953
O O11 0.652621 0.463656 0.288201
O O12 0.068661 0.750000 0.678368
O O13 0.120394 0.569572 0.602783
O O14 0.000000 0.500000 0.500000
O O15 0.775111 0.250000 0.221233
O O16 0.753011 0.957017 0.146859
O O17 0.436786 0.750000 0.936725
O O18 0.500000 0.000000 0.000000
O O19 0.335761 0.250000 0.129212
#
# Coordination Sequence:
#
# PCOD9162306 Si02
#       7
#     4   4   4   4   4   4   4
#     4  11  23  39  56  78 108 143 188 239 287 339
#     4  10  22  37  56  86 118 148 188 233 277 333
#     4  10  20  38  59  82 112 150 193 235 283 338
#     4  10  20  37  63  90 118 151 184 228 280 335
#     4   9  18  36  60  83 110 147 187 227 276 331
#     4  10  23  40  57  79 112 150 191 239 289 340
#     4  10  20  35  55  80 108 142 185 233 280 331
#
# _framework density 17.584182999999999
#
# number of rings (size 3 to 8) (size 9 to 14) (size 15 to 20)
#    0.000    2.000    1.429    1.714    2.000    4.571 
#    0.000    0.714    0.000    0.000    0.000    0.000 
#    0.000    0.000    0.000    0.000    0.000    0.000 
#
# Total GULP energy -156025.459685 kJ/mol
# GULP energy per Si atom -5572.337846 kJ/mol
# Density = 1.754416 g / cm^3
# Si number density = 17.584183 Si / 1000 Ang^3
#
#
#
# Elastic Constant Matrix: (Units=GPa)
#
#
# Indices 1 2 3 4 5 6 
#
# 1 71.8980 55.6347 71.1693 0.0000 7.5552 0.0000
# 2 55.6347 81.0960 59.3532 0.0000 -3.9134 0.0000
# 3 71.1693 59.3532 109.6662 0.0000 3.0013 0.0000
# 4 0.0000 0.0000 0.0000 32.6441 0.0000 5.5940
# 5 7.5552 -3.9134 3.0013 0.0000 24.4456 0.0000
# 6 0.0000 0.0000 0.0000 5.5940 0.0000 28.4891
#
#
#
# Elastic Compliance Matrix: (Units=1/GPa)
#
#
# Indices 1 2 3 4 5 6 
#
# 1 0.057695 -0.022238 -0.024905 0.000000 -0.018334 0.000000
# 2 -0.022238 0.029530 -0.001874 0.000000 0.011831 0.000000
# 3 -0.024905 -0.001874 0.026180 0.000000 0.004183 0.000000
# 4 0.000000 0.000000 0.000000 0.031700 0.000000 -0.006224
# 5 -0.018334 0.011831 0.004183 0.000000 0.047954 0.000000
# 6 0.000000 0.000000 0.000000 -0.006224 0.000000 0.036323
#
#
# Mechanical properties :
#
#
# Convention : Reuss Voigt Hill
#
# Bulk Modulus (GPa) = 65.05412 70.55273 67.80342
# Shear Modulus (GPa) = 15.03576 22.21597 18.62587
#
# Velocity S-wave (km/s) = 2.92734 3.55830 3.25813
# Velocity P-wave (km/s) = 6.96433 7.55592 7.26615
#
# Compressibility (1/GPa) = 0.01537182
#
# Stress axis : x y z
#
# Youngs Moduli (GPa) = 17.33241 33.86408 38.19652
#
# Poissons Ratio (x) = 0.75308 0.95127
# Poissons Ratio (y) = 0.38545 0.07158
# Poissons Ratio (z) = 0.43166 0.06346
#
# Static dielectric constant tensor:
#      x y z
#    x 1.523530 0.000000 -0.114890 
#    y 0.000000 1.608810 0.000000 
#    z -0.114890 0.000000 1.430880 
# 
# From -- ./inp_files/28569.got.cif
#   From: 2010.05.17/outbox.cif.g08.bks.cpg/sg11_15_cif.got.tgz:28569.got - 2010.06.03 12:22:45.
