data_PCOD9162507
_publ_section_title
;
Structure prediction by ZEFSAII (Michael W. Deem and Ramdas Pophale) SiO2 
 PCOD9162507
Probable space group: P 21/M
;
_chemical_formula_sum "Si O2"
_cell_formula_units_Z 32
_cell_length_a 12.357228
_cell_length_b 7.782274
_cell_length_c 14.362433
_cell_angle_alpha 90.000000
_cell_angle_beta 86.757734
_cell_angle_gamma 90.000000
_cell_volume 1378.986031
_symmetry_space_group_name_H-M "P 21/M"
_symmetry_group_IT_number 11
_symmetry_cell_setting 'monoclinic'
loop_
_space_group_symop_operation_xyz
x,y,z
-x,1/2+y,-z
-x,-y,-z
x,1/2-y,z
loop_
_atom_site_type_symbol
_atom_site_label
_atom_site_fract_x
_atom_site_fract_y
_atom_site_fract_z
Si Si1 0.888013 0.042935 0.955220
Si Si2 0.233972 0.543637 0.210043
Si Si3 0.527156 0.452088 0.834511
Si Si4 0.252488 0.962372 0.694176
Si Si5 0.521383 0.446792 0.370142
Si Si6 0.098541 0.940730 0.557580
Si Si7 0.286996 0.452697 0.417766
Si Si8 0.696850 0.457212 0.097476
O O1 0.881473 0.250000 0.952610
O O2 0.787332 0.979278 0.022267
O O3 0.864265 0.983081 0.850675
O O4 0.000000 0.000000 0.000000
O O5 0.225861 0.750000 0.222413
O O6 0.347781 0.509248 0.149947
O O7 0.247821 0.469102 0.312295
O O8 0.523227 0.250000 0.812332
O O9 0.501195 0.551700 0.740227
O O10 0.428201 0.488928 0.908387
O O11 0.254761 0.750000 0.691161
O O12 0.358972 0.024963 0.632276
O O13 0.143973 0.026861 0.649183
O O14 0.266743 0.011957 0.800367
O O15 0.526776 0.250000 0.401096
O O16 0.410938 0.521244 0.417908
O O17 0.068274 0.750000 0.587433
O O18 0.203092 0.947763 0.485694
O O19 0.000000 0.000000 0.500000
O O20 0.285079 0.250000 0.440778
O O21 0.697372 0.250000 0.094345
#
# Coordination Sequence:
#
# PCOD9162507 Si02
#       8
#     4   4   4   4   4   4   4   4
#     4  10  22  38  55  77 106 142 184 226 265 310
#     4   9  19  36  55  79 112 143 172 214 268 318
#     4   9  16  28  50  80 110 137 169 211 261 318
#     4   8  16  33  56  78 103 138 174 210 260 318
#     4   8  15  31  54  79 106 134 169 212 261 323
#     4  11  23  38  54  75 106 143 184 226 266 313
#     4  10  20  35  57  83 108 137 175 218 266 320
#     4   9  18  35  56  77 105 139 173 214 265 318
#
# _framework density 23.205456000000002
#
# number of rings (size 3 to 8) (size 9 to 14) (size 15 to 20)
#    0.000    2.750    0.000    1.875    0.000    4.000 
#    0.000    6.250    0.000    0.000    0.000    0.000 
#    0.000    0.000    0.000    0.000    0.000    0.000 
#
# Total GULP energy -178538.139892 kJ/mol
# GULP energy per Si atom -5579.316872 kJ/mol
# Density = 2.315264 g / cm^3
# Si number density = 23.205456 Si / 1000 Ang^3
#
#
#
# Elastic Constant Matrix: (Units=GPa)
#
#
# Indices 1 2 3 4 5 6 
#
# 1 57.7706 5.3606 13.6392 0.0000 35.8773 0.0000
# 2 5.3606 43.2875 4.7923 0.0000 9.4396 0.0000
# 3 13.6392 4.7923 63.4582 0.0000 20.6624 0.0000
# 4 0.0000 0.0000 0.0000 11.7606 0.0000 -0.3461
# 5 35.8773 9.4396 20.6624 0.0000 44.3094 0.0000
# 6 0.0000 0.0000 0.0000 -0.3461 0.0000 24.4108
#
#
#
# Elastic Compliance Matrix: (Units=1/GPa)
#
#
# Indices 1 2 3 4 5 6 
#
# 1 0.035187 0.001927 0.002007 0.000000 -0.029837 0.000000
# 2 0.001927 0.024334 -0.000066 0.000000 -0.006714 0.000000
# 3 0.002007 -0.000066 0.018695 0.000000 -0.010329 0.000000
# 4 0.000000 0.000000 0.000000 0.085065 0.000000 0.001206
# 5 -0.029837 -0.006714 -0.010329 0.000000 0.052975 0.000000
# 6 0.000000 0.000000 0.000000 0.001206 0.000000 0.040983
#
#
# Mechanical properties :
#
#
# Convention : Reuss Voigt Hill
#
# Bulk Modulus (GPa) = 11.63438 23.56671 17.60054
# Shear Modulus (GPa) = 17.97566 25.47776 21.72671
#
# Velocity S-wave (km/s) = 2.78624 3.31708 3.06318
# Velocity P-wave (km/s) = 3.92114 4.98482 4.48463
#
# Compressibility (1/GPa) = 0.08595218
#
# Stress axis : x y z
#
# Youngs Moduli (GPa) = 28.41948 41.09471 53.48969
#
# Poissons Ratio (x) = -0.07919 -0.10735
# Poissons Ratio (y) = -0.05476 0.00352
# Poissons Ratio (z) = -0.05703 0.00271
#
# Static dielectric constant tensor:
#      x y z
#    x 1.904310 0.000000 0.023280 
#    y 0.000000 1.869770 0.000000 
#    z 0.023280 0.000000 1.909720 
# 
# From -- ./inp_files/38063.got.cif
#   From: 2010.05.17/outbox.cif.g08.bks.cpg/sg11_20_cif.got.tgz:38063.got - 2010.06.03 12:22:45.
