data_PCOD9162870
_publ_section_title
;
Structure prediction by ZEFSAII (Michael W. Deem and Ramdas Pophale) SiO2 
 PCOD9162870
Probable space group: P 21/M
;
_chemical_formula_sum "Si O2"
_cell_formula_units_Z 28
_cell_length_a 31.282772
_cell_length_b 8.443366
_cell_length_c 10.013633
_cell_angle_alpha 90.000000
_cell_angle_beta 143.217437
_cell_angle_gamma 90.000000
_cell_volume 1583.724792
_symmetry_space_group_name_H-M "P 21/M"
_symmetry_group_IT_number 11
_symmetry_cell_setting 'monoclinic'
loop_
_space_group_symop_operation_xyz
x,y,z
-x,1/2+y,-z
-x,-y,-z
x,1/2-y,z
loop_
_atom_site_type_symbol
_atom_site_label
_atom_site_fract_x
_atom_site_fract_y
_atom_site_fract_z
Si Si1 0.720842 0.557176 0.651038
Si Si2 0.282125 0.441802 0.048957
Si Si3 0.847175 0.558857 0.775311
Si Si4 0.559752 0.560208 0.250024
Si Si5 0.001602 0.560328 0.851309
Si Si6 0.560436 0.061671 0.551992
Si Si7 0.154974 0.443065 0.539756
O O1 0.722123 0.750000 0.651182
O O2 0.732971 0.509989 0.835432
O O3 0.782400 0.501532 0.705457
O O4 0.640266 0.508057 0.412115
O O5 0.283922 0.250000 0.050667
O O6 0.360824 0.502041 0.209909
O O7 0.220292 0.497112 0.794414
O O8 0.846325 0.750000 0.771594
O O9 0.838852 0.505904 0.599837
O O10 0.924850 0.506397 0.022443
O O11 0.559152 0.750000 0.249903
O O12 0.547127 0.500895 0.368817
O O13 0.500000 0.500000 0.000000
O O14 0.005115 0.750000 0.858868
O O15 0.923616 0.511402 0.602146
O O16 0.000000 0.500000 0.000000
O O17 0.559888 0.250000 0.549039
O O18 0.500000 0.000000 0.500000
O O19 0.156536 0.250000 0.542630
#
# Coordination Sequence:
#
# PCOD9162870 Si02
#       7
#     4   4   4   4   4   4   4
#     4   8  16  30  49  69  95 128 162 195 239 295
#     4   9  17  33  52  70  94 129 165 201 245 299
#     4   9  16  29  47  69  93 124 161 197 236 287
#     4  10  20  36  56  80 106 137 173 211 254 305
#     4   9  16  28  45  68  94 123 156 196 241 287
#     4  11  22  37  55  77 104 136 171 213 259 308
#     4   8  15  27  47  69  92 123 161 197 239 293
#
# _framework density 17.679839999999999
#
# number of rings (size 3 to 8) (size 9 to 14) (size 15 to 20)
#    0.000    2.857    0.000    3.857    0.000    1.143 
#    0.000   10.714    0.000    0.000    0.000    0.000 
#    0.000    0.000    0.000    0.000    0.000    0.000 
#
# Total GULP energy -156007.698905 kJ/mol
# GULP energy per Si atom -5571.703532 kJ/mol
# Density = 1.763960 g / cm^3
# Si number density = 17.679840 Si / 1000 Ang^3
#
#
#
# Elastic Constant Matrix: (Units=GPa)
#
#
# Indices 1 2 3 4 5 6 
#
# 1 158.5628 24.5499 92.8407 0.0000 36.0478 0.0000
# 2 24.5499 35.0297 28.2135 0.0000 5.7589 0.0000
# 3 92.8407 28.2135 172.9481 0.0000 29.6537 0.0000
# 4 0.0000 0.0000 0.0000 24.9395 0.0000 5.6788
# 5 36.0478 5.7589 29.6537 0.0000 17.3062 0.0000
# 6 0.0000 0.0000 0.0000 5.6788 0.0000 21.7199
#
#
#
# Elastic Compliance Matrix: (Units=1/GPa)
#
#
# Indices 1 2 3 4 5 6 
#
# 1 0.013601 -0.003534 -0.002930 0.000000 -0.022135 0.000000
# 2 -0.003534 0.033859 -0.004187 0.000000 0.003267 0.000000
# 3 -0.002930 -0.004187 0.009562 0.000000 -0.008888 0.000000
# 4 0.000000 0.000000 0.000000 0.042635 0.000000 -0.011147
# 5 -0.022135 0.003267 -0.008888 0.000000 0.118031 0.000000
# 6 0.000000 0.000000 0.000000 -0.011147 0.000000 0.048955
#
#
# Mechanical properties :
#
#
# Convention : Reuss Voigt Hill
#
# Bulk Modulus (GPa) = 27.99430 73.08320 50.53875
# Shear Modulus (GPa) = 16.67499 27.52222 22.09860
#
# Velocity S-wave (km/s) = 3.07443 3.94979 3.53927
# Velocity P-wave (km/s) = 5.33584 7.88846 6.73421
#
# Compressibility (1/GPa) = 0.03572155
#
# Stress axis : x y z
#
# Youngs Moduli (GPa) = 73.52275 29.53457 104.58368
#
# Poissons Ratio (x) = 0.10436 0.30639
# Poissons Ratio (y) = 0.25980 0.43787
# Poissons Ratio (z) = 0.21539 0.12365
#
# Static dielectric constant tensor:
#      x y z
#    x 1.596610 0.000000 0.020720 
#    y 0.000000 1.608970 0.000000 
#    z 0.020720 0.000000 1.602670 
# 
# From -- ./inp_files/29117.got.cif
#   From: 2010.05.17/outbox.cif.g08.bks.cpg/sg11_15_cif.got.tgz:29117.got - 2010.06.03 12:22:45.
