data_PCOD9162266
_publ_section_title
;
Structure prediction by ZEFSAII (Michael W. Deem and Ramdas Pophale) SiO2 
 PCOD9162266
Probable space group: P 21/M
;
_chemical_formula_sum "Si O2"
_cell_formula_units_Z 24
_cell_length_a 15.099705
_cell_length_b 7.466931
_cell_length_c 18.838105
_cell_angle_alpha 90.000000
_cell_angle_beta 155.076014
_cell_angle_gamma 90.000000
_cell_volume 895.072709
_symmetry_space_group_name_H-M "P 21/M"
_symmetry_group_IT_number 11
_symmetry_cell_setting 'monoclinic'
loop_
_space_group_symop_operation_xyz
x,y,z
-x,1/2+y,-z
-x,-y,-z
x,1/2-y,z
loop_
_atom_site_type_symbol
_atom_site_label
_atom_site_fract_x
_atom_site_fract_y
_atom_site_fract_z
Si Si1 0.248460 0.039132 0.693376
Si Si2 0.700417 0.468191 0.809008
Si Si3 0.276452 0.031824 0.560009
Si Si4 0.170165 0.955399 0.943986
Si Si5 0.194222 0.962912 0.809886
Si Si6 0.746650 0.462930 0.688571
O O1 0.279631 0.250000 0.717163
O O2 0.344384 0.972177 0.688934
O O3 0.306120 0.982768 0.815046
O O4 0.000000 0.000000 0.500000
O O5 0.714761 0.250000 0.817889
O O6 0.453567 0.517418 0.632915
O O7 0.796368 0.531727 0.804944
O O8 0.783420 0.535805 0.945026
O O9 0.266462 0.250000 0.554381
O O10 0.042483 0.966366 0.375149
O O11 0.246329 0.750000 0.004035
O O12 0.256926 0.033535 0.933225
O O13 0.914973 0.954862 0.756878
O O14 0.182367 0.750000 0.811773
O O15 0.500000 0.500000 0.500000
O O16 0.774943 0.250000 0.705532
#
# Coordination Sequence:
#
# PCOD9162266 Si02
#       6
#     4   4   4   4   4   4
#     4   9  16  27  47  73 100 131 170 216 260 300
#     4   9  18  33  53  76 103 136 172 210 257 314
#     4   8  14  27  47  70  96 129 168 207 248 297
#     4  10  20  35  55  77 103 137 173 210 258 314
#     4   9  17  30  49  72 100 135 173 212 255 305
#     4  11  22  36  56  80 105 134 171 215 259 306
#
# _framework density 26.813462999999999
#
# number of rings (size 3 to 8) (size 9 to 14) (size 15 to 20)
#    0.000    2.667    0.000    3.500    0.000    3.333 
#    0.000    1.667    0.000    8.000    0.000    0.000 
#    0.000    0.000    0.000    0.000    0.000    0.000 
#
# Total GULP energy -134120.562672 kJ/mol
# GULP energy per Si atom -5588.356778 kJ/mol
# Density = 2.675243 g / cm^3
# Si number density = 26.813463 Si / 1000 Ang^3
#
#
#
# Elastic Constant Matrix: (Units=GPa)
#
#
# Indices 1 2 3 4 5 6 
#
# 1 205.3011 -0.9247 25.5332 0.0000 -17.9597 0.0000
# 2 -0.9247 92.9949 -3.0242 0.0000 -4.6287 0.0000
# 3 25.5332 -3.0242 86.3676 0.0000 -19.0824 0.0000
# 4 0.0000 0.0000 0.0000 3.3378 0.0000 -3.6328
# 5 -17.9597 -4.6287 -19.0824 0.0000 58.7098 0.0000
# 6 0.0000 0.0000 0.0000 -3.6328 0.0000 16.0047
#
#
#
# Elastic Compliance Matrix: (Units=1/GPa)
#
#
# Indices 1 2 3 4 5 6 
#
# 1 0.005129 0.000068 -0.001256 0.000000 0.001166 0.000000
# 2 0.000068 0.010826 0.000595 0.000000 0.001068 0.000000
# 3 -0.001256 0.000595 0.012817 0.000000 0.003828 0.000000
# 4 0.000000 0.000000 0.000000 0.397902 0.000000 0.090317
# 5 0.001166 0.001068 0.003828 0.000000 0.018718 0.000000
# 6 0.000000 0.000000 0.000000 0.090317 0.000000 0.082982
#
#
# Mechanical properties :
#
#
# Convention : Reuss Voigt Hill
#
# Bulk Modulus (GPa) = 36.25065 47.53691 41.89378
# Shear Modulus (GPa) = 9.28063 39.81573 24.54818
#
# Velocity S-wave (km/s) = 1.86244 3.85764 3.02903
# Velocity P-wave (km/s) = 4.26308 6.13263 5.28124
#
# Compressibility (1/GPa) = 0.02758571
#
# Stress axis : x y z
#
# Youngs Moduli (GPa) = 194.95167 92.36637 78.02429
#
# Poissons Ratio (x) = -0.00630 0.09803
# Poissons Ratio (y) = -0.01329 -0.04641
# Poissons Ratio (z) = 0.24494 -0.05494
#
# Static dielectric constant tensor:
#      x y z
#    x 2.076820 0.000000 -0.020500 
#    y 0.000000 2.041830 0.000000 
#    z -0.020500 0.000000 2.202950 
# 
# From -- ./inp_files/20469.got.cif
#   From: 2010.05.17/outbox.cif.g08.bks.cpg/sg11_11_cif.got.tgz:20469.got - 2010.06.03 12:22:45.
