data_PCOD9162973
_publ_section_title
;
Structure prediction by ZEFSAII (Michael W. Deem and Ramdas Pophale) SiO2 
 PCOD9162973
Probable space group: P 21/M
;
_chemical_formula_sum "Si O2"
_cell_formula_units_Z 32
_cell_length_a 12.672350
_cell_length_b 8.373265
_cell_length_c 15.641330
_cell_angle_alpha 90.000000
_cell_angle_beta 92.398115
_cell_angle_gamma 90.000000
_cell_volume 1658.231480
_symmetry_space_group_name_H-M "P 21/M"
_symmetry_group_IT_number 11
_symmetry_cell_setting 'monoclinic'
loop_
_space_group_symop_operation_xyz
x,y,z
-x,1/2+y,-z
-x,-y,-z
x,1/2-y,z
loop_
_atom_site_type_symbol
_atom_site_label
_atom_site_fract_x
_atom_site_fract_y
_atom_site_fract_z
Si Si1 0.899306 0.557703 0.742542
Si Si2 0.094171 0.059003 0.063801
Si Si3 0.274329 0.942303 0.555347
Si Si4 0.327425 0.559347 0.024265
Si Si5 0.045536 0.943202 0.592243
Si Si6 0.462216 0.443433 0.871199
Si Si7 0.699439 0.443304 0.638514
Si Si8 0.463613 0.057523 0.677433
O O1 0.906486 0.750000 0.743882
O O2 0.921405 0.499386 0.839100
O O3 0.782797 0.509248 0.708620
O O4 0.978399 0.498379 0.670984
O O5 0.090217 0.250000 0.064820
O O6 0.211647 0.009716 0.037529
O O7 0.000000 0.000000 0.000000
O O8 0.275844 0.750000 0.553780
O O9 0.167464 0.994587 0.598755
O O10 0.271598 0.996124 0.456595
O O11 0.377046 0.999781 0.607991
O O12 0.319261 0.750000 0.028794
O O13 0.419558 0.507947 0.094307
O O14 0.377021 0.510251 0.934804
O O15 0.042090 0.750000 0.592223
O O16 0.000000 0.000000 0.500000
O O17 0.458739 0.250000 0.875140
O O18 0.441566 0.495372 0.773680
O O19 0.703698 0.250000 0.641667
O O20 0.580728 0.494895 0.655003
O O21 0.463559 0.250000 0.677203
#
# Coordination Sequence:
#
# PCOD9162973 Si02
#       8
#     4   4   4   4   4   4   4   4
#     4  10  22  38  60  87 114 147 190 237 286 338
#     4  11  24  41  59  85 120 155 193 241 292 348
#     4  10  21  35  53  80 114 151 188 232 283 333
#     4  10  20  37  62  86 111 148 190 238 293 346
#     4  10  20  37  58  82 111 144 186 234 279 330
#     4   9  19  36  57  84 115 148 189 238 290 348
#     4  10  20  36  57  82 114 150 190 234 281 336
#     4  10  21  35  53  80 115 151 189 232 280 337
#
# _framework density 19.297667000000001
#
# number of rings (size 3 to 8) (size 9 to 14) (size 15 to 20)
#    0.000    2.000    1.250    1.875    0.000    5.500 
#    0.000    1.250    0.000    0.000    0.000    0.000 
#    0.000    0.000    0.000    0.000    0.000    0.000 
#
# Total GULP energy -178699.123372 kJ/mol
# GULP energy per Si atom -5584.347605 kJ/mol
# Density = 1.925375 g / cm^3
# Si number density = 19.297667 Si / 1000 Ang^3
#
#
#
# Elastic Constant Matrix: (Units=GPa)
#
#
# Indices 1 2 3 4 5 6 
#
# 1 125.3452 18.8877 99.0472 0.0000 -2.0802 0.0000
# 2 18.8877 11.2585 18.7187 0.0000 -1.5923 0.0000
# 3 99.0472 18.7187 132.5231 0.0000 14.0684 0.0000
# 4 0.0000 0.0000 0.0000 23.3384 0.0000 7.7409
# 5 -2.0802 -1.5923 14.0684 0.0000 27.3599 0.0000
# 6 0.0000 0.0000 0.0000 7.7409 0.0000 19.5298
#
#
#
# Elastic Compliance Matrix: (Units=1/GPa)
#
#
# Indices 1 2 3 4 5 6 
#
# 1 0.022748 -0.008838 -0.016800 0.000000 0.009854 0.000000
# 2 -0.008838 0.126598 -0.012679 0.000000 0.013215 0.000000
# 3 -0.016800 -0.012679 0.023383 0.000000 -0.014039 0.000000
# 4 0.000000 0.000000 0.000000 0.049333 0.000000 -0.019554
# 5 0.009854 0.013215 -0.014039 0.000000 0.045287 0.000000
# 6 0.000000 0.000000 0.000000 -0.019554 0.000000 0.058954
#
#
# Mechanical properties :
#
#
# Convention : Reuss Voigt Hill
#
# Bulk Modulus (GPa) = 10.40629 60.27046 35.33837
# Shear Modulus (GPa) = 11.49506 22.87718 17.18612
#
# Velocity S-wave (km/s) = 2.44328 3.44683 2.98750
# Velocity P-wave (km/s) = 3.65565 6.86590 5.50020
#
# Compressibility (1/GPa) = 0.09609572
#
# Stress axis : x y z
#
# Youngs Moduli (GPa) = 43.95945 7.89900 42.76616
#
# Poissons Ratio (x) = 0.06981 0.71845
# Poissons Ratio (y) = 0.38853 0.54223
# Poissons Ratio (z) = 0.73850 0.10015
#
# Static dielectric constant tensor:
#      x y z
#    x 1.651170 0.000000 -0.019830 
#    y 0.000000 1.669870 0.000000 
#    z -0.019830 0.000000 1.669260 
# 
# From -- ./inp_files/49351.got.cif
#   From: 2010.05.17/outbox.cif.g08.bks.cpg/sg11_25_cif.got.tgz:49351.got - 2010.06.03 12:22:45.
