data_PCOD9162029
_publ_section_title
;
Structure prediction by ZEFSAII (Michael W. Deem and Ramdas Pophale) SiO2 
 PCOD9162029
Probable space group: P 21/M
;
_chemical_formula_sum "Si O2"
_cell_formula_units_Z 32
_cell_length_a 9.564293
_cell_length_b 15.265337
_cell_length_c 12.188519
_cell_angle_alpha 90.000000
_cell_angle_beta 92.935294
_cell_angle_gamma 90.000000
_cell_volume 1777.215285
_symmetry_space_group_name_H-M "P 21/M"
_symmetry_group_IT_number 11
_symmetry_cell_setting 'monoclinic'
loop_
_space_group_symop_operation_xyz
x,y,z
-x,1/2+y,-z
-x,-y,-z
x,1/2-y,z
loop_
_atom_site_type_symbol
_atom_site_label
_atom_site_fract_x
_atom_site_fract_y
_atom_site_fract_z
Si Si1 0.276950 0.649939 0.377449
Si Si2 0.928513 0.444789 0.328413
Si Si3 0.541317 0.851187 0.535684
Si Si4 0.349110 0.971969 0.950470
Si Si5 0.198148 0.650773 0.122413
Si Si6 0.933984 0.954520 0.103964
Si Si7 0.344324 0.851143 0.737566
Si Si8 0.188160 0.031165 0.474663
O O1 0.230152 0.750000 0.404242
O O2 0.434611 0.642259 0.429417
O O3 0.261759 0.640082 0.246538
O O4 0.197255 0.568702 0.429728
O O5 0.959068 0.483850 0.210358
O O6 0.813053 0.369678 0.310891
O O7 0.858133 0.520036 0.401514
O O8 0.069519 0.421241 0.398145
O O9 0.590562 0.750000 0.543563
O O10 0.449320 0.868981 0.641000
O O11 0.666479 0.919159 0.530846
O O12 0.367256 0.915421 0.840509
O O13 0.233825 0.047937 0.919688
O O14 0.274329 0.912679 0.040008
O O15 0.500000 0.000000 0.000000
O O16 0.218677 0.750000 0.086717
O O17 0.032202 0.629587 0.123474
O O18 0.000000 0.000000 0.000000
O O19 0.360085 0.750000 0.770335
#
# Coordination Sequence:
#
# PCOD9162029 Si02
#       8
#     4   4   4   4   4   4   4   4
#     4  10  20  34  57  83 111 150 191 229 278 339
#     4  10  21  34  55  87 107 145 194 228 290 334
#     4  10  22  37  55  84 115 153 194 232 286 345
#     4  10  22  36  59  87 112 144 186 241 289 347
#     4  10  20  37  59  79 109 151 193 232 280 343
#     4   9  19  37  56  80 110 141 187 231 274 337
#     4  10  21  38  58  80 113 149 187 236 289 346
#     4  11  21  35  57  82 117 151 187 241 281 343
#
# _framework density 18.005697000000001
#
# number of rings (size 3 to 8) (size 9 to 14) (size 15 to 20)
#    0.000    2.000    2.500    0.750    1.750    1.500 
#    0.000    3.750    0.000    3.000    0.000    0.000 
#    0.000    0.000    0.000    0.000    0.000    0.000 
#
# Total GULP energy -178394.799873 kJ/mol
# GULP energy per Si atom -5574.837496 kJ/mol
# Density = 1.796472 g / cm^3
# Si number density = 18.005697 Si / 1000 Ang^3
#
#
#
# Elastic Constant Matrix: (Units=GPa)
#
#
# Indices 1 2 3 4 5 6 
#
# 1 117.5119 46.6396 42.4248 0.0000 16.0227 0.0000
# 2 46.6396 59.8934 33.7597 0.0000 3.2295 0.0000
# 3 42.4248 33.7597 99.6592 0.0000 6.7939 0.0000
# 4 0.0000 0.0000 0.0000 17.2496 0.0000 5.5138
# 5 16.0227 3.2295 6.7939 0.0000 26.6140 0.0000
# 6 0.0000 0.0000 0.0000 5.5138 0.0000 12.3799
#
#
#
# Elastic Compliance Matrix: (Units=1/GPa)
#
#
# Indices 1 2 3 4 5 6 
#
# 1 0.013894 -0.009125 -0.002370 0.000000 -0.006652 0.000000
# 2 -0.009125 0.026643 -0.005389 0.000000 0.003636 0.000000
# 3 -0.002370 -0.005389 0.012952 0.000000 -0.001226 0.000000
# 4 0.000000 0.000000 0.000000 0.067596 0.000000 -0.030106
# 5 -0.006652 0.003636 -0.001226 0.000000 0.041451 0.000000
# 6 0.000000 0.000000 0.000000 -0.030106 0.000000 0.094185
#
#
# Mechanical properties :
#
#
# Convention : Reuss Voigt Hill
#
# Bulk Modulus (GPa) = 50.70499 58.07917 54.39208
# Shear Modulus (GPa) = 16.83147 21.53139 19.18143
#
# Velocity S-wave (km/s) = 3.06074 3.46180 3.26743
# Velocity P-wave (km/s) = 6.38064 6.95016 6.67148
#
# Compressibility (1/GPa) = 0.01972193
#
# Stress axis : x y z
#
# Youngs Moduli (GPa) = 71.97312 37.53274 77.20678
#
# Poissons Ratio (x) = 0.34248 0.18299
# Poissons Ratio (y) = 0.65674 0.41606
# Poissons Ratio (z) = 0.17059 0.20226
#
# Static dielectric constant tensor:
#      x y z
#    x 1.619510 0.000000 0.010130 
#    y 0.000000 1.641150 0.000000 
#    z 0.010130 0.000000 1.618020 
# 
# From -- ./inp_files/31905.got.cif
#   From: 2010.05.17/outbox.cif.g08.bks.cpg/sg11_16_cif.got.tgz:31905.got - 2010.06.03 12:22:45.
