data_PCOD9162643
_publ_section_title
;
Structure prediction by ZEFSAII (Michael W. Deem and Ramdas Pophale) SiO2 
 PCOD9162643
Probable space group: P 21/M
;
_chemical_formula_sum "Si O2"
_cell_formula_units_Z 32
_cell_length_a 26.231091
_cell_length_b 8.712112
_cell_length_c 25.478335
_cell_angle_alpha 90.000000
_cell_angle_beta 15.980979
_cell_angle_gamma 90.000000
_cell_volume 1603.045331
_symmetry_space_group_name_H-M "P 21/M"
_symmetry_group_IT_number 11
_symmetry_cell_setting 'monoclinic'
loop_
_space_group_symop_operation_xyz
x,y,z
-x,1/2+y,-z
-x,-y,-z
x,1/2-y,z
loop_
_atom_site_type_symbol
_atom_site_label
_atom_site_fract_x
_atom_site_fract_y
_atom_site_fract_z
Si Si1 0.795296 0.066212 0.205374
Si Si2 0.481171 0.435643 0.435817
Si Si3 0.291680 0.072302 0.112737
Si Si4 0.597850 0.937255 0.603252
Si Si5 0.339527 0.935804 0.955462
Si Si6 0.845698 0.428496 0.531823
Si Si7 0.078418 0.066570 0.650257
Si Si8 0.207524 0.565638 0.302266
O O1 0.801865 0.250000 0.201323
O O2 0.671269 0.022227 0.277317
O O3 0.684221 0.002304 0.365371
O O4 0.000000 0.000000 0.000000
O O5 0.468124 0.250000 0.449486
O O6 0.465923 0.488694 0.390838
O O7 0.342041 0.250000 0.067169
O O8 0.067838 0.061953 0.324068
O O9 0.321241 0.993584 0.139821
O O10 0.380693 0.000361 0.972563
O O11 0.594233 0.750000 0.605808
O O12 0.468725 0.984174 0.779587
O O13 0.803602 0.987102 0.416765
O O14 0.342637 0.750000 0.955788
O O15 0.131497 0.988673 0.146325
O O16 0.802801 0.250000 0.564687
O O17 0.818918 0.522507 0.505399
O O18 0.744028 0.480028 0.685836
O O19 0.070092 0.250000 0.660986
O O20 0.200547 0.750000 0.308062
O O21 0.000000 0.500000 0.500000
#
# Coordination Sequence:
#
# PCOD9162643 Si02
#       8
#     4   4   4   4   4   4   4   4
#     4  10  20  35  58  86 116 150 183 220 267 314
#     4   9  19  36  57  82 113 147 185 226 265 312
#     4   9  16  26  41  63  91 122 159 203 250 303
#     4   9  18  33  53  77 102 131 172 215 251 296
#     4   9  17  30  48  69  95 127 162 203 252 302
#     4   8  15  26  40  61  91 123 155 197 250 304
#     4   9  17  29  48  71  94 125 165 206 248 299
#     4   9  15  23  38  62  90 120 156 201 252 304
#
# _framework density 19.962005000000001
#
# number of rings (size 3 to 8) (size 9 to 14) (size 15 to 20)
#    0.000    3.000    0.000    1.875    0.000    5.000 
#    0.000    5.625    0.000    3.750    0.000    0.000 
#    0.000    0.000    0.000    0.000    0.000    0.000 
#
# Total GULP energy -178504.277334 kJ/mol
# GULP energy per Si atom -5578.258667 kJ/mol
# Density = 1.991657 g / cm^3
# Si number density = 19.962005 Si / 1000 Ang^3
#
#
#
# Elastic Constant Matrix: (Units=GPa)
#
#
# Indices 1 2 3 4 5 6 
#
# 1 147.7329 22.9061 52.0178 0.0000 2.5965 0.0000
# 2 22.9061 17.4633 14.5893 0.0000 0.2699 0.0000
# 3 52.0178 14.5893 88.0064 0.0000 -7.0131 0.0000
# 4 0.0000 0.0000 0.0000 15.8736 0.0000 7.8887
# 5 2.5965 0.2699 -7.0131 0.0000 16.9038 0.0000
# 6 0.0000 0.0000 0.0000 7.8887 0.0000 24.3680
#
#
#
# Elastic Compliance Matrix: (Units=1/GPa)
#
#
# Indices 1 2 3 4 5 6 
#
# 1 0.009839 -0.009029 -0.004579 0.000000 -0.003267 0.000000
# 2 -0.009029 0.075314 -0.007378 0.000000 -0.002877 0.000000
# 3 -0.004579 -0.007378 0.015883 0.000000 0.007411 0.000000
# 4 0.000000 0.000000 0.000000 0.075077 0.000000 -0.024305
# 5 -0.003267 -0.002877 0.007411 0.000000 0.062781 0.000000
# 6 0.000000 0.000000 0.000000 -0.024305 0.000000 0.048906
#
#
# Mechanical properties :
#
#
# Convention : Reuss Voigt Hill
#
# Bulk Modulus (GPa) = 16.93070 48.02543 32.47807
# Shear Modulus (GPa) = 14.30788 22.34170 18.32479
#
# Velocity S-wave (km/s) = 2.68013 3.34909 3.03311
# Velocity P-wave (km/s) = 4.25175 6.25027 5.34524
#
# Compressibility (1/GPa) = 0.05906430
#
# Stress axis : x y z
#
# Youngs Moduli (GPa) = 101.64047 13.27772 62.96145
#
# Poissons Ratio (x) = 0.11989 0.28829
# Poissons Ratio (y) = 0.91774 0.46450
# Poissons Ratio (z) = 0.46539 0.09796
#
# Static dielectric constant tensor:
#      x y z
#    x 1.711450 0.000000 -0.032470 
#    y 0.000000 1.668610 0.000000 
#    z -0.032470 0.000000 1.750050 
# 
# From -- ./inp_files/69986.got.cif
#   From: 2010.05.17/outbox.cif.g08.bks.cpg/sg11_35_cif.got.tgz:69986.got - 2010.06.03 12:22:45.
