data_PCOD9162592
_publ_section_title
;
Structure prediction by ZEFSAII (Michael W. Deem and Ramdas Pophale) SiO2 
 PCOD9162592
Probable space group: P 21/M
;
_chemical_formula_sum "Si O2"
_cell_formula_units_Z 32
_cell_length_a 24.082482
_cell_length_b 8.968277
_cell_length_c 15.094291
_cell_angle_alpha 90.000000
_cell_angle_beta 150.997784
_cell_angle_gamma 90.000000
_cell_volume 1580.609205
_symmetry_space_group_name_H-M "P 21/M"
_symmetry_group_IT_number 11
_symmetry_cell_setting 'monoclinic'
loop_
_space_group_symop_operation_xyz
x,y,z
-x,1/2+y,-z
-x,-y,-z
x,1/2-y,z
loop_
_atom_site_type_symbol
_atom_site_label
_atom_site_fract_x
_atom_site_fract_y
_atom_site_fract_z
Si Si1 0.008886 0.071003 0.727534
Si Si2 0.621182 0.929330 0.971369
Si Si3 0.702382 0.587282 0.602039
Si Si4 0.237716 0.570432 0.992591
Si Si5 0.615848 0.423139 0.635940
Si Si6 0.255580 0.571808 0.691473
Si Si7 0.618464 0.926520 0.299127
Si Si8 0.042693 0.083723 0.973578
O O1 0.030809 0.250000 0.757639
O O2 0.879173 0.046383 0.514832
O O3 0.018581 0.017242 0.843456
O O4 0.108228 0.991925 0.809556
O O5 0.611817 0.750000 0.953157
O O6 0.677720 0.996521 0.961229
O O7 0.704242 0.981601 0.166694
O O8 0.498662 0.002689 0.826197
O O9 0.644508 0.750000 0.532485
O O10 0.637444 0.461413 0.564253
O O11 0.708356 0.561462 0.505999
O O12 0.822918 0.594470 0.819309
O O13 0.237973 0.750000 0.982284
O O14 0.286251 0.529294 0.157938
O O15 0.500000 0.500000 0.500000
O O16 0.603987 0.250000 0.631124
O O17 0.273355 0.750000 0.727714
O O18 0.331909 0.512666 0.715919
O O19 0.601969 0.750000 0.256149
O O20 0.991612 0.250000 0.901615
O O21 0.000000 0.000000 0.000000
#
# Coordination Sequence:
#
# PCOD9162592 Si02
#       8
#     4   4   4   4   4   4   4   4
#     4  10  22  41  65  92 127 169 212 259 313 375
#     4  12  26  44  67  92 122 166 213 266 326 383
#     4  10  21  37  59  87 123 162 199 242 297 358
#     4  11  24  42  64  93 128 166 212 265 317 376
#     4  11  23  37  58  88 122 162 204 250 302 361
#     4  11  24  43  67  95 126 164 211 266 322 380
#     4  11  23  41  65  96 131 166 209 263 319 379
#     4  10  20  35  57  87 123 161 202 245 294 357
#
# _framework density 20.245358
#
# number of rings (size 3 to 8) (size 9 to 14) (size 15 to 20)
#    0.000    1.250    1.250    4.500    0.000    8.000 
#    0.000    0.000    0.000    0.000    0.000    0.000 
#    0.000    0.000    0.000    0.000    0.000    0.000 
#
# Total GULP energy -178710.141904 kJ/mol
# GULP energy per Si atom -5584.691934 kJ/mol
# Density = 2.019928 g / cm^3
# Si number density = 20.245358 Si / 1000 Ang^3
#
#
#
# Elastic Constant Matrix: (Units=GPa)
#
#
# Indices 1 2 3 4 5 6 
#
# 1 78.5914 42.3768 -1.0119 0.0000 8.6632 0.0000
# 2 42.3768 81.6512 21.0968 0.0000 8.7659 0.0000
# 3 -1.0119 21.0968 53.5798 0.0000 -0.3488 0.0000
# 4 0.0000 0.0000 0.0000 26.5074 0.0000 -1.9822
# 5 8.6632 8.7659 -0.3488 0.0000 35.2470 0.0000
# 6 0.0000 0.0000 0.0000 -1.9822 0.0000 38.2281
#
#
#
# Elastic Compliance Matrix: (Units=1/GPa)
#
#
# Indices 1 2 3 4 5 6 
#
# 1 0.018771 -0.010716 0.004562 0.000000 -0.001903 0.000000
# 2 -0.010716 0.020184 -0.008166 0.000000 -0.002467 0.000000
# 3 0.004562 -0.008166 0.021972 0.000000 0.001127 0.000000
# 4 0.000000 0.000000 0.000000 0.037872 0.000000 0.001964
# 5 -0.001903 -0.002467 0.001127 0.000000 0.029464 0.000000
# 6 0.000000 0.000000 0.000000 0.001964 0.000000 0.026261
#
#
# Mechanical properties :
#
#
# Convention : Reuss Voigt Hill
#
# Bulk Modulus (GPa) = 30.97302 37.63843 34.30572
# Shear Modulus (GPa) = 25.78304 30.08721 27.93512
#
# Velocity S-wave (km/s) = 3.57252 3.85922 3.71863
# Velocity P-wave (km/s) = 5.68764 6.20400 5.95142
#
# Compressibility (1/GPa) = 0.03228617
#
# Stress axis : x y z
#
# Youngs Moduli (GPa) = 53.27415 49.54528 45.51161
#
# Poissons Ratio (x) = 0.53094 -0.20761
# Poissons Ratio (y) = 0.57090 0.37163
# Poissons Ratio (z) = -0.24302 0.40457
#
# Static dielectric constant tensor:
#      x y z
#    x 1.824820 0.000000 0.012670 
#    y 0.000000 1.820010 0.000000 
#    z 0.012670 0.000000 1.746370 
# 
# From -- ./inp_files/55775.got.cif
#   From: 2010.05.17/outbox.cif.g08.bks.cpg/sg11_28_cif.got.tgz:55775.got - 2010.06.03 12:22:45.
