data_PCOD9162989
_publ_section_title
;
Structure prediction by ZEFSAII (Michael W. Deem and Ramdas Pophale) SiO2 
 PCOD9162989
Probable space group: P 21/M
;
_chemical_formula_sum "Si O2"
_cell_formula_units_Z 20
_cell_length_a 9.491699
_cell_length_b 14.961436
_cell_length_c 10.076925
_cell_angle_alpha 90.000000
_cell_angle_beta 40.985372
_cell_angle_gamma 90.000000
_cell_volume 938.556876
_symmetry_space_group_name_H-M "P 21/M"
_symmetry_group_IT_number 11
_symmetry_cell_setting 'monoclinic'
loop_
_space_group_symop_operation_xyz
x,y,z
-x,1/2+y,-z
-x,-y,-z
x,1/2-y,z
loop_
_atom_site_type_symbol
_atom_site_label
_atom_site_fract_x
_atom_site_fract_y
_atom_site_fract_z
Si Si1 0.288897 0.046055 0.519642
Si Si2 0.249529 0.902781 0.912195
Si Si3 0.631930 0.151892 0.621658
Si Si4 0.827408 0.899088 0.097660
Si Si5 0.101927 0.850345 0.299221
O O1 0.511169 0.090256 0.312907
O O2 0.242085 0.080155 0.700747
O O3 0.092590 0.079775 0.569247
O O4 0.311717 0.938689 0.497912
O O5 0.171993 0.006380 0.978499
O O6 0.232591 0.860739 0.069055
O O7 0.067636 0.861806 0.944056
O O8 0.697165 0.250000 0.522049
O O9 0.373215 0.152844 0.819282
O O10 0.745671 0.139576 0.682856
O O11 0.009270 0.750000 0.367837
#
# Coordination Sequence:
#
# PCOD9162989 Si02
#       5
#     4   4   4   4   4
#     4  10  20  38  62  84 112 150 190 232 281 337
#     4   9  18  35  57  78 107 143 181 226 279 331
#     4  10  20  36  57  83 116 150 186 235 286 331
#     4   9  19  35  57  85 110 139 186 235 278 334
#     4  10  22  37  55  83 116 150 192 234 276 334
#
# _framework density 21.309311000000001
#
# number of rings (size 3 to 8) (size 9 to 14) (size 15 to 20)
#    0.000    2.400    0.000    3.000    0.000    7.200 
#    0.000    7.000    0.000   43.200    0.000    0.000 
#    0.000    0.000    0.000    0.000    0.000    0.000 
#
# Total GULP energy -111566.755508 kJ/mol
# GULP energy per Si atom -5578.337775 kJ/mol
# Density = 2.126081 g / cm^3
# Si number density = 21.309311 Si / 1000 Ang^3
#
#
#
# Elastic Constant Matrix: (Units=GPa)
#
#
# Indices 1 2 3 4 5 6 
#
# 1 142.7847 45.5454 43.8421 0.0000 -24.4753 0.0000
# 2 45.5454 85.4466 18.2308 0.0000 -18.8511 0.0000
# 3 43.8421 18.2308 82.3000 0.0000 -31.4403 0.0000
# 4 0.0000 0.0000 0.0000 106.0705 0.0000 -730.1500
# 5 -24.4753 -18.8511 -31.4403 0.0000 22.6701 0.0000
# 6 0.0000 0.0000 0.0000 -730.1500 0.0000 6188.9546
#
#
#
# Elastic Compliance Matrix: (Units=1/GPa)
#
#
# Indices 1 2 3 4 5 6 
#
# 1 0.009713 -0.003879 -0.003278 0.000000 0.002715 0.000000
# 2 -0.003879 0.016222 0.004309 0.000000 0.015278 0.000000
# 3 -0.003278 0.004309 0.027562 0.000000 0.038269 0.000000
# 4 0.000000 0.000000 0.000000 0.050175 0.000000 0.005919
# 5 0.002715 0.015278 0.038269 0.000000 0.112821 0.000000
# 6 0.000000 0.000000 0.000000 0.005919 0.000000 0.000860
#
#
# Mechanical properties :
#
#
# Convention : Reuss Voigt Hill
#
# Bulk Modulus (GPa) = 20.91942 58.41866 39.66904
# Shear Modulus (GPa) = 20.92218 1277.06658 648.99438
#
# Velocity S-wave (km/s) = 3.13682 24.50716 17.47055
# Velocity P-wave (km/s) = 4.79144 28.77977 20.63048
#
# Compressibility (1/GPa) = 0.04780246
#
# Stress axis : x y z
#
# Youngs Moduli (GPa) = 102.95917 61.64511 36.28210
#
# Poissons Ratio (x) = 0.23911 0.11892
# Poissons Ratio (y) = 0.39936 -0.15636
# Poissons Ratio (z) = 0.33745 -0.26566
#
# Static dielectric constant tensor:
#      x y z
#    x 1.797750 0.000000 -0.031600 
#    y 0.000000 1.836260 0.000000 
#    z -0.031600 0.000000 1.772340 
# 
# From -- ./inp_files/13403.got.cif
#   From: 2010.05.17/outbox.cif.g08.bks.cpg/sg11_7_cif.got.tgz:13403.got - 2010.06.03 12:22:45.
