data_PCOD9162499
_publ_section_title
;
Structure prediction by ZEFSAII (Michael W. Deem and Ramdas Pophale) SiO2 
 PCOD9162499
Probable space group: P 21/M
;
_chemical_formula_sum "Si O2"
_cell_formula_units_Z 32
_cell_length_a 26.831320
_cell_length_b 14.081962
_cell_length_c 9.764720
_cell_angle_alpha 90.000000
_cell_angle_beta 150.836751
_cell_angle_gamma 90.000000
_cell_volume 1797.881632
_symmetry_space_group_name_H-M "P 21/M"
_symmetry_group_IT_number 11
_symmetry_cell_setting 'monoclinic'
loop_
_space_group_symop_operation_xyz
x,y,z
-x,1/2+y,-z
-x,-y,-z
x,1/2-y,z
loop_
_atom_site_type_symbol
_atom_site_label
_atom_site_fract_x
_atom_site_fract_y
_atom_site_fract_z
Si Si1 0.433347 0.007941 0.975151
Si Si2 0.844882 0.362586 0.502292
Si Si3 0.048282 0.139398 0.524696
Si Si4 0.536431 0.636296 0.704025
Si Si5 0.805742 0.523334 0.598731
Si Si6 0.391444 0.637561 0.109284
Si Si7 0.033266 0.447081 0.785525
Si Si8 0.230156 0.138525 0.758374
O O1 0.314183 0.025369 0.653147
O O2 0.475556 0.090153 0.176151
O O3 0.500000 0.000000 0.000000
O O4 0.430458 0.916712 0.068471
O O5 0.861447 0.250000 0.556249
O O6 0.842518 0.418400 0.640851
O O7 0.930530 0.408515 0.611419
O O8 0.730216 0.378739 0.168556
O O9 0.017355 0.250000 0.430970
O O10 0.051803 0.113201 0.692868
O O11 0.158698 0.126644 0.718078
O O12 0.979555 0.057547 0.289470
O O13 0.531068 0.750000 0.701227
O O14 0.454284 0.606415 0.393570
O O15 0.652183 0.609168 0.937225
O O16 0.814350 0.583446 0.478983
O O17 0.876113 0.561208 0.887872
O O18 0.406668 0.750000 0.128772
O O19 0.231228 0.250000 0.726673
#
# Coordination Sequence:
#
# PCOD9162499 Si02
#       8
#     4   4   4   4   4   4   4   4
#     4  10  21  36  54  83 113 144 177 224 278 327
#     4  10  20  35  57  82 110 144 187 230 269 320
#     4  10  22  38  55  80 112 143 179 226 276 321
#     4   9  18  35  58  82 106 140 184 225 269 323
#     4  10  21  38  55  81 109 144 187 221 271 326
#     4   9  19  36  57  80 108 145 186 225 268 324
#     4  11  22  38  56  80 112 147 180 228 272 324
#     4   9  18  34  57  81 109 140 179 226 270 323
#
# _framework density 17.798725000000001
#
# number of rings (size 3 to 8) (size 9 to 14) (size 15 to 20)
#    0.000    2.250    1.250    1.125    0.000    3.000 
#    4.500    0.000    0.000    0.000    0.000    0.000 
#    0.000    0.000    0.000    0.000    0.000    0.000 
#
# Total GULP energy -178480.168803 kJ/mol
# GULP energy per Si atom -5577.505275 kJ/mol
# Density = 1.775821 g / cm^3
# Si number density = 17.798725 Si / 1000 Ang^3
#
#
#
# Elastic Constant Matrix: (Units=GPa)
#
#
# Indices 1 2 3 4 5 6 
#
# 1 138.2788 30.8650 62.1054 0.0000 7.2252 0.0000
# 2 30.8650 70.4822 30.2805 0.0000 3.7950 0.0000
# 3 62.1054 30.2805 94.4372 0.0000 -12.8650 0.0000
# 4 0.0000 0.0000 0.0000 19.6621 0.0000 2.2574
# 5 7.2252 3.7950 -12.8650 0.0000 11.6380 0.0000
# 6 0.0000 0.0000 0.0000 2.2574 0.0000 14.2941
#
#
#
# Elastic Compliance Matrix: (Units=1/GPa)
#
#
# Indices 1 2 3 4 5 6 
#
# 1 0.013793 0.000409 -0.012229 0.000000 -0.022215 0.000000
# 2 0.000409 0.018385 -0.008259 0.000000 -0.015380 0.000000
# 3 -0.012229 -0.008259 0.026701 0.000000 0.039802 0.000000
# 4 0.000000 0.000000 0.000000 0.051798 0.000000 -0.008180
# 5 -0.022215 -0.015380 0.039802 0.000000 0.148730 0.000000
# 6 0.000000 0.000000 0.000000 -0.008180 0.000000 0.071251
#
#
# Mechanical properties :
#
#
# Convention : Reuss Voigt Hill
#
# Bulk Modulus (GPa) = 53.41072 61.07777 57.24424
# Shear Modulus (GPa) = 13.26057 21.11533 17.18795
#
# Velocity S-wave (km/s) = 2.73248 3.44806 3.11092
# Velocity P-wave (km/s) = 6.32682 7.08819 6.71830
#
# Compressibility (1/GPa) = 0.01872283
#
# Stress axis : x y z
#
# Youngs Moduli (GPa) = 72.49871 54.39167 37.45109
#
# Poissons Ratio (x) = -0.02227 0.45797
# Poissons Ratio (y) = -0.02968 0.30933
# Poissons Ratio (z) = 0.88656 0.44925
#
# Static dielectric constant tensor:
#      x y z
#    x 1.564670 0.000000 0.013670 
#    y 0.000000 1.651270 0.000000 
#    z 0.013670 0.000000 1.598240 
# 
# From -- ./inp_files/27799.got.cif
#   From: 2010.05.17/outbox.cif.g08.bks.cpg/sg11_14_cif.got.tgz:27799.got - 2010.06.03 12:22:45.
