data_PCOD9162701
_publ_section_title
;
Structure prediction by ZEFSAII (Michael W. Deem and Ramdas Pophale) SiO2 
 PCOD9162701
Probable space group: P 21/M
;
_chemical_formula_sum "Si O2"
_cell_formula_units_Z 28
_cell_length_a 15.189841
_cell_length_b 9.229200
_cell_length_c 20.742848
_cell_angle_alpha 90.000000
_cell_angle_beta 27.234508
_cell_angle_gamma 90.000000
_cell_volume 1330.771520
_symmetry_space_group_name_H-M "P 21/M"
_symmetry_group_IT_number 11
_symmetry_cell_setting 'monoclinic'
loop_
_space_group_symop_operation_xyz
x,y,z
-x,1/2+y,-z
-x,-y,-z
x,1/2-y,z
loop_
_atom_site_type_symbol
_atom_site_label
_atom_site_fract_x
_atom_site_fract_y
_atom_site_fract_z
Si Si1 0.691480 0.920947 0.397355
Si Si2 0.770526 0.411133 0.862006
Si Si3 0.821776 0.920092 0.582845
Si Si4 0.067799 0.079357 0.122362
Si Si5 0.674647 0.908893 0.811431
Si Si6 0.195768 0.423017 0.897102
Si Si7 0.593959 0.576439 0.606312
O O1 0.683230 0.750000 0.390336
O O2 0.699592 0.944089 0.469315
O O3 0.500000 0.000000 0.500000
O O4 0.869316 0.992758 0.245266
O O5 0.855404 0.250000 0.813245
O O6 0.842295 0.517153 0.870749
O O7 0.791926 0.474862 0.776486
O O8 0.541511 0.401339 0.022058
O O9 0.868312 0.750000 0.544252
O O10 0.664432 0.934754 0.742154
O O11 0.730982 0.973688 0.575533
O O12 0.000000 0.000000 0.500000
O O13 0.030549 0.250000 0.152594
O O14 0.193905 0.057166 0.976161
O O15 0.765244 0.750000 0.762012
O O16 0.189577 0.250000 0.887721
O O17 0.388974 0.495080 0.742913
O O18 0.000000 0.500000 0.000000
O O19 0.559039 0.750000 0.636789
#
# Coordination Sequence:
#
# PCOD9162701 Si02
#       7
#     4   4   4   4   4   4   4
#     4  11  24  42  64  92 125 164 208 254 312 373
#     4  10  20  35  59  86 114 152 197 246 300 357
#     4  10  22  39  59  85 120 162 206 254 305 362
#     4  11  24  40  60  89 124 157 200 253 304 363
#     4   9  19  36  56  82 117 154 194 244 303 355
#     4  11  24  41  65  95 125 161 206 256 315 377
#     4  10  23  43  65  91 128 166 208 262 316 372
#
# _framework density 21.040427000000001
#
# number of rings (size 3 to 8) (size 9 to 14) (size 15 to 20)
#    0.000    1.714    0.000    3.429    2.000    9.714 
#    0.000    0.000    0.000    0.000    0.000    0.000 
#    0.000    0.000    0.000    0.000    0.000    0.000 
#
# Total GULP energy -156423.371815 kJ/mol
# GULP energy per Si atom -5586.548993 kJ/mol
# Density = 2.099254 g / cm^3
# Si number density = 21.040427 Si / 1000 Ang^3
#
#
#
# Elastic Constant Matrix: (Units=GPa)
#
#
# Indices 1 2 3 4 5 6 
#
# 1 79.3894 27.4148 -9.3877 0.0000 3.1570 0.0000
# 2 27.4148 82.6628 23.3690 0.0000 7.1154 0.0000
# 3 -9.3877 23.3690 53.6214 0.0000 1.5822 0.0000
# 4 0.0000 0.0000 0.0000 32.1867 0.0000 -4.0596
# 5 3.1570 7.1154 1.5822 0.0000 28.8586 0.0000
# 6 0.0000 0.0000 0.0000 -4.0596 0.0000 36.2996
#
#
#
# Elastic Compliance Matrix: (Units=1/GPa)
#
#
# Indices 1 2 3 4 5 6 
#
# 1 0.015616 -0.006757 0.005689 0.000000 -0.000354 0.000000
# 2 -0.006757 0.016999 -0.008503 0.000000 -0.002986 0.000000
# 3 0.005689 -0.008503 0.023346 0.000000 0.000194 0.000000
# 4 0.000000 0.000000 0.000000 0.031513 0.000000 0.003524
# 5 -0.000354 -0.002986 0.000194 0.000000 0.035416 0.000000
# 6 0.000000 0.000000 0.000000 0.003524 0.000000 0.027943
#
#
# Mechanical properties :
#
#
# Convention : Reuss Voigt Hill
#
# Bulk Modulus (GPa) = 27.16002 33.16287 30.16144
# Shear Modulus (GPa) = 27.43513 31.08748 29.26131
#
# Velocity S-wave (km/s) = 3.61491 3.84801 3.73328
# Velocity P-wave (km/s) = 5.50998 5.96143 5.74015
#
# Compressibility (1/GPa) = 0.03681883
#
# Stress axis : x y z
#
# Youngs Moduli (GPa) = 64.03564 58.82624 42.83479
#
# Poissons Ratio (x) = 0.39749 -0.24370
# Poissons Ratio (y) = 0.43269 0.36424
# Poissons Ratio (z) = -0.36432 0.50022
#
# Static dielectric constant tensor:
#      x y z
#    x 1.799440 0.000000 -0.011330 
#    y 0.000000 1.774340 0.000000 
#    z -0.011330 0.000000 1.790940 
# 
# From -- ./inp_files/65343.got.cif
#   From: 2010.05.17/outbox.cif.g08.bks.cpg/sg11_33_cif.got.tgz:65343.got - 2010.06.03 12:22:45.
