data_PCOD9162768
_publ_section_title
;
Structure prediction by ZEFSAII (Michael W. Deem and Ramdas Pophale) SiO2 
 PCOD9162768
Probable space group: P 21/M
;
_chemical_formula_sum "Si O2"
_cell_formula_units_Z 20
_cell_length_a 7.387941
_cell_length_b 8.241872
_cell_length_c 17.163033
_cell_angle_alpha 90.000000
_cell_angle_beta 127.760331
_cell_angle_gamma 90.000000
_cell_volume 826.206657
_symmetry_space_group_name_H-M "P 21/M"
_symmetry_group_IT_number 11
_symmetry_cell_setting 'monoclinic'
loop_
_space_group_symop_operation_xyz
x,y,z
-x,1/2+y,-z
-x,-y,-z
x,1/2-y,z
loop_
_atom_site_type_symbol
_atom_site_label
_atom_site_fract_x
_atom_site_fract_y
_atom_site_fract_z
Si Si1 0.359742 0.443344 0.133587
Si Si2 0.460220 0.063087 0.575895
Si Si3 0.936418 0.562999 0.720901
Si Si4 0.786504 0.940965 0.343238
Si Si5 0.879599 0.554646 0.081677
O O1 0.407434 0.250000 0.151090
O O2 0.557266 0.537037 0.230950
O O3 0.115488 0.480377 0.109569
O O4 0.317028 0.489604 0.031998
O O5 0.401553 0.250000 0.554573
O O6 0.278221 0.989713 0.588611
O O7 0.500000 0.000000 0.500000
O O8 0.712102 0.041698 0.679218
O O9 0.875985 0.750000 0.714565
O O10 0.130525 0.513880 0.833832
O O11 0.020920 0.530503 0.655710
O O12 0.842777 0.750000 0.362409
O O13 0.895180 0.750000 0.087298
#
# Coordination Sequence:
#
# PCOD9162768 Si02
#       5
#     4   4   4   4   4
#     4  10  20  35  60  92 127 169 215 259 309 370
#     4  11  25  46  71  96 125 163 207 261 324 383
#     4  12  25  41  66  96 129 168 213 263 315 375
#     4  11  24  42  66  94 129 169 211 260 316 376
#     4  10  20  36  59  90 129 171 213 258 310 372
#
# _framework density 24.207018000000001
#
# number of rings (size 3 to 8) (size 9 to 14) (size 15 to 20)
#    0.000    1.200    2.000    4.200    0.000    6.400 
#    0.000    0.000    0.000    0.000    0.000    0.000 
#    0.000    0.000    0.000    0.000    0.000    0.000 
#
# Total GULP energy -111941.050120 kJ/mol
# GULP energy per Si atom -5597.052506 kJ/mol
# Density = 2.415192 g / cm^3
# Si number density = 24.207018 Si / 1000 Ang^3
#
#
#
# Elastic Constant Matrix: (Units=GPa)
#
#
# Indices 1 2 3 4 5 6 
#
# 1 107.7764 -8.8433 24.2111 0.0000 -26.5061 0.0000
# 2 -8.8433 53.1217 3.3289 0.0000 -12.5296 0.0000
# 3 24.2111 3.3289 93.8905 0.0000 -30.4767 0.0000
# 4 0.0000 0.0000 0.0000 33.8990 0.0000 -3.8826
# 5 -26.5061 -12.5296 -30.4767 0.0000 53.3894 0.0000
# 6 0.0000 0.0000 0.0000 -3.8826 0.0000 26.5402
#
#
#
# Elastic Compliance Matrix: (Units=1/GPa)
#
#
# Indices 1 2 3 4 5 6 
#
# 1 0.011202 0.003274 -0.001166 0.000000 0.005664 0.000000
# 2 0.003274 0.020961 0.000659 0.000000 0.006921 0.000000
# 3 -0.001166 0.000659 0.013244 0.000000 0.007136 0.000000
# 4 0.000000 0.000000 0.000000 0.030002 0.000000 0.004389
# 5 0.005664 0.006921 0.007136 0.000000 0.027240 0.000000
# 6 0.000000 0.000000 0.000000 0.004389 0.000000 0.038321
#
#
# Mechanical properties :
#
#
# Convention : Reuss Voigt Hill
#
# Bulk Modulus (GPa) = 19.63061 32.46469 26.04765
# Shear Modulus (GPa) = 32.80478 38.50520 35.65499
#
# Velocity S-wave (km/s) = 3.68527 3.99264 3.84203
# Velocity P-wave (km/s) = 5.12204 5.89027 5.51954
#
# Compressibility (1/GPa) = 0.05094086
#
# Stress axis : x y z
#
# Youngs Moduli (GPa) = 89.26922 47.70819 75.50348
#
# Poissons Ratio (x) = -0.15619 0.08805
# Poissons Ratio (y) = -0.29226 -0.04976
# Poissons Ratio (z) = 0.10410 -0.03144
#
# Static dielectric constant tensor:
#      x y z
#    x 1.972040 0.000000 -0.035140 
#    y 0.000000 1.795600 0.000000 
#    z -0.035140 0.000000 2.013350 
# 
# From -- ./inp_files/57566.got.cif
#   From: 2010.05.17/outbox.cif.g08.bks.cpg/sg11_29_cif.got.tgz:57566.got - 2010.06.03 12:22:45.
