data_PCOD9162553
_publ_section_title
;
Structure prediction by ZEFSAII (Michael W. Deem and Ramdas Pophale) SiO2 
 PCOD9162553
Probable space group: P 21/M
;
_chemical_formula_sum "Si O2"
_cell_formula_units_Z 28
_cell_length_a 9.523276
_cell_length_b 8.822186
_cell_length_c 29.983980
_cell_angle_alpha 90.000000
_cell_angle_beta 142.511765
_cell_angle_gamma 90.000000
_cell_volume 1533.143287
_symmetry_space_group_name_H-M "P 21/M"
_symmetry_group_IT_number 11
_symmetry_cell_setting 'monoclinic'
loop_
_space_group_symop_operation_xyz
x,y,z
-x,1/2+y,-z
-x,-y,-z
x,1/2-y,z
loop_
_atom_site_type_symbol
_atom_site_label
_atom_site_fract_x
_atom_site_fract_y
_atom_site_fract_z
Si Si1 0.185050 0.567278 0.132968
Si Si2 0.347740 0.432429 0.000733
Si Si3 0.415461 0.067763 0.431932
Si Si4 0.744989 0.068839 0.432780
Si Si5 0.089815 0.431686 0.701860
Si Si6 0.506519 0.068186 0.139376
Si Si7 0.411521 0.431125 0.698834
O O1 0.197877 0.750000 0.129791
O O2 0.302550 0.487853 0.120369
O O3 0.345968 0.531703 0.216092
O O4 0.920073 0.522135 0.071118
O O5 0.354516 0.250000 0.000075
O O6 0.500000 0.500000 0.000000
O O7 0.446835 0.477031 0.073971
O O8 0.412719 0.250000 0.433908
O O9 0.589074 0.022909 0.435836
O O10 0.500000 0.000000 0.500000
O O11 0.159573 0.006377 0.358221
O O12 0.762553 0.250000 0.437597
O O13 0.630797 0.014596 0.357954
O O14 0.000000 0.000000 0.500000
O O15 0.072651 0.250000 0.700463
O O16 0.261503 0.493279 0.783028
O O17 0.214243 0.467744 0.685843
O O18 0.525526 0.250000 0.146540
O O19 0.403377 0.250000 0.689299
#
# Coordination Sequence:
#
# PCOD9162553 Si02
#       7
#     4   4   4   4   4   4   4
#     4   9  19  37  58  81 110 146 187 229 273 331
#     4  10  22  37  54  80 114 149 188 233 280 330
#     4  11  24  40  58  84 115 147 186 231 276 328
#     4  11  24  39  57  82 112 144 181 224 271 324
#     4  10  21  38  60  85 112 146 186 228 276 332
#     4  10  20  35  57  85 113 144 185 232 278 330
#     4   9  19  36  58  83 110 140 181 227 271 325
#
# _framework density 18.263134000000001
#
# number of rings (size 3 to 8) (size 9 to 14) (size 15 to 20)
#    0.000    2.000    0.000    3.857    0.000   11.429 
#    0.000    2.857    0.000    0.000    0.000    0.000 
#    0.000    0.000    0.000    0.000    0.000    0.000 
#
# Total GULP energy -156429.222536 kJ/mol
# GULP energy per Si atom -5586.757948 kJ/mol
# Density = 1.822157 g / cm^3
# Si number density = 18.263134 Si / 1000 Ang^3
#
#
#
# Elastic Constant Matrix: (Units=GPa)
#
#
# Indices 1 2 3 4 5 6 
#
# 1 164.7258 61.0316 136.9661 0.0000 3.5816 0.0000
# 2 61.0316 44.0947 55.6890 0.0000 -2.1540 0.0000
# 3 136.9661 55.6890 159.3538 0.0000 0.4009 0.0000
# 4 0.0000 0.0000 0.0000 33.2478 0.0000 -1.5411
# 5 3.5816 -2.1540 0.4009 0.0000 36.7690 0.0000
# 6 0.0000 0.0000 0.0000 -1.5411 0.0000 34.6164
#
#
#
# Elastic Compliance Matrix: (Units=1/GPa)
#
#
# Indices 1 2 3 4 5 6 
#
# 1 0.025368 -0.013848 -0.016957 0.000000 -0.003097 0.000000
# 2 -0.013848 0.048392 -0.005020 0.000000 0.004239 0.000000
# 3 -0.016957 -0.005020 0.022602 0.000000 0.001111 0.000000
# 4 0.000000 0.000000 0.000000 0.030139 0.000000 0.001342
# 5 -0.003097 0.004239 0.001111 0.000000 0.027735 0.000000
# 6 0.000000 0.000000 0.000000 0.001342 0.000000 0.028948
#
#
# Mechanical properties :
#
#
# Convention : Reuss Voigt Hill
#
# Bulk Modulus (GPa) = 40.46550 97.28309 68.87430
# Shear Modulus (GPa) = 19.00637 28.55913 23.78275
#
# Velocity S-wave (km/s) = 3.22948 3.95873 3.61255
# Velocity P-wave (km/s) = 6.00925 8.61850 7.42932
#
# Compressibility (1/GPa) = 0.02471241
#
# Stress axis : x y z
#
# Youngs Moduli (GPa) = 39.41973 20.66466 44.24480
#
# Poissons Ratio (x) = 0.28616 0.75026
# Poissons Ratio (y) = 0.54587 0.22210
# Poissons Ratio (z) = 0.66844 0.10373
#
# Static dielectric constant tensor:
#      x y z
#    x 1.599450 0.000000 0.003900 
#    y 0.000000 1.610570 0.000000 
#    z 0.003900 0.000000 1.614910 
# 
# From -- ./inp_files/28435.got.cif
#   From: 2010.05.17/outbox.cif.g08.bks.cpg/sg11_15_cif.got.tgz:28435.got - 2010.06.03 12:22:45.
