data_PCOD9162199
_publ_section_title
;
Structure prediction by ZEFSAII (Michael W. Deem and Ramdas Pophale) SiO2 
 PCOD9162199
Probable space group: P 21/M
;
_chemical_formula_sum "Si O2"
_cell_formula_units_Z 28
_cell_length_a 9.434710
_cell_length_b 25.411011
_cell_length_c 10.205457
_cell_angle_alpha 90.000000
_cell_angle_beta 31.401345
_cell_angle_gamma 90.000000
_cell_volume 1274.809850
_symmetry_space_group_name_H-M "P 21/M"
_symmetry_group_IT_number 11
_symmetry_cell_setting 'monoclinic'
loop_
_space_group_symop_operation_xyz
x,y,z
-x,1/2+y,-z
-x,-y,-z
x,1/2-y,z
loop_
_atom_site_type_symbol
_atom_site_label
_atom_site_fract_x
_atom_site_fract_y
_atom_site_fract_z
Si Si1 0.787601 0.973504 0.993179
Si Si2 0.201417 0.573498 0.860096
Si Si3 0.685545 0.636894 0.367329
Si Si4 0.175378 0.158688 0.466686
Si Si5 0.424826 0.617990 0.325214
Si Si6 0.454068 0.690396 0.067042
Si Si7 0.909467 0.557705 0.621145
O O1 0.732634 0.959152 0.886315
O O2 0.762276 0.034009 0.047497
O O3 0.578556 0.936396 0.233347
O O4 0.070733 0.956214 0.837439
O O5 0.978414 0.617001 0.081628
O O6 0.492377 0.592980 0.585176
O O7 0.737857 0.671969 0.453744
O O8 0.493244 0.653690 0.397343
O O9 0.865475 0.178389 0.699628
O O10 0.183911 0.095818 0.422705
O O11 0.374282 0.182691 0.200537
O O12 0.544896 0.649236 0.106510
O O13 0.130969 0.596636 0.515914
O O14 0.487668 0.750000 0.086607
O O15 0.000000 0.500000 0.500000
#
# Coordination Sequence:
#
# PCOD9162199 Si02
#       7
#     4   4   4   4   4   4   4
#     4  10  20  35  53  86 125 169 222 249 302 360
#     4  10  22  33  59  85 129 177 207 252 301 364
#     4  11  22  41  62  92 131 166 212 258 311 373
#     4  11  24  42  65  98 128 162 210 262 327 384
#     4  10  23  40  64  89 127 164 220 262 309 376
#     4  11  24  47  70  92 122 164 209 270 336 389
#     4  11  22  36  57  91 132 177 211 261 304 381
#
# _framework density 21.96406
#
# number of rings (size 3 to 8) (size 9 to 14) (size 15 to 20)
#    0.000    1.429    2.857    2.143    4.000    3.429 
#    0.000    1.429    0.000    0.000    0.000    0.000 
#    0.000    0.000    0.000    0.000    0.000    0.000 
#
# Total GULP energy -155978.069698 kJ/mol
# GULP energy per Si atom -5570.645346 kJ/mol
# Density = 2.191407 g / cm^3
# Si number density = 21.964060 Si / 1000 Ang^3
#
#
#
# Elastic Constant Matrix: (Units=GPa)
#
#
# Indices 1 2 3 4 5 6 
#
# 1 106.0814 8.2276 27.1222 0.0000 18.1418 0.0000
# 2 8.2276 51.0952 19.7803 0.0000 -1.5561 0.0000
# 3 27.1222 19.7803 102.0836 0.0000 18.2285 0.0000
# 4 0.0000 0.0000 0.0000 216.9864 0.0000 -61.1097
# 5 18.1418 -1.5561 18.2285 0.0000 31.7021 0.0000
# 6 0.0000 0.0000 0.0000 -61.1097 0.0000 30.9007
#
#
#
# Elastic Compliance Matrix: (Units=1/GPa)
#
#
# Indices 1 2 3 4 5 6 
#
# 1 0.010865 -0.001254 -0.001697 0.000000 -0.005303 0.000000
# 2 -0.001254 0.021719 -0.004673 0.000000 0.004471 0.000000
# 3 -0.001697 -0.004673 0.012281 0.000000 -0.006320 0.000000
# 4 0.000000 0.000000 0.000000 0.010402 0.000000 0.020571
# 5 -0.005303 0.004471 -0.006320 0.000000 0.038432 0.000000
# 6 0.000000 0.000000 0.000000 0.020571 0.000000 0.073044
#
#
# Mechanical properties :
#
#
# Convention : Reuss Voigt Hill
#
# Bulk Modulus (GPa) = 33.76601 41.05784 37.41193
# Shear Modulus (GPa) = 26.06035 69.52653 47.79344
#
# Velocity S-wave (km/s) = 3.44830 5.63235 4.66980
# Velocity P-wave (km/s) = 5.59116 7.81227 6.79311
#
# Compressibility (1/GPa) = 0.02961558
#
# Stress axis : x y z
#
# Youngs Moduli (GPa) = 92.04076 46.04338 81.42860
#
# Poissons Ratio (x) = 0.05775 0.13815
# Poissons Ratio (y) = 0.11544 0.38055
# Poissons Ratio (z) = 0.15615 0.21518
#
# Static dielectric constant tensor:
#      x y z
#    x 1.999090 0.000000 0.033110 
#    y 0.000000 1.864570 0.000000 
#    z 0.033110 0.000000 1.848390 
# 
# From -- ./inp_files/15269.got.cif
#   From: 2010.05.17/outbox.cif.g08.bks.cpg/sg11_8_cif.got.tgz:15269.got - 2010.06.03 12:22:45.
