data_PCOD9162968
_publ_section_title
;
Structure prediction by ZEFSAII (Michael W. Deem and Ramdas Pophale) SiO2 
 PCOD9162968
Probable space group: P 21/M
;
_chemical_formula_sum "Si O2"
_cell_formula_units_Z 28
_cell_length_a 23.894627
_cell_length_b 8.314475
_cell_length_c 20.953449
_cell_angle_alpha 90.000000
_cell_angle_beta 19.660119
_cell_angle_gamma 90.000000
_cell_volume 1400.548177
_symmetry_space_group_name_H-M "P 21/M"
_symmetry_group_IT_number 11
_symmetry_cell_setting 'monoclinic'
loop_
_space_group_symop_operation_xyz
x,y,z
-x,1/2+y,-z
-x,-y,-z
x,1/2-y,z
loop_
_atom_site_type_symbol
_atom_site_label
_atom_site_fract_x
_atom_site_fract_y
_atom_site_fract_z
Si Si1 0.250349 0.942150 0.095126
Si Si2 0.342765 0.435526 0.860893
Si Si3 0.475080 0.054721 0.098972
Si Si4 0.994189 0.562634 0.203232
Si Si5 0.089200 0.568570 0.841975
Si Si6 0.523303 0.430872 0.545028
Si Si7 0.875276 0.944001 0.466317
O O1 0.237620 0.750000 0.115104
O O2 0.057379 0.002329 0.296574
O O3 0.369573 0.001744 0.023927
O O4 0.343696 0.979849 0.928352
O O5 0.394964 0.250000 0.813630
O O6 0.442343 0.511098 0.694453
O O7 0.152353 0.450257 0.043727
O O8 0.474136 0.250000 0.102799
O O9 0.294286 0.997232 0.318902
O O10 0.500000 0.000000 0.000000
O O11 0.044637 0.750000 0.156936
O O12 0.931569 0.534511 0.199488
O O13 0.872153 0.525626 0.393329
O O14 0.028255 0.750000 0.894970
O O15 0.282420 0.575168 0.650584
O O16 0.000000 0.500000 0.000000
O O17 0.500000 0.500000 0.500000
O O18 0.452309 0.250000 0.619405
O O19 0.877093 0.750000 0.472379
#
# Coordination Sequence:
#
# PCOD9162968 Si02
#       7
#     4   4   4   4   4   4   4
#     4   9  19  36  58  82 111 149 191 231 280 342
#     4  10  20  36  57  82 111 143 181 231 285 333
#     4  10  21  37  57  83 115 150 188 234 285 340
#     4  10  20  36  58  83 109 143 185 230 281 337
#     4  11  23  38  54  78 110 145 186 233 281 334
#     4  10  23  38  53  76 108 144 183 229 279 332
#     4   8  17  35  56  80 112 146 185 231 279 336
#
# _framework density 19.992173000000001
#
# number of rings (size 3 to 8) (size 9 to 14) (size 15 to 20)
#    0.000    2.286    0.000    3.000    2.000    5.714 
#    0.000    3.571    0.000    0.000    0.000    0.000 
#    0.000    0.000    0.000    0.000    0.000    0.000 
#
# Total GULP energy -156073.914070 kJ/mol
# GULP energy per Si atom -5574.068360 kJ/mol
# Density = 1.994667 g / cm^3
# Si number density = 19.992173 Si / 1000 Ang^3
#
#
#
# Elastic Constant Matrix: (Units=GPa)
#
#
# Indices 1 2 3 4 5 6 
#
# 1 167.4735 5.6134 67.8397 0.0000 11.1025 0.0000
# 2 5.6134 14.9992 8.1774 0.0000 0.8507 0.0000
# 3 67.8397 8.1774 126.8955 0.0000 28.8827 0.0000
# 4 0.0000 0.0000 0.0000 17.9112 0.0000 5.8421
# 5 11.1025 0.8507 28.8827 0.0000 26.6757 0.0000
# 6 0.0000 0.0000 0.0000 5.8421 0.0000 27.9683
#
#
#
# Elastic Compliance Matrix: (Units=1/GPa)
#
#
# Indices 1 2 3 4 5 6 
#
# 1 0.007681 -0.000545 -0.004442 0.000000 0.001630 0.000000
# 2 -0.000545 0.069380 -0.004947 0.000000 0.003370 0.000000
# 3 -0.004442 -0.004947 0.013426 0.000000 -0.012530 0.000000
# 4 0.000000 0.000000 0.000000 0.059913 0.000000 -0.012515
# 5 0.001630 0.003370 -0.012530 0.000000 0.050268 0.000000
# 6 0.000000 0.000000 0.000000 -0.012515 0.000000 0.038369
#
#
# Mechanical properties :
#
#
# Convention : Reuss Voigt Hill
#
# Bulk Modulus (GPa) = 14.16047 52.51435 33.33741
# Shear Modulus (GPa) = 17.70259 29.69356 23.69807
#
# Velocity S-wave (km/s) = 2.97892 3.85809 3.44665
# Velocity P-wave (km/s) = 4.35090 6.79492 5.70532
#
# Compressibility (1/GPa) = 0.07061915
#
# Stress axis : x y z
#
# Youngs Moduli (GPa) = 130.19661 14.41334 74.48169
#
# Poissons Ratio (x) = 0.00786 0.33086
# Poissons Ratio (y) = 0.07098 0.36843
# Poissons Ratio (z) = 0.57835 0.07130
#
# Static dielectric constant tensor:
#      x y z
#    x 1.693250 0.000000 0.040370 
#    y 0.000000 1.730080 0.000000 
#    z 0.040370 0.000000 1.750150 
# 
# From -- ./inp_files/66660.got.cif
#   From: 2010.05.17/outbox.cif.g08.bks.cpg/sg11_34_cif.got.tgz:66660.got - 2010.06.03 12:22:45.
