data_PCOD9162412
_publ_section_title
;
Structure prediction by ZEFSAII (Michael W. Deem and Ramdas Pophale) SiO2 
 PCOD9162412
Probable space group: P 21/M
;
_chemical_formula_sum "Si O2"
_cell_formula_units_Z 32
_cell_length_a 28.216193
_cell_length_b 7.769675
_cell_length_c 22.005350
_cell_angle_alpha 90.000000
_cell_angle_beta 19.055657
_cell_angle_gamma 90.000000
_cell_volume 1575.051455
_symmetry_space_group_name_H-M "P 21/M"
_symmetry_group_IT_number 11
_symmetry_cell_setting 'monoclinic'
loop_
_space_group_symop_operation_xyz
x,y,z
-x,1/2+y,-z
-x,-y,-z
x,1/2-y,z
loop_
_atom_site_type_symbol
_atom_site_label
_atom_site_fract_x
_atom_site_fract_y
_atom_site_fract_z
Si Si1 0.546323 0.958807 0.039039
Si Si2 0.982446 0.959201 0.316115
Si Si3 0.177466 0.048833 0.612755
Si Si4 0.308065 0.046403 0.893878
Si Si5 0.659418 0.957226 0.282791
Si Si6 0.504763 0.548816 0.223773
Si Si7 0.046901 0.044166 0.011234
Si Si8 0.733051 0.955876 0.702584
O O1 0.550384 0.750000 0.035196
O O2 0.551880 0.024327 0.101161
O O3 0.393767 0.008090 0.192738
O O4 0.672124 0.021515 0.840787
O O5 0.986207 0.750000 0.311394
O O6 0.901065 0.016201 0.353033
O O7 0.884469 0.019096 0.491481
O O8 0.145978 0.023221 0.115232
O O9 0.208402 0.250000 0.565853
O O10 0.331514 0.962199 0.437588
O O11 0.068489 0.027166 0.800740
O O12 0.338800 0.250000 0.850558
O O13 0.319504 0.975287 0.811597
O O14 0.418900 0.972333 0.809304
O O15 0.670709 0.750000 0.267731
O O16 0.792150 0.018423 0.164534
O O17 0.500000 0.000000 0.500000
O O18 0.546495 0.750000 0.171675
O O19 0.044772 0.250000 0.019668
O O20 0.000000 0.000000 0.000000
O O21 0.745543 0.750000 0.692923
#
# Coordination Sequence:
#
# PCOD9162412 Si02
#       8
#     4   4   4   4   4   4   4   4
#     4   9  17  30  51  79 111 145 184 230 281 331
#     4  10  20  35  56  82 110 147 189 231 279 326
#     4  11  22  37  59  86 114 147 188 234 279 327
#     4  10  22  40  58  79 111 148 187 226 273 333
#     4  10  23  41  60  82 110 147 185 224 273 332
#     4  10  21  36  56  84 114 149 188 233 283 330
#     4  11  24  42  62  88 117 147 185 231 280 331
#     4   9  17  31  51  78 111 145 184 231 280 331
#
# _framework density 20.316794999999999
#
# number of rings (size 3 to 8) (size 9 to 14) (size 15 to 20)
#    0.000    2.000    2.500    0.750    1.750    3.000 
#    0.000    0.625    0.000    0.000    0.000    0.000 
#    0.000    0.000    0.000    0.000    0.000    0.000 
#
# Total GULP energy -178652.542106 kJ/mol
# GULP energy per Si atom -5582.891941 kJ/mol
# Density = 2.027055 g / cm^3
# Si number density = 20.316795 Si / 1000 Ang^3
#
#
#
# Elastic Constant Matrix: (Units=GPa)
#
#
# Indices 1 2 3 4 5 6 
#
# 1 131.9205 3.9430 66.3075 0.0000 -9.4869 0.0000
# 2 3.9430 24.9916 -12.1578 0.0000 1.5372 0.0000
# 3 66.3075 -12.1578 101.5992 0.0000 9.1338 0.0000
# 4 0.0000 0.0000 0.0000 22.5071 0.0000 -3.3607
# 5 -9.4869 1.5372 9.1338 0.0000 31.1495 0.0000
# 6 0.0000 0.0000 0.0000 -3.3607 0.0000 12.7504
#
#
#
# Elastic Compliance Matrix: (Units=1/GPa)
#
#
# Indices 1 2 3 4 5 6 
#
# 1 0.013646 -0.007738 -0.010517 0.000000 0.007622 0.000000
# 2 -0.007738 0.047290 0.011432 0.000000 -0.008043 0.000000
# 3 -0.010517 0.011432 0.018912 0.000000 -0.009313 0.000000
# 4 0.000000 0.000000 0.000000 0.046251 0.000000 0.012191
# 5 0.007622 -0.008043 -0.009313 0.000000 0.037552 0.000000
# 6 0.000000 0.000000 0.000000 0.012191 0.000000 0.081642
#
#
# Mechanical properties :
#
#
# Convention : Reuss Voigt Hill
#
# Bulk Modulus (GPa) = 15.10524 41.63298 28.36911
# Shear Modulus (GPa) = 17.79319 26.64262 22.21791
#
# Velocity S-wave (km/s) = 2.96258 3.62520 3.31051
# Velocity P-wave (km/s) = 4.37647 6.16921 5.34849
#
# Compressibility (1/GPa) = 0.06620220
#
# Stress axis : x y z
#
# Youngs Moduli (GPa) = 73.28209 21.14591 52.87761
#
# Poissons Ratio (x) = 0.16363 0.55611
# Poissons Ratio (y) = 0.56706 -0.60450
# Poissons Ratio (z) = 0.77071 -0.24174
#
# Static dielectric constant tensor:
#      x y z
#    x 1.729660 0.000000 0.019550 
#    y 0.000000 1.752520 0.000000 
#    z 0.019550 0.000000 1.692540 
# 
# From -- ./inp_files/66981.got.cif
#   From: 2010.05.17/outbox.cif.g08.bks.cpg/sg11_34_cif.got.tgz:66981.got - 2010.06.03 12:22:45.
