data_PCOD9162869
_publ_section_title
;
Structure prediction by ZEFSAII (Michael W. Deem and Ramdas Pophale) SiO2 
 PCOD9162869
Probable space group: P 21/M
;
_chemical_formula_sum "Si O2"
_cell_formula_units_Z 24
_cell_length_a 15.704162
_cell_length_b 14.900178
_cell_length_c 5.222395
_cell_angle_alpha 90.000000
_cell_angle_beta 66.872057
_cell_angle_gamma 90.000000
_cell_volume 1123.800167
_symmetry_space_group_name_H-M "P 21/M"
_symmetry_group_IT_number 11
_symmetry_cell_setting 'monoclinic'
loop_
_space_group_symop_operation_xyz
x,y,z
-x,1/2+y,-z
-x,-y,-z
x,1/2-y,z
loop_
_atom_site_type_symbol
_atom_site_label
_atom_site_fract_x
_atom_site_fract_y
_atom_site_fract_z
Si Si1 0.381455 0.250000 0.636800
Si Si2 0.843250 0.146113 0.937035
Si Si3 0.448193 0.933247 0.872666
Si Si4 0.491244 0.750000 0.014752
Si Si5 0.362462 0.440403 0.613734
Si Si6 0.789135 0.469099 0.502942
Si Si7 0.026995 0.056318 0.717577
O O1 0.426504 0.250000 0.297028
O O2 0.324493 0.342733 0.732502
O O3 0.459434 0.250000 0.768814
O O4 0.814365 0.250000 0.966640
O O5 0.806010 0.090588 0.735159
O O6 0.956265 0.139223 0.798345
O O7 0.811457 0.095415 0.233468
O O8 0.431912 0.839253 0.031379
O O9 0.529754 0.917137 0.567639
O O10 0.366754 0.984870 0.827663
O O11 0.500000 0.000000 0.000000
O O12 0.309539 0.485865 0.441098
O O13 0.862002 0.552579 0.416784
O O14 0.000000 0.000000 0.500000
O O15 0.000000 0.000000 0.000000
#
# Coordination Sequence:
#
# PCOD9162869 Si02
#       7
#     2   4   4   2   4   4   4
#     4  10  20  36  58  78 106 140 185 239 286 328
#     4  10  20  37  59  83 118 155 187 228 285 347
#     4  10  20  37  59  79 112 156 191 231 290 340
#     4  10  20  36  56  80 104 142 193 231 276 342
#     4  10  22  37  57  84 113 150 191 240 288 335
#     4  10  21  36  58  85 118 149 188 240 284 334
#     4   8  16  33  55  78 105 146 181 218 276 331
#
# _framework density 21.356109
#
# number of rings (size 3 to 8) (size 9 to 14) (size 15 to 20)
#    0.000    2.333    1.667    0.500    2.333    0.000 
#    4.500    0.000    0.000    0.000    0.000    0.000 
#    0.000    0.000    0.000    0.000    0.000    0.000 
#
# Total GULP energy -133701.053132 kJ/mol
# GULP energy per Si atom -5570.877214 kJ/mol
# Density = 2.130750 g / cm^3
# Si number density = 21.356109 Si / 1000 Ang^3
#
#
#
# Elastic Constant Matrix: (Units=GPa)
#
#
# Indices 1 2 3 4 5 6 
#
# 1 87.0078 39.3098 30.0727 0.0000 16.9492 0.0000
# 2 39.3098 146.4561 21.1285 0.0000 15.4187 0.0000
# 3 30.0727 21.1285 105.2347 0.0000 28.5992 0.0000
# 4 0.0000 0.0000 0.0000 22.2749 0.0000 10.3774
# 5 16.9492 15.4187 28.5992 0.0000 35.4838 0.0000
# 6 0.0000 0.0000 0.0000 10.3774 0.0000 19.1245
#
#
#
# Elastic Compliance Matrix: (Units=1/GPa)
#
#
# Indices 1 2 3 4 5 6 
#
# 1 0.014480 -0.003150 -0.002558 0.000000 -0.003486 0.000000
# 2 -0.003150 0.007888 -0.000206 0.000000 -0.001757 0.000000
# 3 -0.002558 -0.000206 0.012700 0.000000 -0.008925 0.000000
# 4 0.000000 0.000000 0.000000 0.060082 0.000000 -0.032602
# 5 -0.003486 -0.001757 -0.008925 0.000000 0.037804 0.000000
# 6 0.000000 0.000000 0.000000 -0.032602 0.000000 0.069980
#
#
# Mechanical properties :
#
#
# Convention : Reuss Voigt Hill
#
# Bulk Modulus (GPa) = 43.03035 57.74675 50.38855
# Shear Modulus (GPa) = 22.47099 31.92247 27.19673
#
# Velocity S-wave (km/s) = 3.24729 3.87042 3.57247
# Velocity P-wave (km/s) = 5.85257 6.86091 6.37670
#
# Compressibility (1/GPa) = 0.02323941
#
# Stress axis : x y z
#
# Youngs Moduli (GPa) = 69.06203 126.77061 78.73751
#
# Poissons Ratio (x) = 0.39939 0.20141
# Poissons Ratio (y) = 0.21758 0.01622
# Poissons Ratio (z) = 0.17666 0.02612
#
# Static dielectric constant tensor:
#      x y z
#    x 1.813570 0.000000 -0.061280 
#    y 0.000000 1.844580 0.000000 
#    z -0.061280 0.000000 1.814250 
# 
# From -- ./inp_files/6412.got.cif
#   From: 2010.05.17/outbox.cif.g08.bks.cpg/sg11_4_cif.got.tgz:6412.got - 2010.06.03 12:22:45.
