data_PCOD9162881
_publ_section_title
;
Structure prediction by ZEFSAII (Michael W. Deem and Ramdas Pophale) SiO2 
 PCOD9162881
Probable space group: P 21/M
;
_chemical_formula_sum "Si O2"
_cell_formula_units_Z 32
_cell_length_a 13.502733
_cell_length_b 9.203895
_cell_length_c 20.732925
_cell_angle_alpha 90.000000
_cell_angle_beta 139.549750
_cell_angle_gamma 90.000000
_cell_volume 1671.692578
_symmetry_space_group_name_H-M "P 21/M"
_symmetry_group_IT_number 11
_symmetry_cell_setting 'monoclinic'
loop_
_space_group_symop_operation_xyz
x,y,z
-x,1/2+y,-z
-x,-y,-z
x,1/2-y,z
loop_
_atom_site_type_symbol
_atom_site_label
_atom_site_fract_x
_atom_site_fract_y
_atom_site_fract_z
Si Si1 0.970196 0.574626 0.841981
Si Si2 0.122528 0.426711 0.348818
Si Si3 0.304986 0.576027 0.064970
Si Si4 0.299115 0.574531 0.214519
Si Si5 0.838111 0.415617 0.294158
Si Si6 0.622122 0.926180 0.431333
Si Si7 0.477740 0.914136 0.924079
Si Si8 0.836238 0.576940 0.416945
O O1 0.955757 0.750000 0.837403
O O2 0.928000 0.527403 0.747756
O O3 0.848097 0.500904 0.828346
O O4 0.141142 0.540036 0.951077
O O5 0.122819 0.250000 0.348241
O O6 0.286520 0.474728 0.459077
O O7 0.992471 0.467781 0.336378
O O8 0.326655 0.750000 0.069652
O O9 0.310420 0.540816 0.143860
O O10 0.434838 0.492757 0.090437
O O11 0.287219 0.750000 0.213896
O O12 0.450734 0.526269 0.329254
O O13 0.864761 0.250000 0.331775
O O14 0.703191 0.408137 0.176432
O O15 0.776517 0.518494 0.319616
O O16 0.617173 0.750000 0.431291
O O17 0.729026 0.965048 0.423337
O O18 0.535843 0.750000 0.957847
O O19 0.500000 0.000000 0.000000
O O20 0.850142 0.750000 0.424098
O O21 0.000000 0.500000 0.500000
#
# Coordination Sequence:
#
# PCOD9162881 Si02
#       8
#     4   4   4   4   4   4   4   4
#     4  10  21  37  59  81 104 143 188 235 290 343
#     4   9  17  33  55  76 105 146 186 220 269 340
#     4  10  21  39  59  81 112 148 189 232 284 347
#     4  10  21  37  58  82 109 142 183 237 290 337
#     4  10  20  36  56  80 112 151 191 230 276 336
#     4   9  18  33  54  78 108 148 183 217 275 340
#     4  11  23  37  58  87 120 155 190 233 283 338
#     4  11  20  33  55  82 112 148 188 230 275 331
#
# _framework density 19.142275000000001
#
# number of rings (size 3 to 8) (size 9 to 14) (size 15 to 20)
#    0.000    2.000    1.250    2.625    0.000    5.500 
#    0.000    1.875    0.000    0.000    0.000    0.000 
#    0.000    0.000    0.000    0.000    0.000    0.000 
#
# Total GULP energy -178503.273082 kJ/mol
# GULP energy per Si atom -5578.227284 kJ/mol
# Density = 1.909871 g / cm^3
# Si number density = 19.142275 Si / 1000 Ang^3
#
#
#
# Elastic Constant Matrix: (Units=GPa)
#
#
# Indices 1 2 3 4 5 6 
#
# 1 54.8349 15.1369 22.1270 0.0000 0.3097 0.0000
# 2 15.1369 22.2455 21.5263 0.0000 -0.5940 0.0000
# 3 22.1270 21.5263 125.5087 0.0000 -1.5844 0.0000
# 4 0.0000 0.0000 0.0000 15.9668 0.0000 -0.2748
# 5 0.3097 -0.5940 -1.5844 0.0000 32.4636 0.0000
# 6 0.0000 0.0000 0.0000 -0.2748 0.0000 30.5730
#
#
#
# Elastic Compliance Matrix: (Units=1/GPa)
#
#
# Indices 1 2 3 4 5 6 
#
# 1 0.022737 -0.013909 -0.001630 0.000000 -0.000551 0.000000
# 2 -0.013909 0.062416 -0.008242 0.000000 0.000872 0.000000
# 3 -0.001630 -0.008242 0.009673 0.000000 0.000337 0.000000
# 4 0.000000 0.000000 0.000000 0.062640 0.000000 0.000563
# 5 -0.000551 0.000872 0.000337 0.000000 0.030841 0.000000
# 6 0.000000 0.000000 0.000000 0.000563 0.000000 0.032714
#
#
# Mechanical properties :
#
#
# Convention : Reuss Voigt Hill
#
# Bulk Modulus (GPa) = 21.15766 35.57439 28.36603
# Shear Modulus (GPa) = 17.58484 25.38726 21.48605
#
# Velocity S-wave (km/s) = 3.03419 3.64571 3.35392
# Velocity P-wave (km/s) = 4.83239 6.02878 5.46343
#
# Compressibility (1/GPa) = 0.04726420
#
# Stress axis : x y z
#
# Youngs Moduli (GPa) = 43.98162 16.02161 103.38290
#
# Poissons Ratio (x) = 0.22284 0.16851
# Poissons Ratio (y) = 0.61172 0.85208
# Poissons Ratio (z) = 0.07169 0.13205
#
# Static dielectric constant tensor:
#      x y z
#    x 1.627820 0.000000 -0.015020 
#    y 0.000000 1.652630 0.000000 
#    z -0.015020 0.000000 1.746160 
# 
# From -- ./inp_files/65235.got.cif
#   From: 2010.05.17/outbox.cif.g08.bks.cpg/sg11_33_cif.got.tgz:65235.got - 2010.06.03 12:22:45.
