data_PCOD9162758
_publ_section_title
;
Structure prediction by ZEFSAII (Michael W. Deem and Ramdas Pophale) SiO2 
 PCOD9162758
Probable space group: P 21/M
;
_chemical_formula_sum "Si O2"
_cell_formula_units_Z 32
_cell_length_a 12.367112
_cell_length_b 8.594544
_cell_length_c 32.117428
_cell_angle_alpha 90.000000
_cell_angle_beta 149.971919
_cell_angle_gamma 90.000000
_cell_volume 1708.324446
_symmetry_space_group_name_H-M "P 21/M"
_symmetry_group_IT_number 11
_symmetry_cell_setting 'monoclinic'
loop_
_space_group_symop_operation_xyz
x,y,z
-x,1/2+y,-z
-x,-y,-z
x,1/2-y,z
loop_
_atom_site_type_symbol
_atom_site_label
_atom_site_fract_x
_atom_site_fract_y
_atom_site_fract_z
Si Si1 0.436055 0.562805 0.024058
Si Si2 0.316657 0.937702 0.755148
Si Si3 0.039797 0.563347 0.125379
Si Si4 0.199691 0.436186 0.093198
Si Si5 0.849303 0.562645 0.216901
Si Si6 0.128601 0.562097 0.603883
Si Si7 0.686296 0.063744 0.423054
Si Si8 0.784125 0.437861 0.724978
O O1 0.420064 0.750000 0.017570
O O2 0.207796 0.491004 0.960819
O O3 0.500000 0.500000 0.000000
O O4 0.628796 0.518819 0.119463
O O5 0.316511 0.750000 0.755374
O O6 0.565149 0.990012 0.844241
O O7 0.233589 0.989505 0.682149
O O8 0.166907 0.997065 0.742297
O O9 0.049844 0.750000 0.126003
O O10 0.171544 0.489548 0.131448
O O11 0.127184 0.514380 0.199900
O O12 0.193583 0.250000 0.089279
O O13 0.000000 0.500000 0.000000
O O14 0.856803 0.750000 0.221168
O O15 0.050539 0.509525 0.255790
O O16 0.120752 0.750000 0.601247
O O17 0.265805 0.513871 0.608897
O O18 0.887816 0.498519 0.516780
O O19 0.684579 0.250000 0.423752
O O20 0.456784 0.999448 0.360748
O O21 0.782009 0.250000 0.723897
#
# Coordination Sequence:
#
# PCOD9162758 Si02
#       8
#     4   4   4   4   4   4   4   4
#     4  11  21  36  56  80 112 151 194 240 287 336
#     4  10  22  39  59  82 112 151 193 233 279 338
#     4  11  22  37  57  83 114 149 193 238 288 345
#     4  11  23  39  57  83 117 152 191 238 288 338
#     4  10  22  39  56  79 113 151 192 236 281 334
#     4   9  19  38  60  84 116 147 177 225 286 339
#     4  10  20  35  60  91 115 140 182 231 279 340
#     4  10  21  38  56  80 115 150 183 230 289 337
#
# _framework density 18.731805000000001
#
# number of rings (size 3 to 8) (size 9 to 14) (size 15 to 20)
#    0.000    1.750    1.250    3.000    0.000    7.500 
#    0.000    0.625    0.000    0.000    0.000    0.000 
#    0.000    0.000    0.000    0.000    0.000    0.000 
#
# Total GULP energy -178807.391076 kJ/mol
# GULP energy per Si atom -5587.730971 kJ/mol
# Density = 1.868917 g / cm^3
# Si number density = 18.731805 Si / 1000 Ang^3
#
#
#
# Elastic Constant Matrix: (Units=GPa)
#
#
# Indices 1 2 3 4 5 6 
#
# 1 122.5581 16.5165 60.8125 0.0000 7.6807 0.0000
# 2 16.5165 18.9244 18.3851 0.0000 -0.7369 0.0000
# 3 60.8125 18.3851 110.1955 0.0000 4.8580 0.0000
# 4 0.0000 0.0000 0.0000 27.4932 0.0000 -0.9170
# 5 7.6807 -0.7369 4.8580 0.0000 35.0292 0.0000
# 6 0.0000 0.0000 0.0000 -0.9170 0.0000 33.2740
#
#
#
# Elastic Compliance Matrix: (Units=1/GPa)
#
#
# Indices 1 2 3 4 5 6 
#
# 1 0.011692 -0.004882 -0.005554 0.000000 -0.001896 0.000000
# 2 -0.004882 0.065377 -0.008372 0.000000 0.003607 0.000000
# 3 -0.005554 -0.008372 0.013574 0.000000 -0.000841 0.000000
# 4 0.000000 0.000000 0.000000 0.036406 0.000000 0.001003
# 5 -0.001896 0.003607 -0.000841 0.000000 0.029156 0.000000
# 6 0.000000 0.000000 0.000000 0.001003 0.000000 0.030081
#
#
# Mechanical properties :
#
#
# Convention : Reuss Voigt Hill
#
# Bulk Modulus (GPa) = 18.85887 49.23403 34.04645
# Shear Modulus (GPa) = 20.69715 29.55687 25.12701
#
# Velocity S-wave (km/s) = 3.32764 3.97659 3.66650
# Velocity P-wave (km/s) = 4.98537 6.88658 6.01161
#
# Compressibility (1/GPa) = 0.05302546
#
# Stress axis : x y z
#
# Youngs Moduli (GPa) = 85.52721 15.29587 73.67099
#
# Poissons Ratio (x) = 0.07468 0.40919
# Poissons Ratio (y) = 0.41757 0.61679
# Poissons Ratio (z) = 0.47504 0.12806
#
# Static dielectric constant tensor:
#      x y z
#    x 1.620730 0.000000 -0.013290 
#    y 0.000000 1.642230 0.000000 
#    z -0.013290 0.000000 1.626430 
# 
# From -- ./inp_files/49325.got.cif
#   From: 2010.05.17/outbox.cif.g08.bks.cpg/sg11_25_cif.got.tgz:49325.got - 2010.06.03 12:22:45.
