data_PCOD9162684
_publ_section_title
;
Structure prediction by ZEFSAII (Michael W. Deem and Ramdas Pophale) SiO2 
 PCOD9162684
Probable space group: P 21/M
;
_chemical_formula_sum "Si O2"
_cell_formula_units_Z 24
_cell_length_a 10.826542
_cell_length_b 15.113120
_cell_length_c 9.277516
_cell_angle_alpha 90.000000
_cell_angle_beta 53.606054
_cell_angle_gamma 90.000000
_cell_volume 1221.934753
_symmetry_space_group_name_H-M "P 21/M"
_symmetry_group_IT_number 11
_symmetry_cell_setting 'monoclinic'
loop_
_space_group_symop_operation_xyz
x,y,z
-x,1/2+y,-z
-x,-y,-z
x,1/2-y,z
loop_
_atom_site_type_symbol
_atom_site_label
_atom_site_fract_x
_atom_site_fract_y
_atom_site_fract_z
Si Si1 0.495173 0.621996 0.080878
Si Si2 0.671905 0.045856 0.043171
Si Si3 0.130516 0.944031 0.830390
Si Si4 0.031664 0.250000 0.583527
Si Si5 0.280113 0.750000 0.386844
Si Si6 0.998965 0.958459 0.338739
Si Si7 0.765141 0.750000 0.828013
Si Si8 0.925830 0.250000 0.201913
O O1 0.542325 0.527233 0.107541
O O2 0.657001 0.668636 0.942200
O O3 0.402021 0.626545 0.994672
O O4 0.386771 0.668102 0.271830
O O5 0.830910 0.027001 0.846655
O O6 0.716892 0.049839 0.178982
O O7 0.082238 0.841879 0.874233
O O8 0.120154 0.983767 0.676057
O O9 0.000000 0.000000 0.000000
O O10 0.871863 0.250000 0.606048
O O11 0.032824 0.351293 0.649088
O O12 0.175725 0.250000 0.375452
O O13 0.218444 0.750000 0.590203
O O14 0.000000 0.000000 0.500000
O O15 0.917749 0.750000 0.816662
#
# Coordination Sequence:
#
# PCOD9162684 Si02
#       8
#     4   4   4   2   2   4   2   2
#     4  10  20  37  64  85 126 161 213 250 317 393
#     4  10  21  38  60  91 120 167 207 259 317 382
#     4  10  23  39  62  96 128 165 211 265 320 369
#     4  11  20  35  60  93 124 157 219 264 311 368
#     4  10  20  37  62  95 115 172 207 263 312 379
#     4  11  21  37  65  95 128 162 219 268 318 369
#     4  10  20  35  58  91 117 159 207 255 308 371
#     4  11  22  41  66  91 130 162 219 270 313 372
#
# _framework density 19.640984
#
# number of rings (size 3 to 8) (size 9 to 14) (size 15 to 20)
#    0.000    1.667    1.667    5.000    0.000    4.000 
#    0.000    2.500    3.667    0.000    0.000    0.000 
#    0.000    0.000    0.000    0.000    0.000    0.000 
#
# Total GULP energy -133623.467129 kJ/mol
# GULP energy per Si atom -5567.644464 kJ/mol
# Density = 1.959628 g / cm^3
# Si number density = 19.640984 Si / 1000 Ang^3
#
#
#
# Elastic Constant Matrix: (Units=GPa)
#
#
# Indices 1 2 3 4 5 6 
#
# 1 108.1689 28.6571 22.3742 0.0000 20.7358 0.0000
# 2 28.6571 116.0507 16.9028 0.0000 10.5304 0.0000
# 3 22.3742 16.9028 71.2975 0.0000 -5.3907 0.0000
# 4 0.0000 0.0000 0.0000 -27.3415 0.0000 40.6108
# 5 20.7358 10.5304 -5.3907 0.0000 37.7618 0.0000
# 6 0.0000 0.0000 0.0000 40.6108 0.0000 1.1087
#
#
#
# Elastic Compliance Matrix: (Units=1/GPa)
#
#
# Indices 1 2 3 4 5 6 
#
# 1 0.011732 -0.001762 -0.003754 0.000000 -0.006487 0.000000
# 2 -0.001762 0.009497 -0.001846 0.000000 -0.001945 0.000000
# 3 -0.003754 -0.001846 0.016009 0.000000 0.004862 0.000000
# 4 0.000000 0.000000 0.000000 -0.000660 0.000000 0.024180
# 5 -0.006487 -0.001945 0.004862 0.000000 0.031280 0.000000
# 6 0.000000 0.000000 0.000000 0.024180 0.000000 0.016279
#
#
# Mechanical properties :
#
#
# Convention : Reuss Voigt Hill
#
# Bulk Modulus (GPa) = 44.41582 47.93170 46.17376
# Shear Modulus (GPa) = 47.00790 17.47799 32.24295
#
# Velocity S-wave (km/s) = 4.89750 2.98631 4.05608
# Velocity P-wave (km/s) = 7.39213 6.02890 6.74505
#
# Compressibility (1/GPa) = 0.02251450
#
# Stress axis : x y z
#
# Youngs Moduli (GPa) = 85.24023 105.29426 62.46449
#
# Poissons Ratio (x) = 0.18548 0.23452
# Poissons Ratio (y) = 0.15015 0.11530
# Poissons Ratio (z) = 0.32002 0.19435
#
# Static dielectric constant tensor:
#      x y z
#    x 1.709260 0.000000 0.060640 
#    y 0.000000 1.786890 0.000000 
#    z 0.060640 0.000000 1.700020 
# 
# From -- ./inp_files/18567.got.cif
#   From: 2010.05.17/outbox.cif.g08.bks.cpg/sg11_10_cif.got.tgz:18567.got - 2010.06.03 12:22:45.
