data_PCOD9162431
_publ_section_title
;
Structure prediction by ZEFSAII (Michael W. Deem and Ramdas Pophale) SiO2 
 PCOD9162431
Probable space group: P 21/M
;
_chemical_formula_sum "Si O2"
_cell_formula_units_Z 24
_cell_length_a 12.427742
_cell_length_b 16.448326
_cell_length_c 8.051211
_cell_angle_alpha 90.000000
_cell_angle_beta 48.266734
_cell_angle_gamma 90.000000
_cell_volume 1228.175832
_symmetry_space_group_name_H-M "P 21/M"
_symmetry_group_IT_number 11
_symmetry_cell_setting 'monoclinic'
loop_
_space_group_symop_operation_xyz
x,y,z
-x,1/2+y,-z
-x,-y,-z
x,1/2-y,z
loop_
_atom_site_type_symbol
_atom_site_label
_atom_site_fract_x
_atom_site_fract_y
_atom_site_fract_z
Si Si1 0.951897 0.841502 0.897948
Si Si2 0.329297 0.346382 0.965828
Si Si3 0.312124 0.107887 0.633504
Si Si4 0.245639 0.571250 0.605596
Si Si5 0.605135 0.152023 0.864696
Si Si6 0.615944 0.343571 0.217948
O O1 0.011572 0.750000 0.829140
O O2 0.843441 0.854811 0.852412
O O3 0.838973 0.848115 0.167984
O O4 0.076897 0.906485 0.780558
O O5 0.353557 0.250000 0.897252
O O6 0.371324 0.400893 0.763358
O O7 0.434852 0.364631 0.007382
O O8 0.441886 0.153161 0.410552
O O9 0.278366 0.023794 0.580688
O O10 0.312288 0.612118 0.373263
O O11 0.314288 0.608854 0.702042
O O12 0.623671 0.250000 0.840218
O O13 0.653365 0.123639 0.996643
O O14 0.661984 0.250000 0.183183
#
# Coordination Sequence:
#
# PCOD9162431 Si02
#       6
#     4   4   4   4   4   4
#     4   9  18  34  60  79 104 151 185 219 270 327
#     4   8  16  34  56  77 103 142 189 219 254 324
#     4  10  20  35  56  83 110 146 184 221 273 327
#     4  12  21  35  56  87 116 139 173 234 287 316
#     4  10  21  36  57  82 108 145 189 225 265 324
#     4  11  22  37  58  81 109 149 188 222 266 326
#
# _framework density 19.541176
#
# number of rings (size 3 to 8) (size 9 to 14) (size 15 to 20)
#    1.000    1.000    1.667    3.500    0.000    0.667 
#    0.000    1.667    0.000    9.000    0.000    0.000 
#    0.000    0.000    0.000    0.000    0.000    0.000 
#
# Total GULP energy -133601.412937 kJ/mol
# GULP energy per Si atom -5566.725539 kJ/mol
# Density = 1.949670 g / cm^3
# Si number density = 19.541176 Si / 1000 Ang^3
#
#
#
# Elastic Constant Matrix: (Units=GPa)
#
#
# Indices 1 2 3 4 5 6 
#
# 1 56.9619 9.6706 42.5239 0.0000 2.8256 0.0000
# 2 9.6706 25.6294 -0.1294 0.0000 4.3476 0.0000
# 3 42.5239 -0.1294 52.2716 0.0000 7.0981 0.0000
# 4 0.0000 0.0000 0.0000 -14.2834 0.0000 -17.9940
# 5 2.8256 4.3476 7.0981 0.0000 27.4383 0.0000
# 6 0.0000 0.0000 0.0000 -17.9940 0.0000 11.2422
#
#
#
# Elastic Compliance Matrix: (Units=1/GPa)
#
#
# Indices 1 2 3 4 5 6 
#
# 1 0.056143 -0.023129 -0.047097 0.000000 0.010067 0.000000
# 2 -0.023129 0.049674 0.020401 0.000000 -0.010767 0.000000
# 3 -0.047097 0.020401 0.059362 0.000000 -0.013739 0.000000
# 4 0.000000 0.000000 0.000000 -0.023210 0.000000 -0.037150
# 5 0.010067 -0.010767 -0.013739 0.000000 0.040669 0.000000
# 6 0.000000 0.000000 0.000000 -0.037150 0.000000 0.029489
#
#
# Mechanical properties :
#
#
# Convention : Reuss Voigt Hill
#
# Bulk Modulus (GPa) = 15.26080 26.55481 20.90781
# Shear Modulus (GPa) = 14.98712 10.39926 12.69319
#
# Velocity S-wave (km/s) = 2.77239 2.30939 2.55141
# Velocity P-wave (km/s) = 4.25144 4.55299 4.40479
#
# Compressibility (1/GPa) = 0.06552736
#
# Stress axis : x y z
#
# Youngs Moduli (GPa) = 17.81177 20.13112 16.84592
#
# Poissons Ratio (x) = 0.46562 0.79340
# Poissons Ratio (y) = 0.41198 -0.34368
# Poissons Ratio (z) = 0.83889 -0.41070
#
# Static dielectric constant tensor:
#      x y z
#    x 1.711420 0.000000 -0.003700 
#    y 0.000000 1.666670 0.000000 
#    z -0.003700 0.000000 1.699570 
# 
# From -- ./inp_files/18531.got.cif
#   From: 2010.05.17/outbox.cif.g08.bks.cpg/sg11_10_cif.got.tgz:18531.got - 2010.06.03 12:22:45.
