data_PCOD9162042
_publ_section_title
;
Structure prediction by ZEFSAII (Michael W. Deem and Ramdas Pophale) SiO2 
 PCOD9162042
Probable space group: P 21/M
;
_chemical_formula_sum "Si O2"
_cell_formula_units_Z 28
_cell_length_a 15.091610
_cell_length_b 8.021287
_cell_length_c 12.190624
_cell_angle_alpha 90.000000
_cell_angle_beta 70.532619
_cell_angle_gamma 90.000000
_cell_volume 1391.360254
_symmetry_space_group_name_H-M "P 21/M"
_symmetry_group_IT_number 11
_symmetry_cell_setting 'monoclinic'
loop_
_space_group_symop_operation_xyz
x,y,z
-x,1/2+y,-z
-x,-y,-z
x,1/2-y,z
loop_
_atom_site_type_symbol
_atom_site_label
_atom_site_fract_x
_atom_site_fract_y
_atom_site_fract_z
Si Si1 0.918212 0.053129 0.380203
Si Si2 0.874366 0.952234 0.642086
Si Si3 0.297231 0.045332 0.133597
Si Si4 0.746273 0.945569 0.324046
Si Si5 0.316564 0.445130 0.884433
Si Si6 0.416622 0.556782 0.453583
Si Si7 0.527751 0.943608 0.801539
O O1 0.917571 0.250000 0.359373
O O2 0.026408 0.996394 0.344471
O O3 0.874562 0.019398 0.518496
O O4 0.853164 0.967047 0.317268
O O5 0.874070 0.750000 0.635527
O O6 0.785819 0.005958 0.750587
O O7 0.298545 0.250000 0.132934
O O8 0.398137 0.992290 0.139612
O O9 0.283248 0.985692 0.015108
O O10 0.720760 0.750000 0.335779
O O11 0.724084 0.015497 0.212213
O O12 0.679622 0.031303 0.441116
O O13 0.291115 0.250000 0.895126
O O14 0.429234 0.462379 0.836626
O O15 0.500000 0.500000 0.500000
O O16 0.429908 0.750000 0.421121
O O17 0.422932 0.457562 0.337598
O O18 0.507017 0.750000 0.832645
#
# Coordination Sequence:
#
# PCOD9162042 Si02
#       7
#     4   4   4   4   4   4   4
#     4  10  20  34  57  86 112 141 178 228 284 335
#     4   9  18  36  60  83 110 141 180 230 282 336
#     4   9  19  36  57  80 105 142 188 231 278 329
#     4  11  22  36  55  79 111 150 185 224 275 328
#     4  10  21  37  55  75 107 149 191 229 270 326
#     4  12  23  36  55  80 112 144 181 226 273 326
#     4  11  21  34  56  83 112 145 183 229 280 329
#
# _framework density 20.124192000000001
#
# number of rings (size 3 to 8) (size 9 to 14) (size 15 to 20)
#    0.000    1.714    1.429    3.857    0.000    2.286 
#    0.000    2.857    0.000    0.000    0.000    0.000 
#    0.000    0.000    0.000    0.000    0.000    0.000 
#
# Total GULP energy -156456.766180 kJ/mol
# GULP energy per Si atom -5587.741649 kJ/mol
# Density = 2.007839 g / cm^3
# Si number density = 20.124192 Si / 1000 Ang^3
#
#
#
# Elastic Constant Matrix: (Units=GPa)
#
#
# Indices 1 2 3 4 5 6 
#
# 1 97.5816 -7.5478 27.5658 0.0000 9.4465 0.0000
# 2 -7.5478 23.9959 -13.2385 0.0000 -3.9086 0.0000
# 3 27.5658 -13.2385 66.7627 0.0000 6.0388 0.0000
# 4 0.0000 0.0000 0.0000 12.3219 0.0000 -4.4598
# 5 9.4465 -3.9086 6.0388 0.0000 14.0118 0.0000
# 6 0.0000 0.0000 0.0000 -4.4598 0.0000 19.9257
#
#
#
# Elastic Compliance Matrix: (Units=1/GPa)
#
#
# Indices 1 2 3 4 5 6 
#
# 1 0.012108 0.000396 -0.004363 0.000000 -0.006173 0.000000
# 2 0.000396 0.048032 0.008505 0.000000 0.009466 0.000000
# 3 -0.004363 0.008505 0.018715 0.000000 -0.002752 0.000000
# 4 0.000000 0.000000 0.000000 0.088311 0.000000 0.019766
# 5 -0.006173 0.009466 -0.002752 0.000000 0.079357 0.000000
# 6 0.000000 0.000000 0.000000 0.019766 0.000000 0.054610
#
#
# Mechanical properties :
#
#
# Convention : Reuss Voigt Hill
#
# Bulk Modulus (GPa) = 11.37234 22.43324 16.90279
# Shear Modulus (GPa) = 15.55849 21.35592 18.45721
#
# Velocity S-wave (km/s) = 2.78353 3.26115 3.03176
# Velocity P-wave (km/s) = 3.99926 5.03505 4.54675
#
# Compressibility (1/GPa) = 0.08793265
#
# Stress axis : x y z
#
# Youngs Moduli (GPa) = 82.58722 20.81927 53.43300
#
# Poissons Ratio (x) = -0.00825 0.23310
# Poissons Ratio (y) = -0.03274 -0.45442
# Poissons Ratio (z) = 0.36029 -0.17706
#
# Static dielectric constant tensor:
#      x y z
#    x 1.704100 0.000000 0.011320 
#    y 0.000000 1.746570 0.000000 
#    z 0.011320 0.000000 1.711450 
# 
# From -- ./inp_files/37425.got.cif
#   From: 2010.05.17/outbox.cif.g08.bks.cpg/sg11_19_cif.got.tgz:37425.got - 2010.06.03 12:22:45.
