data_PCOD9162172
_publ_section_title
;
Structure prediction by ZEFSAII (Michael W. Deem and Ramdas Pophale) SiO2 
 PCOD9162172
Probable space group: P 21/M
;
_chemical_formula_sum "Si O2"
_cell_formula_units_Z 32
_cell_length_a 11.965788
_cell_length_b 7.588944
_cell_length_c 22.903487
_cell_angle_alpha 90.000000
_cell_angle_beta 45.768687
_cell_angle_gamma 90.000000
_cell_volume 1490.247249
_symmetry_space_group_name_H-M "P 21/M"
_symmetry_group_IT_number 11
_symmetry_cell_setting 'monoclinic'
loop_
_space_group_symop_operation_xyz
x,y,z
-x,1/2+y,-z
-x,-y,-z
x,1/2-y,z
loop_
_atom_site_type_symbol
_atom_site_label
_atom_site_fract_x
_atom_site_fract_y
_atom_site_fract_z
Si Si1 0.215017 0.540303 0.740515
Si Si2 0.564349 0.537354 0.233490
Si Si3 0.114957 0.959575 0.542531
Si Si4 0.636546 0.965943 0.081636
Si Si5 0.882285 0.954565 0.896472
Si Si6 0.627365 0.458927 0.903511
Si Si7 0.214216 0.962626 0.377970
Si Si8 0.681498 0.037896 0.423571
O O1 0.191326 0.750000 0.741840
O O2 0.349113 0.515007 0.739203
O O3 0.263443 0.469629 0.659565
O O4 0.052145 0.465932 0.824573
O O5 0.561599 0.750000 0.233030
O O6 0.652340 0.478508 0.142659
O O7 0.385458 0.475549 0.298023
O O8 0.141172 0.750000 0.531553
O O9 0.173337 0.028737 0.458307
O O10 0.211900 0.029831 0.561990
O O11 0.929469 0.989055 0.611362
O O12 0.637459 0.750000 0.078522
O O13 0.464982 0.019389 0.120277
O O14 0.770536 0.029714 0.988231
O O15 0.903087 0.750000 0.904783
O O16 0.785978 0.962319 0.870809
O O17 0.651305 0.250000 0.890676
O O18 0.500000 0.500000 0.000000
O O19 0.218083 0.750000 0.378358
O O20 0.697622 0.250000 0.416752
O O21 0.500000 0.000000 0.500000
#
# Coordination Sequence:
#
# PCOD9162172 Si02
#       8
#     4   4   4   4   4   4   4   4
#     4  10  22  37  52  74 104 136 170 213 262 304
#     4  10  20  35  53  73 100 135 175 214 254 303
#     4   9  18  33  52  74 100 130 162 198 247 303
#     4   8  16  31  51  73  99 134 170 208 254 300
#     4   9  18  34  52  72 104 139 170 210 259 308
#     4   9  16  29  50  75 102 132 169 212 259 308
#     4   9  18  32  51  75 101 127 159 204 251 294
#     4  10  21  37  56  78 105 137 172 209 252 305
#
# _framework density 21.472947999999999
#
# number of rings (size 3 to 8) (size 9 to 14) (size 15 to 20)
#    0.000    2.750    0.000    1.875    0.000    4.500 
#    0.000    5.625    0.000    0.000    0.000    0.000 
#    0.000    0.000    0.000    0.000    0.000    0.000 
#
# Total GULP energy -178506.236225 kJ/mol
# GULP energy per Si atom -5578.319882 kJ/mol
# Density = 2.142407 g / cm^3
# Si number density = 21.472948 Si / 1000 Ang^3
#
#
#
# Elastic Constant Matrix: (Units=GPa)
#
#
# Indices 1 2 3 4 5 6 
#
# 1 165.1204 -6.6892 86.9866 0.0000 3.1679 0.0000
# 2 -6.6892 43.9023 5.0028 0.0000 1.7680 0.0000
# 3 86.9866 5.0028 124.0927 0.0000 -4.7688 0.0000
# 4 0.0000 0.0000 0.0000 10.3435 0.0000 -1.0243
# 5 3.1679 1.7680 -4.7688 0.0000 36.8259 0.0000
# 6 0.0000 0.0000 0.0000 -1.0243 0.0000 23.6429
#
#
#
# Elastic Compliance Matrix: (Units=1/GPa)
#
#
# Indices 1 2 3 4 5 6 
#
# 1 0.009956 0.002408 -0.007149 0.000000 -0.001898 0.000000
# 2 0.002408 0.023520 -0.002701 0.000000 -0.001686 0.000000
# 3 -0.007149 -0.002701 0.013274 0.000000 0.002464 0.000000
# 4 0.000000 0.000000 0.000000 0.097095 0.000000 0.004206
# 5 -0.001898 -0.001686 0.002464 0.000000 0.027718 0.000000
# 6 0.000000 0.000000 0.000000 0.004206 0.000000 0.042478
#
#
# Mechanical properties :
#
#
# Convention : Reuss Voigt Hill
#
# Bulk Modulus (GPa) = 31.38141 55.96841 43.67491
# Shear Modulus (GPa) = 20.87261 30.68349 25.77805
#
# Velocity S-wave (km/s) = 3.12114 3.78423 3.46857
# Velocity P-wave (km/s) = 5.25688 6.72421 6.03531
#
# Compressibility (1/GPa) = 0.03186600
#
# Stress axis : x y z
#
# Youngs Moduli (GPa) = 100.43729 42.51619 75.33761
#
# Poissons Ratio (x) = -0.10238 0.53861
# Poissons Ratio (y) = -0.24187 0.20349
# Poissons Ratio (z) = 0.71806 0.11484
#
# Static dielectric constant tensor:
#      x y z
#    x 1.766230 0.000000 0.008540 
#    y 0.000000 1.832500 0.000000 
#    z 0.008540 0.000000 1.781460 
# 
# From -- ./inp_files/64394.got.cif
#   From: 2010.05.17/outbox.cif.g08.bks.cpg/sg11_33_cif.got.tgz:64394.got - 2010.06.03 12:22:45.
