data_PCOD9162077
_publ_section_title
;
Structure prediction by ZEFSAII (Michael W. Deem and Ramdas Pophale) SiO2 
 PCOD9162077
Probable space group: P 21/M
;
_chemical_formula_sum "Si O2"
_cell_formula_units_Z 32
_cell_length_a 19.958163
_cell_length_b 19.556916
_cell_length_c 11.969598
_cell_angle_alpha 90.000000
_cell_angle_beta 157.252951
_cell_angle_gamma 90.000000
_cell_volume 1806.481994
_symmetry_space_group_name_H-M "P 21/M"
_symmetry_group_IT_number 11
_symmetry_cell_setting 'monoclinic'
loop_
_space_group_symop_operation_xyz
x,y,z
-x,1/2+y,-z
-x,-y,-z
x,1/2-y,z
loop_
_atom_site_type_symbol
_atom_site_label
_atom_site_fract_x
_atom_site_fract_y
_atom_site_fract_z
Si Si1 0.735391 0.056457 0.804587
Si Si2 0.794982 0.831169 0.699215
Si Si3 0.963278 0.919172 0.559423
Si Si4 0.892044 0.430170 0.813853
Si Si5 0.235391 0.943542 0.804586
Si Si6 0.294981 0.168831 0.699213
Si Si7 0.463278 0.080828 0.559424
Si Si8 0.607956 0.430170 0.186147
O O1 0.793233 0.087398 0.776538
O O2 0.583804 0.096267 0.637689
O O3 0.663878 0.980591 0.670515
O O4 0.901814 0.053330 0.140512
O O5 0.813497 0.750000 0.736327
O O6 0.750000 0.848098 0.500001
O O7 0.644405 0.859200 0.548596
O O8 0.969556 0.871354 0.998766
O O9 0.855596 0.859201 0.451405
O O10 0.083804 0.903732 0.637688
O O11 0.836122 0.980591 0.329483
O O12 0.749999 0.440659 0.499999
O O13 0.000000 0.500000 0.000000
O O14 0.293231 0.912602 0.776534
O O15 0.401815 0.946669 0.140511
O O16 0.313496 0.250000 0.736324
O O17 0.469556 0.128646 0.998764
O O18 0.500000 0.500000 0.000000
#
# Coordination Sequence:
#
# PCOD9162077 Si02
#       8
#     4   4   4   4   4   4   4   4
#     4  10  20  34  57  90 115 145 189 245 290 337
#     4  11  23  40  59  83 120 159 198 240 292 349
#     4  10  20  36  57  87 118 146 192 240 297 344
#     4  12  22  36  62  90 117 149 196 247 291 343
#     4  10  20  34  57  90 115 145 189 245 290 337
#     4  11  23  40  59  83 120 159 198 240 292 349
#     4  10  20  36  57  87 118 146 192 240 297 344
#     4  12  22  36  62  90 117 149 196 247 291 343
#
# _framework density 17.713988000000001
#
# number of rings (size 3 to 8) (size 9 to 14) (size 15 to 20)
#    0.000    1.250    5.000    2.250    0.000    0.500 
#    0.000    3.750    0.000    1.500    0.000    0.000 
#    0.000    0.000    0.000    0.000    0.000    0.000 
#
# Total GULP energy -178659.064501 kJ/mol
# GULP energy per Si atom -5583.095766 kJ/mol
# Density = 1.767367 g / cm^3
# Si number density = 17.713988 Si / 1000 Ang^3
#
#
#
# Elastic Constant Matrix: (Units=GPa)
#
#
# Indices 1 2 3 4 5 6 
#
# 1 140.8356 37.3298 49.3544 0.0000 10.8017 0.0000
# 2 37.3298 81.9103 51.9478 0.0000 11.5175 0.0000
# 3 49.3544 51.9478 132.9871 0.0000 1.0079 0.0000
# 4 0.0000 0.0000 0.0000 8.0888 0.0000 -3.0606
# 5 10.8017 11.5175 1.0079 0.0000 26.1786 0.0000
# 6 0.0000 0.0000 0.0000 -3.0606 0.0000 22.1827
#
#
#
# Elastic Compliance Matrix: (Units=1/GPa)
#
#
# Indices 1 2 3 4 5 6 
#
# 1 0.008688 -0.002080 -0.002392 0.000000 -0.002578 0.000000
# 2 -0.002080 0.018076 -0.006237 0.000000 -0.006854 0.000000
# 3 -0.002392 -0.006237 0.010819 0.000000 0.003315 0.000000
# 4 0.000000 0.000000 0.000000 0.130437 0.000000 0.017996
# 5 -0.002578 -0.006854 0.003315 0.000000 0.042151 0.000000
# 6 0.000000 0.000000 0.000000 0.017996 0.000000 0.047563
#
#
# Mechanical properties :
#
#
# Convention : Reuss Voigt Hill
#
# Bulk Modulus (GPa) = 61.86616 70.33302 66.09959
# Shear Modulus (GPa) = 17.57231 25.76344 21.66787
#
# Velocity S-wave (km/s) = 3.15302 3.81781 3.50123
# Velocity P-wave (km/s) = 6.94667 7.69579 7.33081
#
# Compressibility (1/GPa) = 0.01616393
#
# Stress axis : x y z
#
# Youngs Moduli (GPa) = 115.10424 55.32329 92.43392
#
# Poissons Ratio (x) = 0.11506 0.22113
# Poissons Ratio (y) = 0.23939 0.57651
# Poissons Ratio (z) = 0.27536 0.34505
#
# Static dielectric constant tensor:
#      x y z
#    x 1.653200 0.000000 0.009510 
#    y 0.000000 1.560180 0.000000 
#    z 0.009510 0.000000 1.603830 
# 
# From -- ./inp_files/43570.got.cif
#   From: 2010.05.17/outbox.cif.g08.bks.cpg/sg11_22_cif.got.tgz:43570.got - 2010.06.03 12:22:45.
