data_PCOD9162666
_publ_section_title
;
Structure prediction by ZEFSAII (Michael W. Deem and Ramdas Pophale) SiO2 
 PCOD9162666
Probable space group: P 21/M
;
_chemical_formula_sum "Si O2"
_cell_formula_units_Z 28
_cell_length_a 13.727456
_cell_length_b 8.698585
_cell_length_c 17.804584
_cell_angle_alpha 90.000000
_cell_angle_beta 136.017683
_cell_angle_gamma 90.000000
_cell_volume 1476.396259
_symmetry_space_group_name_H-M "P 21/M"
_symmetry_group_IT_number 11
_symmetry_cell_setting 'monoclinic'
loop_
_space_group_symop_operation_xyz
x,y,z
-x,1/2+y,-z
-x,-y,-z
x,1/2-y,z
loop_
_atom_site_type_symbol
_atom_site_label
_atom_site_fract_x
_atom_site_fract_y
_atom_site_fract_z
Si Si1 0.133448 0.434760 0.193008
Si Si2 0.621833 0.566982 0.380618
Si Si3 0.150560 0.566693 0.607880
Si Si4 0.814942 0.433768 0.055192
Si Si5 0.672181 0.565876 0.835394
Si Si6 0.881821 0.933238 0.249939
Si Si7 0.206786 0.567086 0.390341
O O1 0.143914 0.250000 0.206077
O O2 0.205055 0.480209 0.154864
O O3 0.210348 0.510795 0.306659
O O4 0.969593 0.476190 0.108684
O O5 0.611473 0.750000 0.371469
O O6 0.732471 0.506461 0.380468
O O7 0.473098 0.491436 0.279780
O O8 0.682641 0.515279 0.494740
O O9 0.150499 0.750000 0.598988
O O10 0.171745 0.518860 0.705996
O O11 0.000000 0.500000 0.500000
O O12 0.808454 0.250000 0.059044
O O13 0.807305 0.510514 0.132683
O O14 0.702943 0.492800 0.933241
O O15 0.671685 0.750000 0.841676
O O16 0.867888 0.750000 0.251077
O O17 0.048351 0.968067 0.331692
O O18 0.225972 0.750000 0.405131
#
# Coordination Sequence:
#
# PCOD9162666 Si02
#       7
#     4   4   4   4   4   4   4
#     4   9  20  37  60  87 117 154 198 245 292 347
#     4  12  25  40  59  84 119 158 196 242 295 353
#     4  12  23  38  62  91 120 153 192 238 290 349
#     4  10  20  37  61  89 119 153 198 245 291 346
#     4  11  23  40  59  83 118 159 200 244 294 350
#     4  10  20  36  60  90 120 152 193 242 292 342
#     4  10  20  35  58  87 119 152 193 243 293 349
#
# _framework density 18.965098000000001
#
# number of rings (size 3 to 8) (size 9 to 14) (size 15 to 20)
#    0.000    1.429    1.429    4.714    0.000    3.429 
#    0.000    0.714    0.000    0.000    0.000    0.000 
#    0.000    0.000    0.000    0.000    0.000    0.000 
#
# Total GULP energy -156559.813129 kJ/mol
# GULP energy per Si atom -5591.421897 kJ/mol
# Density = 1.892193 g / cm^3
# Si number density = 18.965098 Si / 1000 Ang^3
#
#
#
# Elastic Constant Matrix: (Units=GPa)
#
#
# Indices 1 2 3 4 5 6 
#
# 1 19.9333 -5.1821 -2.7660 0.0000 -14.2483 0.0000
# 2 -5.1821 29.6957 8.0409 0.0000 -3.8697 0.0000
# 3 -2.7660 8.0409 93.2492 0.0000 -18.0944 0.0000
# 4 0.0000 0.0000 0.0000 35.4827 0.0000 -3.4275
# 5 -14.2483 -3.8697 -18.0944 0.0000 23.9818 0.0000
# 6 0.0000 0.0000 0.0000 -3.4275 0.0000 26.7379
#
#
#
# Elastic Compliance Matrix: (Units=1/GPa)
#
#
# Indices 1 2 3 4 5 6 
#
# 1 0.130687 0.030062 0.020258 0.000000 0.097780 0.000000
# 2 0.030062 0.041708 0.002421 0.000000 0.026418 0.000000
# 3 0.020258 0.002421 0.015848 0.000000 0.024383 0.000000
# 4 0.000000 0.000000 0.000000 0.028536 0.000000 0.003658
# 5 0.097780 0.026418 0.024383 0.000000 0.122452 0.000000
# 6 0.000000 0.000000 0.000000 0.003658 0.000000 0.037869
#
#
# Mechanical properties :
#
#
# Convention : Reuss Voigt Hill
#
# Bulk Modulus (GPa) = 3.40455 15.89597 9.65026
# Shear Modulus (GPa) = 13.53089 26.75951 20.14520
#
# Velocity S-wave (km/s) = 2.67397 3.76039 3.26271
# Velocity P-wave (km/s) = 3.36639 5.22053 4.39241
#
# Compressibility (1/GPa) = 0.29372432
#
# Stress axis : x y z
#
# Youngs Moduli (GPa) = 7.65189 23.97639 63.10139
#
# Poissons Ratio (x) = -0.72078 -1.27830
# Poissons Ratio (y) = -0.23003 -0.15279
# Poissons Ratio (z) = -0.15501 -0.05806
#
# Static dielectric constant tensor:
#      x y z
#    x 1.654120 0.000000 0.003460 
#    y 0.000000 1.625200 0.000000 
#    z 0.003460 0.000000 1.643780 
# 
# From -- ./inp_files/60139.got.cif
#   From: 2010.05.17/outbox.cif.g08.bks.cpg/sg11_31_cif.got.tgz:60139.got - 2010.06.03 12:22:45.
