data_PCOD9162732
_publ_section_title
;
Structure prediction by ZEFSAII (Michael W. Deem and Ramdas Pophale) SiO2 
 PCOD9162732
Probable space group: P 21/M
;
_chemical_formula_sum "Si O2"
_cell_formula_units_Z 28
_cell_length_a 11.665789
_cell_length_b 8.774208
_cell_length_c 15.216259
_cell_angle_alpha 90.000000
_cell_angle_beta 65.489122
_cell_angle_gamma 90.000000
_cell_volume 1417.148160
_symmetry_space_group_name_H-M "P 21/M"
_symmetry_group_IT_number 11
_symmetry_cell_setting 'monoclinic'
loop_
_space_group_symop_operation_xyz
x,y,z
-x,1/2+y,-z
-x,-y,-z
x,1/2-y,z
loop_
_atom_site_type_symbol
_atom_site_label
_atom_site_fract_x
_atom_site_fract_y
_atom_site_fract_z
Si Si1 0.332530 0.067808 0.837131
Si Si2 0.637946 0.567679 0.968104
Si Si3 0.868865 0.432999 0.793062
Si Si4 0.293642 0.068112 0.550388
Si Si5 0.976002 0.068166 0.411490
Si Si6 0.946217 0.566640 0.107215
Si Si7 0.472950 0.930946 0.642170
O O1 0.347634 0.250000 0.823098
O O2 0.199171 0.020437 0.837410
O O3 0.443860 0.986368 0.749412
O O4 0.324114 0.033168 0.943042
O O5 0.638387 0.750000 0.957098
O O6 0.735304 0.492378 0.869915
O O7 0.500000 0.500000 0.000000
O O8 0.868068 0.250000 0.785751
O O9 0.917103 0.506897 0.688313
O O10 0.969034 0.477895 0.837247
O O11 0.274738 0.250000 0.562463
O O12 0.387730 0.033960 0.438832
O O13 0.159657 0.988929 0.580741
O O14 0.372511 0.012547 0.609841
O O15 0.978101 0.250000 0.414081
O O16 0.000000 0.000000 0.500000
O O17 0.948687 0.750000 0.099859
O O18 0.000000 0.500000 0.000000
O O19 0.455712 0.750000 0.640486
#
# Coordination Sequence:
#
# PCOD9162732 Si02
#       7
#     4   4   4   4   4   4   4
#     4  10  21  37  58  87 123 162 201 248 307 367
#     4  11  24  42  62  86 122 166 211 256 306 369
#     4  11  23  41  66  95 126 163 204 257 317 374
#     4  10  21  40  62  89 126 162 204 257 310 369
#     4  12  26  44  67  93 123 164 212 262 314 373
#     4  10  20  35  59  90 123 157 197 248 304 363
#     4  10  21  36  61  93 123 160 203 252 311 370
#
# _framework density 19.757989999999999
#
# number of rings (size 3 to 8) (size 9 to 14) (size 15 to 20)
#    0.000    1.429    1.429    3.857    0.000    6.286 
#    0.000    2.857    0.000    0.000    0.000    0.000 
#    0.000    0.000    0.000    0.000    0.000    0.000 
#
# Total GULP energy -156577.644058 kJ/mol
# GULP energy per Si atom -5592.058716 kJ/mol
# Density = 1.971302 g / cm^3
# Si number density = 19.757990 Si / 1000 Ang^3
#
#
#
# Elastic Constant Matrix: (Units=GPa)
#
#
# Indices 1 2 3 4 5 6 
#
# 1 85.5788 40.5305 42.0822 0.0000 -19.4679 0.0000
# 2 40.5305 81.0412 65.8814 0.0000 -9.7401 0.0000
# 3 42.0822 65.8814 166.3028 0.0000 -20.2269 0.0000
# 4 0.0000 0.0000 0.0000 39.2859 0.0000 -2.3810
# 5 -19.4679 -9.7401 -20.2269 0.0000 27.3806 0.0000
# 6 0.0000 0.0000 0.0000 -2.3810 0.0000 29.4634
#
#
#
# Elastic Compliance Matrix: (Units=1/GPa)
#
#
# Indices 1 2 3 4 5 6 
#
# 1 0.017504 -0.007300 -0.000373 0.000000 0.009573 0.000000
# 2 -0.007300 0.021286 -0.006917 0.000000 -0.002728 0.000000
# 3 -0.000373 -0.006917 0.009357 0.000000 0.004187 0.000000
# 4 0.000000 0.000000 0.000000 0.025580 0.000000 0.002067
# 5 0.009573 -0.002728 0.004187 0.000000 0.045451 0.000000
# 6 0.000000 0.000000 0.000000 0.002067 0.000000 0.034107
#
#
# Mechanical properties :
#
#
# Convention : Reuss Voigt Hill
#
# Bulk Modulus (GPa) = 52.72620 69.99012 61.35816
# Shear Modulus (GPa) = 26.48502 31.52123 29.00312
#
# Velocity S-wave (km/s) = 3.66522 3.99854 3.83550
# Velocity P-wave (km/s) = 6.68249 7.53779 7.12299
#
# Compressibility (1/GPa) = 0.01896590
#
# Stress axis : x y z
#
# Youngs Moduli (GPa) = 57.13097 46.98034 106.87405
#
# Poissons Ratio (x) = 0.34297 0.03985
# Poissons Ratio (y) = 0.41707 0.73923
# Poissons Ratio (z) = 0.02130 0.32496
#
# Static dielectric constant tensor:
#      x y z
#    x 1.690450 0.000000 -0.002020 
#    y 0.000000 1.659590 0.000000 
#    z -0.002020 0.000000 1.696700 
# 
# From -- ./inp_files/49152.got.cif
#   From: 2010.05.17/outbox.cif.g08.bks.cpg/sg11_25_cif.got.tgz:49152.got - 2010.06.03 12:22:45.
