data_PCOD9162736
_publ_section_title
;
Structure prediction by ZEFSAII (Michael W. Deem and Ramdas Pophale) SiO2 
 PCOD9162736
Probable space group: P 21/M
;
_chemical_formula_sum "Si O2"
_cell_formula_units_Z 24
_cell_length_a 11.674507
_cell_length_b 8.725070
_cell_length_c 22.188947
_cell_angle_alpha 90.000000
_cell_angle_beta 31.058051
_cell_angle_gamma 90.000000
_cell_volume 1166.044095
_symmetry_space_group_name_H-M "P 21/M"
_symmetry_group_IT_number 11
_symmetry_cell_setting 'monoclinic'
loop_
_space_group_symop_operation_xyz
x,y,z
-x,1/2+y,-z
-x,-y,-z
x,1/2-y,z
loop_
_atom_site_type_symbol
_atom_site_label
_atom_site_fract_x
_atom_site_fract_y
_atom_site_fract_z
Si Si1 0.448813 0.433538 0.727918
Si Si2 0.454216 0.067949 0.954534
Si Si3 0.975442 0.565011 0.161992
Si Si4 0.874374 0.933577 0.466902
Si Si5 0.658597 0.932188 0.745635
Si Si6 0.253772 0.066701 0.610361
O O1 0.470758 0.250000 0.720066
O O2 0.217568 0.470015 0.799053
O O3 0.653305 0.502197 0.597500
O O4 0.475256 0.502460 0.782389
O O5 0.480549 0.250000 0.944489
O O6 0.615148 0.998733 0.831422
O O7 0.500000 0.000000 0.000000
O O8 0.206099 0.019082 0.047498
O O9 0.011073 0.750000 0.146007
O O10 0.884040 0.517441 0.269092
O O11 0.884809 0.750000 0.470226
O O12 0.855060 0.970495 0.404462
O O13 0.102316 0.009997 0.385491
O O14 0.652256 0.750000 0.749308
O O15 0.271637 0.250000 0.606143
O O16 0.500000 0.000000 0.500000
#
# Coordination Sequence:
#
# PCOD9162736 Si02
#       6
#     4   4   4   4   4   4
#     4  11  23  41  65  94 131 172 215 265 320 381
#     4  12  26  46  71  97 127 165 211 262 318 381
#     4  10  22  41  65  95 131 171 214 264 317 375
#     4  11  22  38  63  95 132 171 215 268 322 379
#     4  12  26  44  66  92 126 170 218 267 320 380
#     4  10  20  35  59  91 126 162 203 255 310 368
#
# _framework density 20.582412000000001
#
# number of rings (size 3 to 8) (size 9 to 14) (size 15 to 20)
#    0.000    1.000    1.667    5.500    0.000    4.667 
#    0.000    0.000    0.000    0.000    0.000    0.000 
#    0.000    0.000    0.000    0.000    0.000    0.000 
#
# Total GULP energy -134332.067654 kJ/mol
# GULP energy per Si atom -5597.169486 kJ/mol
# Density = 2.053557 g / cm^3
# Si number density = 20.582412 Si / 1000 Ang^3
#
#
#
# Elastic Constant Matrix: (Units=GPa)
#
#
# Indices 1 2 3 4 5 6 
#
# 1 117.5739 64.3341 33.6415 0.0000 -2.0994 0.0000
# 2 64.3341 97.1305 31.4621 0.0000 -7.3811 0.0000
# 3 33.6415 31.4621 90.2640 0.0000 -5.7107 0.0000
# 4 0.0000 0.0000 0.0000 37.7779 0.0000 -1.3581
# 5 -2.0994 -7.3811 -5.7107 0.0000 32.4798 0.0000
# 6 0.0000 0.0000 0.0000 -1.3581 0.0000 33.9017
#
#
#
# Elastic Compliance Matrix: (Units=1/GPa)
#
#
# Indices 1 2 3 4 5 6 
#
# 1 0.013780 -0.008504 -0.002263 0.000000 -0.001440 0.000000
# 2 -0.008504 0.016976 -0.002567 0.000000 0.002857 0.000000
# 3 -0.002263 -0.002567 0.012914 0.000000 0.001541 0.000000
# 4 0.000000 0.000000 0.000000 0.026509 0.000000 0.001062
# 5 -0.001440 0.002857 0.001541 0.000000 0.031616 0.000000
# 6 0.000000 0.000000 0.000000 0.001062 0.000000 0.029540
#
#
# Mechanical properties :
#
#
# Convention : Reuss Voigt Hill
#
# Bulk Modulus (GPa) = 58.81197 62.64933 60.73065
# Shear Modulus (GPa) = 30.54930 32.53391 31.54161
#
# Velocity S-wave (km/s) = 3.85677 3.98007 3.91890
# Velocity P-wave (km/s) = 6.96195 7.18510 7.07441
#
# Compressibility (1/GPa) = 0.01700334
#
# Stress axis : x y z
#
# Youngs Moduli (GPa) = 72.56853 58.90529 77.43338
#
# Poissons Ratio (x) = 0.50091 0.17523
# Poissons Ratio (y) = 0.61709 0.19879
# Poissons Ratio (z) = 0.16422 0.15122
#
# Static dielectric constant tensor:
#      x y z
#    x 1.712350 0.000000 0.037710 
#    y 0.000000 1.682350 0.000000 
#    z 0.037710 0.000000 1.724060 
# 
# From -- ./inp_files/43901.got.cif
#   From: 2010.05.17/outbox.cif.g08.bks.cpg/sg11_22_cif.got.tgz:43901.got - 2010.06.03 12:22:45.
