data_PCOD9162970
_publ_section_title
;
Structure prediction by ZEFSAII (Michael W. Deem and Ramdas Pophale) SiO2 
 PCOD9162970
Probable space group: P 21/M
;
_chemical_formula_sum "Si O2"
_cell_formula_units_Z 32
_cell_length_a 14.572905
_cell_length_b 7.505993
_cell_length_c 13.098970
_cell_angle_alpha 90.000000
_cell_angle_beta 95.428611
_cell_angle_gamma 90.000000
_cell_volume 1426.392930
_symmetry_space_group_name_H-M "P 21/M"
_symmetry_group_IT_number 11
_symmetry_cell_setting 'monoclinic'
loop_
_space_group_symop_operation_xyz
x,y,z
-x,1/2+y,-z
-x,-y,-z
x,1/2-y,z
loop_
_atom_site_type_symbol
_atom_site_label
_atom_site_fract_x
_atom_site_fract_y
_atom_site_fract_z
Si Si1 0.035158 0.963124 0.389889
Si Si2 0.598453 0.463624 0.460256
Si Si3 0.893090 0.538369 0.005480
Si Si4 0.132262 0.034583 0.766590
Si Si5 0.335871 0.540269 0.746219
Si Si6 0.757149 0.030891 0.630945
Si Si7 0.607005 0.036271 0.026742
Si Si8 0.272949 0.545589 0.146052
O O1 0.038584 0.750000 0.377204
O O2 0.138986 0.028775 0.383188
O O3 0.958900 0.029940 0.301386
O O4 0.000000 0.000000 0.500000
O O5 0.500000 0.500000 0.500000
O O6 0.608234 0.250000 0.455781
O O7 0.611052 0.533750 0.346382
O O8 0.682004 0.527474 0.540485
O O9 0.878586 0.750000 0.000511
O O10 0.865213 0.472902 0.115524
O O11 0.829662 0.456483 0.911355
O O12 0.000000 0.500000 0.000000
O O13 0.129771 0.250000 0.768049
O O14 0.226142 0.979281 0.720986
O O15 0.357950 0.750000 0.753718
O O16 0.361023 0.464204 0.859943
O O17 0.758217 0.250000 0.631641
O O18 0.728487 0.968622 0.740980
O O19 0.623049 0.250000 0.029915
O O20 0.664002 0.963792 0.936170
O O21 0.500000 0.000000 0.000000
O O22 0.303871 0.750000 0.161732
#
# Coordination Sequence:
#
# PCOD9162970 Si02
#       8
#     4   4   4   4   4   4   4   4
#     4  10  20  36  57  82 111 146 187 230 276 330
#     4  10  22  39  60  84 111 149 192 234 285 336
#     4  11  22  36  56  84 116 153 192 231 280 336
#     4  10  21  36  57  85 114 147 187 232 281 336
#     4  10  21  39  60  85 115 148 188 236 287 336
#     4   9  19  37  59  81 111 151 188 225 277 341
#     4  10  22  37  58  86 115 150 189 235 289 343
#     4  10  20  38  60  83 114 151 191 233 282 341
#
# _framework density 22.434211999999999
#
# number of rings (size 3 to 8) (size 9 to 14) (size 15 to 20)
#    0.000    2.000    1.250    1.875    1.750    5.500 
#    0.000    3.125    0.000    0.000    0.000    0.000 
#    0.000    0.000    0.000    0.000    0.000    0.000 
#
# Total GULP energy -178888.860390 kJ/mol
# GULP energy per Si atom -5590.276887 kJ/mol
# Density = 2.238315 g / cm^3
# Si number density = 22.434212 Si / 1000 Ang^3
#
#
#
# Elastic Constant Matrix: (Units=GPa)
#
#
# Indices 1 2 3 4 5 6 
#
# 1 140.4123 -11.1717 66.0148 0.0000 -14.6155 0.0000
# 2 -11.1717 62.7624 11.2264 0.0000 -2.0210 0.0000
# 3 66.0148 11.2264 162.4276 0.0000 -19.6898 0.0000
# 4 0.0000 0.0000 0.0000 8.5804 0.0000 -0.6060
# 5 -14.6155 -2.0210 -19.6898 0.0000 42.8902 0.0000
# 6 0.0000 0.0000 0.0000 -0.6060 0.0000 26.4247
#
#
#
# Elastic Compliance Matrix: (Units=1/GPa)
#
#
# Indices 1 2 3 4 5 6 
#
# 1 0.009221 0.002357 -0.003723 0.000000 0.001544 0.000000
# 2 0.002357 0.016738 -0.002035 0.000000 0.000658 0.000000
# 3 -0.003723 -0.002035 0.008096 0.000000 0.002352 0.000000
# 4 0.000000 0.000000 0.000000 0.116733 0.000000 0.002677
# 5 0.001544 0.000658 0.002352 0.000000 0.024952 0.000000
# 6 0.000000 0.000000 0.000000 0.002677 0.000000 0.037905
#
#
# Mechanical properties :
#
#
# Convention : Reuss Voigt Hill
#
# Bulk Modulus (GPa) = 36.69550 55.30458 46.00004
# Shear Modulus (GPa) = 21.78357 35.54793 28.66575
#
# Velocity S-wave (km/s) = 3.11946 3.98495 3.57847
# Velocity P-wave (km/s) = 5.41915 6.77337 6.13375
#
# Compressibility (1/GPa) = 0.02725130
#
# Stress axis : x y z
#
# Youngs Moduli (GPa) = 108.45288 59.74485 123.52452
#
# Poissons Ratio (x) = -0.14082 0.45991
# Poissons Ratio (y) = -0.25562 0.25138
# Poissons Ratio (z) = 0.40380 0.12158
#
# Static dielectric constant tensor:
#      x y z
#    x 1.769500 0.000000 -0.012310 
#    y 0.000000 1.851760 0.000000 
#    z -0.012310 0.000000 1.826980 
# 
# From -- ./inp_files/38075.got.cif
#   From: 2010.05.17/outbox.cif.g08.bks.cpg/sg11_20_cif.got.tgz:38075.got - 2010.06.03 12:22:45.
