data_PCOD9162227
_publ_section_title
;
Structure prediction by ZEFSAII (Michael W. Deem and Ramdas Pophale) SiO2 
 PCOD9162227
Probable space group: P 21/M
;
_chemical_formula_sum "Si O2"
_cell_formula_units_Z 32
_cell_length_a 28.852306
_cell_length_b 8.433691
_cell_length_c 14.793264
_cell_angle_alpha 90.000000
_cell_angle_beta 29.140538
_cell_angle_gamma 90.000000
_cell_volume 1752.869920
_symmetry_space_group_name_H-M "P 21/M"
_symmetry_group_IT_number 11
_symmetry_cell_setting 'monoclinic'
loop_
_space_group_symop_operation_xyz
x,y,z
-x,1/2+y,-z
-x,-y,-z
x,1/2-y,z
loop_
_atom_site_type_symbol
_atom_site_label
_atom_site_fract_x
_atom_site_fract_y
_atom_site_fract_z
Si Si1 0.231170 0.060813 0.852080
Si Si2 0.603744 0.442533 0.789725
Si Si3 0.918992 0.439869 0.757134
Si Si4 0.870628 0.058753 0.641113
Si Si5 0.548695 0.061985 0.203454
Si Si6 0.650878 0.437668 0.506763
Si Si7 0.396918 0.440232 0.706585
Si Si8 0.702154 0.442223 0.798299
O O1 0.226523 0.250000 0.862361
O O2 0.316051 0.007406 0.774961
O O3 0.262903 0.008923 0.698136
O O4 0.136548 0.992957 0.058964
O O5 0.600160 0.250000 0.794484
O O6 0.632746 0.497639 0.639872
O O7 0.682935 0.493475 0.728606
O O8 0.500000 0.500000 0.000000
O O9 0.924354 0.250000 0.745595
O O10 0.865526 0.494116 0.755177
O O11 0.024919 0.509403 0.570467
O O12 0.863956 0.250000 0.653616
O O13 0.790270 0.998464 0.708497
O O14 0.532213 0.250000 0.234839
O O15 0.447400 0.977400 0.377560
O O16 0.614410 0.012196 0.174927
O O17 0.605605 0.019190 0.016600
O O18 0.663925 0.250000 0.488265
O O19 0.500000 0.500000 0.500000
O O20 0.397085 0.250000 0.710026
O O21 0.709665 0.250000 0.784377
#
# Coordination Sequence:
#
# PCOD9162227 Si02
#       8
#     4   4   4   4   4   4   4   4
#     4  11  23  37  54  75 104 146 185 221 268 325
#     4  10  20  35  54  78 108 143 184 228 274 321
#     4  10  20  35  57  84 113 141 175 222 269 322
#     4   9  18  35  58  83 110 143 178 216 268 327
#     4  11  20  32  51  74 105 143 180 218 263 319
#     4  11  22  34  51  75 106 143 182 225 269 315
#     4  11  22  33  47  70 103 140 178 217 259 312
#     4   9  18  33  55  79 106 141 179 221 270 325
#
# _framework density 18.255775
#
# number of rings (size 3 to 8) (size 9 to 14) (size 15 to 20)
#    0.000    1.750    2.500    2.625    0.000    3.500 
#    0.000    1.875    0.000    0.750    0.000    0.000 
#    0.000    0.000    0.000    0.000    0.000    0.000 
#
# Total GULP energy -178573.009026 kJ/mol
# GULP energy per Si atom -5580.406532 kJ/mol
# Density = 1.821422 g / cm^3
# Si number density = 18.255775 Si / 1000 Ang^3
#
#
#
# Elastic Constant Matrix: (Units=GPa)
#
#
# Indices 1 2 3 4 5 6 
#
# 1 92.3820 2.8063 40.0204 0.0000 14.3299 0.0000
# 2 2.8063 8.2870 -0.2386 0.0000 3.1131 0.0000
# 3 40.0204 -0.2386 82.3493 0.0000 14.0342 0.0000
# 4 0.0000 0.0000 0.0000 25.8138 0.0000 0.5524
# 5 14.3299 3.1131 14.0342 0.0000 31.0719 0.0000
# 6 0.0000 0.0000 0.0000 0.5524 0.0000 16.5023
#
#
#
# Elastic Compliance Matrix: (Units=1/GPa)
#
#
# Indices 1 2 3 4 5 6 
#
# 1 0.014202 -0.003750 -0.006349 0.000000 -0.003306 0.000000
# 2 -0.003750 0.126942 0.004402 0.000000 -0.012977 0.000000
# 3 -0.006349 0.004402 0.016054 0.000000 -0.004764 0.000000
# 4 0.000000 0.000000 0.000000 0.038767 0.000000 -0.001298
# 5 -0.003306 -0.012977 -0.004764 0.000000 0.037160 0.000000
# 6 0.000000 0.000000 0.000000 -0.001298 0.000000 0.060641
#
#
# Mechanical properties :
#
#
# Convention : Reuss Voigt Hill
#
# Bulk Modulus (GPa) = 6.85859 29.79940 18.32899
# Shear Modulus (GPa) = 14.13380 24.03961 19.08671
#
# Velocity S-wave (km/s) = 2.78548 3.63274 3.23695
# Velocity P-wave (km/s) = 3.75637 5.82704 4.90228
#
# Compressibility (1/GPa) = 0.14580261
#
# Stress axis : x y z
#
# Youngs Moduli (GPa) = 70.41284 7.87760 62.29105
#
# Poissons Ratio (x) = 0.02954 0.39551
# Poissons Ratio (y) = 0.26406 -0.27419
# Poissons Ratio (z) = 0.44707 -0.03468
#
# Static dielectric constant tensor:
#      x y z
#    x 1.661120 0.000000 0.027650 
#    y 0.000000 1.616770 0.000000 
#    z 0.027650 0.000000 1.619440 
# 
# From -- ./inp_files/56472.got.cif
#   From: 2010.05.17/outbox.cif.g08.bks.cpg/sg11_29_cif.got.tgz:56472.got - 2010.06.03 12:22:45.
