data_PCOD9162333
_publ_section_title
;
Structure prediction by ZEFSAII (Michael W. Deem and Ramdas Pophale) SiO2 
 PCOD9162333
Probable space group: P 21/M
;
_chemical_formula_sum "Si O2"
_cell_formula_units_Z 28
_cell_length_a 13.653516
_cell_length_b 9.462039
_cell_length_c 12.803045
_cell_angle_alpha 90.000000
_cell_angle_beta 131.264437
_cell_angle_gamma 90.000000
_cell_volume 1243.288262
_symmetry_space_group_name_H-M "P 21/M"
_symmetry_group_IT_number 11
_symmetry_cell_setting 'monoclinic'
loop_
_space_group_symop_operation_xyz
x,y,z
-x,1/2+y,-z
-x,-y,-z
x,1/2-y,z
loop_
_atom_site_type_symbol
_atom_site_label
_atom_site_fract_x
_atom_site_fract_y
_atom_site_fract_z
Si Si1 0.523191 0.413568 0.185679
Si Si2 0.242270 0.411301 0.918940
Si Si3 0.457220 0.913016 0.569992
Si Si4 0.848107 0.084609 0.577286
Si Si5 0.890983 0.906559 0.800592
Si Si6 0.216070 0.082030 0.666626
Si Si7 0.817764 0.093960 0.924079
O O1 0.573803 0.250000 0.223634
O O2 0.399947 0.415224 0.023153
O O3 0.476828 0.447087 0.271621
O O4 0.637066 0.521112 0.238934
O O5 0.207759 0.250000 0.926986
O O6 0.214441 0.522365 0.989137
O O7 0.179796 0.439985 0.762356
O O8 0.483497 0.750000 0.565298
O O9 0.303692 0.926779 0.491886
O O10 0.500000 0.000000 0.500000
O O11 0.882125 0.250000 0.595538
O O12 0.919407 0.999982 0.718826
O O13 0.859678 0.007019 0.474293
O O14 0.841453 0.750000 0.737997
O O15 0.795824 0.992097 0.810365
O O16 0.025907 0.888416 0.957019
O O17 0.210842 0.250000 0.641824
O O18 0.759276 0.250000 0.868876
#
# Coordination Sequence:
#
# PCOD9162333 Si02
#       7
#     4   4   4   4   4   4   4
#     4   9  19  35  52  75 109 149 187 225 273 323
#     4  10  21  36  56  82 113 147 188 232 275 324
#     4   9  19  32  47  73 108 140 177 221 264 318
#     4  10  21  37  57  80 108 145 186 226 275 332
#     4  10  21  39  61  83 111 144 180 226 279 332
#     4  10  20  35  55  82 112 147 189 229 273 328
#     4  10  22  38  58  86 113 141 182 227 275 332
#
# _framework density 22.520924000000001
#
# number of rings (size 3 to 8) (size 9 to 14) (size 15 to 20)
#    0.000    2.286    0.000    3.000    2.000    6.286 
#    0.000    0.714    0.000    0.000    0.000    0.000 
#    0.000    0.000    0.000    0.000    0.000    0.000 
#
# Total GULP energy -156392.890658 kJ/mol
# GULP energy per Si atom -5585.460381 kJ/mol
# Density = 2.246967 g / cm^3
# Si number density = 22.520924 Si / 1000 Ang^3
#
#
#
# Elastic Constant Matrix: (Units=GPa)
#
#
# Indices 1 2 3 4 5 6 
#
# 1 48.9156 40.5044 6.1487 0.0000 -20.9029 0.0000
# 2 40.5044 164.8335 51.2974 0.0000 -40.7274 0.0000
# 3 6.1487 51.2974 96.5462 0.0000 -21.5252 0.0000
# 4 0.0000 0.0000 0.0000 30.1754 0.0000 -8.8829
# 5 -20.9029 -40.7274 -21.5252 0.0000 39.7522 0.0000
# 6 0.0000 0.0000 0.0000 -8.8829 0.0000 25.7582
#
#
#
# Elastic Compliance Matrix: (Units=1/GPa)
#
#
# Indices 1 2 3 4 5 6 
#
# 1 0.029624 -0.005470 0.003688 0.000000 0.011971 0.000000
# 2 -0.005470 0.009857 -0.003729 0.000000 0.005204 0.000000
# 3 0.003688 -0.003729 0.013289 0.000000 0.005315 0.000000
# 4 0.000000 0.000000 0.000000 0.036884 0.000000 0.012720
# 5 0.011971 0.005204 0.005315 0.000000 0.039660 0.000000
# 6 0.000000 0.000000 0.000000 0.012720 0.000000 0.043209
#
#
# Mechanical properties :
#
#
# Convention : Reuss Voigt Hill
#
# Bulk Modulus (GPa) = 23.95197 56.24405 40.09801
# Shear Modulus (GPa) = 25.32162 33.29345 29.30753
#
# Velocity S-wave (km/s) = 3.35678 3.84908 3.61133
# Velocity P-wave (km/s) = 5.06779 6.69195 5.93569
#
# Compressibility (1/GPa) = 0.04175022
#
# Stress axis : x y z
#
# Youngs Moduli (GPa) = 33.75609 101.45181 75.25010
#
# Poissons Ratio (x) = 0.55491 -0.27755
# Poissons Ratio (y) = 0.18463 0.28059
# Poissons Ratio (z) = -0.12451 0.37829
#
# Static dielectric constant tensor:
#      x y z
#    x 1.872790 0.000000 0.068990 
#    y 0.000000 1.805880 0.000000 
#    z 0.068990 0.000000 1.879950 
# 
# From -- ./inp_files/37861.got.cif
#   From: 2010.05.17/outbox.cif.g08.bks.cpg/sg11_19_cif.got.tgz:37861.got - 2010.06.03 12:22:45.
