data_PCOD9162287
_publ_section_title
;
Structure prediction by ZEFSAII (Michael W. Deem and Ramdas Pophale) SiO2 
 PCOD9162287
Probable space group: P 21/M
;
_chemical_formula_sum "Si O2"
_cell_formula_units_Z 28
_cell_length_a 14.111351
_cell_length_b 8.373720
_cell_length_c 12.732044
_cell_angle_alpha 90.000000
_cell_angle_beta 124.750713
_cell_angle_gamma 90.000000
_cell_volume 1236.137131
_symmetry_space_group_name_H-M "P 21/M"
_symmetry_group_IT_number 11
_symmetry_cell_setting 'monoclinic'
loop_
_space_group_symop_operation_xyz
x,y,z
-x,1/2+y,-z
-x,-y,-z
x,1/2-y,z
loop_
_atom_site_type_symbol
_atom_site_label
_atom_site_fract_x
_atom_site_fract_y
_atom_site_fract_z
Si Si1 0.044478 0.425729 0.133406
Si Si2 0.308405 0.939545 0.511903
Si Si3 0.197740 0.557490 0.783935
Si Si4 0.417380 0.555624 0.792524
Si Si5 0.949335 0.944323 0.632609
Si Si6 0.319884 0.427820 0.291178
Si Si7 0.330793 0.444119 0.060964
O O1 0.992115 0.250000 0.108828
O O2 0.026342 0.506914 0.233206
O O3 0.181625 0.413182 0.211042
O O4 0.000000 0.500000 0.000000
O O5 0.302051 0.750000 0.505737
O O6 0.396487 0.990102 0.658109
O O7 0.180604 0.997463 0.468139
O O8 0.347415 0.994809 0.420855
O O9 0.197435 0.750000 0.779297
O O10 0.306782 0.495836 0.786485
O O11 0.072037 0.507375 0.658638
O O12 0.229349 0.508384 0.923258
O O13 0.415839 0.750000 0.796709
O O14 0.544946 0.506190 0.907573
O O15 0.942999 0.750000 0.627409
O O16 0.373117 0.250000 0.322402
O O17 0.334694 0.500964 0.184688
O O18 0.321631 0.250000 0.057861
#
# Coordination Sequence:
#
# PCOD9162287 Si02
#       7
#     4   4   4   4   4   4   4
#     4   9  16  26  41  65  96 127 162 203 251 303
#     4  10  20  35  55  79 107 141 182 220 260 318
#     4  10  20  36  57  80 109 142 177 219 268 318
#     4   9  20  37  55  78 110 144 176 221 272 309
#     4   9  19  34  51  74 106 140 172 216 270 315
#     4   9  19  34  51  74 106 140 172 216 270 315
#     4  10  20  36  57  80 109 142 177 219 268 318
#
# _framework density 22.651208
#
# number of rings (size 3 to 8) (size 9 to 14) (size 15 to 20)
#    0.000    2.571    0.000    2.571    0.000    4.571 
#    0.000    2.857    0.000    0.000    0.000    0.000 
#    0.000    0.000    0.000    0.000    0.000    0.000 
#
# Total GULP energy -156029.704144 kJ/mol
# GULP energy per Si atom -5572.489434 kJ/mol
# Density = 2.259965 g / cm^3
# Si number density = 22.651208 Si / 1000 Ang^3
#
#
#
# Elastic Constant Matrix: (Units=GPa)
#
#
# Indices 1 2 3 4 5 6 
#
# 1 87.6797 -3.5484 10.3205 0.0000 7.6248 0.0000
# 2 -3.5484 9.6379 -0.0729 0.0000 2.9627 0.0000
# 3 10.3205 -0.0729 72.7907 0.0000 14.6874 0.0000
# 4 0.0000 0.0000 0.0000 12.3902 0.0000 -4.1825
# 5 7.6248 2.9627 14.6874 0.0000 36.7448 0.0000
# 6 0.0000 0.0000 0.0000 -4.1825 0.0000 13.6174
#
#
#
# Elastic Compliance Matrix: (Units=1/GPa)
#
#
# Indices 1 2 3 4 5 6 
#
# 1 0.011965 0.005139 -0.001204 0.000000 -0.002416 0.000000
# 2 0.005139 0.108870 0.001487 0.000000 -0.010439 0.000000
# 3 -0.001204 0.001487 0.015102 0.000000 -0.005907 0.000000
# 4 0.000000 0.000000 0.000000 0.090045 0.000000 0.027657
# 5 -0.002416 -0.010439 -0.005907 0.000000 0.030919 0.000000
# 6 0.000000 0.000000 0.000000 0.027657 0.000000 0.081930
#
#
# Mechanical properties :
#
#
# Convention : Reuss Voigt Hill
#
# Bulk Modulus (GPa) = 6.81292 20.38964 13.60128
# Shear Modulus (GPa) = 13.26565 23.44443 18.35504
#
# Velocity S-wave (km/s) = 2.42264 3.22066 2.84972
# Velocity P-wave (km/s) = 3.29240 4.78031 4.10434
#
# Compressibility (1/GPa) = 0.14677990
#
# Stress axis : x y z
#
# Youngs Moduli (GPa) = 83.57777 9.18529 66.21650
#
# Poissons Ratio (x) = -0.04720 0.07971
# Poissons Ratio (y) = -0.42949 -0.09844
# Poissons Ratio (z) = 0.10061 -0.01366
#
# Static dielectric constant tensor:
#      x y z
#    x 1.989550 0.000000 -0.104420 
#    y 0.000000 1.623700 0.000000 
#    z -0.104420 0.000000 1.905460 
# 
# From -- ./inp_files/37658.got.cif
#   From: 2010.05.17/outbox.cif.g08.bks.cpg/sg11_19_cif.got.tgz:37658.got - 2010.06.03 12:22:45.
