data_PCOD9162788
_publ_section_title
;
Structure prediction by ZEFSAII (Michael W. Deem and Ramdas Pophale) SiO2 
 PCOD9162788
Probable space group: P 21/M
;
_chemical_formula_sum "Si O2"
_cell_formula_units_Z 30
_cell_length_a 12.138694
_cell_length_b 13.526490
_cell_length_c 11.267056
_cell_angle_alpha 90.000000
_cell_angle_beta 129.675417
_cell_angle_gamma 90.000000
_cell_volume 1423.882310
_symmetry_space_group_name_H-M "P 21/M"
_symmetry_group_IT_number 11
_symmetry_cell_setting 'monoclinic'
loop_
_space_group_symop_operation_xyz
x,y,z
-x,1/2+y,-z
-x,-y,-z
x,1/2-y,z
loop_
_atom_site_type_symbol
_atom_site_label
_atom_site_fract_x
_atom_site_fract_y
_atom_site_fract_z
Si Si1 0.006386 0.750000 0.921158
Si Si2 0.473749 0.867675 0.806113
Si Si3 0.796946 0.365176 0.219031
Si Si4 0.457528 0.635958 0.521303
Si Si5 0.356116 0.543534 0.101332
Si Si6 0.372534 0.130508 0.582713
Si Si7 0.169830 0.584710 0.190361
Si Si8 0.927206 0.930267 0.687875
O O1 0.947622 0.836024 0.788258
O O2 0.072362 0.663845 0.056322
O O3 0.503657 0.750000 0.839464
O O4 0.325494 0.888320 0.770505
O O5 0.457023 0.896327 0.656279
O O6 0.599046 0.941798 0.932524
O O7 0.836705 0.250000 0.261201
O O8 0.937433 0.431441 0.306607
O O9 0.723522 0.381268 0.040472
O O10 0.500637 0.750000 0.559714
O O11 0.573209 0.592705 0.509998
O O12 0.303781 0.631274 0.353734
O O13 0.502126 0.596931 0.243094
O O14 0.251384 0.524609 0.140902
O O15 0.365103 0.250000 0.580433
O O16 0.216694 0.084607 0.486908
O O17 0.086505 0.521068 0.230562
#
# Coordination Sequence:
#
# PCOD9162788 Si02
#       8
#     2   4   4   4   4   4   4   4
#     4  12  22  38  56  88 124 152 184 232 294 358
#     4  10  22  38  58  85 115 156 195 239 280 335
#     4  11  22  40  61  81 115 158 198 233 281 343
#     4   9  18  37  59  84 115 149 189 230 285 345
#     4  11  21  38  61  89 115 147 195 240 289 344
#     4  10  20  35  62  91 118 146 185 244 294 338
#     4  11  22  37  62  89 118 151 187 236 296 349
#     4  12  22  38  58  90 118 152 193 234 288 344
#
# _framework density 21.069157000000001
#
# number of rings (size 3 to 8) (size 9 to 14) (size 15 to 20)
#    0.000    1.333    3.333    2.800    0.933    2.133 
#    1.200    2.667    0.000    0.000    0.000    0.000 
#    0.000    0.000    0.000    0.000    0.000    0.000 
#
# Total GULP energy -167006.488895 kJ/mol
# GULP energy per Si atom -5566.882963 kJ/mol
# Density = 2.102120 g / cm^3
# Si number density = 21.069157 Si / 1000 Ang^3
#
#
#
# Elastic Constant Matrix: (Units=GPa)
#
#
# Indices 1 2 3 4 5 6 
#
# 1 91.5865 26.3285 -18.8478 0.0000 5.8870 0.0000
# 2 26.3285 67.7839 -17.9672 0.0000 6.6102 0.0000
# 3 -18.8478 -17.9672 32.5298 0.0000 8.8142 0.0000
# 4 0.0000 0.0000 0.0000 23.1405 0.0000 -2.8064
# 5 5.8870 6.6102 8.8142 0.0000 19.8706 0.0000
# 6 0.0000 0.0000 0.0000 -2.8064 0.0000 16.9140
#
#
#
# Elastic Compliance Matrix: (Units=1/GPa)
#
#
# Indices 1 2 3 4 5 6 
#
# 1 0.013841 -0.002393 0.008631 0.000000 -0.007133 0.000000
# 2 -0.002393 0.020285 0.013019 0.000000 -0.011814 0.000000
# 3 0.008631 0.013019 0.050919 0.000000 -0.029474 0.000000
# 4 0.000000 0.000000 0.000000 0.044102 0.000000 0.007317
# 5 -0.007133 -0.011814 -0.029474 0.000000 0.069443 0.000000
# 6 0.000000 0.000000 0.000000 0.007317 0.000000 0.060337
#
#
# Mechanical properties :
#
#
# Convention : Reuss Voigt Hill
#
# Bulk Modulus (GPa) = 8.09337 18.99192 13.54265
# Shear Modulus (GPa) = 19.11320 25.47746 22.29533
#
# Velocity S-wave (km/s) = 3.01519 3.48117 3.25652
# Velocity P-wave (km/s) = 3.99643 5.01914 4.53669
#
# Compressibility (1/GPa) = 0.12355791
#
# Stress axis : x y z
#
# Youngs Moduli (GPa) = 72.24854 49.29721 19.63921
#
# Poissons Ratio (x) = 0.11796 -0.16950
# Poissons Ratio (y) = 0.17288 -0.25568
# Poissons Ratio (z) = -0.62355 -0.64179
#
# Static dielectric constant tensor:
#      x y z
#    x 1.791360 0.000000 0.005660 
#    y 0.000000 1.781630 0.000000 
#    z 0.005660 0.000000 1.755580 
# 
# From -- ./inp_files/35710.got.cif
#   From: 2010.05.17/outbox.cif.g08.bks.cpg/sg11_18_cif.got.tgz:35710.got - 2010.06.03 12:22:45.
