data_PCOD9162039
_publ_section_title
;
Structure prediction by ZEFSAII (Michael W. Deem and Ramdas Pophale) SiO2 
 PCOD9162039
Probable space group: P 21/M
;
_chemical_formula_sum "Si O2"
_cell_formula_units_Z 28
_cell_length_a 16.531743
_cell_length_b 7.704462
_cell_length_c 21.879978
_cell_angle_alpha 90.000000
_cell_angle_beta 152.190778
_cell_angle_gamma 90.000000
_cell_volume 1300.129161
_symmetry_space_group_name_H-M "P 21/M"
_symmetry_group_IT_number 11
_symmetry_cell_setting 'monoclinic'
loop_
_space_group_symop_operation_xyz
x,y,z
-x,1/2+y,-z
-x,-y,-z
x,1/2-y,z
loop_
_atom_site_type_symbol
_atom_site_label
_atom_site_fract_x
_atom_site_fract_y
_atom_site_fract_z
Si Si1 0.437617 0.960671 0.548487
Si Si2 0.061441 0.041895 0.609318
Si Si3 0.214601 0.951674 0.285464
Si Si4 0.298030 0.539292 0.585871
Si Si5 0.094902 0.942913 0.001137
Si Si6 0.446640 0.459468 0.895382
Si Si7 0.400744 0.953440 0.125321
O O1 0.448642 0.750000 0.553003
O O2 0.292775 0.013776 0.402104
O O3 0.385489 0.013831 0.581072
O O4 0.622243 0.032510 0.651153
O O5 0.070754 0.250000 0.621386
O O6 0.251763 0.973627 0.752088
O O7 0.901242 0.981905 0.543942
O O8 0.000000 0.000000 0.500000
O O9 0.164597 0.750000 0.257557
O O10 0.053826 0.051436 0.149757
O O11 0.302411 0.750000 0.592295
O O12 0.412159 0.468665 0.717700
O O13 0.154379 0.750000 0.056278
O O14 0.260366 0.032703 0.079049
O O15 0.000000 0.000000 0.000000
O O16 0.443571 0.250000 0.887261
O O17 0.574610 0.524790 0.926863
O O18 0.500000 0.500000 0.000000
O O19 0.353871 0.750000 0.087492
#
# Coordination Sequence:
#
# PCOD9162039 Si02
#       7
#     4   4   4   4   4   4   4
#     4   9  19  35  54  79 112 146 184 232 281 335
#     4  10  20  36  59  84 112 145 184 231 280 336
#     4  10  20  35  55  79 110 147 188 231 282 336
#     4  10  20  34  57  86 110 141 188 234 280 335
#     4  11  23  38  57  81 113 150 191 235 284 343
#     4  10  22  40  60  85 119 155 193 238 290 346
#     4  10  22  39  57  81 114 151 189 236 288 343
#
# _framework density 21.53632
#
# number of rings (size 3 to 8) (size 9 to 14) (size 15 to 20)
#    0.000    2.000    1.429    1.714    0.000    6.857 
#    0.000    1.429    0.000    0.000    0.000    0.000 
#    0.000    0.000    0.000    0.000    0.000    0.000 
#
# Total GULP energy -156287.652544 kJ/mol
# GULP energy per Si atom -5581.701877 kJ/mol
# Density = 2.148730 g / cm^3
# Si number density = 21.536320 Si / 1000 Ang^3
#
#
#
# Elastic Constant Matrix: (Units=GPa)
#
#
# Indices 1 2 3 4 5 6 
#
# 1 157.1968 4.5363 43.7772 0.0000 -4.1307 0.0000
# 2 4.5363 32.0630 -5.1537 0.0000 2.5830 0.0000
# 3 43.7772 -5.1537 98.1282 0.0000 4.8524 0.0000
# 4 0.0000 0.0000 0.0000 21.2699 0.0000 -5.6371
# 5 -4.1307 2.5830 4.8524 0.0000 21.9912 0.0000
# 6 0.0000 0.0000 0.0000 -5.6371 0.0000 17.9320
#
#
#
# Elastic Compliance Matrix: (Units=1/GPa)
#
#
# Indices 1 2 3 4 5 6 
#
# 1 0.007464 -0.001819 -0.003544 0.000000 0.002398 0.000000
# 2 -0.001819 0.032268 0.002740 0.000000 -0.004736 0.000000
# 3 -0.003544 0.002740 0.012096 0.000000 -0.003657 0.000000
# 4 0.000000 0.000000 0.000000 0.051288 0.000000 0.016123
# 5 0.002398 -0.004736 -0.003657 0.000000 0.047286 0.000000
# 6 0.000000 0.000000 0.000000 0.016123 0.000000 0.060834
#
#
# Mechanical properties :
#
#
# Convention : Reuss Voigt Hill
#
# Bulk Modulus (GPa) = 21.46675 41.52307 31.49491
# Shear Modulus (GPa) = 21.55087 28.52051 25.03569
#
# Velocity S-wave (km/s) = 3.16678 3.64304 3.41323
# Velocity P-wave (km/s) = 4.83328 6.08424 5.49448
#
# Compressibility (1/GPa) = 0.04658367
#
# Stress axis : x y z
#
# Youngs Moduli (GPa) = 133.97890 30.99049 82.66861
#
# Poissons Ratio (x) = 0.05636 0.29297
# Poissons Ratio (y) = 0.24368 -0.22654
# Poissons Ratio (z) = 0.47480 -0.08492
#
# Static dielectric constant tensor:
#      x y z
#    x 1.813030 0.000000 0.025690 
#    y 0.000000 1.372760 0.000000 
#    z 0.025690 0.000000 1.751870 
# 
# From -- ./inp_files/65465.got.cif
#   From: 2010.05.17/outbox.cif.g08.bks.cpg/sg11_33_cif.got.tgz:65465.got - 2010.06.03 12:22:45.
