data_PCOD9162670
_publ_section_title
;
Structure prediction by ZEFSAII (Michael W. Deem and Ramdas Pophale) SiO2 
 PCOD9162670
Probable space group: P 21/M
;
_chemical_formula_sum "Si O2"
_cell_formula_units_Z 32
_cell_length_a 10.076804
_cell_length_b 14.476604
_cell_length_c 15.584298
_cell_angle_alpha 90.000000
_cell_angle_beta 145.280005
_cell_angle_gamma 90.000000
_cell_volume 1294.854919
_symmetry_space_group_name_H-M "P 21/M"
_symmetry_group_IT_number 11
_symmetry_cell_setting 'monoclinic'
loop_
_space_group_symop_operation_xyz
x,y,z
-x,1/2+y,-z
-x,-y,-z
x,1/2-y,z
loop_
_atom_site_type_symbol
_atom_site_label
_atom_site_fract_x
_atom_site_fract_y
_atom_site_fract_z
Si Si1 0.879026 0.045480 0.018525
Si Si2 0.458433 0.360390 0.852977
Si Si3 0.066440 0.860897 0.401511
Si Si4 0.685000 0.110018 0.645492
Si Si5 0.411756 0.858004 0.725808
Si Si6 0.230959 0.861410 0.814119
Si Si7 0.208369 0.405546 0.323518
Si Si8 0.122765 0.350684 0.949604
O O1 0.624470 0.088204 0.873293
O O2 0.042455 0.120202 0.154597
O O3 0.847882 0.956551 0.066308
O O4 0.000000 0.000000 0.000000
O O5 0.462979 0.250000 0.840208
O O6 0.192964 0.393483 0.715277
O O7 0.581753 0.377134 0.010845
O O8 0.053427 0.750000 0.403043
O O9 0.151448 0.875110 0.350305
O O10 0.265138 0.899888 0.570585
O O11 0.431211 0.144815 0.482824
O O12 0.841325 0.152192 0.804802
O O13 0.678597 0.999813 0.653442
O O14 0.349678 0.750000 0.692422
O O15 0.333357 0.891495 0.777567
O O16 0.692032 0.857008 0.874071
O O17 0.188683 0.750000 0.790630
O O18 0.985263 0.909141 0.704945
O O19 0.188490 0.250000 0.943232
#
# Coordination Sequence:
#
# PCOD9162670 Si02
#       8
#     4   4   4   4   4   4   4   4
#     4  10  22  39  61  86 122 161 198 247 305 357
#     4   9  19  38  61  88 117 154 203 247 300 364
#     4  10  20  35  58  88 118 149 194 253 305 357
#     4  10  20  37  58  80 116 155 194 247 294 347
#     4   9  19  35  55  86 120 147 188 248 302 350
#     4   9  17  34  58  78 107 147 185 232 285 347
#     4   9  21  38  55  82 116 151 201 245 285 357
#     4  10  21  38  59  85 115 156 203 245 297 358
#
# _framework density 24.713191999999999
#
# number of rings (size 3 to 8) (size 9 to 14) (size 15 to 20)
#    0.000    2.500    0.000    1.125    1.750    4.500 
#    6.750    5.000    0.000    0.000    0.000    0.000 
#    0.000    0.000    0.000    0.000    0.000    0.000 
#
# Total GULP energy -178142.977138 kJ/mol
# GULP energy per Si atom -5566.968036 kJ/mol
# Density = 2.465694 g / cm^3
# Si number density = 24.713192 Si / 1000 Ang^3
#
#
#
# Elastic Constant Matrix: (Units=GPa)
#
#
# Indices 1 2 3 4 5 6 
#
# 1 121.1560 6.2856 59.2013 0.0000 15.0077 0.0000
# 2 6.2856 79.0253 11.8783 0.0000 7.6775 0.0000
# 3 59.2013 11.8783 192.0210 0.0000 32.8884 0.0000
# 4 0.0000 0.0000 0.0000 21.6951 0.0000 4.3679
# 5 15.0077 7.6775 32.8884 0.0000 29.2891 0.0000
# 6 0.0000 0.0000 0.0000 4.3679 0.0000 23.4666
#
#
#
# Elastic Compliance Matrix: (Units=1/GPa)
#
#
# Indices 1 2 3 4 5 6 
#
# 1 0.009816 -0.000187 -0.002676 0.000000 -0.001975 0.000000
# 2 -0.000187 0.013000 -0.000222 0.000000 -0.003063 0.000000
# 3 -0.002676 -0.000222 0.007183 0.000000 -0.006636 0.000000
# 4 0.000000 0.000000 0.000000 0.047888 0.000000 -0.008913
# 5 -0.001975 -0.003063 -0.006636 0.000000 0.043409 0.000000
# 6 0.000000 0.000000 0.000000 -0.008913 0.000000 0.044273
#
#
# Mechanical properties :
#
#
# Convention : Reuss Voigt Hill
#
# Bulk Modulus (GPa) = 41.96548 60.77029 51.36789
# Shear Modulus (GPa) = 27.82682 35.87929 31.85306
#
# Velocity S-wave (km/s) = 3.35922 3.81442 3.59403
# Velocity P-wave (km/s) = 5.66248 6.63651 6.16875
#
# Compressibility (1/GPa) = 0.02382911
#
# Stress axis : x y z
#
# Youngs Moduli (GPa) = 101.87437 76.92339 139.21129
#
# Poissons Ratio (x) = 0.01435 0.37259
# Poissons Ratio (y) = 0.01900 0.03092
# Poissons Ratio (z) = 0.27266 0.01708
#
# Static dielectric constant tensor:
#      x y z
#    x 1.977760 0.000000 -0.014050 
#    y 0.000000 2.069040 0.000000 
#    z -0.014050 0.000000 2.078500 
# 
# From -- ./inp_files/59512.got.cif
#   From: 2010.05.17/outbox.cif.g08.bks.cpg/sg11_30_cif.got.tgz:59512.got - 2010.06.03 12:22:45.
