data_PCOD9162800
_publ_section_title
;
Structure prediction by ZEFSAII (Michael W. Deem and Ramdas Pophale) SiO2 
 PCOD9162800
Probable space group: P 21/M
;
_chemical_formula_sum "Si O2"
_cell_formula_units_Z 28
_cell_length_a 15.072951
_cell_length_b 18.537169
_cell_length_c 9.008898
_cell_angle_alpha 90.000000
_cell_angle_beta 144.833026
_cell_angle_gamma 90.000000
_cell_volume 1449.795009
_symmetry_space_group_name_H-M "P 21/M"
_symmetry_group_IT_number 11
_symmetry_cell_setting 'monoclinic'
loop_
_space_group_symop_operation_xyz
x,y,z
-x,1/2+y,-z
-x,-y,-z
x,1/2-y,z
loop_
_atom_site_type_symbol
_atom_site_label
_atom_site_fract_x
_atom_site_fract_y
_atom_site_fract_z
Si Si1 0.447596 0.539248 0.164280
Si Si2 0.269830 0.091378 0.061648
Si Si3 0.722576 0.030384 0.371967
Si Si4 0.890589 0.333824 0.051423
Si Si5 0.469746 0.666724 0.417638
Si Si6 0.998994 0.579457 0.071243
Si Si7 0.929467 0.571918 0.479740
O O1 0.594635 0.492023 0.315943
O O2 0.492699 0.609991 0.315816
O O3 0.341243 0.487066 0.119359
O O4 0.359476 0.557730 0.890338
O O5 0.167739 0.112086 0.779350
O O6 0.154348 0.087399 0.042129
O O7 0.409785 0.143825 0.291460
O O8 0.852607 0.081532 0.617388
O O9 0.811382 0.958157 0.440913
O O10 0.923466 0.250000 0.122194
O O11 0.943394 0.380814 0.264839
O O12 0.707823 0.342200 0.776682
O O13 0.979450 0.363345 0.029503
O O14 0.492386 0.750000 0.405661
O O15 0.000000 0.500000 0.000000
O O16 0.000000 0.500000 0.500000
#
# Coordination Sequence:
#
# PCOD9162800 Si02
#       7
#     4   4   4   4   4   4   4
#     4  10  21  38  61  95 123 161 205 262 306 366
#     4  11  23  37  66  92 124 158 209 261 306 370
#     4  10  20  35  64  94 123 155 211 255 312 366
#     4  11  25  42  62  89 129 168 208 257 321 378
#     4  11  24  41  59  85 125 171 205 247 311 377
#     4  12  20  36  64  93 122 161 207 260 310 368
#     4  11  20  40  66  97 121 160 210 262 314 371
#
# _framework density 19.313075000000001
#
# number of rings (size 3 to 8) (size 9 to 14) (size 15 to 20)
#    0.000    1.143    2.857    4.714    0.000    1.143 
#    0.000    0.714    0.000    5.143    0.000    0.000 
#    0.000    0.000    0.000    0.000    0.000    0.000 
#
# Total GULP energy -156488.086450 kJ/mol
# GULP energy per Si atom -5588.860230 kJ/mol
# Density = 1.926912 g / cm^3
# Si number density = 19.313075 Si / 1000 Ang^3
#
#
#
# Elastic Constant Matrix: (Units=GPa)
#
#
# Indices 1 2 3 4 5 6 
#
# 1 107.9584 49.6549 44.6835 0.0000 4.6842 0.0000
# 2 49.6549 81.9373 50.2882 0.0000 -2.0536 0.0000
# 3 44.6835 50.2882 133.3666 0.0000 7.2175 0.0000
# 4 0.0000 0.0000 0.0000 23.6953 0.0000 4.1210
# 5 4.6842 -2.0536 7.2175 0.0000 21.5028 0.0000
# 6 0.0000 0.0000 0.0000 4.1210 0.0000 18.6184
#
#
#
# Elastic Compliance Matrix: (Units=1/GPa)
#
#
# Indices 1 2 3 4 5 6 
#
# 1 0.013367 -0.007196 -0.001600 0.000000 -0.003062 0.000000
# 2 -0.007196 0.020030 -0.005429 0.000000 0.005303 0.000000
# 3 -0.001600 -0.005429 0.010277 0.000000 -0.003619 0.000000
# 4 0.000000 0.000000 0.000000 0.043892 0.000000 -0.009715
# 5 -0.003062 0.005303 -0.003619 0.000000 0.048894 0.000000
# 6 0.000000 0.000000 0.000000 -0.009715 0.000000 0.055861
#
#
# Mechanical properties :
#
#
# Convention : Reuss Voigt Hill
#
# Bulk Modulus (GPa) = 65.67706 68.05728 66.86717
# Shear Modulus (GPa) = 22.13913 24.67236 23.40575
#
# Velocity S-wave (km/s) = 3.38942 3.57808 3.48503
# Velocity P-wave (km/s) = 7.02836 7.23780 7.13385
#
# Compressibility (1/GPa) = 0.01522602
#
# Stress axis : x y z
#
# Youngs Moduli (GPa) = 74.80858 49.92541 97.30536
#
# Poissons Ratio (x) = 0.35925 0.15565
# Poissons Ratio (y) = 0.53831 0.52824
# Poissons Ratio (z) = 0.11967 0.27103
#
# Static dielectric constant tensor:
#      x y z
#    x 1.683500 0.000000 0.004710 
#    y 0.000000 1.632630 0.000000 
#    z 0.004710 0.000000 1.730210 
# 
# From -- ./inp_files/22798.got.cif
#   From: 2010.05.17/outbox.cif.g08.bks.cpg/sg11_12_cif.got.tgz:22798.got - 2010.06.03 12:22:45.
