data_PCOD9162533
_publ_section_title
;
Structure prediction by ZEFSAII (Michael W. Deem and Ramdas Pophale) SiO2 
 PCOD9162533
Probable space group: P 21/M
;
_chemical_formula_sum "Si O2"
_cell_formula_units_Z 28
_cell_length_a 17.172965
_cell_length_b 8.691586
_cell_length_c 11.282085
_cell_angle_alpha 90.000000
_cell_angle_beta 59.785929
_cell_angle_gamma 90.000000
_cell_volume 1455.202534
_symmetry_space_group_name_H-M "P 21/M"
_symmetry_group_IT_number 11
_symmetry_cell_setting 'monoclinic'
loop_
_space_group_symop_operation_xyz
x,y,z
-x,1/2+y,-z
-x,-y,-z
x,1/2-y,z
loop_
_atom_site_type_symbol
_atom_site_label
_atom_site_fract_x
_atom_site_fract_y
_atom_site_fract_z
Si Si1 0.118075 0.434557 0.673481
Si Si2 0.929536 0.565832 0.778111
Si Si3 0.839966 0.564902 0.094444
Si Si4 0.702779 0.065419 0.584123
Si Si5 0.752841 0.064769 0.809165
Si Si6 0.479675 0.065120 0.385710
Si Si7 0.663692 0.064771 0.123292
O O1 0.119387 0.250000 0.667465
O O2 0.119311 0.483742 0.811220
O O3 0.207685 0.500844 0.545990
O O4 0.027678 0.496782 0.682352
O O5 0.933508 0.750000 0.771876
O O6 0.851671 0.507006 0.750473
O O7 0.896556 0.515419 0.935578
O O8 0.836399 0.750000 0.095703
O O9 0.739203 0.501722 0.153581
O O10 0.701853 0.250000 0.575153
O O11 0.708740 0.022527 0.718364
O O12 0.613927 0.998343 0.591869
O O13 0.761684 0.250000 0.806125
O O14 0.693397 0.016352 0.968366
O O15 0.476077 0.250000 0.393253
O O16 0.563771 0.018561 0.237785
O O17 0.500000 0.000000 0.500000
O O18 0.668539 0.250000 0.124899
#
# Coordination Sequence:
#
# PCOD9162533 Si02
#       7
#     4   4   4   4   4   4   4
#     4  11  22  36  55  80 113 151 188 228 278 332
#     4  10  20  35  57  84 112 143 184 231 278 330
#     4   9  19  34  54  83 114 144 181 227 277 329
#     4  11  24  40  58  81 111 147 187 232 277 325
#     4   9  20  40  60  80 109 145 187 230 275 327
#     4  11  23  39  60  87 117 147 182 224 274 331
#     4   9  19  36  59  83 109 145 184 226 275 326
#
# _framework density 19.241308
#
# number of rings (size 3 to 8) (size 9 to 14) (size 15 to 20)
#    0.000    2.000    0.000    3.000    0.000    7.429 
#    0.000    0.000    0.000    0.000    0.000    0.000 
#    0.000    0.000    0.000    0.000    0.000    0.000 
#
# Total GULP energy -156444.852249 kJ/mol
# GULP energy per Si atom -5587.316152 kJ/mol
# Density = 1.919751 g / cm^3
# Si number density = 19.241308 Si / 1000 Ang^3
#
#
#
# Elastic Constant Matrix: (Units=GPa)
#
#
# Indices 1 2 3 4 5 6 
#
# 1 178.4254 47.8743 84.7489 0.0000 -12.9903 0.0000
# 2 47.8743 32.5615 24.7656 0.0000 -1.3210 0.0000
# 3 84.7489 24.7656 52.2264 0.0000 -15.1137 0.0000
# 4 0.0000 0.0000 0.0000 25.1775 0.0000 -3.8008
# 5 -12.9903 -1.3210 -15.1137 0.0000 40.2590 0.0000
# 6 0.0000 0.0000 0.0000 -3.8008 0.0000 35.7021
#
#
#
# Elastic Compliance Matrix: (Units=1/GPa)
#
#
# Indices 1 2 3 4 5 6 
#
# 1 0.028172 -0.008236 -0.044042 0.000000 -0.007714 0.000000
# 2 -0.008236 0.052746 -0.013368 0.000000 -0.005945 0.000000
# 3 -0.044042 -0.013368 0.104016 0.000000 0.024399 0.000000
# 4 0.000000 0.000000 0.000000 0.040367 0.000000 0.004297
# 5 -0.007714 -0.005945 0.024399 0.000000 0.031315 0.000000
# 6 0.000000 0.000000 0.000000 0.004297 0.000000 0.028467
#
#
# Mechanical properties :
#
#
# Convention : Reuss Voigt Hill
#
# Bulk Modulus (GPa) = 18.64221 64.22121 41.43171
# Shear Modulus (GPa) = 11.51394 27.28267 19.39831
#
# Velocity S-wave (km/s) = 2.44887 3.76962 3.17860
# Velocity P-wave (km/s) = 4.20781 7.23850 5.92037
#
# Compressibility (1/GPa) = 0.05364171
#
# Stress axis : x y z
#
# Youngs Moduli (GPa) = 35.49598 18.95864 9.61393
#
# Poissons Ratio (x) = 0.15614 0.42342
# Poissons Ratio (y) = 0.29235 0.12852
# Poissons Ratio (z) = 1.56333 0.25344
#
# Static dielectric constant tensor:
#      x y z
#    x 1.631850 0.000000 0.012480 
#    y 0.000000 1.645200 0.000000 
#    z 0.012480 0.000000 1.686450 
# 
# From -- ./inp_files/37936.got.cif
#   From: 2010.05.17/outbox.cif.g08.bks.cpg/sg11_19_cif.got.tgz:37936.got - 2010.06.03 12:22:45.
