data_PCOD9162514
_publ_section_title
;
Structure prediction by ZEFSAII (Michael W. Deem and Ramdas Pophale) SiO2 
 PCOD9162514
Probable space group: P 21/M
;
_chemical_formula_sum "Si O2"
_cell_formula_units_Z 32
_cell_length_a 12.331634
_cell_length_b 8.693278
_cell_length_c 32.050957
_cell_angle_alpha 90.000000
_cell_angle_beta 30.196644
_cell_angle_gamma 90.000000
_cell_volume 1728.170920
_symmetry_space_group_name_H-M "P 21/M"
_symmetry_group_IT_number 11
_symmetry_cell_setting 'monoclinic'
loop_
_space_group_symop_operation_xyz
x,y,z
-x,1/2+y,-z
-x,-y,-z
x,1/2-y,z
loop_
_atom_site_type_symbol
_atom_site_label
_atom_site_fract_x
_atom_site_fract_y
_atom_site_fract_z
Si Si1 0.009953 0.434983 0.382819
Si Si2 0.689844 0.435645 0.076151
Si Si3 0.879342 0.064641 0.101920
Si Si4 0.542435 0.566657 0.531897
Si Si5 0.200069 0.435982 0.228991
Si Si6 0.152314 0.433065 0.715454
Si Si7 0.199656 0.065342 0.407609
Si Si8 0.685626 0.063546 0.255150
O O1 0.976876 0.250000 0.393369
O O2 0.781434 0.516211 0.465372
O O3 0.106755 0.478560 0.305710
O O4 0.163856 0.471012 0.370605
O O5 0.697421 0.250000 0.072319
O O6 0.744732 0.483091 0.105582
O O7 0.449539 0.483554 0.143784
O O8 0.880286 0.501277 0.984379
O O9 0.886697 0.250000 0.099289
O O10 0.770055 0.017081 0.181439
O O11 0.500000 0.500000 0.500000
O O12 0.523562 0.750000 0.537497
O O13 0.362903 0.498005 0.621888
O O14 0.189120 0.250000 0.229894
O O15 0.052389 0.506828 0.242310
O O16 0.156204 0.250000 0.713666
O O17 0.168210 0.495592 0.757024
O O18 0.194879 0.250000 0.413179
O O19 0.436274 0.012939 0.343274
O O20 0.000000 0.000000 0.500000
O O21 0.689439 0.250000 0.256239
#
# Coordination Sequence:
#
# PCOD9162514 Si02
#       8
#     4   4   4   4   4   4   4   4
#     4  10  20  35  57  83 111 144 187 235 284 334
#     4   9  18  34  59  90 119 146 181 228 285 342
#     4   9  18  35  60  88 116 148 185 227 279 339
#     4  12  23  37  56  80 111 149 191 233 280 331
#     4  10  20  36  58  82 111 147 185 230 285 339
#     4  12  25  39  56  81 113 149 193 240 284 334
#     4  10  21  36  55  81 111 145 185 230 277 332
#     4  10  21  39  60  81 112 154 195 230 278 341
#
# _framework density 18.516687999999998
#
# number of rings (size 3 to 8) (size 9 to 14) (size 15 to 20)
#    0.000    1.750    1.250    3.750    0.000    7.000 
#    0.000    0.625    0.000    4.500    0.000    0.000 
#    0.000    0.000    0.000    0.000    0.000    0.000 
#
# Total GULP energy -178787.174336 kJ/mol
# GULP energy per Si atom -5587.099198 kJ/mol
# Density = 1.847454 g / cm^3
# Si number density = 18.516688 Si / 1000 Ang^3
#
#
#
# Elastic Constant Matrix: (Units=GPa)
#
#
# Indices 1 2 3 4 5 6 
#
# 1 125.9398 36.4620 67.9099 0.0000 -10.0093 0.0000
# 2 36.4620 35.7269 30.0187 0.0000 -4.4876 0.0000
# 3 67.9099 30.0187 122.4558 0.0000 -10.2249 0.0000
# 4 0.0000 0.0000 0.0000 28.6409 0.0000 -2.7365
# 5 -10.0093 -4.4876 -10.2249 0.0000 33.6829 0.0000
# 6 0.0000 0.0000 0.0000 -2.7365 0.0000 23.3560
#
#
#
# Elastic Compliance Matrix: (Units=1/GPa)
#
#
# Indices 1 2 3 4 5 6 
#
# 1 0.013482 -0.009332 -0.005087 0.000000 0.001219 0.000000
# 2 -0.009332 0.041859 -0.004978 0.000000 0.001293 0.000000
# 3 -0.005087 -0.004978 0.012339 0.000000 0.001571 0.000000
# 4 0.000000 0.000000 0.000000 0.035310 0.000000 0.004137
# 5 0.001219 0.001293 0.001571 0.000000 0.030700 0.000000
# 6 0.000000 0.000000 0.000000 0.004137 0.000000 0.043300
#
#
# Mechanical properties :
#
#
# Convention : Reuss Voigt Hill
#
# Bulk Modulus (GPa) = 34.61964 61.43375 48.02669
# Shear Modulus (GPa) = 22.18136 27.11808 24.64972
#
# Velocity S-wave (km/s) = 3.46484 3.83106 3.65254
# Velocity P-wave (km/s) = 5.89439 7.26766 6.61675
#
# Compressibility (1/GPa) = 0.02888534
#
# Stress axis : x y z
#
# Youngs Moduli (GPa) = 74.17200 23.88960 81.04379
#
# Poissons Ratio (x) = 0.22294 0.41230
# Poissons Ratio (y) = 0.69217 0.40345
# Poissons Ratio (z) = 0.37734 0.11893
#
# Static dielectric constant tensor:
#      x y z
#    x 1.639600 0.000000 0.000870 
#    y 0.000000 1.622680 0.000000 
#    z 0.000870 0.000000 1.616820 
# 
# From -- ./inp_files/45191.got.cif
#   From: 2010.05.17/outbox.cif.g08.bks.cpg/sg11_23_cif.got.tgz:45191.got - 2010.06.03 12:22:45.
