data_PCOD9162432
_publ_section_title
;
Structure prediction by ZEFSAII (Michael W. Deem and Ramdas Pophale) SiO2 
 PCOD9162432
Probable space group: P 21/M
;
_chemical_formula_sum "Si O2"
_cell_formula_units_Z 24
_cell_length_a 15.987244
_cell_length_b 8.743367
_cell_length_c 9.866836
_cell_angle_alpha 90.000000
_cell_angle_beta 102.241712
_cell_angle_gamma 90.000000
_cell_volume 1347.848684
_symmetry_space_group_name_H-M "P 21/M"
_symmetry_group_IT_number 11
_symmetry_cell_setting 'monoclinic'
loop_
_space_group_symop_operation_xyz
x,y,z
-x,1/2+y,-z
-x,-y,-z
x,1/2-y,z
loop_
_atom_site_type_symbol
_atom_site_label
_atom_site_fract_x
_atom_site_fract_y
_atom_site_fract_z
Si Si1 0.776319 0.433966 0.175279
Si Si2 0.466441 0.933252 0.130659
Si Si3 0.279427 0.432416 0.121217
Si Si4 0.755509 0.066278 0.600653
Si Si5 0.093508 0.566604 0.552052
Si Si6 0.361294 0.067125 0.664105
O O1 0.769803 0.250000 0.169015
O O2 0.860282 0.476857 0.290968
O O3 0.696309 0.498726 0.233974
O O4 0.772408 0.501700 0.024480
O O5 0.456294 0.750000 0.115122
O O6 0.540136 0.964627 0.266819
O O7 0.376525 0.008055 0.136965
O O8 0.500000 0.000000 0.000000
O O9 0.278137 0.250000 0.118184
O O10 0.244910 0.495152 0.251322
O O11 0.751771 0.250000 0.606666
O O12 0.839726 0.021626 0.543261
O O13 0.675083 0.006269 0.485350
O O14 0.088122 0.750000 0.548071
O O15 0.000000 0.500000 0.500000
O O16 0.349511 0.250000 0.656215
#
# Coordination Sequence:
#
# PCOD9162432 Si02
#       6
#     4   4   4   4   4   4
#     4  10  20  36  58  83 114 151 189 230 282 337
#     4  11  22  35  55  82 115 152 196 240 281 330
#     4  12  24  37  56  84 115 152 194 238 288 333
#     4  10  22  40  59  82 115 152 187 231 289 340
#     4   9  20  38  63  90 112 142 182 227 280 342
#     4  10  20  35  56  83 111 148 196 238 278 330
#
# _framework density 17.806152999999998
#
# number of rings (size 3 to 8) (size 9 to 14) (size 15 to 20)
#    0.000    1.667    1.667    4.500    0.000    6.667 
#    0.000    0.833    0.000    0.000    0.000    0.000 
#    0.000    0.000    0.000    0.000    0.000    0.000 
#
# Total GULP energy -134076.544634 kJ/mol
# GULP energy per Si atom -5586.522693 kJ/mol
# Density = 1.776563 g / cm^3
# Si number density = 17.806153 Si / 1000 Ang^3
#
#
#
# Elastic Constant Matrix: (Units=GPa)
#
#
# Indices 1 2 3 4 5 6 
#
# 1 112.7952 52.4757 81.2170 0.0000 22.3897 0.0000
# 2 52.4757 89.0068 63.4534 0.0000 9.7806 0.0000
# 3 81.2170 63.4534 178.9557 0.0000 6.3180 0.0000
# 4 0.0000 0.0000 0.0000 35.7861 0.0000 1.8563
# 5 22.3897 9.7806 6.3180 0.0000 22.9919 0.0000
# 6 0.0000 0.0000 0.0000 1.8563 0.0000 32.7564
#
#
#
# Elastic Compliance Matrix: (Units=1/GPa)
#
#
# Indices 1 2 3 4 5 6 
#
# 1 0.018326 -0.004928 -0.006072 0.000000 -0.014081 0.000000
# 2 -0.004928 0.016948 -0.003724 0.000000 -0.001387 0.000000
# 3 -0.006072 -0.003724 0.009492 0.000000 0.004889 0.000000
# 4 0.000000 0.000000 0.000000 0.028026 0.000000 -0.001588
# 5 -0.014081 -0.001387 0.004889 0.000000 0.056452 0.000000
# 6 0.000000 0.000000 0.000000 -0.001588 0.000000 0.030618
#
#
# Mechanical properties :
#
#
# Convention : Reuss Voigt Hill
#
# Bulk Modulus (GPa) = 65.28850 86.11668 75.70259
# Shear Modulus (GPa) = 25.71814 30.54764 28.13289
#
# Velocity S-wave (km/s) = 3.80457 4.14643 3.97918
# Velocity P-wave (km/s) = 7.48636 8.44940 7.98241
#
# Compressibility (1/GPa) = 0.01531663
#
# Stress axis : x y z
#
# Youngs Moduli (GPa) = 54.56842 59.00550 105.35586
#
# Poissons Ratio (x) = 0.29077 0.63977
# Poissons Ratio (y) = 0.26891 0.39232
# Poissons Ratio (z) = 0.33136 0.21972
#
# Static dielectric constant tensor:
#      x y z
#    x 1.584810 0.000000 0.013240 
#    y 0.000000 1.594230 0.000000 
#    z 0.013240 0.000000 1.607200 
# 
# From -- ./inp_files/20603.got.cif
#   From: 2010.05.17/outbox.cif.g08.bks.cpg/sg11_11_cif.got.tgz:20603.got - 2010.06.03 12:22:45.
