data_PCOD9162672
_publ_section_title
;
Structure prediction by ZEFSAII (Michael W. Deem and Ramdas Pophale) SiO2 
 PCOD9162672
Probable space group: P 21/M
;
_chemical_formula_sum "Si O2"
_cell_formula_units_Z 28
_cell_length_a 19.487921
_cell_length_b 9.097942
_cell_length_c 17.545857
_cell_angle_alpha 90.000000
_cell_angle_beta 24.415938
_cell_angle_gamma 90.000000
_cell_volume 1285.906327
_symmetry_space_group_name_H-M "P 21/M"
_symmetry_group_IT_number 11
_symmetry_cell_setting 'monoclinic'
loop_
_space_group_symop_operation_xyz
x,y,z
-x,1/2+y,-z
-x,-y,-z
x,1/2-y,z
loop_
_atom_site_type_symbol
_atom_site_label
_atom_site_fract_x
_atom_site_fract_y
_atom_site_fract_z
Si Si1 0.765954 0.413177 0.587349
Si Si2 0.321265 0.927471 0.537160
Si Si3 0.844229 0.411539 0.684189
Si Si4 0.973557 0.924845 0.265361
Si Si5 0.300374 0.421253 0.875957
Si Si6 0.820388 0.577707 0.176820
Si Si7 0.448019 0.074229 0.971990
O O1 0.790158 0.250000 0.528814
O O2 0.768486 0.394273 0.675616
O O3 0.901395 0.524354 0.420085
O O4 0.574122 0.462227 0.775893
O O5 0.306858 0.750000 0.553758
O O6 0.504784 0.964178 0.319168
O O7 0.166645 0.997441 0.646804
O O8 0.299508 0.994174 0.643370
O O9 0.876720 0.250000 0.681971
O O10 0.731908 0.503276 0.855182
O O11 0.000000 0.500000 0.500000
O O12 0.969764 0.750000 0.259670
O O13 0.157320 0.986664 0.063256
O O14 0.288927 0.250000 0.912278
O O15 0.247363 0.429117 0.840498
O O16 0.835915 0.750000 0.182192
O O17 0.000000 0.500000 0.000000
O O18 0.435423 0.250000 0.991767
O O19 0.500000 0.000000 0.000000
#
# Coordination Sequence:
#
# PCOD9162672 Si02
#       7
#     4   4   4   4   4   4   4
#     4   9  20  39  60  82 114 157 196 232 290 359
#     4  11  23  41  64  89 120 161 205 252 306 366
#     4  10  20  35  58  88 119 152 190 241 293 347
#     4  12  25  40  62  89 122 162 203 256 307 359
#     4  10  23  42  64  88 120 163 205 250 305 366
#     4  11  21  36  62  93 122 159 202 252 310 362
#     4   9  17  32  56  82 108 143 184 230 282 339
#
# _framework density 21.774524
#
# number of rings (size 3 to 8) (size 9 to 14) (size 15 to 20)
#    0.000    1.714    1.429    4.286    0.000    5.143 
#    2.571    0.000    0.000    0.000    0.000    0.000 
#    0.000    0.000    0.000    0.000    0.000    0.000 
#
# Total GULP energy -156169.659595 kJ/mol
# GULP energy per Si atom -5577.487843 kJ/mol
# Density = 2.172496 g / cm^3
# Si number density = 21.774524 Si / 1000 Ang^3
#
#
#
# Elastic Constant Matrix: (Units=GPa)
#
#
# Indices 1 2 3 4 5 6 
#
# 1 37.2297 18.4229 18.9033 0.0000 7.3217 0.0000
# 2 18.4229 156.5996 114.8109 0.0000 3.7372 0.0000
# 3 18.9033 114.8109 209.2950 0.0000 -5.7142 0.0000
# 4 0.0000 0.0000 0.0000 42.3388 0.0000 2.7927
# 5 7.3217 3.7372 -5.7142 0.0000 17.8234 0.0000
# 6 0.0000 0.0000 0.0000 2.7927 0.0000 19.4974
#
#
#
# Elastic Compliance Matrix: (Units=1/GPa)
#
#
# Indices 1 2 3 4 5 6 
#
# 1 0.031476 -0.001732 -0.002256 0.000000 -0.013290 0.000000
# 2 -0.001732 0.011091 -0.006024 0.000000 -0.003545 0.000000
# 3 -0.002256 -0.006024 0.008420 0.000000 0.004889 0.000000
# 4 0.000000 0.000000 0.000000 0.023844 0.000000 -0.003415
# 5 -0.013290 -0.003545 0.004889 0.000000 0.063876 0.000000
# 6 0.000000 0.000000 0.000000 -0.003415 0.000000 0.051778
#
#
# Mechanical properties :
#
#
# Convention : Reuss Voigt Hill
#
# Bulk Modulus (GPa) = 32.29667 78.59982 55.44825
# Shear Modulus (GPa) = 22.64176 32.66441 27.65308
#
# Velocity S-wave (km/s) = 3.22813 3.87734 3.56754
# Velocity P-wave (km/s) = 5.36274 7.49804 6.51842
#
# Compressibility (1/GPa) = 0.03096294
#
# Stress axis : x y z
#
# Youngs Moduli (GPa) = 31.76989 90.16442 118.76664
#
# Poissons Ratio (x) = 0.15618 0.26789
# Poissons Ratio (y) = 0.05503 0.71549
# Poissons Ratio (z) = 0.07166 0.54318
#
# Static dielectric constant tensor:
#      x y z
#    x 2.076950 0.000000 -0.177180 
#    y 0.000000 1.740830 0.000000 
#    z -0.177180 0.000000 1.944120 
# 
# From -- ./inp_files/66700.got.cif
#   From: 2010.05.17/outbox.cif.g08.bks.cpg/sg11_34_cif.got.tgz:66700.got - 2010.06.03 12:22:45.
