data_PCOD9162596
_publ_section_title
;
Structure prediction by ZEFSAII (Michael W. Deem and Ramdas Pophale) SiO2 
 PCOD9162596
Probable space group: P 21/M
;
_chemical_formula_sum "Si O2"
_cell_formula_units_Z 32
_cell_length_a 9.612824
_cell_length_b 17.917492
_cell_length_c 15.990933
_cell_angle_alpha 90.000000
_cell_angle_beta 38.006258
_cell_angle_gamma 90.000000
_cell_volume 1695.917413
_symmetry_space_group_name_H-M "P 21/M"
_symmetry_group_IT_number 11
_symmetry_cell_setting 'monoclinic'
loop_
_space_group_symop_operation_xyz
x,y,z
-x,1/2+y,-z
-x,-y,-z
x,1/2-y,z
loop_
_atom_site_type_symbol
_atom_site_label
_atom_site_fract_x
_atom_site_fract_y
_atom_site_fract_z
Si Si1 0.544552 0.339122 0.072174
Si Si2 0.539674 0.338931 0.887823
Si Si3 0.811928 0.610433 0.084644
Si Si4 0.767683 0.450423 0.194728
Si Si5 0.928578 0.834487 0.201150
Si Si6 0.690451 0.922872 0.663701
Si Si7 0.075220 0.937523 0.366596
Si Si8 0.237166 0.478265 0.631382
O O1 0.532708 0.250000 0.090417
O O2 0.408016 0.379404 0.209947
O O3 0.457094 0.357821 0.020597
O O4 0.811956 0.359029 0.940627
O O5 0.571571 0.250000 0.869569
O O6 0.364813 0.365027 0.900739
O O7 0.772828 0.381366 0.758453
O O8 0.771969 0.526391 0.137556
O O9 0.808257 0.661403 0.168150
O O10 0.059960 0.607990 0.926442
O O11 0.511316 0.423760 0.308112
O O12 0.845071 0.472255 0.250989
O O13 0.933830 0.750000 0.230967
O O14 0.802782 0.893029 0.319903
O O15 0.915562 0.896194 0.509472
O O16 0.761765 0.005079 0.662199
O O17 0.910304 0.984400 0.382758
O O18 0.500000 0.500000 0.500000
#
# Coordination Sequence:
#
# PCOD9162596 Si02
#       8
#     4   4   4   4   4   4   4   4
#     4  10  22  39  59  88 120 155 198 249 306 356
#     4  11  23  39  60  88 121 157 203 250 298 361
#     4  10  20  35  58  88 116 150 194 245 301 353
#     4  10  20  35  57  89 118 147 196 249 301 350
#     4  10  20  36  60  85 115 155 201 250 301 361
#     4  11  22  40  59  86 124 156 200 247 300 365
#     4  11  24  38  60  89 119 161 203 243 301 361
#     4  11  22  37  59  86 121 156 202 254 299 355
#
# _framework density 18.868842999999998
#
# number of rings (size 3 to 8) (size 9 to 14) (size 15 to 20)
#    0.000    1.500    5.000    0.375    1.750    1.000 
#    0.000    0.000    0.000    2.250    0.000    0.000 
#    0.000    0.000    0.000    0.000    0.000    0.000 
#
# Total GULP energy -178516.791812 kJ/mol
# GULP energy per Si atom -5578.649744 kJ/mol
# Density = 1.882590 g / cm^3
# Si number density = 18.868843 Si / 1000 Ang^3
#
#
#
# Elastic Constant Matrix: (Units=GPa)
#
#
# Indices 1 2 3 4 5 6 
#
# 1 101.5209 -0.1805 18.3355 0.0000 -0.1511 0.0000
# 2 -0.1805 37.6731 34.2021 0.0000 -1.7219 0.0000
# 3 18.3355 34.2021 96.3171 0.0000 -2.4153 0.0000
# 4 0.0000 0.0000 0.0000 25.0337 0.0000 -1.2161
# 5 -0.1511 -1.7219 -2.4153 0.0000 30.4590 0.0000
# 6 0.0000 0.0000 0.0000 -1.2161 0.0000 11.2012
#
#
#
# Elastic Compliance Matrix: (Units=1/GPa)
#
#
# Indices 1 2 3 4 5 6 
#
# 1 0.010387 0.002722 -0.002944 0.000000 -0.000028 0.000000
# 2 0.002722 0.039924 -0.014667 0.000000 0.001107 0.000000
# 3 -0.002944 -0.014667 0.016162 0.000000 0.000438 0.000000
# 4 0.000000 0.000000 0.000000 0.040158 0.000000 0.004360
# 5 -0.000028 0.001107 0.000438 0.000000 0.032928 0.000000
# 6 0.000000 0.000000 0.000000 0.004360 0.000000 0.089749
#
#
# Mechanical properties :
#
#
# Convention : Reuss Voigt Hill
#
# Bulk Modulus (GPa) = 27.25343 37.80279 32.52811
# Shear Modulus (GPa) = 18.42850 25.54905 21.98877
#
# Velocity S-wave (km/s) = 3.12855 3.68371 3.41742
# Velocity P-wave (km/s) = 5.24647 6.17827 5.73133
#
# Compressibility (1/GPa) = 0.03669263
#
# Stress axis : x y z
#
# Youngs Moduli (GPa) = 96.27627 25.04781 61.87285
#
# Poissons Ratio (x) = -0.06817 0.18218
# Poissons Ratio (y) = -0.26203 0.90750
# Poissons Ratio (z) = 0.28348 0.36738
#
# Static dielectric constant tensor:
#      x y z
#    x 1.686690 0.000000 0.009630 
#    y 0.000000 1.636440 0.000000 
#    z 0.009630 0.000000 1.665920 
# 
# From -- ./inp_files/48230.got.cif
#   From: 2010.05.17/outbox.cif.g08.bks.cpg/sg11_25_cif.got.tgz:48230.got - 2010.06.03 12:22:45.
