data_PCOD9162939
_publ_section_title
;
Structure prediction by ZEFSAII (Michael W. Deem and Ramdas Pophale) SiO2 
 PCOD9162939
Probable space group: P 21/M
;
_chemical_formula_sum "Si O2"
_cell_formula_units_Z 24
_cell_length_a 17.503140
_cell_length_b 7.400683
_cell_length_c 12.577045
_cell_angle_alpha 90.000000
_cell_angle_beta 33.272877
_cell_angle_gamma 90.000000
_cell_volume 893.806765
_symmetry_space_group_name_H-M "P 21/M"
_symmetry_group_IT_number 11
_symmetry_cell_setting 'monoclinic'
loop_
_space_group_symop_operation_xyz
x,y,z
-x,1/2+y,-z
-x,-y,-z
x,1/2-y,z
loop_
_atom_site_type_symbol
_atom_site_label
_atom_site_fract_x
_atom_site_fract_y
_atom_site_fract_z
Si Si1 0.780419 0.527496 0.939676
Si Si2 0.603851 0.535173 0.779235
Si Si3 0.156520 0.035168 0.358455
Si Si4 0.496762 0.957750 0.340150
Si Si5 0.214524 0.528677 0.746884
Si Si6 0.990235 0.456015 0.187218
O O1 0.782996 0.750000 0.940200
O O2 0.650715 0.461150 0.159690
O O3 0.930987 0.461155 0.804321
O O4 0.757315 0.473424 0.845646
O O5 0.608503 0.750000 0.757673
O O6 0.757910 0.468446 0.638660
O O7 0.554483 0.457551 0.723765
O O8 0.500000 0.500000 0.000000
O O9 0.167112 0.250000 0.353207
O O10 0.000000 0.000000 0.500000
O O11 0.511522 0.750000 0.355003
O O12 0.372905 0.033970 0.555603
O O13 0.208756 0.750000 0.755998
O O14 0.117156 0.458623 0.953706
O O15 0.138902 0.465760 0.725780
O O16 0.956401 0.250000 0.251959
#
# Coordination Sequence:
#
# PCOD9162939 Si02
#       6
#     4   4   4   4   4   4
#     4   9  18  35  55  77 107 142 178 220 270 322
#     4  11  22  38  58  82 113 148 184 225 273 325
#     4  10  22  38  56  81 112 145 184 225 272 325
#     4  10  20  36  57  80 109 144 182 224 271 325
#     4   9  19  34  54  79 104 138 179 220 272 325
#     4   9  18  34  55  76 104 141 178 220 269 323
#
# _framework density 26.851441999999999
#
# number of rings (size 3 to 8) (size 9 to 14) (size 15 to 20)
#    0.000    2.333    1.667    0.500    2.333    2.667 
#    0.000    1.667    0.000    0.000    0.000    0.000 
#    0.000    0.000    0.000    0.000    0.000    0.000 
#
# Total GULP energy -134173.208930 kJ/mol
# GULP energy per Si atom -5590.550372 kJ/mol
# Density = 2.679033 g / cm^3
# Si number density = 26.851442 Si / 1000 Ang^3
#
#
#
# Elastic Constant Matrix: (Units=GPa)
#
#
# Indices 1 2 3 4 5 6 
#
# 1 112.6736 2.2528 -7.7948 0.0000 -13.7290 0.0000
# 2 2.2528 120.0985 3.8998 0.0000 -0.6470 0.0000
# 3 -7.7948 3.8998 106.7002 0.0000 -14.7570 0.0000
# 4 0.0000 0.0000 0.0000 18.5935 0.0000 4.0315
# 5 -13.7290 -0.6470 -14.7570 0.0000 50.7596 0.0000
# 6 0.0000 0.0000 0.0000 4.0315 0.0000 16.0029
#
#
#
# Elastic Compliance Matrix: (Units=1/GPa)
#
#
# Indices 1 2 3 4 5 6 
#
# 1 0.009298 -0.000194 0.001077 0.000000 0.002825 0.000000
# 2 -0.000194 0.008340 -0.000325 0.000000 -0.000041 0.000000
# 3 0.001077 -0.000325 0.009900 0.000000 0.003165 0.000000
# 4 0.000000 0.000000 0.000000 0.056890 0.000000 -0.014332
# 5 0.002825 -0.000041 0.003165 0.000000 0.021385 0.000000
# 6 0.000000 0.000000 0.000000 -0.014332 0.000000 0.066099
#
#
# Mechanical properties :
#
#
# Convention : Reuss Voigt Hill
#
# Bulk Modulus (GPa) = 34.89750 37.35421 36.12585
# Shear Modulus (GPa) = 27.72427 39.81218 33.76822
#
# Velocity S-wave (km/s) = 3.21675 3.85474 3.55011
# Velocity P-wave (km/s) = 5.17893 5.80979 5.50341
#
# Compressibility (1/GPa) = 0.02865535
#
# Stress axis : x y z
#
# Youngs Moduli (GPa) = 107.55158 119.89740 101.00609
#
# Poissons Ratio (x) = 0.02328 -0.10879
# Poissons Ratio (y) = 0.02088 0.03279
# Poissons Ratio (z) = -0.11584 0.03892
#
# Static dielectric constant tensor:
#      x y z
#    x 2.162390 0.000000 0.000530 
#    y 0.000000 2.005260 0.000000 
#    z 0.000530 0.000000 2.161830 
# 
# From -- ./inp_files/20409.got.cif
#   From: 2010.05.17/outbox.cif.g08.bks.cpg/sg11_11_cif.got.tgz:20409.got - 2010.06.03 12:22:45.
