data_PCOD9162284
_publ_section_title
;
Structure prediction by ZEFSAII (Michael W. Deem and Ramdas Pophale) SiO2 
 PCOD9162284
Probable space group: P 21/M
;
_chemical_formula_sum "Si O2"
_cell_formula_units_Z 28
_cell_length_a 32.660610
_cell_length_b 9.047304
_cell_length_c 9.524112
_cell_angle_alpha 90.000000
_cell_angle_beta 31.323061
_cell_angle_gamma 90.000000
_cell_volume 1463.042230
_symmetry_space_group_name_H-M "P 21/M"
_symmetry_group_IT_number 11
_symmetry_cell_setting 'monoclinic'
loop_
_space_group_symop_operation_xyz
x,y,z
-x,1/2+y,-z
-x,-y,-z
x,1/2-y,z
loop_
_atom_site_type_symbol
_atom_site_label
_atom_site_fract_x
_atom_site_fract_y
_atom_site_fract_z
Si Si1 0.824147 0.579263 0.204348
Si Si2 0.327889 0.421478 0.148686
Si Si3 0.228427 0.927112 0.208661
Si Si4 0.426256 0.423703 0.292201
Si Si5 0.082740 0.428654 0.797508
Si Si6 0.516592 0.076755 0.304013
Si Si7 0.740170 0.074867 0.209780
O O1 0.835936 0.750000 0.128502
O O2 0.744697 0.572081 0.531247
O O3 0.892093 0.535562 0.115310
O O4 0.807724 0.481619 0.116850
O O5 0.344266 0.250000 0.068774
O O6 0.299706 0.506531 0.091840
O O7 0.404802 0.499188 0.984091
O O8 0.224425 0.750000 0.240197
O O9 0.150411 0.003964 0.499507
O O10 0.239424 0.958216 0.011990
O O11 0.424066 0.250000 0.262874
O O12 0.446584 0.439661 0.398016
O O13 0.342096 0.496374 0.511255
O O14 0.500000 0.500000 0.000000
O O15 0.082286 0.250000 0.786787
O O16 0.000000 0.500000 0.000000
O O17 0.531257 0.250000 0.280800
O O18 0.500000 0.000000 0.500000
O O19 0.730249 0.250000 0.253474
#
# Coordination Sequence:
#
# PCOD9162284 Si02
#       7
#     4   4   4   4   4   4   4
#     4   9  20  37  58  83 111 144 181 221 269 326
#     4  10  20  35  55  79 106 141 186 233 280 333
#     4  10  21  37  58  85 116 150 187 230 277 330
#     4  11  24  39  56  78 108 148 192 237 287 337
#     4  10  21  39  64  92 118 147 183 224 272 329
#     4  11  23  36  52  76 104 140 185 234 286 336
#     4  11  23  37  56  83 114 148 189 233 279 331
#
# _framework density 19.138204999999999
#
# number of rings (size 3 to 8) (size 9 to 14) (size 15 to 20)
#    0.000    1.714    0.000    5.143    0.000   12.571 
#    0.000    0.714    0.000    0.000    0.000    0.000 
#    0.000    0.000    0.000    0.000    0.000    0.000 
#
# Total GULP energy -156485.459519 kJ/mol
# GULP energy per Si atom -5588.766411 kJ/mol
# Density = 1.909465 g / cm^3
# Si number density = 19.138205 Si / 1000 Ang^3
#
#
#
# Elastic Constant Matrix: (Units=GPa)
#
#
# Indices 1 2 3 4 5 6 
#
# 1 125.7942 69.0730 31.8095 0.0000 -5.5683 0.0000
# 2 69.0730 92.2071 29.2400 0.0000 7.9418 0.0000
# 3 31.8095 29.2400 42.3867 0.0000 -4.5572 0.0000
# 4 0.0000 0.0000 0.0000 29.9252 0.0000 -0.6718
# 5 -5.5683 7.9418 -4.5572 0.0000 34.7706 0.0000
# 6 0.0000 0.0000 0.0000 -0.6718 0.0000 33.7720
#
#
#
# Elastic Compliance Matrix: (Units=1/GPa)
#
#
# Indices 1 2 3 4 5 6 
#
# 1 0.014625 -0.010218 -0.003473 0.000000 0.004221 0.000000
# 2 -0.010218 0.021748 -0.008159 0.000000 -0.007673 0.000000
# 3 -0.003473 -0.008159 0.032425 0.000000 0.005557 0.000000
# 4 0.000000 0.000000 0.000000 0.033432 0.000000 0.000665
# 5 0.004221 -0.007673 0.005557 0.000000 0.031917 0.000000
# 6 0.000000 0.000000 0.000000 0.000665 0.000000 0.029624
#
#
# Mechanical properties :
#
#
# Convention : Reuss Voigt Hill
#
# Bulk Modulus (GPa) = 39.84523 57.84814 48.84668
# Shear Modulus (GPa) = 23.16573 28.37793 25.77183
#
# Velocity S-wave (km/s) = 3.48292 3.85488 3.67361
# Velocity P-wave (km/s) = 6.08599 7.07853 6.60094
#
# Compressibility (1/GPa) = 0.02509711
#
# Stress axis : x y z
#
# Youngs Moduli (GPa) = 68.37489 45.98151 30.84071
#
# Poissons Ratio (x) = 0.46984 0.10711
# Poissons Ratio (y) = 0.69866 0.25164
# Poissons Ratio (z) = 0.23747 0.37517
#
# Static dielectric constant tensor:
#      x y z
#    x 1.689220 0.000000 0.004730 
#    y 0.000000 1.643810 0.000000 
#    z 0.004730 0.000000 1.671410 
# 
# From -- ./inp_files/29020.got.cif
#   From: 2010.05.17/outbox.cif.g08.bks.cpg/sg11_15_cif.got.tgz:29020.got - 2010.06.03 12:22:45.
