data_PCOD9162493
_publ_section_title
;
Structure prediction by ZEFSAII (Michael W. Deem and Ramdas Pophale) SiO2 
 PCOD9162493
Probable space group: P 21/M
;
_chemical_formula_sum "Si O2"
_cell_formula_units_Z 32
_cell_length_a 26.053104
_cell_length_b 7.361484
_cell_length_c 15.359772
_cell_angle_alpha 90.000000
_cell_angle_beta 25.996330
_cell_angle_gamma 90.000000
_cell_volume 1291.203028
_symmetry_space_group_name_H-M "P 21/M"
_symmetry_group_IT_number 11
_symmetry_cell_setting 'monoclinic'
loop_
_space_group_symop_operation_xyz
x,y,z
-x,1/2+y,-z
-x,-y,-z
x,1/2-y,z
loop_
_atom_site_type_symbol
_atom_site_label
_atom_site_fract_x
_atom_site_fract_y
_atom_site_fract_z
Si Si1 0.489461 0.457505 0.787171
Si Si2 0.872468 0.539495 0.597204
Si Si3 0.031638 0.466439 0.851115
Si Si4 0.137410 0.530812 0.197286
Si Si5 0.189333 0.972066 0.925427
Si Si6 0.701460 0.529682 0.570649
Si Si7 0.653732 0.972268 0.831376
Si Si8 0.556395 0.032851 0.507477
O O1 0.447027 0.250000 0.847395
O O2 0.626523 0.460391 0.604076
O O3 0.482233 0.540002 0.702229
O O4 0.426296 0.539937 0.967608
O O5 0.889087 0.750000 0.550223
O O6 0.815966 0.527424 0.779572
O O7 0.783960 0.468828 0.660964
O O8 0.002543 0.461766 0.401296
O O9 0.035890 0.250000 0.830431
O O10 0.163929 0.532175 0.633476
O O11 0.000000 0.500000 0.000000
O O12 0.927851 0.533586 0.945975
O O13 0.138790 0.750000 0.197343
O O14 0.192425 0.472991 0.022352
O O15 0.187878 0.750000 0.926797
O O16 0.309725 0.033242 0.697859
O O17 0.700993 0.750000 0.567974
O O18 0.636618 0.469423 0.758522
O O19 0.648779 0.750000 0.837812
O O20 0.561209 0.250000 0.512315
O O21 0.500000 0.000000 0.500000
#
# Coordination Sequence:
#
# PCOD9162493 Si02
#       8
#     4   4   4   4   4   4   4   4
#     4  10  21  37  56  78 109 147 184 224 274 325
#     4   9  17  30  49  73 101 133 170 214 261 309
#     4  10  20  35  57  82 108 140 177 219 270 324
#     4   9  17  30  49  72  99 132 171 214 260 310
#     4   9  18  34  54  74 101 137 174 209 258 321
#     4  10  20  35  57  84 111 141 182 226 267 320
#     4   9  18  33  54  78 107 144 183 219 266 323
#     4  10  22  38  56  78 105 141 182 223 268 318
#
# _framework density 24.783087999999999
#
# number of rings (size 3 to 8) (size 9 to 14) (size 15 to 20)
#    0.000    2.500    0.000    1.875    1.750    5.000 
#    0.000    2.500    0.000    3.000    0.000    0.000 
#    0.000    0.000    0.000    0.000    0.000    0.000 
#
# Total GULP energy -178854.066886 kJ/mol
# GULP energy per Si atom -5589.189590 kJ/mol
# Density = 2.472668 g / cm^3
# Si number density = 24.783088 Si / 1000 Ang^3
#
#
#
# Elastic Constant Matrix: (Units=GPa)
#
#
# Indices 1 2 3 4 5 6 
#
# 1 114.2892 -11.5146 14.7795 0.0000 22.3670 0.0000
# 2 -11.5146 96.3594 -1.5217 0.0000 -1.6107 0.0000
# 3 14.7795 -1.5217 89.4237 0.0000 26.6910 0.0000
# 4 0.0000 0.0000 0.0000 6.0121 0.0000 1.0689
# 5 22.3670 -1.6107 26.6910 0.0000 45.2759 0.0000
# 6 0.0000 0.0000 0.0000 1.0689 0.0000 17.9575
#
#
#
# Elastic Compliance Matrix: (Units=1/GPa)
#
#
# Indices 1 2 3 4 5 6 
#
# 1 0.009803 0.001090 -0.000204 0.000000 -0.004684 0.000000
# 2 0.001090 0.010506 0.000058 0.000000 -0.000199 0.000000
# 3 -0.000204 0.000058 0.013575 0.000000 -0.007900 0.000000
# 4 0.000000 0.000000 0.000000 0.168111 0.000000 -0.010007
# 5 -0.004684 -0.000199 -0.007900 0.000000 0.029051 0.000000
# 6 0.000000 0.000000 0.000000 -0.010007 0.000000 0.056283
#
#
# Mechanical properties :
#
#
# Convention : Reuss Voigt Hill
#
# Bulk Modulus (GPa) = 27.95468 33.72876 30.84172
# Shear Modulus (GPa) = 16.81445 33.73770 25.27607
#
# Velocity S-wave (km/s) = 2.60756 3.69361 3.19704
# Velocity P-wave (km/s) = 4.51332 5.64176 5.10879
#
# Compressibility (1/GPa) = 0.03577218
#
# Stress axis : x y z
#
# Youngs Moduli (GPa) = 102.01474 95.18692 73.66258
#
# Poissons Ratio (x) = -0.10374 0.01499
# Poissons Ratio (y) = -0.11118 -0.00427
# Poissons Ratio (z) = 0.02077 -0.00552
#
# Static dielectric constant tensor:
#      x y z
#    x 1.933720 0.000000 0.006810 
#    y 0.000000 1.942620 0.000000 
#    z 0.006810 0.000000 1.986680 
# 
# From -- ./inp_files/55532.got.cif
#   From: 2010.05.17/outbox.cif.g08.bks.cpg/sg11_28_cif.got.tgz:55532.got - 2010.06.03 12:22:45.
