data_PCOD9162812
_publ_section_title
;
Structure prediction by ZEFSAII (Michael W. Deem and Ramdas Pophale) SiO2 
 PCOD9162812
Probable space group: P 21/M
;
_chemical_formula_sum "Si O2"
_cell_formula_units_Z 32
_cell_length_a 19.776723
_cell_length_b 8.472108
_cell_length_c 13.008395
_cell_angle_alpha 90.000000
_cell_angle_beta 40.789558
_cell_angle_gamma 90.000000
_cell_volume 1423.870993
_symmetry_space_group_name_H-M "P 21/M"
_symmetry_group_IT_number 11
_symmetry_cell_setting 'monoclinic'
loop_
_space_group_symop_operation_xyz
x,y,z
-x,1/2+y,-z
-x,-y,-z
x,1/2-y,z
loop_
_atom_site_type_symbol
_atom_site_label
_atom_site_fract_x
_atom_site_fract_y
_atom_site_fract_z
Si Si1 0.660937 0.060592 0.786945
Si Si2 0.102591 0.065180 0.176106
Si Si3 0.104275 0.064750 0.927823
Si Si4 0.484682 0.559160 0.856866
Si Si5 0.748201 0.431744 0.404020
Si Si6 0.316751 0.937840 0.887899
Si Si7 0.872560 0.442893 0.462236
Si Si8 0.389887 0.434752 0.594539
O O1 0.661525 0.250000 0.788229
O O2 0.593343 0.006412 0.961194
O O3 0.780916 0.010082 0.645909
O O4 0.596475 0.008092 0.760103
O O5 0.113006 0.250000 0.192216
O O6 0.990630 0.003018 0.344326
O O7 0.093642 0.054754 0.062368
O O8 0.211525 0.978976 0.071048
O O9 0.124674 0.250000 0.879042
O O10 0.184794 0.954549 0.776221
O O11 0.000000 0.000000 0.000000
O O12 0.492556 0.750000 0.848729
O O13 0.419759 0.513553 0.831203
O O14 0.728153 0.250000 0.450633
O O15 0.820848 0.493912 0.412679
O O16 0.644506 0.508648 0.478951
O O17 0.320081 0.750000 0.868394
O O18 0.319237 0.021422 0.774710
O O19 0.879531 0.250000 0.451216
O O20 0.500000 0.500000 0.500000
O O21 0.393712 0.250000 0.583750
#
# Coordination Sequence:
#
# PCOD9162812 Si02
#       8
#     4   4   4   4   4   4   4   4
#     4   9  18  37  64  88 111 144 185 234 293 351
#     4  10  20  36  54  78 113 153 197 239 280 339
#     4  11  20  32  51  75 107 148 192 234 276 327
#     4   9  20  38  60  87 116 144 183 237 292 345
#     4  11  21  36  55  80 113 149 190 235 283 338
#     4  11  23  39  58  83 117 156 194 236 287 342
#     4   9  19  35  57  85 114 147 190 237 286 340
#     4  12  26  42  57  81 115 154 196 238 285 340
#
# _framework density 22.473945000000001
#
# number of rings (size 3 to 8) (size 9 to 14) (size 15 to 20)
#    0.000    1.750    2.500    2.250    1.750    1.500 
#    0.000    1.875    0.000    0.000    0.000    0.000 
#    0.000    0.000    0.000    0.000    0.000    0.000 
#
# Total GULP energy -178525.773759 kJ/mol
# GULP energy per Si atom -5578.930430 kJ/mol
# Density = 2.242279 g / cm^3
# Si number density = 22.473945 Si / 1000 Ang^3
#
#
#
# Elastic Constant Matrix: (Units=GPa)
#
#
# Indices 1 2 3 4 5 6 
#
# 1 37.2210 0.4073 -2.0222 0.0000 -14.8110 0.0000
# 2 0.4073 38.2543 -4.5624 0.0000 -3.2226 0.0000
# 3 -2.0222 -4.5624 89.6659 0.0000 -30.2777 0.0000
# 4 0.0000 0.0000 0.0000 18.5296 0.0000 -7.0441
# 5 -14.8110 -3.2226 -30.2777 0.0000 41.5230 0.0000
# 6 0.0000 0.0000 0.0000 -7.0441 0.0000 22.2430
#
#
#
# Elastic Compliance Matrix: (Units=1/GPa)
#
#
# Indices 1 2 3 4 5 6 
#
# 1 0.034022 0.001873 0.006646 0.000000 0.017127 0.000000
# 2 0.001873 0.026915 0.003108 0.000000 0.005023 0.000000
# 3 0.006646 0.003108 0.016374 0.000000 0.014551 0.000000
# 4 0.000000 0.000000 0.000000 0.061354 0.000000 0.019430
# 5 0.017127 0.005023 0.014551 0.000000 0.041193 0.000000
# 6 0.000000 0.000000 0.000000 0.019430 0.000000 0.051111
#
#
# Mechanical properties :
#
#
# Convention : Reuss Voigt Hill
#
# Bulk Modulus (GPa) = 9.94380 16.97630 13.46005
# Shear Modulus (GPa) = 20.72649 27.88035 24.30342
#
# Velocity S-wave (km/s) = 3.04014 3.52598 3.29204
# Velocity P-wave (km/s) = 4.09359 4.91395 4.52241
#
# Compressibility (1/GPa) = 0.10056522
#
# Stress axis : x y z
#
# Youngs Moduli (GPa) = 29.39247 37.15435 61.07194
#
# Poissons Ratio (x) = -0.06960 -0.40588
# Poissons Ratio (y) = -0.05506 -0.18981
# Poissons Ratio (z) = -0.19534 -0.11547
#
# Static dielectric constant tensor:
#      x y z
#    x 1.774820 0.000000 -0.013730 
#    y 0.000000 1.767620 0.000000 
#    z -0.013730 0.000000 1.946270 
# 
# From -- ./inp_files/54269.got.cif
#   From: 2010.05.17/outbox.cif.g08.bks.cpg/sg11_28_cif.got.tgz:54269.got - 2010.06.03 12:22:45.
