data_PCOD9162358
_publ_section_title
;
Structure prediction by ZEFSAII (Michael W. Deem and Ramdas Pophale) SiO2 
 PCOD9162358
Probable space group: P 21/M
;
_chemical_formula_sum "Si O2"
_cell_formula_units_Z 30
_cell_length_a 12.225751
_cell_length_b 7.622709
_cell_length_c 24.592506
_cell_angle_alpha 90.000000
_cell_angle_beta 40.934314
_cell_angle_gamma 90.000000
_cell_volume 1501.610056
_symmetry_space_group_name_H-M "P 21/M"
_symmetry_group_IT_number 11
_symmetry_cell_setting 'monoclinic'
loop_
_space_group_symop_operation_xyz
x,y,z
-x,1/2+y,-z
-x,-y,-z
x,1/2-y,z
loop_
_atom_site_type_symbol
_atom_site_label
_atom_site_fract_x
_atom_site_fract_y
_atom_site_fract_z
Si Si1 0.259770 0.463600 0.948959
Si Si2 0.934025 0.544733 0.779833
Si Si3 0.265617 0.451745 0.604769
Si Si4 0.369413 0.952538 0.788638
Si Si5 0.967211 0.463476 0.137728
Si Si6 0.448334 0.452399 0.427039
Si Si7 0.545049 0.250000 0.669784
Si Si8 0.554554 0.458154 0.918037
O O1 0.258014 0.250000 0.946656
O O2 0.286157 0.536944 0.879244
O O3 0.414315 0.521373 0.928866
O O4 0.091121 0.519874 0.043109
O O5 0.971864 0.750000 0.767108
O O6 0.966288 0.474992 0.828914
O O7 0.741151 0.523423 0.837771
O O8 0.069462 0.464364 0.688729
O O9 0.318646 0.250000 0.589392
O O10 0.326012 0.508261 0.522611
O O11 0.368201 0.546937 0.613807
O O12 0.412980 0.750000 0.760993
O O13 0.222686 0.015593 0.802444
O O14 0.513170 0.094195 0.727925
O O15 0.970050 0.250000 0.136418
O O16 0.410359 0.250000 0.425482
O O17 0.439251 0.593229 0.382790
O O18 0.558354 0.250000 0.911637
O O19 0.500000 0.500000 0.000000
#
# Coordination Sequence:
#
# PCOD9162358 Si02
#       8
#     4   4   4   4   4   4   2   4
#     4  10  20  40  59  76 116 160 204 255 301 346
#     4  11  21  35  57  85 121 159 198 248 296 361
#     4  10  20  35  55  86 124 158 199 239 297 365
#     4  11  23  38  58  87 117 157 207 253 295 355
#     4   9  19  35  55  81 117 161 199 244 294 346
#     4  10  21  36  57  85 123 164 194 240 299 369
#     4  12  22  38  58  82 118 154 200 244 298 356
#     4  11  22  38  58  82 117 157 205 251 301 354
#
# _framework density 19.978556000000001
#
# number of rings (size 3 to 8) (size 9 to 14) (size 15 to 20)
#    0.000    1.600    2.667    2.800    1.867    2.133 
#    2.400    0.000    0.000    0.000    0.000    0.933 
#    0.000    0.000    0.000    0.000    0.000    0.000 
#
# Total GULP energy -167086.832752 kJ/mol
# GULP energy per Si atom -5569.561092 kJ/mol
# Density = 1.993308 g / cm^3
# Si number density = 19.978556 Si / 1000 Ang^3
#
#
#
# Elastic Constant Matrix: (Units=GPa)
#
#
# Indices 1 2 3 4 5 6 
#
# 1 31.0983 -0.9744 4.2477 0.0000 -0.3989 0.0000
# 2 -0.9744 91.2265 10.5348 0.0000 8.8474 0.0000
# 3 4.2477 10.5348 97.5659 0.0000 1.9447 0.0000
# 4 0.0000 0.0000 0.0000 22.3379 0.0000 2.9456
# 5 -0.3989 8.8474 1.9447 0.0000 20.8743 0.0000
# 6 0.0000 0.0000 0.0000 2.9456 0.0000 16.8614
#
#
#
# Elastic Compliance Matrix: (Units=1/GPa)
#
#
# Indices 1 2 3 4 5 6 
#
# 1 0.032379 0.000461 -0.001471 0.000000 0.000560 0.000000
# 2 0.000461 0.011566 -0.001174 0.000000 -0.004784 0.000000
# 3 -0.001471 -0.001174 0.010450 0.000000 -0.000504 0.000000
# 4 0.000000 0.000000 0.000000 0.045823 0.000000 -0.008005
# 5 0.000560 -0.004784 -0.000504 0.000000 0.049991 0.000000
# 6 0.000000 0.000000 0.000000 -0.008005 0.000000 0.060706
#
#
# Mechanical properties :
#
#
# Convention : Reuss Voigt Hill
#
# Bulk Modulus (GPa) = 19.98830 27.50077 23.74453
# Shear Modulus (GPa) = 21.55576 25.75355 23.65465
#
# Velocity S-wave (km/s) = 3.28829 3.59424 3.44467
# Velocity P-wave (km/s) = 4.94406 5.56954 5.26610
#
# Compressibility (1/GPa) = 0.05002926
#
# Stress axis : x y z
#
# Youngs Moduli (GPa) = 30.88457 86.45915 95.69122
#
# Poissons Ratio (x) = -0.03989 0.14073
# Poissons Ratio (y) = -0.01425 0.11230
# Poissons Ratio (z) = 0.04542 0.10147
#
# Static dielectric constant tensor:
#      x y z
#    x 1.692310 0.000000 0.006500 
#    y 0.000000 1.836320 0.000000 
#    z 0.006500 0.000000 1.713270 
# 
# From -- ./inp_files/68393.got.cif
#   From: 2010.05.17/outbox.cif.g08.bks.cpg/sg11_35_cif.got.tgz:68393.got - 2010.06.03 12:22:45.
