data_PCOD9162315
_publ_section_title
;
Structure prediction by ZEFSAII (Michael W. Deem and Ramdas Pophale) SiO2 
 PCOD9162315
Probable space group: P 21/M
;
_chemical_formula_sum "Si O2"
_cell_formula_units_Z 32
_cell_length_a 16.407492
_cell_length_b 13.510631
_cell_length_c 12.820070
_cell_angle_alpha 90.000000
_cell_angle_beta 144.673555
_cell_angle_gamma 90.000000
_cell_volume 1643.281799
_symmetry_space_group_name_H-M "P 21/M"
_symmetry_group_IT_number 11
_symmetry_cell_setting 'monoclinic'
loop_
_space_group_symop_operation_xyz
x,y,z
-x,1/2+y,-z
-x,-y,-z
x,1/2-y,z
loop_
_atom_site_type_symbol
_atom_site_label
_atom_site_fract_x
_atom_site_fract_y
_atom_site_fract_z
Si Si1 0.957348 0.855864 0.962715
Si Si2 0.844835 0.366469 0.124352
Si Si3 0.655020 0.134178 0.131581
Si Si4 0.740141 0.518677 0.847461
Si Si5 0.605652 0.527190 0.241829
Si Si6 0.860505 0.571580 0.638054
Si Si7 0.477841 0.140872 0.255046
Si Si8 0.744624 0.092364 0.657137
O O1 0.908297 0.750000 0.951073
O O2 0.890638 0.939628 0.965842
O O3 0.898622 0.869923 0.784461
O O4 0.126277 0.858250 0.146275
O O5 0.853119 0.250000 0.105532
O O6 0.763704 0.373911 0.149053
O O7 0.002226 0.412066 0.289006
O O8 0.761096 0.429594 0.950286
O O9 0.654599 0.250000 0.165866
O O10 0.687424 0.050125 0.251596
O O11 0.500941 0.099791 0.929416
O O12 0.650975 0.603825 0.808913
O O13 0.677189 0.481544 0.672112
O O14 0.716506 0.591232 0.424871
O O15 0.512763 0.449858 0.213514
O O16 0.823218 0.463466 0.644552
O O17 0.451866 0.250000 0.181131
O O18 0.616414 0.148080 0.471862
#
# Coordination Sequence:
#
# PCOD9162315 Si02
#       8
#     4   4   4   4   4   4   4   4
#     4  11  20  34  57  85 120 159 198 237 282 342
#     4  11  21  36  61  87 116 154 196 240 290 349
#     4  10  22  41  63  88 114 149 194 242 298 353
#     4  11  20  37  53  84 120 156 197 241 288 332
#     4  10  22  40  64  86 115 151 189 248 296 348
#     4  10  20  36  57  86 114 152 194 238 288 340
#     4  11  22  36  57  85 117 155 198 241 288 345
#     4  10  20  35  55  80 118 159 199 236 280 337
#
# _framework density 19.473227000000001
#
# number of rings (size 3 to 8) (size 9 to 14) (size 15 to 20)
#    0.000    1.500    3.750    2.625    0.000    2.000 
#    0.000    0.000    0.000    0.000    0.000    0.000 
#    0.000    0.000    0.000    0.000    0.000    0.000 
#
# Total GULP energy -178235.593819 kJ/mol
# GULP energy per Si atom -5569.862307 kJ/mol
# Density = 1.942890 g / cm^3
# Si number density = 19.473227 Si / 1000 Ang^3
#
#
#
# Elastic Constant Matrix: (Units=GPa)
#
#
# Indices 1 2 3 4 5 6 
#
# 1 94.3573 21.7243 1.9791 0.0000 9.0248 0.0000
# 2 21.7243 62.8634 3.2225 0.0000 10.5535 0.0000
# 3 1.9791 3.2225 58.7879 0.0000 5.6130 0.0000
# 4 0.0000 0.0000 0.0000 -74.6275 0.0000 -43.9626
# 5 9.0248 10.5535 5.6130 0.0000 21.5340 0.0000
# 6 0.0000 0.0000 0.0000 -43.9626 0.0000 -0.0056
#
#
#
# Elastic Compliance Matrix: (Units=1/GPa)
#
#
# Indices 1 2 3 4 5 6 
#
# 1 0.011712 -0.003513 0.000105 0.000000 -0.003214 0.000000
# 2 -0.003513 0.018389 -0.000174 0.000000 -0.007494 0.000000
# 3 0.000105 -0.000174 0.017447 0.000000 -0.004506 0.000000
# 4 0.000000 0.000000 0.000000 0.000003 0.000000 -0.022751
# 5 -0.003214 -0.007494 -0.004506 0.000000 0.052633 0.000000
# 6 0.000000 0.000000 0.000000 -0.022751 0.000000 0.038621
#
#
# Mechanical properties :
#
#
# Convention : Reuss Voigt Hill
#
# Bulk Modulus (GPa) = 24.76298 29.98448 27.37373
# Shear Modulus (GPa) = 31.36181 1.98570 16.67376
#
# Velocity S-wave (km/s) = 4.01747 1.01090 2.92933
# Velocity P-wave (km/s) = 5.85355 4.09802 5.05262
#
# Compressibility (1/GPa) = 0.04038286
#
# Stress axis : x y z
#
# Youngs Moduli (GPa) = 85.38185 54.38127 57.31784
#
# Poissons Ratio (x) = 0.19106 -0.00603
# Poissons Ratio (y) = 0.29997 0.00998
# Poissons Ratio (z) = -0.00898 0.00947
#
# Static dielectric constant tensor:
#      x y z
#    x 1.695890 0.000000 -0.015870 
#    y 0.000000 1.743750 0.000000 
#    z -0.015870 0.000000 1.698430 
# 
# From -- ./inp_files/39673.got.cif
#   From: 2010.05.17/outbox.cif.g08.bks.cpg/sg11_20_cif.got.tgz:39673.got - 2010.06.03 12:22:45.
