data_PCOD9162905
_publ_section_title
;
Structure prediction by ZEFSAII (Michael W. Deem and Ramdas Pophale) SiO2 
 PCOD9162905
Probable space group: P 21/M
;
_chemical_formula_sum "Si O2"
_cell_formula_units_Z 32
_cell_length_a 14.117434
_cell_length_b 19.202411
_cell_length_c 8.285427
_cell_angle_alpha 90.000000
_cell_angle_beta 138.359135
_cell_angle_gamma 90.000000
_cell_volume 1492.433086
_symmetry_space_group_name_H-M "P 21/M"
_symmetry_group_IT_number 11
_symmetry_cell_setting 'monoclinic'
loop_
_space_group_symop_operation_xyz
x,y,z
-x,1/2+y,-z
-x,-y,-z
x,1/2-y,z
loop_
_atom_site_type_symbol
_atom_site_label
_atom_site_fract_x
_atom_site_fract_y
_atom_site_fract_z
Si Si1 0.425509 0.585296 0.605695
Si Si2 0.132625 0.550812 0.651986
Si Si3 0.362054 0.330030 0.320346
Si Si4 0.512446 0.672884 0.164146
Si Si5 0.889306 0.585874 0.871202
Si Si6 0.762636 0.171536 0.389130
Si Si7 0.835825 0.060588 0.945033
Si Si8 0.328153 0.038549 0.686009
O O1 0.569977 0.617626 0.722486
O O2 0.335696 0.642485 0.592026
O O3 0.321981 0.566742 0.324915
O O4 0.428607 0.515323 0.716462
O O5 0.120439 0.614189 0.509473
O O6 0.261031 0.503614 0.747467
O O7 0.000000 0.500000 0.500000
O O8 0.158174 0.580020 0.862212
O O9 0.368344 0.250000 0.274658
O O10 0.454796 0.335996 0.604355
O O11 0.203876 0.353359 0.169645
O O12 0.567850 0.750000 0.189687
O O13 0.591273 0.609822 0.175153
O O14 0.348637 0.671620 0.903024
O O15 0.886117 0.519438 0.985224
O O16 0.800972 0.559180 0.600413
O O17 0.048400 0.602170 0.015096
O O18 0.812516 0.250000 0.480978
#
# Coordination Sequence:
#
# PCOD9162905 Si02
#       8
#     4   4   4   4   4   4   4   4
#     4  10  21  35  60  86 116 154 196 240 289 346
#     4  11  21  36  61  84 111 150 194 240 281 342
#     4  10  20  36  56  83 116 154 195 241 291 347
#     4   9  19  36  58  82 117 151 188 237 291 346
#     4   9  19  35  56  81 118 149 187 240 292 340
#     4  10  22  39  57  83 117 150 189 241 292 344
#     4  10  20  36  60  86 113 149 192 244 285 344
#     4   9  19  35  57  87 113 148 194 236 293 338
#
# _framework density 21.441497999999999
#
# number of rings (size 3 to 8) (size 9 to 14) (size 15 to 20)
#    0.000    2.250    1.250    1.125    1.750    8.500 
#    0.000    3.125    0.000    0.000    0.000    0.000 
#    0.000    0.000    0.000    0.000    0.000    0.000 
#
# Total GULP energy -178794.737857 kJ/mol
# GULP energy per Si atom -5587.335558 kJ/mol
# Density = 2.139270 g / cm^3
# Si number density = 21.441498 Si / 1000 Ang^3
#
#
#
# Elastic Constant Matrix: (Units=GPa)
#
#
# Indices 1 2 3 4 5 6 
#
# 1 93.2272 45.9363 4.2157 0.0000 0.5534 0.0000
# 2 45.9363 122.5694 3.8953 0.0000 11.9035 0.0000
# 3 4.2157 3.8953 29.7464 0.0000 4.4925 0.0000
# 4 0.0000 0.0000 0.0000 24.9650 0.0000 5.0775
# 5 0.5534 11.9035 4.4925 0.0000 21.5982 0.0000
# 6 0.0000 0.0000 0.0000 5.0775 0.0000 24.9223
#
#
#
# Elastic Compliance Matrix: (Units=1/GPa)
#
#
# Indices 1 2 3 4 5 6 
#
# 1 0.013364 -0.005236 -0.001644 0.000000 0.002886 0.000000
# 2 -0.005236 0.010677 0.000219 0.000000 -0.005796 0.000000
# 3 -0.001644 0.000219 0.034931 0.000000 -0.007344 0.000000
# 4 0.000000 0.000000 0.000000 0.041788 0.000000 -0.008514
# 5 0.002886 -0.005796 -0.007344 0.000000 0.050948 0.000000
# 6 0.000000 0.000000 0.000000 -0.008514 0.000000 0.041859
#
#
# Mechanical properties :
#
#
# Convention : Reuss Voigt Hill
#
# Bulk Modulus (GPa) = 21.90601 39.29306 30.59954
# Shear Modulus (GPa) = 22.51179 27.06348 24.78764
#
# Velocity S-wave (km/s) = 3.24376 3.55660 3.40378
# Velocity P-wave (km/s) = 4.92627 5.93560 5.45433
#
# Compressibility (1/GPa) = 0.04564957
#
# Stress axis : x y z
#
# Youngs Moduli (GPa) = 74.82856 93.65873 28.62784
#
# Poissons Ratio (x) = 0.49044 0.04707
# Poissons Ratio (y) = 0.39184 -0.00628
# Poissons Ratio (z) = 0.12302 -0.02054
#
# Static dielectric constant tensor:
#      x y z
#    x 1.751200 0.000000 -0.007980 
#    y 0.000000 1.775080 0.000000 
#    z -0.007980 0.000000 1.826340 
# 
# From -- ./inp_files/19408.got.cif
#   From: 2010.05.17/outbox.cif.g08.bks.cpg/sg11_10_cif.got.tgz:19408.got - 2010.06.03 12:22:45.
