data_PCOD9162125
_publ_section_title
;
Structure prediction by ZEFSAII (Michael W. Deem and Ramdas Pophale) SiO2 
 PCOD9162125
Probable space group: P 21/M
;
_chemical_formula_sum "Si O2"
_cell_formula_units_Z 28
_cell_length_a 5.285131
_cell_length_b 23.052561
_cell_length_c 11.123820
_cell_angle_alpha 90.000000
_cell_angle_beta 83.942539
_cell_angle_gamma 90.000000
_cell_volume 1347.712447
_symmetry_space_group_name_H-M "P 21/M"
_symmetry_group_IT_number 11
_symmetry_cell_setting 'monoclinic'
loop_
_space_group_symop_operation_xyz
x,y,z
-x,1/2+y,-z
-x,-y,-z
x,1/2-y,z
loop_
_atom_site_type_symbol
_atom_site_label
_atom_site_fract_x
_atom_site_fract_y
_atom_site_fract_z
Si Si1 0.930437 0.122749 0.743111
Si Si2 0.490769 0.250000 0.473733
Si Si3 0.041112 0.959260 0.681452
Si Si4 0.047002 0.750000 0.356993
Si Si5 0.597053 0.927393 0.129238
Si Si6 0.764053 0.555819 0.459995
Si Si7 0.395159 0.444491 0.143087
Si Si8 0.423294 0.872684 0.635169
O O1 0.937929 0.191701 0.723541
O O2 0.149626 0.098961 0.822772
O O3 0.019484 0.095016 0.611840
O O4 0.653315 0.100088 0.795828
O O5 0.218789 0.250000 0.555313
O O6 0.523452 0.306243 0.388871
O O7 0.716329 0.250000 0.561715
O O8 0.133867 0.893740 0.660865
O O9 0.845910 0.970819 0.583129
O O10 0.890252 0.966359 0.811295
O O11 0.265267 0.003642 0.633188
O O12 0.567532 0.997650 0.135169
O O13 0.592646 0.915133 0.986831
O O14 0.534016 0.596608 0.509172
O O15 0.463899 0.400494 0.247735
#
# Coordination Sequence:
#
# PCOD9162125 Si02
#       8
#     4   2   4   2   4   4   4   4
#     4  12  24  43  69  97 133 175 227 276 337 392
#     4  12  26  44  70  97 135 176 224 275 342 406
#     4  10  20  36  62  95 133 172 211 277 340 412
#     4  12  26  48  68  99 137 176 228 277 330 412
#     4  11  26  43  70  99 135 183 224 279 335 401
#     4  10  20  34  60  97 130 160 214 271 346 399
#     4  10  24  42  66 100 136 176 228 275 339 405
#     4  11  23  39  64  94 134 178 219 281 336 409
#
# _framework density 20.775943999999999
#
# number of rings (size 3 to 8) (size 9 to 14) (size 15 to 20)
#    0.000    1.143    2.857    3.000    6.000    1.143 
#    0.000    1.429    0.000    0.000    0.000    0.000 
#    0.000    0.000    0.000    0.000    0.000    0.000 
#
# Total GULP energy -156304.664686 kJ/mol
# GULP energy per Si atom -5582.309453 kJ/mol
# Density = 2.072866 g / cm^3
# Si number density = 20.775944 Si / 1000 Ang^3
#
#
#
# Elastic Constant Matrix: (Units=GPa)
#
#
# Indices 1 2 3 4 5 6 
#
# 1 98.4475 14.2058 28.3697 0.0000 6.8787 0.0000
# 2 14.2058 125.7267 18.9279 0.0000 11.3059 0.0000
# 3 28.3697 18.9279 106.1119 0.0000 6.1521 0.0000
# 4 0.0000 0.0000 0.0000 29.4310 0.0000 1.4923
# 5 6.8787 11.3059 6.1521 0.0000 29.3092 0.0000
# 6 0.0000 0.0000 0.0000 1.4923 0.0000 23.7662
#
#
#
# Elastic Compliance Matrix: (Units=1/GPa)
#
#
# Indices 1 2 3 4 5 6 
#
# 1 0.011177 -0.000687 -0.002763 0.000000 -0.001778 0.000000
# 2 -0.000687 0.008463 -0.001160 0.000000 -0.002860 0.000000
# 3 -0.002763 -0.001160 0.010433 0.000000 -0.001094 0.000000
# 4 0.000000 0.000000 0.000000 0.034086 0.000000 -0.002140
# 5 -0.001778 -0.002860 -0.001094 0.000000 0.035869 0.000000
# 6 0.000000 0.000000 0.000000 -0.002140 0.000000 0.042211
#
#
# Mechanical properties :
#
#
# Convention : Reuss Voigt Hill
#
# Bulk Modulus (GPa) = 47.95313 50.36590 49.15951
# Shear Modulus (GPa) = 31.56350 34.42013 32.99181
#
# Velocity S-wave (km/s) = 3.90196 4.07471 3.98927
# Velocity P-wave (km/s) = 6.59027 6.81416 6.70315
#
# Compressibility (1/GPa) = 0.02085370
#
# Stress axis : x y z
#
# Youngs Moduli (GPa) = 89.46779 118.15830 95.84980
#
# Poissons Ratio (x) = 0.08118 0.26480
# Poissons Ratio (y) = 0.06147 0.11120
# Poissons Ratio (z) = 0.24717 0.13708
#
# Static dielectric constant tensor:
#      x y z
#    x 1.850930 0.000000 0.005300 
#    y 0.000000 1.793630 0.000000 
#    z 0.005300 0.000000 1.733280 
# 
# From -- ./inp_files/29987.got.cif
#   From: 2010.05.17/outbox.cif.g08.bks.cpg/sg11_15_cif.got.tgz:29987.got - 2010.06.03 12:22:45.
