data_PCOD9162663
_publ_section_title
;
Structure prediction by ZEFSAII (Michael W. Deem and Ramdas Pophale) SiO2 
 PCOD9162663
Probable space group: P 21/M
;
_chemical_formula_sum "Si O2"
_cell_formula_units_Z 28
_cell_length_a 10.299724
_cell_length_b 8.292221
_cell_length_c 27.115573
_cell_angle_alpha 90.000000
_cell_angle_beta 141.858294
_cell_angle_gamma 90.000000
_cell_volume 1430.304566
_symmetry_space_group_name_H-M "P 21/M"
_symmetry_group_IT_number 11
_symmetry_cell_setting 'monoclinic'
loop_
_space_group_symop_operation_xyz
x,y,z
-x,1/2+y,-z
-x,-y,-z
x,1/2-y,z
loop_
_atom_site_type_symbol
_atom_site_label
_atom_site_fract_x
_atom_site_fract_y
_atom_site_fract_z
Si Si1 0.966712 0.055558 0.743762
Si Si2 0.969389 0.443745 0.856663
Si Si3 0.501056 0.554824 0.735526
Si Si4 0.369356 0.944912 0.803664
Si Si5 0.470182 0.942563 0.435394
Si Si6 0.764109 0.057131 0.438160
Si Si7 0.185139 0.445225 0.018591
O O1 0.954118 0.250000 0.742134
O O2 0.994673 0.994847 0.808324
O O3 0.747889 0.996407 0.654367
O O4 0.164799 0.008666 0.769928
O O5 0.986861 0.250000 0.860111
O O6 0.736398 0.488677 0.804939
O O7 0.129707 0.501676 0.946678
O O8 0.512134 0.750000 0.738353
O O9 0.384374 0.506148 0.750868
O O10 0.379534 0.499562 0.650457
O O11 0.363950 0.750000 0.803727
O O12 0.586578 0.999072 0.894433
O O13 0.461715 0.750000 0.433057
O O14 0.500000 0.000000 0.500000
O O15 0.661572 0.996148 0.457916
O O16 0.760275 0.250000 0.437167
O O17 0.000000 0.000000 0.500000
O O18 0.185542 0.250000 0.019167
O O19 0.000000 0.500000 0.000000
#
# Coordination Sequence:
#
# PCOD9162663 Si02
#       7
#     4   4   4   4   4   4   4
#     4  10  23  41  59  85 119 156 197 239 292 354
#     4  10  20  37  61  86 116 155 196 241 291 347
#     4  10  21  38  60  87 118 154 196 240 291 349
#     4  10  22  38  57  87 122 155 195 243 291 347
#     4  11  24  43  64  89 121 159 200 249 302 359
#     4  11  24  41  63  93 123 158 200 246 299 358
#     4  10  20  35  58  87 118 152 193 243 294 344
#
# _framework density 19.576252
#
# number of rings (size 3 to 8) (size 9 to 14) (size 15 to 20)
#    0.000    1.714    2.857    0.857    2.000    4.000 
#    0.000    0.000    0.000    0.000    0.000    0.000 
#    0.000    0.000    0.000    0.000    0.000    0.000 
#
# Total GULP energy -156429.415759 kJ/mol
# GULP energy per Si atom -5586.764849 kJ/mol
# Density = 1.953170 g / cm^3
# Si number density = 19.576252 Si / 1000 Ang^3
#
#
#
# Elastic Constant Matrix: (Units=GPa)
#
#
# Indices 1 2 3 4 5 6 
#
# 1 176.6318 13.3186 66.0528 0.0000 -14.2557 0.0000
# 2 13.3186 12.4372 16.7810 0.0000 -7.1191 0.0000
# 3 66.0528 16.7810 103.8929 0.0000 -15.3653 0.0000
# 4 0.0000 0.0000 0.0000 19.3996 0.0000 5.2399
# 5 -14.2557 -7.1191 -15.3653 0.0000 41.7993 0.0000
# 6 0.0000 0.0000 0.0000 5.2399 0.0000 34.8192
#
#
#
# Elastic Compliance Matrix: (Units=1/GPa)
#
#
# Indices 1 2 3 4 5 6 
#
# 1 0.007483 -0.001730 -0.004382 0.000000 0.000646 0.000000
# 2 -0.001730 0.109301 -0.014687 0.000000 0.012627 0.000000
# 3 -0.004382 -0.014687 0.015009 0.000000 0.001521 0.000000
# 4 0.000000 0.000000 0.000000 0.053731 0.000000 -0.008086
# 5 0.000646 0.012627 0.001521 0.000000 0.026854 0.000000
# 6 0.000000 0.000000 0.000000 -0.008086 0.000000 0.029937
#
#
# Mechanical properties :
#
#
# Convention : Reuss Voigt Hill
#
# Bulk Modulus (GPa) = 11.08729 53.91852 32.50291
# Shear Modulus (GPa) = 15.92465 32.32426 24.12446
#
# Velocity S-wave (km/s) = 2.85523 4.06790 3.51427
# Velocity P-wave (km/s) = 4.06764 7.04744 5.75379
#
# Compressibility (1/GPa) = 0.09019333
#
# Stress axis : x y z
#
# Youngs Moduli (GPa) = 133.63663 9.14905 66.62759
#
# Poissons Ratio (x) = 0.01583 0.29199
# Poissons Ratio (y) = 0.23122 0.97856
# Poissons Ratio (z) = 0.58565 0.13437
#
# Static dielectric constant tensor:
#      x y z
#    x 1.647530 0.000000 -0.033580 
#    y 0.000000 1.689220 0.000000 
#    z -0.033580 0.000000 1.694390 
# 
# From -- ./inp_files/28572.got.cif
#   From: 2010.05.17/outbox.cif.g08.bks.cpg/sg11_15_cif.got.tgz:28572.got - 2010.06.03 12:22:45.
