data_PCOD9162026
_publ_section_title
;
Structure prediction by ZEFSAII (Michael W. Deem and Ramdas Pophale) SiO2 
 PCOD9162026
Probable space group: P 21/M
;
_chemical_formula_sum "Si O2"
_cell_formula_units_Z 32
_cell_length_a 29.018759
_cell_length_b 9.717392
_cell_length_c 5.367973
_cell_angle_alpha 90.000000
_cell_angle_beta 88.349809
_cell_angle_gamma 90.000000
_cell_volume 1513.068987
_symmetry_space_group_name_H-M "P 21/M"
_symmetry_group_IT_number 11
_symmetry_cell_setting 'monoclinic'
loop_
_space_group_symop_operation_xyz
x,y,z
-x,1/2+y,-z
-x,-y,-z
x,1/2-y,z
loop_
_atom_site_type_symbol
_atom_site_label
_atom_site_fract_x
_atom_site_fract_y
_atom_site_fract_z
Si Si1 0.816747 0.902947 0.744886
Si Si2 0.770934 0.097995 0.424329
Si Si3 0.675361 0.096155 0.711973
Si Si4 0.453886 0.411767 0.024093
Si Si5 0.395037 0.412710 0.535830
Si Si6 0.047054 0.082406 0.450635
Si Si7 0.899653 0.914960 0.063638
Si Si8 0.722619 0.597014 0.038423
O O1 0.832983 0.750000 0.653974
O O2 0.848218 0.946430 0.973009
O O3 0.763656 0.885519 0.831095
O O4 0.814114 0.022803 0.543763
O O5 0.781624 0.250000 0.322242
O O6 0.728442 0.114963 0.623268
O O7 0.748278 0.994917 0.234375
O O8 0.657317 0.250000 0.771596
O O9 0.646825 0.017811 0.503977
O O10 0.679792 0.986476 0.934137
O O11 0.465505 0.250000 0.013474
O O12 0.421804 0.439438 0.788496
O O13 0.500000 0.500000 0.000000
O O14 0.427730 0.436589 0.289289
O O15 0.381640 0.250000 0.530847
O O16 0.040754 0.250000 0.459520
O O17 0.081241 0.039826 0.672215
O O18 0.068055 0.046485 0.176674
O O19 0.000000 0.000000 0.500000
O O20 0.900672 0.750000 0.078476
O O21 0.709784 0.750000 0.126555
#
# Coordination Sequence:
#
# PCOD9162026 Si02
#       8
#     4   4   4   4   4   4   4   4
#     4   9  19  35  55  81 106 143 194 237 280 336
#     4  10  21  36  54  79 116 153 188 235 290 343
#     4  10  22  38  55  81 115 153 196 241 290 344
#     4  10  22  40  62  88 119 152 192 241 296 351
#     4  10  22  39  60  89 120 153 196 245 290 346
#     4  10  20  36  57  82 111 146 182 231 286 341
#     4   9  19  34  58  84 110 143 188 236 280 334
#     4  10  20  34  57  82 110 149 193 238 284 340
#
# _framework density 21.149068
#
# number of rings (size 3 to 8) (size 9 to 14) (size 15 to 20)
#    0.000    2.250    0.000    1.875    3.500    3.000 
#    0.000    1.250    0.000    0.000    0.000    0.000 
#    0.000    0.000    0.000    0.000    0.000    0.000 
#
# Total GULP energy -178460.434466 kJ/mol
# GULP energy per Si atom -5576.888577 kJ/mol
# Density = 2.110093 g / cm^3
# Si number density = 21.149068 Si / 1000 Ang^3
#
#
#
# Elastic Constant Matrix: (Units=GPa)
#
#
# Indices 1 2 3 4 5 6 
#
# 1 89.3585 32.1555 24.2654 0.0000 9.0043 0.0000
# 2 32.1555 122.8158 35.9031 0.0000 22.2444 0.0000
# 3 24.2654 35.9031 92.3993 0.0000 14.1905 0.0000
# 4 0.0000 0.0000 0.0000 12.5580 0.0000 -1.5560
# 5 9.0043 22.2444 14.1905 0.0000 35.5726 0.0000
# 6 0.0000 0.0000 0.0000 -1.5560 0.0000 20.8608
#
#
#
# Elastic Compliance Matrix: (Units=1/GPa)
#
#
# Indices 1 2 3 4 5 6 
#
# 1 0.012798 -0.002558 -0.002253 0.000000 -0.000741 0.000000
# 2 -0.002558 0.010463 -0.002651 0.000000 -0.004838 0.000000
# 3 -0.002253 -0.002651 0.012892 0.000000 -0.002915 0.000000
# 4 0.000000 0.000000 0.000000 0.080373 0.000000 0.005995
# 5 -0.000741 -0.004838 -0.002915 0.000000 0.032487 0.000000
# 6 0.000000 0.000000 0.000000 0.005995 0.000000 0.048384
#
#
# Mechanical properties :
#
#
# Convention : Reuss Voigt Hill
#
# Bulk Modulus (GPa) = 47.10489 54.35796 50.73142
# Shear Modulus (GPa) = 22.78966 27.94826 25.36896
#
# Velocity S-wave (km/s) = 3.28620 3.63917 3.46718
# Velocity P-wave (km/s) = 6.05970 6.58910 6.32994
#
# Compressibility (1/GPa) = 0.02122922
#
# Stress axis : x y z
#
# Youngs Moduli (GPa) = 78.13823 95.57355 77.56740
#
# Poissons Ratio (x) = 0.24446 0.17477
# Poissons Ratio (y) = 0.19986 0.20562
# Poissons Ratio (z) = 0.17606 0.25336
#
# Static dielectric constant tensor:
#      x y z
#    x 1.781950 0.000000 -0.047080 
#    y 0.000000 1.822540 0.000000 
#    z -0.047080 0.000000 1.832640 
# 
# From -- ./inp_files/9671.got.cif
#   From: 2010.05.17/outbox.cif.g08.bks.cpg/sg11_5_cif.got.tgz:9671.got - 2010.06.03 12:22:45.
