data_PCOD9162858
_publ_section_title
;
Structure prediction by ZEFSAII (Michael W. Deem and Ramdas Pophale) SiO2 
 PCOD9162858
Probable space group: P 21/M
;
_chemical_formula_sum "Si O2"
_cell_formula_units_Z 32
_cell_length_a 20.678786
_cell_length_b 8.889530
_cell_length_c 21.656540
_cell_angle_alpha 90.000000
_cell_angle_beta 153.859074
_cell_angle_gamma 90.000000
_cell_volume 1753.953982
_symmetry_space_group_name_H-M "P 21/M"
_symmetry_group_IT_number 11
_symmetry_cell_setting 'monoclinic'
loop_
_space_group_symop_operation_xyz
x,y,z
-x,1/2+y,-z
-x,-y,-z
x,1/2-y,z
loop_
_atom_site_type_symbol
_atom_site_label
_atom_site_fract_x
_atom_site_fract_y
_atom_site_fract_z
Si Si1 0.252173 0.931906 0.883917
Si Si2 0.325147 0.074159 0.169983
Si Si3 0.222045 0.070419 0.407577
Si Si4 0.887104 0.430665 0.105878
Si Si5 0.430060 0.930980 0.837980
Si Si6 0.132071 0.568927 0.652801
Si Si7 0.515216 0.068875 0.445595
Si Si8 0.372889 0.926270 0.647631
O O1 0.259227 0.750000 0.890246
O O2 0.193470 0.984086 0.900376
O O3 0.143890 0.975666 0.734994
O O4 0.415773 0.993551 0.013096
O O5 0.286642 0.250000 0.140186
O O6 0.380465 0.024083 0.284776
O O7 0.468702 0.060127 0.249387
O O8 0.196965 0.986005 0.026552
O O9 0.235171 0.250000 0.411939
O O10 0.056382 0.022766 0.251560
O O11 0.338439 0.990319 0.462636
O O12 0.263224 0.023617 0.512596
O O13 0.883379 0.250000 0.104378
O O14 0.448362 0.750000 0.856540
O O15 0.290448 0.972617 0.759709
O O16 0.389516 0.971567 0.732680
O O17 0.118979 0.750000 0.638334
O O18 0.000000 0.500000 0.500000
O O19 0.518565 0.250000 0.450584
O O20 0.500000 0.000000 0.500000
O O21 0.330538 0.750000 0.608499
#
# Coordination Sequence:
#
# PCOD9162858 Si02
#       8
#     4   4   4   4   4   4   4   4
#     4  10  21  37  55  79 109 145 187 235 285 337
#     4   9  18  34  56  82 111 142 179 224 269 319
#     4  10  21  35  54  82 115 149 185 226 273 324
#     4  10  21  35  53  81 115 146 184 230 279 330
#     4  10  20  36  56  79 106 141 187 234 283 341
#     4  10  23  39  55  77 110 145 186 238 289 343
#     4  10  21  39  62  88 116 148 187 225 267 322
#     4   9  18  33  52  78 108 139 183 233 276 328
#
# _framework density 18.244491
#
# number of rings (size 3 to 8) (size 9 to 14) (size 15 to 20)
#    0.000    2.250    1.250    1.875    1.750    5.000 
#    0.000    0.625    0.000    0.000    0.000    0.000 
#    0.000    0.000    0.000    0.000    0.000    0.000 
#
# Total GULP energy -178572.634494 kJ/mol
# GULP energy per Si atom -5580.394828 kJ/mol
# Density = 1.820297 g / cm^3
# Si number density = 18.244491 Si / 1000 Ang^3
#
#
#
# Elastic Constant Matrix: (Units=GPa)
#
#
# Indices 1 2 3 4 5 6 
#
# 1 71.9722 21.9129 55.5758 0.0000 -24.0818 0.0000
# 2 21.9129 24.9931 42.5389 0.0000 -4.3879 0.0000
# 3 55.5758 42.5389 160.3386 0.0000 -13.7021 0.0000
# 4 0.0000 0.0000 0.0000 35.2302 0.0000 -2.2579
# 5 -24.0818 -4.3879 -13.7021 0.0000 27.9313 0.0000
# 6 0.0000 0.0000 0.0000 -2.2579 0.0000 21.2135
#
#
#
# Elastic Compliance Matrix: (Units=1/GPa)
#
#
# Indices 1 2 3 4 5 6 
#
# 1 0.028141 -0.013621 -0.004436 0.000000 0.019946 0.000000
# 2 -0.013621 0.079660 -0.017063 0.000000 -0.007600 0.000000
# 3 -0.004436 -0.017063 0.012259 0.000000 -0.000491 0.000000
# 4 0.000000 0.000000 0.000000 0.028580 0.000000 0.003042
# 5 0.019946 -0.007600 -0.000491 0.000000 0.051565 0.000000
# 6 0.000000 0.000000 0.000000 0.003042 0.000000 0.047464
#
#
# Mechanical properties :
#
#
# Convention : Reuss Voigt Hill
#
# Bulk Modulus (GPa) = 20.07174 55.26210 37.66692
# Shear Modulus (GPa) = 14.94708 26.02676 20.48692
#
# Velocity S-wave (km/s) = 2.86539 3.78107 3.35462
# Velocity P-wave (km/s) = 4.68750 7.02976 5.97454
#
# Compressibility (1/GPa) = 0.04982129
#
# Stress axis : x y z
#
# Youngs Moduli (GPa) = 35.53592 12.55332 81.57195
#
# Poissons Ratio (x) = 0.17099 0.36182
# Poissons Ratio (y) = 0.48404 1.39183
# Poissons Ratio (z) = 0.15762 0.21419
#
# Static dielectric constant tensor:
#      x y z
#    x 1.626900 0.000000 -0.013400 
#    y 0.000000 1.614960 0.000000 
#    z -0.013400 0.000000 1.610070 
# 
# From -- ./inp_files/70044.got.cif
#   From: 2010.05.17/outbox.cif.g08.bks.cpg/sg11_36_cif.got.tgz:70044.got - 2010.06.03 12:22:45.
