data_PCOD9162728
_publ_section_title
;
Structure prediction by ZEFSAII (Michael W. Deem and Ramdas Pophale) SiO2 
 PCOD9162728
Probable space group: P 21/M
;
_chemical_formula_sum "Si O2"
_cell_formula_units_Z 32
_cell_length_a 24.886214
_cell_length_b 8.880695
_cell_length_c 20.141890
_cell_angle_alpha 90.000000
_cell_angle_beta 21.624378
_cell_angle_gamma 90.000000
_cell_volume 1640.465898
_symmetry_space_group_name_H-M "P 21/M"
_symmetry_group_IT_number 11
_symmetry_cell_setting 'monoclinic'
loop_
_space_group_symop_operation_xyz
x,y,z
-x,1/2+y,-z
-x,-y,-z
x,1/2-y,z
loop_
_atom_site_type_symbol
_atom_site_label
_atom_site_fract_x
_atom_site_fract_y
_atom_site_fract_z
Si Si1 0.984647 0.569219 0.843851
Si Si2 0.456295 0.569425 0.448750
Si Si3 0.275015 0.570629 0.787305
Si Si4 0.585220 0.070669 0.086330
Si Si5 0.628449 0.927278 0.894457
Si Si6 0.676890 0.431664 0.541366
Si Si7 0.954135 0.927641 0.482886
Si Si8 0.150366 0.069726 0.143898
O O1 0.980701 0.750000 0.855413
O O2 0.911364 0.530273 0.857434
O O3 0.153759 0.523297 0.650624
O O4 0.882723 0.497308 0.016828
O O5 0.478718 0.750000 0.424344
O O6 0.341793 0.530348 0.638677
O O7 0.608241 0.492547 0.293628
O O8 0.391295 0.529556 0.452088
O O9 0.269345 0.750000 0.798587
O O10 0.588109 0.250000 0.082758
O O11 0.424516 0.009542 0.287565
O O12 0.637185 0.007448 0.955720
O O13 0.696497 0.006114 0.013450
O O14 0.602994 0.750000 0.934725
O O15 0.779883 0.943019 0.681128
O O16 0.500000 0.000000 0.000000
O O17 0.669077 0.250000 0.558418
O O18 0.991525 0.750000 0.438656
O O19 0.000000 0.000000 0.500000
O O20 0.035813 0.012482 0.330228
O O21 0.166928 0.250000 0.128869
#
# Coordination Sequence:
#
# PCOD9162728 Si02
#       8
#     4   4   4   4   4   4   4   4
#     4  10  23  40  59  86 118 157 197 240 296 355
#     4   9  19  37  61  87 118 157 198 242 293 351
#     4  10  20  35  59  90 120 153 197 245 292 347
#     4  12  25  41  62  89 119 156 200 247 300 356
#     4  11  25  43  64  91 123 159 198 243 299 358
#     4  10  22  41  61  84 118 159 200 244 296 356
#     4  11  23  40  64  92 120 154 199 247 298 354
#     4  11  23  40  62  87 117 156 201 248 298 355
#
# _framework density 19.506653
#
# number of rings (size 3 to 8) (size 9 to 14) (size 15 to 20)
#    0.000    1.500    1.250    3.375    1.750    7.500 
#    0.000    0.000    0.000    0.000    0.000    0.000 
#    0.000    0.000    0.000    0.000    0.000    0.000 
#
# Total GULP energy -178935.342590 kJ/mol
# GULP energy per Si atom -5591.729456 kJ/mol
# Density = 1.946226 g / cm^3
# Si number density = 19.506653 Si / 1000 Ang^3
#
#
#
# Elastic Constant Matrix: (Units=GPa)
#
#
# Indices 1 2 3 4 5 6 
#
# 1 40.8801 16.1372 14.4970 0.0000 -5.5892 0.0000
# 2 16.1372 49.8453 36.6948 0.0000 -7.1968 0.0000
# 3 14.4970 36.6948 125.5560 0.0000 -5.5295 0.0000
# 4 0.0000 0.0000 0.0000 38.6688 0.0000 -2.0646
# 5 -5.5892 -7.1968 -5.5295 0.0000 28.3259 0.0000
# 6 0.0000 0.0000 0.0000 -2.0646 0.0000 19.4278
#
#
#
# Elastic Compliance Matrix: (Units=1/GPa)
#
#
# Indices 1 2 3 4 5 6 
#
# 1 0.028410 -0.008159 -0.000747 0.000000 0.003387 0.000000
# 2 -0.008159 0.028651 -0.007244 0.000000 0.004255 0.000000
# 3 -0.000747 -0.007244 0.010168 0.000000 -0.000003 0.000000
# 4 0.000000 0.000000 0.000000 0.026008 0.000000 0.002764
# 5 0.003387 0.004255 -0.000003 0.000000 0.037052 0.000000
# 6 0.000000 0.000000 0.000000 0.002764 0.000000 0.051766
#
#
# Mechanical properties :
#
#
# Convention : Reuss Voigt Hill
#
# Bulk Modulus (GPa) = 28.62899 38.99326 33.81113
# Shear Modulus (GPa) = 22.12406 27.21465 24.66936
#
# Velocity S-wave (km/s) = 3.37141 3.73922 3.56007
# Velocity P-wave (km/s) = 5.46476 6.21896 5.85402
#
# Compressibility (1/GPa) = 0.03492963
#
# Stress axis : x y z
#
# Youngs Moduli (GPa) = 35.19843 34.90309 98.35012
#
# Poissons Ratio (x) = 0.28478 0.07343
# Poissons Ratio (y) = 0.28719 0.71244
# Poissons Ratio (z) = 0.02628 0.25284
#
# Static dielectric constant tensor:
#      x y z
#    x 1.664470 0.000000 -0.001070 
#    y 0.000000 1.654070 0.000000 
#    z -0.001070 0.000000 1.653820 
# 
# From -- ./inp_files/67042.got.cif
#   From: 2010.05.17/outbox.cif.g08.bks.cpg/sg11_34_cif.got.tgz:67042.got - 2010.06.03 12:22:45.
