data_PCOD9162492
_publ_section_title
;
Structure prediction by ZEFSAII (Michael W. Deem and Ramdas Pophale) SiO2 
 PCOD9162492
Probable space group: P 21/M
;
_chemical_formula_sum "Si O2"
_cell_formula_units_Z 24
_cell_length_a 25.113142
_cell_length_b 7.755479
_cell_length_c 7.312377
_cell_angle_alpha 90.000000
_cell_angle_beta 53.342291
_cell_angle_gamma 90.000000
_cell_volume 1142.509622
_symmetry_space_group_name_H-M "P 21/M"
_symmetry_group_IT_number 11
_symmetry_cell_setting 'monoclinic'
loop_
_space_group_symop_operation_xyz
x,y,z
-x,1/2+y,-z
-x,-y,-z
x,1/2-y,z
loop_
_atom_site_type_symbol
_atom_site_label
_atom_site_fract_x
_atom_site_fract_y
_atom_site_fract_z
Si Si1 0.106712 0.544398 0.792252
Si Si2 0.633346 0.455154 0.953327
Si Si3 0.745078 0.461468 0.444516
Si Si4 0.510025 0.045457 0.694445
Si Si5 0.651766 0.038913 0.328878
Si Si6 0.005779 0.455244 0.700482
O O1 0.110715 0.750000 0.810606
O O2 0.181277 0.476883 0.660217
O O3 0.072482 0.514704 0.666463
O O4 0.055707 0.475337 0.050907
O O5 0.642631 0.250000 0.941077
O O6 0.555392 0.479904 0.069457
O O7 0.646586 0.522810 0.131384
O O8 0.688612 0.521663 0.701674
O O9 0.745786 0.250000 0.448607
O O10 0.717488 0.511321 0.302055
O O11 0.509643 0.250000 0.716374
O O12 0.585072 0.983139 0.574099
O O13 0.500000 0.000000 0.500000
O O14 0.649689 0.250000 0.329115
O O15 0.004568 0.250000 0.717570
O O16 0.000000 0.500000 0.500000
#
# Coordination Sequence:
#
# PCOD9162492 Si02
#       6
#     4   4   4   4   4   4
#     4   9  19  35  55  80 107 135 171 214 256 304
#     4   9  17  29  47  69  93 124 162 205 250 294
#     4   9  17  30  49  72  97 126 162 202 245 298
#     4   9  16  28  46  66  92 125 163 208 251 292
#     4   8  15  27  43  66  93 121 157 201 244 285
#     4  10  20  35  57  82 108 138 172 210 253 305
#
# _framework density 21.006385000000002
#
# number of rings (size 3 to 8) (size 9 to 14) (size 15 to 20)
#    0.000    3.000    0.000    2.000    0.000    2.667 
#    0.000    5.833    0.000    9.000    0.000    0.000 
#    0.000    0.000    0.000    0.000    0.000    0.000 
#
# Total GULP energy -133819.718043 kJ/mol
# GULP energy per Si atom -5575.821585 kJ/mol
# Density = 2.095857 g / cm^3
# Si number density = 21.006385 Si / 1000 Ang^3
#
#
#
# Elastic Constant Matrix: (Units=GPa)
#
#
# Indices 1 2 3 4 5 6 
#
# 1 147.5058 -1.9030 48.9823 0.0000 -22.0462 0.0000
# 2 -1.9030 26.0080 4.0700 0.0000 -4.8245 0.0000
# 3 48.9823 4.0700 55.1428 0.0000 -5.2237 0.0000
# 4 0.0000 0.0000 0.0000 13.5462 0.0000 -3.4132
# 5 -22.0462 -4.8245 -5.2237 0.0000 34.2230 0.0000
# 6 0.0000 0.0000 0.0000 -3.4132 0.0000 18.5835
#
#
#
# Elastic Compliance Matrix: (Units=1/GPa)
#
#
# Indices 1 2 3 4 5 6 
#
# 1 0.010801 0.003357 -0.009272 0.000000 0.006016 0.000000
# 2 0.003357 0.040847 -0.005324 0.000000 0.007108 0.000000
# 3 -0.009272 -0.005324 0.026510 0.000000 -0.002677 0.000000
# 4 0.000000 0.000000 0.000000 0.077404 0.000000 0.014217
# 5 0.006016 0.007108 -0.002677 0.000000 0.033689 0.000000
# 6 0.000000 0.000000 0.000000 0.014217 0.000000 0.056422
#
#
# Mechanical properties :
#
#
# Convention : Reuss Voigt Hill
#
# Bulk Modulus (GPa) = 17.95938 36.77281 27.36609
# Shear Modulus (GPa) = 17.43919 25.10434 21.27176
#
# Velocity S-wave (km/s) = 2.88442 3.46075 3.18564
# Velocity P-wave (km/s) = 4.43410 5.78900 5.15625
#
# Compressibility (1/GPa) = 0.05568121
#
# Stress axis : x y z
#
# Youngs Moduli (GPa) = 92.58568 24.48157 37.72123
#
# Poissons Ratio (x) = -0.08219 0.34975
# Poissons Ratio (y) = -0.31083 0.20081
# Poissons Ratio (z) = 0.85846 0.13033
#
# Static dielectric constant tensor:
#      x y z
#    x 1.761090 0.000000 0.004130 
#    y 0.000000 1.781040 0.000000 
#    z 0.004130 0.000000 1.775580 
# 
# From -- ./inp_files/27917.got.cif
#   From: 2010.05.17/outbox.cif.g08.bks.cpg/sg11_14_cif.got.tgz:27917.got - 2010.06.03 12:22:45.
