data_PCOD9162014
_publ_section_title
;
Structure prediction by ZEFSAII (Michael W. Deem and Ramdas Pophale) SiO2 
 PCOD9162014
Probable space group: P 21/M
;
_chemical_formula_sum "Si O2"
_cell_formula_units_Z 32
_cell_length_a 15.414629
_cell_length_b 8.887674
_cell_length_c 24.279052
_cell_angle_alpha 90.000000
_cell_angle_beta 30.138502
_cell_angle_gamma 90.000000
_cell_volume 1670.075922
_symmetry_space_group_name_H-M "P 21/M"
_symmetry_group_IT_number 11
_symmetry_cell_setting 'monoclinic'
loop_
_space_group_symop_operation_xyz
x,y,z
-x,1/2+y,-z
-x,-y,-z
x,1/2-y,z
loop_
_atom_site_type_symbol
_atom_site_label
_atom_site_fract_x
_atom_site_fract_y
_atom_site_fract_z
Si Si1 0.682593 0.419156 0.386598
Si Si2 0.311223 0.429758 0.091387
Si Si3 0.813582 0.428462 0.616134
Si Si4 0.940129 0.574794 0.089532
Si Si5 0.386672 0.915947 0.703175
Si Si6 0.033602 0.931740 0.164127
Si Si7 0.874576 0.068739 0.703146
Si Si8 0.747760 0.572356 0.545545
O O1 0.500000 0.500000 0.500000
O O2 0.691655 0.250000 0.406285
O O3 0.670011 0.402627 0.328059
O O4 0.864071 0.509729 0.291679
O O5 0.324624 0.250000 0.077884
O O6 0.205160 0.499628 0.098005
O O7 0.199001 0.476663 0.206164
O O8 0.500000 0.500000 0.000000
O O9 0.826836 0.250000 0.604081
O O10 0.771851 0.461818 0.702449
O O11 0.701016 0.493998 0.628810
O O12 0.000000 0.500000 0.500000
O O13 0.975988 0.750000 0.066400
O O14 0.736163 0.539338 0.203651
O O15 0.014789 0.525280 0.109067
O O16 0.000000 0.500000 0.000000
O O17 0.363903 0.750000 0.742376
O O18 0.587778 0.952752 0.593818
O O19 0.035816 0.750000 0.166034
O O20 0.868565 0.250000 0.717251
O O21 0.071974 0.024747 0.580432
O O22 0.768407 0.750000 0.545110
#
# Coordination Sequence:
#
# PCOD9162014 Si02
#       8
#     4   4   4   4   4   4   4   4
#     4  10  20  34  56  88 123 161 201 241 292 355
#     4  12  26  44  65  90 118 155 204 257 307 363
#     4   9  17  31  52  78 110 148 187 232 283 337
#     4  10  21  39  64  90 118 156 197 243 297 353
#     4   9  19  35  54  82 119 156 192 235 286 345
#     4  10  22  42  65  89 121 160 201 251 305 358
#     4   9  19  36  58  82 114 155 196 240 298 355
#     4   9  18  33  55  84 118 156 191 233 290 349
#
# _framework density 19.160806000000001
#
# number of rings (size 3 to 8) (size 9 to 14) (size 15 to 20)
#    0.000    2.250    0.000    3.375    1.750    5.000 
#    2.250    0.000    0.000    0.000    0.000    0.000 
#    0.000    0.000    0.000    0.000    0.000    0.000 
#
# Total GULP energy -178197.092876 kJ/mol
# GULP energy per Si atom -5568.659152 kJ/mol
# Density = 1.911720 g / cm^3
# Si number density = 19.160806 Si / 1000 Ang^3
#
#
#
# Elastic Constant Matrix: (Units=GPa)
#
#
# Indices 1 2 3 4 5 6 
#
# 1 88.3569 45.7464 50.1408 0.0000 -14.1259 0.0000
# 2 45.7464 81.2064 45.9181 0.0000 -0.0906 0.0000
# 3 50.1408 45.9181 83.8713 0.0000 -1.5788 0.0000
# 4 0.0000 0.0000 0.0000 32.4746 0.0000 1.7987
# 5 -14.1259 -0.0906 -1.5788 0.0000 31.8769 0.0000
# 6 0.0000 0.0000 0.0000 1.7987 0.0000 30.5703
#
#
#
# Elastic Compliance Matrix: (Units=1/GPa)
#
#
# Indices 1 2 3 4 5 6 
#
# 1 0.021394 -0.007106 -0.008730 0.000000 0.009028 0.000000
# 2 -0.007106 0.020202 -0.006877 0.000000 -0.003432 0.000000
# 3 -0.008730 -0.006877 0.020853 0.000000 -0.002855 0.000000
# 4 0.000000 0.000000 0.000000 0.030894 0.000000 -0.001818
# 5 0.009028 -0.003432 -0.002855 0.000000 0.035220 0.000000
# 6 0.000000 0.000000 0.000000 -0.001818 0.000000 0.032818
#
#
# Mechanical properties :
#
#
# Convention : Reuss Voigt Hill
#
# Bulk Modulus (GPa) = 58.73899 59.67170 59.20534
# Shear Modulus (GPa) = 23.53155 26.42631 24.97893
#
# Velocity S-wave (km/s) = 3.50824 3.71777 3.61452
# Velocity P-wave (km/s) = 6.86532 7.04551 6.95600
#
# Compressibility (1/GPa) = 0.01702447
#
# Stress axis : x y z
#
# Youngs Moduli (GPa) = 46.74219 49.50058 47.95437
#
# Poissons Ratio (x) = 0.35173 0.41863
# Poissons Ratio (y) = 0.33213 0.32977
# Poissons Ratio (z) = 0.40805 0.34041
#
# Static dielectric constant tensor:
#      x y z
#    x 1.759230 0.000000 -0.042100 
#    y 0.000000 1.698730 0.000000 
#    z -0.042100 0.000000 1.705860 
# 
# From -- ./inp_files/68990.got.cif
#   From: 2010.05.17/outbox.cif.g08.bks.cpg/sg11_35_cif.got.tgz:68990.got - 2010.06.03 12:22:45.
