data_PCOD9162810
_publ_section_title
;
Structure prediction by ZEFSAII (Michael W. Deem and Ramdas Pophale) SiO2 
 PCOD9162810
Probable space group: P 21/M
;
_chemical_formula_sum "Si O2"
_cell_formula_units_Z 28
_cell_length_a 14.935992
_cell_length_b 8.290932
_cell_length_c 14.800165
_cell_angle_alpha 90.000000
_cell_angle_beta 60.067071
_cell_angle_gamma 90.000000
_cell_volume 1588.282448
_symmetry_space_group_name_H-M "P 21/M"
_symmetry_group_IT_number 11
_symmetry_cell_setting 'monoclinic'
loop_
_space_group_symop_operation_xyz
x,y,z
-x,1/2+y,-z
-x,-y,-z
x,1/2-y,z
loop_
_atom_site_type_symbol
_atom_site_label
_atom_site_fract_x
_atom_site_fract_y
_atom_site_fract_z
Si Si1 0.014933 0.442079 0.096542
Si Si2 0.766874 0.553367 0.933888
Si Si3 0.198672 0.054807 0.734912
Si Si4 0.610587 0.558431 0.484499
Si Si5 0.404970 0.444063 0.112539
Si Si6 0.438060 0.943297 0.300157
Si Si7 0.667550 0.945546 0.166717
O O1 0.023732 0.250000 0.085896
O O2 0.119447 0.502864 0.093449
O O3 0.916555 0.487989 0.207213
O O4 0.000000 0.500000 0.000000
O O5 0.770897 0.750000 0.929639
O O6 0.704654 0.503056 0.876287
O O7 0.692516 0.503223 0.053593
O O8 0.192847 0.250000 0.733527
O O9 0.287466 0.999513 0.620622
O O10 0.243609 0.005836 0.809941
O O11 0.500000 0.500000 0.500000
O O12 0.608880 0.750000 0.474159
O O13 0.621452 0.513804 0.584276
O O14 0.408462 0.250000 0.112025
O O15 0.411579 0.506913 0.211527
O O16 0.500000 0.500000 0.000000
O O17 0.434238 0.750000 0.308081
O O18 0.556257 0.000332 0.254666
O O19 0.665385 0.750000 0.168145
#
# Coordination Sequence:
#
# PCOD9162810 Si02
#       7
#     4   4   4   4   4   4   4
#     4  11  21  34  54  80 108 144 184 224 270 325
#     4   9  18  33  52  74 109 147 177 213 272 327
#     4  10  20  36  54  76 111 148 178 219 273 325
#     4  11  22  36  56  82 112 148 185 224 275 331
#     4  11  21  35  55  80 109 146 185 225 274 331
#     4  11  21  36  55  79 112 148 182 226 275 327
#     4   9  15  29  51  75 108 146 173 205 266 327
#
# _framework density 17.629106
#
# number of rings (size 3 to 8) (size 9 to 14) (size 15 to 20)
#    0.000    1.714    4.286    1.714    0.000    1.143 
#    0.000    4.286    0.000    0.857    0.000    0.000 
#    0.000    0.000    0.000    0.000    0.000    0.000 
#
# Total GULP energy -156072.374646 kJ/mol
# GULP energy per Si atom -5574.013380 kJ/mol
# Density = 1.758898 g / cm^3
# Si number density = 17.629106 Si / 1000 Ang^3
#
#
#
# Elastic Constant Matrix: (Units=GPa)
#
#
# Indices 1 2 3 4 5 6 
#
# 1 97.8551 8.1751 34.6236 0.0000 -7.2981 0.0000
# 2 8.1751 26.7145 8.0567 0.0000 -3.9293 0.0000
# 3 34.6236 8.0567 91.6432 0.0000 -4.1207 0.0000
# 4 0.0000 0.0000 0.0000 25.5164 0.0000 -0.1144
# 5 -7.2981 -3.9293 -4.1207 0.0000 27.0535 0.0000
# 6 0.0000 0.0000 0.0000 -0.1144 0.0000 21.6721
#
#
#
# Elastic Compliance Matrix: (Units=1/GPa)
#
#
# Indices 1 2 3 4 5 6 
#
# 1 0.012077 -0.002067 -0.004278 0.000000 0.002306 0.000000
# 2 -0.002067 0.039519 -0.002477 0.000000 0.004805 0.000000
# 3 -0.004278 -0.002477 0.012765 0.000000 0.000431 0.000000
# 4 0.000000 0.000000 0.000000 0.039191 0.000000 0.000207
# 5 0.002306 0.004805 0.000431 0.000000 0.038349 0.000000
# 6 0.000000 0.000000 0.000000 0.000207 0.000000 0.046143
#
#
# Mechanical properties :
#
#
# Convention : Reuss Voigt Hill
#
# Bulk Modulus (GPa) = 21.40479 35.32484 28.36482
# Shear Modulus (GPa) = 22.59764 25.87221 24.23492
#
# Velocity S-wave (km/s) = 3.58416 3.83506 3.71173
# Velocity P-wave (km/s) = 5.41261 6.30012 5.87316
#
# Compressibility (1/GPa) = 0.04671851
#
# Stress axis : x y z
#
# Youngs Moduli (GPa) = 82.79958 25.30415 78.33831
#
# Poissons Ratio (x) = 0.05229 0.33510
# Poissons Ratio (y) = 0.17111 0.19408
# Poissons Ratio (z) = 0.35418 0.06269
#
# Static dielectric constant tensor:
#      x y z
#    x 1.614150 0.000000 -0.006850 
#    y 0.000000 1.618540 0.000000 
#    z -0.006850 0.000000 1.597220 
# 
# From -- ./inp_files/51120.got.cif
#   From: 2010.05.17/outbox.cif.g08.bks.cpg/sg11_26_cif.got.tgz:51120.got - 2010.06.03 12:22:45.
