data_PCOD9162936
_publ_section_title
;
Structure prediction by ZEFSAII (Michael W. Deem and Ramdas Pophale) SiO2 
 PCOD9162936
Probable space group: P 21/M
;
_chemical_formula_sum "Si O2"
_cell_formula_units_Z 20
_cell_length_a 13.200036
_cell_length_b 7.466676
_cell_length_c 12.527460
_cell_angle_alpha 90.000000
_cell_angle_beta 133.273465
_cell_angle_gamma 90.000000
_cell_volume 898.981368
_symmetry_space_group_name_H-M "P 21/M"
_symmetry_group_IT_number 11
_symmetry_cell_setting 'monoclinic'
loop_
_space_group_symop_operation_xyz
x,y,z
-x,1/2+y,-z
-x,-y,-z
x,1/2-y,z
loop_
_atom_site_type_symbol
_atom_site_label
_atom_site_fract_x
_atom_site_fract_y
_atom_site_fract_z
Si Si1 0.354794 0.964547 0.335370
Si Si2 0.835644 0.463827 0.617016
Si Si3 0.326188 0.464886 0.713746
Si Si4 0.633189 0.467660 0.900140
Si Si5 0.866623 0.541598 0.238542
O O1 0.340716 0.750000 0.318841
O O2 0.231041 0.034187 0.321637
O O3 0.355990 0.029567 0.214692
O O4 0.500000 0.000000 0.500000
O O5 0.851469 0.250000 0.642369
O O6 0.727201 0.495501 0.443337
O O7 0.984799 0.537254 0.687450
O O8 0.330610 0.250000 0.729743
O O9 0.484551 0.528787 0.839980
O O10 0.215535 0.537164 0.719429
O O11 0.633931 0.250000 0.901560
O O12 0.760522 0.530639 0.063630
O O13 0.893324 0.750000 0.284352
#
# Coordination Sequence:
#
# PCOD9162936 Si02
#       5
#     4   4   4   4   4
#     4  10  20  36  57  80 107 138 178 224 267 317
#     4  10  21  36  56  82 110 141 179 223 268 318
#     4  10  20  36  57  80 109 144 182 222 263 316
#     4  10  21  36  55  80 108 141 182 224 266 315
#     4  10  22  37  53  80 114 144 178 220 268 319
#
# _framework density 22.247402999999998
#
# number of rings (size 3 to 8) (size 9 to 14) (size 15 to 20)
#    0.000    2.000    2.000    1.200    0.000    4.000 
#    0.000    0.000    0.000    0.000    0.000    0.000 
#    0.000    0.000    0.000    0.000    0.000    0.000 
#
# Total GULP energy -111777.959173 kJ/mol
# GULP energy per Si atom -5588.897959 kJ/mol
# Density = 2.219677 g / cm^3
# Si number density = 22.247403 Si / 1000 Ang^3
#
#
#
# Elastic Constant Matrix: (Units=GPa)
#
#
# Indices 1 2 3 4 5 6 
#
# 1 172.0667 17.8106 -10.7552 0.0000 9.2555 0.0000
# 2 17.8106 70.3900 -23.3133 0.0000 2.8753 0.0000
# 3 -10.7552 -23.3133 32.7781 0.0000 4.6928 0.0000
# 4 0.0000 0.0000 0.0000 23.3430 0.0000 7.2281
# 5 9.2555 2.8753 4.6928 0.0000 45.9468 0.0000
# 6 0.0000 0.0000 0.0000 7.2281 0.0000 -112.8509
#
#
#
# Elastic Compliance Matrix: (Units=1/GPa)
#
#
# Indices 1 2 3 4 5 6 
#
# 1 0.006078 -0.000996 0.001474 0.000000 -0.001312 0.000000
# 2 -0.000996 0.019047 0.013560 0.000000 -0.002376 0.000000
# 3 0.001474 0.013560 0.041406 0.000000 -0.005374 0.000000
# 4 0.000000 0.000000 0.000000 0.042006 0.000000 0.002691
# 5 -0.001312 -0.002376 -0.005374 0.000000 0.022726 0.000000
# 6 0.000000 0.000000 0.000000 0.002691 0.000000 -0.008689
#
#
# Mechanical properties :
#
#
# Convention : Reuss Voigt Hill
#
# Bulk Modulus (GPa) = 10.57014 26.96876 18.76945
# Shear Modulus (GPa) = 39.67198 10.72064 25.19631
#
# Velocity S-wave (km/s) = 4.22740 2.19756 3.36899
# Velocity P-wave (km/s) = 5.34690 4.31133 4.85680
#
# Compressibility (1/GPa) = 0.09460612
#
# Stress axis : x y z
#
# Youngs Moduli (GPa) = 164.54113 52.50191 24.15114
#
# Poissons Ratio (x) = 0.05230 -0.03559
# Poissons Ratio (y) = 0.16390 -0.32750
# Poissons Ratio (z) = -0.24246 -0.71195
#
# Static dielectric constant tensor:
#      x y z
#    x 1.848340 0.000000 -0.005740 
#    y 0.000000 1.841670 0.000000 
#    z -0.005740 0.000000 1.731840 
# 
# From -- ./inp_files/15873.got.cif
#   From: 2010.05.17/outbox.cif.g08.bks.cpg/sg11_8_cif.got.tgz:15873.got - 2010.06.03 12:22:45.
