data_PCOD9162443
_publ_section_title
;
Structure prediction by ZEFSAII (Michael W. Deem and Ramdas Pophale) SiO2 
 PCOD9162443
Probable space group: P 21/M
;
_chemical_formula_sum "Si O2"
_cell_formula_units_Z 28
_cell_length_a 20.913040
_cell_length_b 8.899701
_cell_length_c 14.506271
_cell_angle_alpha 90.000000
_cell_angle_beta 31.208503
_cell_angle_gamma 90.000000
_cell_volume 1398.966063
_symmetry_space_group_name_H-M "P 21/M"
_symmetry_group_IT_number 11
_symmetry_cell_setting 'monoclinic'
loop_
_space_group_symop_operation_xyz
x,y,z
-x,1/2+y,-z
-x,-y,-z
x,1/2-y,z
loop_
_atom_site_type_symbol
_atom_site_label
_atom_site_fract_x
_atom_site_fract_y
_atom_site_fract_z
Si Si1 0.776846 0.425222 0.317089
Si Si2 0.963439 0.927351 0.222405
Si Si3 0.866176 0.072013 0.677909
Si Si4 0.773828 0.571520 0.126206
Si Si5 0.242235 0.072969 0.366557
Si Si6 0.313027 0.069325 0.961620
Si Si7 0.427857 0.926389 0.272042
O O1 0.812685 0.250000 0.268425
O O2 0.887152 0.520397 0.226644
O O3 0.744700 0.485847 0.256223
O O4 0.662358 0.438572 0.528339
O O5 0.990786 0.750000 0.184149
O O6 0.872129 0.953245 0.421674
O O7 0.088418 0.021258 0.072838
O O8 0.877015 0.250000 0.667732
O O9 0.783528 0.018920 0.693668
O O10 0.801735 0.010308 0.848887
O O11 0.000000 0.000000 0.500000
O O12 0.770698 0.750000 0.145722
O O13 0.685993 0.534541 0.148153
O O14 0.247481 0.250000 0.339399
O O15 0.364534 0.019827 0.268922
O O16 0.299578 0.250000 0.986636
O O17 0.437181 0.024862 0.861933
O O18 0.432157 0.750000 0.240592
#
# Coordination Sequence:
#
# PCOD9162443 Si02
#       7
#     4   4   4   4   4   4   4
#     4  10  20  35  57  83 113 149 189 235 285 339
#     4  10  20  35  56  83 114 147 188 236 284 339
#     4  12  25  41  63  90 119 151 187 231 285 343
#     4  11  22  35  54  81 114 152 191 235 288 339
#     4  10  21  38  62  89 117 151 190 236 288 340
#     4  10  23  42  61  83 115 153 194 239 283 336
#     4   9  20  40  62  85 114 151 195 238 283 335
#
# _framework density 20.014780999999999
#
# number of rings (size 3 to 8) (size 9 to 14) (size 15 to 20)
#    0.000    1.714    0.000    4.286    0.000    7.429 
#    0.000    0.000    0.000    0.000    0.000    0.000 
#    0.000    0.000    0.000    0.000    0.000    0.000 
#
# Total GULP energy -156583.299905 kJ/mol
# GULP energy per Si atom -5592.260711 kJ/mol
# Density = 1.996923 g / cm^3
# Si number density = 20.014781 Si / 1000 Ang^3
#
#
#
# Elastic Constant Matrix: (Units=GPa)
#
#
# Indices 1 2 3 4 5 6 
#
# 1 92.8817 20.7404 3.2289 0.0000 7.5180 0.0000
# 2 20.7404 34.6200 -2.8744 0.0000 7.4599 0.0000
# 3 3.2289 -2.8744 13.4195 0.0000 -7.6650 0.0000
# 4 0.0000 0.0000 0.0000 25.8215 0.0000 3.4078
# 5 7.5180 7.4599 -7.6650 0.0000 31.0435 0.0000
# 6 0.0000 0.0000 0.0000 3.4078 0.0000 33.0501
#
#
#
# Elastic Compliance Matrix: (Units=1/GPa)
#
#
# Indices 1 2 3 4 5 6 
#
# 1 0.012931 -0.007659 -0.006391 0.000000 -0.002869 0.000000
# 2 -0.007659 0.035085 0.006521 0.000000 -0.004966 0.000000
# 3 -0.006391 0.006521 0.090157 0.000000 0.022241 0.000000
# 4 0.000000 0.000000 0.000000 0.039262 0.000000 -0.004048
# 5 -0.002869 -0.004966 0.022241 0.000000 0.039593 0.000000
# 6 0.000000 0.000000 0.000000 -0.004048 0.000000 0.030674
#
#
# Mechanical properties :
#
#
# Convention : Reuss Voigt Hill
#
# Bulk Modulus (GPa) = 8.12240 20.34567 14.23403
# Shear Modulus (GPa) = 16.45830 25.97143 21.21487
#
# Velocity S-wave (km/s) = 2.87070 3.60615 3.25923
# Velocity P-wave (km/s) = 3.88007 5.24657 4.61418
#
# Compressibility (1/GPa) = 0.12311634
#
# Stress axis : x y z
#
# Youngs Moduli (GPa) = 77.33313 28.50213 11.09174
#
# Poissons Ratio (x) = 0.21830 0.07088
# Poissons Ratio (y) = 0.59231 -0.07233
# Poissons Ratio (z) = 0.49421 -0.18587
#
# Static dielectric constant tensor:
#      x y z
#    x 1.703470 0.000000 0.006580 
#    y 0.000000 1.664590 0.000000 
#    z 0.006580 0.000000 1.701110 
# 
# From -- ./inp_files/49451.got.cif
#   From: 2010.05.17/outbox.cif.g08.bks.cpg/sg11_25_cif.got.tgz:49451.got - 2010.06.03 12:22:45.
