data_PCOD9162192
_publ_section_title
;
Structure prediction by ZEFSAII (Michael W. Deem and Ramdas Pophale) SiO2 
 PCOD9162192
Probable space group: P 21/M
;
_chemical_formula_sum "Si O2"
_cell_formula_units_Z 32
_cell_length_a 7.267253
_cell_length_b 13.493389
_cell_length_c 20.899118
_cell_angle_alpha 90.000000
_cell_angle_beta 41.131380
_cell_angle_gamma 90.000000
_cell_volume 1348.047310
_symmetry_space_group_name_H-M "P 21/M"
_symmetry_group_IT_number 11
_symmetry_cell_setting 'monoclinic'
loop_
_space_group_symop_operation_xyz
x,y,z
-x,1/2+y,-z
-x,-y,-z
x,1/2-y,z
loop_
_atom_site_type_symbol
_atom_site_label
_atom_site_fract_x
_atom_site_fract_y
_atom_site_fract_z
Si Si1 0.192234 0.137079 0.141380
Si Si2 0.629492 0.131802 0.337788
Si Si3 0.241163 0.869695 0.070832
Si Si4 0.379983 0.545226 0.332722
Si Si5 0.172586 0.368609 0.557205
Si Si6 0.708122 0.935601 0.125587
Si Si7 0.113577 0.368746 0.719340
Si Si8 0.946450 0.357147 0.065538
O O1 0.253900 0.250000 0.145488
O O2 0.955773 0.099216 0.252269
O O3 0.010755 0.139986 0.123339
O O4 0.482435 0.093948 0.038805
O O5 0.619830 0.250000 0.327074
O O6 0.471833 0.114448 0.445859
O O7 0.462040 0.067452 0.328747
O O8 0.262482 0.750000 0.067294
O O9 0.976994 0.901874 0.097186
O O10 0.144893 0.903385 0.167273
O O11 0.061128 0.575645 0.423371
O O12 0.453413 0.574803 0.240070
O O13 0.599271 0.604776 0.319155
O O14 0.117973 0.250000 0.568387
O O15 0.148488 0.400993 0.637042
O O16 0.749453 0.051542 0.100572
O O17 0.758409 0.874190 0.048284
O O18 0.086538 0.250000 0.724579
O O19 0.834511 0.250000 0.076652
#
# Coordination Sequence:
#
# PCOD9162192 Si02
#       8
#     4   4   4   4   4   4   4   4
#     4   9  18  34  58  78 108 153 189 230 286 342
#     4  10  21  40  61  84 116 159 207 250 297 357
#     4   9  18  34  55  83 116 150 186 235 295 352
#     4  11  21  38  63  92 120 155 199 254 305 356
#     4  10  22  39  64  90 118 158 202 249 306 362
#     4  10  21  34  54  86 115 150 192 239 293 350
#     4   9  20  38  59  91 125 151 192 249 306 361
#     4  10  20  35  53  78 113 153 193 234 283 350
#
# _framework density 23.738040000000002
#
# number of rings (size 3 to 8) (size 9 to 14) (size 15 to 20)
#    0.000    2.250    1.250    1.125    1.750    2.500 
#    0.000    0.000    2.750    0.750    0.000    0.000 
#    0.000    0.000    0.000    0.000    0.000    0.000 
#
# Total GULP energy -178695.039926 kJ/mol
# GULP energy per Si atom -5584.219998 kJ/mol
# Density = 2.368401 g / cm^3
# Si number density = 23.738040 Si / 1000 Ang^3
#
#
#
# Elastic Constant Matrix: (Units=GPa)
#
#
# Indices 1 2 3 4 5 6 
#
# 1 53.3893 6.0145 64.5151 0.0000 7.1329 0.0000
# 2 6.0145 76.7152 42.3441 0.0000 -14.6149 0.0000
# 3 64.5151 42.3441 202.9652 0.0000 0.3402 0.0000
# 4 0.0000 0.0000 0.0000 29.4995 0.0000 1.7443
# 5 7.1329 -14.6149 0.3402 0.0000 29.3927 0.0000
# 6 0.0000 0.0000 0.0000 1.7443 0.0000 19.9966
#
#
#
# Elastic Compliance Matrix: (Units=1/GPa)
#
#
# Indices 1 2 3 4 5 6 
#
# 1 0.032313 0.002100 -0.010698 0.000000 -0.006673 0.000000
# 2 0.002100 0.016654 -0.004155 0.000000 0.007819 0.000000
# 3 -0.010698 -0.004155 0.009194 0.000000 0.000424 0.000000
# 4 0.000000 0.000000 0.000000 0.034075 0.000000 -0.002972
# 5 -0.006673 0.007819 0.000424 0.000000 0.039524 0.000000
# 6 0.000000 0.000000 0.000000 -0.002972 0.000000 0.050268
#
#
# Mechanical properties :
#
#
# Convention : Reuss Voigt Hill
#
# Bulk Modulus (GPa) = 30.62390 62.09078 46.35734
# Shear Modulus (GPa) = 22.89196 30.45748 26.67472
#
# Velocity S-wave (km/s) = 3.10878 3.58588 3.35582
# Velocity P-wave (km/s) = 5.08083 6.58469 5.88103
#
# Compressibility (1/GPa) = 0.03265423
#
# Stress axis : x y z
#
# Youngs Moduli (GPa) = 30.94763 60.04691 108.77133
#
# Poissons Ratio (x) = -0.12611 1.16363
# Poissons Ratio (y) = -0.06500 0.45196
# Poissons Ratio (z) = 0.33108 0.24950
#
# Static dielectric constant tensor:
#      x y z
#    x 1.897490 0.000000 0.009740 
#    y 0.000000 1.917260 0.000000 
#    z 0.009740 0.000000 1.958630 
# 
# From -- ./inp_files/68125.got.cif
#   From: 2010.05.17/outbox.cif.g08.bks.cpg/sg11_35_cif.got.tgz:68125.got - 2010.06.03 12:22:45.
