data_PCOD9162023
_publ_section_title
;
Structure prediction by ZEFSAII (Michael W. Deem and Ramdas Pophale) SiO2 
 PCOD9162023
Probable space group: P 21/M
;
_chemical_formula_sum "Si O2"
_cell_formula_units_Z 32
_cell_length_a 16.288886
_cell_length_b 14.929275
_cell_length_c 12.717339
_cell_angle_alpha 90.000000
_cell_angle_beta 26.761587
_cell_angle_gamma 90.000000
_cell_volume 1392.541229
_symmetry_space_group_name_H-M "P 21/M"
_symmetry_group_IT_number 11
_symmetry_cell_setting 'monoclinic'
loop_
_space_group_symop_operation_xyz
x,y,z
-x,1/2+y,-z
-x,-y,-z
x,1/2-y,z
loop_
_atom_site_type_symbol
_atom_site_label
_atom_site_fract_x
_atom_site_fract_y
_atom_site_fract_z
Si Si1 0.864529 0.605044 0.220685
Si Si2 0.716032 0.354102 0.915955
Si Si3 0.750214 0.086862 0.274195
Si Si4 0.883725 0.854820 0.434837
Si Si5 0.369049 0.857934 0.366140
Si Si6 0.894449 0.359775 0.506244
Si Si7 0.465066 0.649687 0.676109
Si Si8 0.723444 0.640063 0.833711
O O1 0.815029 0.513460 0.219116
O O2 0.882929 0.594627 0.325684
O O3 0.679009 0.657806 0.415469
O O4 0.058742 0.640105 0.957923
O O5 0.661639 0.250000 0.960510
O O6 0.754363 0.392106 0.757016
O O7 0.914477 0.356666 0.744945
O O8 0.576407 0.391107 0.161404
O O9 0.638683 0.114452 0.504458
O O10 0.631749 0.096679 0.305561
O O11 0.842112 0.750000 0.458736
O O12 0.750147 0.886192 0.681156
O O13 0.375152 0.750000 0.356411
O O14 0.185555 0.885961 0.514316
O O15 0.543390 0.889490 0.100179
O O16 0.897147 0.250000 0.508192
O O17 0.096613 0.389321 0.307117
O O18 0.383167 0.750000 0.768461
O O19 0.724976 0.750000 0.830026
#
# Coordination Sequence:
#
# PCOD9162023 Si02
#       8
#     4   4   4   4   4   4   4   4
#     4  11  24  40  60  82 114 164 198 233 293 350
#     4   8  15  29  54  86 116 137 172 244 298 322
#     4  11  25  43  55  80 124 162 194 234 287 352
#     4   9  16  32  59  87 113 140 189 248 291 334
#     4  10  20  34  57  81 111 152 190 230 281 346
#     4   8  15  29  50  81 113 141 176 225 287 338
#     4  11  22  37  63  91 111 142 197 253 294 336
#     4   8  16  30  52  83 113 142 180 239 295 331
#
# _framework density 22.979569000000001
#
# number of rings (size 3 to 8) (size 9 to 14) (size 15 to 20)
#    0.000    2.500    1.250    2.625    1.750    2.500 
#    0.000    1.875    0.000    1.500    0.000    0.000 
#    0.000    0.000    0.000    0.000    0.000    0.000 
#
# Total GULP energy -178711.014150 kJ/mol
# GULP energy per Si atom -5584.719192 kJ/mol
# Density = 2.292727 g / cm^3
# Si number density = 22.979569 Si / 1000 Ang^3
#
#
#
# Elastic Constant Matrix: (Units=GPa)
#
#
# Indices 1 2 3 4 5 6 
#
# 1 42.5587 -1.4736 14.7753 0.0000 8.1424 0.0000
# 2 -1.4736 33.1287 0.9384 0.0000 0.9068 0.0000
# 3 14.7753 0.9384 111.3647 0.0000 1.7557 0.0000
# 4 0.0000 0.0000 0.0000 14.1708 0.0000 8.7498
# 5 8.1424 0.9068 1.7557 0.0000 23.0364 0.0000
# 6 0.0000 0.0000 0.0000 8.7498 0.0000 14.5550
#
#
#
# Elastic Compliance Matrix: (Units=1/GPa)
#
#
# Indices 1 2 3 4 5 6 
#
# 1 0.026476 0.001524 -0.003381 0.000000 -0.009161 0.000000
# 2 0.001524 0.030312 -0.000431 0.000000 -0.001699 0.000000
# 3 -0.003381 -0.000431 0.009424 0.000000 0.000494 0.000000
# 4 0.000000 0.000000 0.000000 0.112222 0.000000 -0.067463
# 5 -0.009161 -0.001699 0.000494 0.000000 0.046677 0.000000
# 6 0.000000 0.000000 0.000000 -0.067463 0.000000 0.109260
#
#
# Mechanical properties :
#
#
# Convention : Reuss Voigt Hill
#
# Bulk Modulus (GPa) = 16.22420 23.94805 20.08612
# Shear Modulus (GPa) = 13.90851 21.87323 17.89087
#
# Velocity S-wave (km/s) = 2.46286 3.08856 2.79329
# Velocity P-wave (km/s) = 3.89399 4.81280 4.37757
#
# Compressibility (1/GPa) = 0.06163631
#
# Stress axis : x y z
#
# Youngs Moduli (GPa) = 37.76976 32.99046 106.11265
#
# Poissons Ratio (x) = -0.05028 0.35878
# Poissons Ratio (y) = -0.05757 0.04572
# Poissons Ratio (z) = 0.12771 0.01421
#
# Static dielectric constant tensor:
#      x y z
#    x 1.801780 0.000000 0.000460 
#    y 0.000000 1.898430 0.000000 
#    z 0.000460 0.000000 1.883620 
# 
# From -- ./inp_files/39979.got.cif
#   From: 2010.05.17/outbox.cif.g08.bks.cpg/sg11_20_cif.got.tgz:39979.got - 2010.06.03 12:22:45.
