data_PCOD9162575
_publ_section_title
;
Structure prediction by ZEFSAII (Michael W. Deem and Ramdas Pophale) SiO2 
 PCOD9162575
Probable space group: P 21/M
;
_chemical_formula_sum "Si O2"
_cell_formula_units_Z 32
_cell_length_a 12.762817
_cell_length_b 8.017180
_cell_length_c 15.075137
_cell_angle_alpha 90.000000
_cell_angle_beta 87.332353
_cell_angle_gamma 90.000000
_cell_volume 1540.843571
_symmetry_space_group_name_H-M "P 21/M"
_symmetry_group_IT_number 11
_symmetry_cell_setting 'monoclinic'
loop_
_space_group_symop_operation_xyz
x,y,z
-x,1/2+y,-z
-x,-y,-z
x,1/2-y,z
loop_
_atom_site_type_symbol
_atom_site_label
_atom_site_fract_x
_atom_site_fract_y
_atom_site_fract_z
Si Si1 0.393028 0.451148 0.552309
Si Si2 0.366447 0.454409 0.755131
Si Si3 0.184366 0.046314 0.887696
Si Si4 0.039850 0.556018 0.156271
Si Si5 0.010291 0.448258 0.354900
Si Si6 0.742794 0.943882 0.924620
Si Si7 0.523428 0.056911 0.899009
Si Si8 0.166474 0.048098 0.503511
O O1 0.500000 0.500000 0.500000
O O2 0.389469 0.250000 0.554384
O O3 0.387324 0.511482 0.654485
O O4 0.286567 0.507743 0.507099
O O5 0.368136 0.250000 0.752432
O O6 0.253702 0.502487 0.800351
O O7 0.452640 0.516262 0.822962
O O8 0.181125 0.250000 0.889510
O O9 0.064547 0.988788 0.887711
O O10 0.240993 0.991631 0.975648
O O11 0.053949 0.750000 0.132029
O O12 0.017201 0.539419 0.261361
O O13 0.145943 0.463310 0.126959
O O14 0.019271 0.250000 0.339508
O O15 0.104203 0.502928 0.417309
O O16 0.902936 0.485405 0.411345
O O17 0.713965 0.750000 0.931492
O O18 0.646917 0.031730 0.879765
O O19 0.497053 0.250000 0.899616
O O20 0.500000 0.000000 0.000000
O O21 0.163969 0.250000 0.506143
#
# Coordination Sequence:
#
# PCOD9162575 Si02
#       8
#     4   4   4   4   4   4   4   4
#     4  10  21  38  59  82 113 149 189 235 283 337
#     4   9  18  35  60  85 109 146 190 232 283 339
#     4   9  18  35  59  82 108 145 190 236 284 338
#     4  11  22  36  56  83 116 152 190 229 282 349
#     4  10  20  35  57  86 115 145 184 234 285 338
#     4  11  22  38  58  81 113 150 190 240 288 333
#     4  11  21  37  60  85 114 148 191 236 284 342
#     4   9  19  37  60  82 109 148 190 233 284 340
#
# _framework density 20.767845000000001
#
# number of rings (size 3 to 8) (size 9 to 14) (size 15 to 20)
#    0.000    2.000    1.250    2.625    0.000    4.000 
#    0.000    5.625    0.000    0.000    0.000    0.000 
#    0.000    0.000    0.000    0.000    0.000    0.000 
#
# Total GULP energy -178743.526204 kJ/mol
# GULP energy per Si atom -5585.735194 kJ/mol
# Density = 2.072058 g / cm^3
# Si number density = 20.767845 Si / 1000 Ang^3
#
#
#
# Elastic Constant Matrix: (Units=GPa)
#
#
# Indices 1 2 3 4 5 6 
#
# 1 136.8465 -5.0878 13.6920 0.0000 4.0523 0.0000
# 2 -5.0878 16.0362 -3.7543 0.0000 3.6117 0.0000
# 3 13.6920 -3.7543 27.3959 0.0000 0.4442 0.0000
# 4 0.0000 0.0000 0.0000 23.1168 0.0000 -7.6582
# 5 4.0523 3.6117 0.4442 0.0000 24.6002 0.0000
# 6 0.0000 0.0000 0.0000 -7.6582 0.0000 21.1811
#
#
#
# Elastic Compliance Matrix: (Units=1/GPa)
#
#
# Indices 1 2 3 4 5 6 
#
# 1 0.007785 0.001967 -0.003597 0.000000 -0.001506 0.000000
# 2 0.001967 0.067283 0.008405 0.000000 -0.010354 0.000000
# 3 -0.003597 0.008405 0.039473 0.000000 -0.001354 0.000000
# 4 0.000000 0.000000 0.000000 0.049145 0.000000 0.017769
# 5 -0.001506 -0.010354 -0.001354 0.000000 0.042443 0.000000
# 6 0.000000 0.000000 0.000000 0.017769 0.000000 0.053636
#
#
# Mechanical properties :
#
#
# Convention : Reuss Voigt Hill
#
# Bulk Modulus (GPa) = 7.80692 21.10871 14.45782
# Shear Modulus (GPa) = 17.30632 25.47487 21.39059
#
# Velocity S-wave (km/s) = 2.88986 3.50616 3.21282
# Velocity P-wave (km/s) = 3.86036 5.15529 4.55409
#
# Compressibility (1/GPa) = 0.12809149
#
# Stress axis : x y z
#
# Youngs Moduli (GPa) = 128.45089 14.86266 25.33368
#
# Poissons Ratio (x) = -0.02924 0.09112
# Poissons Ratio (y) = -0.25268 -0.21293
# Poissons Ratio (z) = 0.46202 -0.12492
#
# Static dielectric constant tensor:
#      x y z
#    x 1.749360 0.000000 0.024160 
#    y 0.000000 1.766330 0.000000 
#    z 0.024160 0.000000 1.729470 
# 
# From -- ./inp_files/49282.got.cif
#   From: 2010.05.17/outbox.cif.g08.bks.cpg/sg11_25_cif.got.tgz:49282.got - 2010.06.03 12:22:45.
