data_PCOD9162452
_publ_section_title
;
Structure prediction by ZEFSAII (Michael W. Deem and Ramdas Pophale) SiO2 
 PCOD9162452
Probable space group: P 21/M
;
_chemical_formula_sum "Si O2"
_cell_formula_units_Z 32
_cell_length_a 16.415758
_cell_length_b 9.440192
_cell_length_c 10.734214
_cell_angle_alpha 90.000000
_cell_angle_beta 84.083968
_cell_angle_gamma 90.000000
_cell_volume 1654.599126
_symmetry_space_group_name_H-M "P 21/M"
_symmetry_group_IT_number 11
_symmetry_cell_setting 'monoclinic'
loop_
_space_group_symop_operation_xyz
x,y,z
-x,1/2+y,-z
-x,-y,-z
x,1/2-y,z
loop_
_atom_site_type_symbol
_atom_site_label
_atom_site_fract_x
_atom_site_fract_y
_atom_site_fract_z
Si Si1 0.272708 0.087695 0.643329
Si Si2 0.967168 0.083674 0.183185
Si Si3 0.457030 0.579974 0.121673
Si Si4 0.105176 0.914910 0.279918
Si Si5 0.865083 0.083727 0.454937
Si Si6 0.826586 0.913596 0.081558
Si Si7 0.463059 0.420741 0.625003
Si Si8 0.267005 0.586187 0.112060
O O1 0.271172 0.250000 0.599799
O O2 0.226180 0.082398 0.782750
O O3 0.366531 0.045028 0.645559
O O4 0.219944 0.993403 0.558818
O O5 0.972853 0.250000 0.152945
O O6 0.921550 0.067401 0.324628
O O7 0.909083 0.001440 0.096120
O O8 0.053876 0.009752 0.192985
O O9 0.468617 0.750000 0.105404
O O10 0.494805 0.539851 0.250050
O O11 0.359674 0.550894 0.133668
O O12 0.500000 0.500000 0.000000
O O13 0.078652 0.750000 0.272048
O O14 0.094289 0.966061 0.423163
O O15 0.201421 0.921434 0.233833
O O16 0.849614 0.250000 0.474400
O O17 0.845091 0.750000 0.049803
O O18 0.770177 0.985654 0.987127
O O19 0.500000 0.500000 0.500000
O O20 0.471946 0.250000 0.609715
O O21 0.266202 0.750000 0.067305
#
# Coordination Sequence:
#
# PCOD9162452 Si02
#       8
#     4   4   4   4   4   4   4   4
#     4   9  19  35  55  81 111 143 182 230 280 334
#     4  10  20  35  56  84 113 144 186 232 276 332
#     4  10  22  41  64  88 118 157 201 248 298 356
#     4  10  21  36  54  79 112 149 186 227 280 336
#     4   9  19  34  56  82 109 146 188 226 274 336
#     4  10  20  37  60  82 108 145 188 233 281 334
#     4  10  22  38  58  87 121 155 193 241 297 356
#     4  10  22  38  57  82 112 146 187 235 283 336
#
# _framework density 19.340031
#
# number of rings (size 3 to 8) (size 9 to 14) (size 15 to 20)
#    0.000    2.250    0.000    1.875    1.750    5.000 
#    0.000    0.000    0.000    0.000    0.000    0.000 
#    0.000    0.000    0.000    0.000    0.000    0.000 
#
# Total GULP energy -178682.896250 kJ/mol
# GULP energy per Si atom -5583.840508 kJ/mol
# Density = 1.929601 g / cm^3
# Si number density = 19.340031 Si / 1000 Ang^3
#
#
#
# Elastic Constant Matrix: (Units=GPa)
#
#
# Indices 1 2 3 4 5 6 
#
# 1 142.1432 56.9193 47.1189 0.0000 16.2030 0.0000
# 2 56.9193 60.2808 49.3092 0.0000 12.2035 0.0000
# 3 47.1189 49.3092 100.8557 0.0000 18.5903 0.0000
# 4 0.0000 0.0000 0.0000 29.9267 0.0000 5.2387
# 5 16.2030 12.2035 18.5903 0.0000 27.2604 0.0000
# 6 0.0000 0.0000 0.0000 5.2387 0.0000 29.4627
#
#
#
# Elastic Compliance Matrix: (Units=1/GPa)
#
#
# Indices 1 2 3 4 5 6 
#
# 1 0.011429 -0.010513 0.000212 0.000000 -0.002231 0.000000
# 2 -0.010513 0.037630 -0.013191 0.000000 -0.001601 0.000000
# 3 0.000212 -0.013191 0.017386 0.000000 -0.006077 0.000000
# 4 0.000000 0.000000 0.000000 0.034488 0.000000 -0.006132
# 5 -0.002231 -0.001601 -0.006077 0.000000 0.042870 0.000000
# 6 0.000000 0.000000 0.000000 -0.006132 0.000000 0.035032
#
#
# Mechanical properties :
#
#
# Convention : Reuss Voigt Hill
#
# Bulk Modulus (GPa) = 51.38750 67.77495 59.58122
# Shear Modulus (GPa) = 21.52321 27.32545 24.42433
#
# Velocity S-wave (km/s) = 3.33961 3.76293 3.55757
# Velocity P-wave (km/s) = 6.44196 7.34843 6.91008
#
# Compressibility (1/GPa) = 0.01945999
#
# Stress axis : x y z
#
# Youngs Moduli (GPa) = 87.49461 26.57423 57.51920
#
# Poissons Ratio (x) = 0.27939 -0.01218
# Poissons Ratio (y) = 0.91987 0.75873
# Poissons Ratio (z) = -0.01852 0.35054
#
# Static dielectric constant tensor:
#      x y z
#    x 1.660680 0.000000 -0.026640 
#    y 0.000000 1.656000 0.000000 
#    z -0.026640 0.000000 1.680890 
# 
# From -- ./inp_files/38099.got.cif
#   From: 2010.05.17/outbox.cif.g08.bks.cpg/sg11_20_cif.got.tgz:38099.got - 2010.06.03 12:22:45.
