data_PCOD9162140
_publ_section_title
;
Structure prediction by ZEFSAII (Michael W. Deem and Ramdas Pophale) SiO2 
 PCOD9162140
Probable space group: P 21/M
;
_chemical_formula_sum "Si O2"
_cell_formula_units_Z 32
_cell_length_a 10.505968
_cell_length_b 7.640113
_cell_length_c 17.777476
_cell_angle_alpha 90.000000
_cell_angle_beta 57.811302
_cell_angle_gamma 90.000000
_cell_volume 1207.617523
_symmetry_space_group_name_H-M "P 21/M"
_symmetry_group_IT_number 11
_symmetry_cell_setting 'monoclinic'
loop_
_space_group_symop_operation_xyz
x,y,z
-x,1/2+y,-z
-x,-y,-z
x,1/2-y,z
loop_
_atom_site_type_symbol
_atom_site_label
_atom_site_fract_x
_atom_site_fract_y
_atom_site_fract_z
Si Si1 0.111658 0.460956 0.883995
Si Si2 0.446415 0.461379 0.751596
Si Si3 0.554857 0.946786 0.402043
Si Si4 0.152155 0.545216 0.622321
Si Si5 0.821370 0.541904 0.555520
Si Si6 0.191493 0.464842 0.271737
Si Si7 0.201000 0.546940 0.027520
Si Si8 0.473395 0.050036 0.106637
O O1 0.096496 0.250000 0.896390
O O2 0.268795 0.492910 0.795017
O O3 0.150799 0.535121 0.955006
O O4 0.958291 0.527650 0.891912
O O5 0.465035 0.250000 0.757089
O O6 0.507896 0.536529 0.653378
O O7 0.487976 0.550386 0.816285
O O8 0.509108 0.750000 0.403430
O O9 0.500000 0.000000 0.500000
O O10 0.733245 0.953655 0.358471
O O11 0.153374 0.750000 0.639448
O O12 0.213437 0.526449 0.517209
O O13 0.981175 0.480624 0.683152
O O14 0.804718 0.750000 0.560419
O O15 0.765779 0.476374 0.655912
O O16 0.000000 0.500000 0.500000
O O17 0.195559 0.250000 0.269925
O O18 0.304695 0.526494 0.169567
O O19 0.215463 0.750000 0.043732
O O20 0.372667 0.472639 0.978907
O O21 0.462387 0.250000 0.084571
#
# Coordination Sequence:
#
# PCOD9162140 Si02
#       8
#     4   4   4   4   4   4   4   4
#     4   8  13  24  41  60  88 120 148 179 217 264
#     4   9  19  33  46  65  92 122 154 189 229 273
#     4  11  24  39  52  67  89 119 157 199 239 277
#     4  10  20  35  51  67  88 118 157 197 237 279
#     4   9  16  28  45  66  89 117 152 191 234 273
#     4   8  16  29  46  68  93 119 146 184 229 270
#     4   8  13  21  38  65  92 119 147 175 213 265
#     4   9  16  27  45  71 100 124 148 180 222 273
#
# _framework density 26.498456999999998
#
# number of rings (size 3 to 8) (size 9 to 14) (size 15 to 20)
#    0.000    3.000    0.000    1.875    1.750    1.000 
#    0.000    3.125    0.000    0.000    0.000    0.875 
#    0.000    0.000    0.000    0.000    0.000    0.000 
#
# Total GULP energy -178421.310677 kJ/mol
# GULP energy per Si atom -5575.665959 kJ/mol
# Density = 2.643815 g / cm^3
# Si number density = 26.498457 Si / 1000 Ang^3
#
#
#
# Elastic Constant Matrix: (Units=GPa)
#
#
# Indices 1 2 3 4 5 6 
#
# 1 76.6128 9.4917 32.3537 0.0000 -17.2662 0.0000
# 2 9.4917 69.4347 27.5423 0.0000 -1.7897 0.0000
# 3 32.3537 27.5423 74.8007 0.0000 -9.2469 0.0000
# 4 0.0000 0.0000 0.0000 12.5177 0.0000 -7.1277
# 5 -17.2662 -1.7897 -9.2469 0.0000 53.0303 0.0000
# 6 0.0000 0.0000 0.0000 -7.1277 0.0000 20.4705
#
#
#
# Elastic Compliance Matrix: (Units=1/GPa)
#
#
# Indices 1 2 3 4 5 6 
#
# 1 0.016904 0.000573 -0.006990 0.000000 0.004304 0.000000
# 2 0.000573 0.016899 -0.006517 0.000000 -0.000380 0.000000
# 3 -0.006990 -0.006517 0.018891 0.000000 0.000798 0.000000
# 4 0.000000 0.000000 0.000000 0.099643 0.000000 0.034695
# 5 0.004304 -0.000380 0.000798 0.000000 0.020385 0.000000
# 6 0.000000 0.000000 0.000000 0.034695 0.000000 0.060931
#
#
# Mechanical properties :
#
#
# Convention : Reuss Voigt Hill
#
# Bulk Modulus (GPa) = 37.27925 39.95819 38.61872
# Shear Modulus (GPa) = 18.62455 27.30107 22.96281
#
# Velocity S-wave (km/s) = 2.65402 3.21329 2.94695
# Velocity P-wave (km/s) = 4.84672 5.37394 5.11712
#
# Compressibility (1/GPa) = 0.02682458
#
# Stress axis : x y z
#
# Youngs Moduli (GPa) = 59.15868 59.17505 52.93610
#
# Poissons Ratio (x) = -0.03391 0.37004
# Poissons Ratio (y) = -0.03390 0.34499
# Poissons Ratio (z) = 0.41354 0.38565
#
# Static dielectric constant tensor:
#      x y z
#    x 2.045490 0.000000 -0.081960 
#    y 0.000000 1.851500 0.000000 
#    z -0.081960 0.000000 1.881350 
# 
# From -- ./inp_files/68299.got.cif
#   From: 2010.05.17/outbox.cif.g08.bks.cpg/sg11_35_cif.got.tgz:68299.got - 2010.06.03 12:22:45.
