data_PCOD9162147
_publ_section_title
;
Structure prediction by ZEFSAII (Michael W. Deem and Ramdas Pophale) SiO2 
 PCOD9162147
Probable space group: P 21/M
;
_chemical_formula_sum "Si O2"
_cell_formula_units_Z 32
_cell_length_a 26.978976
_cell_length_b 8.654051
_cell_length_c 18.893573
_cell_angle_alpha 90.000000
_cell_angle_beta 155.619970
_cell_angle_gamma 90.000000
_cell_volume 1820.895456
_symmetry_space_group_name_H-M "P 21/M"
_symmetry_group_IT_number 11
_symmetry_cell_setting 'monoclinic'
loop_
_space_group_symop_operation_xyz
x,y,z
-x,1/2+y,-z
-x,-y,-z
x,1/2-y,z
loop_
_atom_site_type_symbol
_atom_site_label
_atom_site_fract_x
_atom_site_fract_y
_atom_site_fract_z
Si Si1 0.833894 0.435202 0.837490
Si Si2 0.444553 0.933716 0.498980
Si Si3 0.275008 0.063875 0.924659
Si Si4 0.898499 0.935204 0.420670
Si Si5 0.004539 0.064300 0.184571
Si Si6 0.518821 0.566678 0.301033
Si Si7 0.779529 0.435930 0.610630
Si Si8 0.053219 0.434978 0.739190
O O1 0.851374 0.250000 0.856384
O O2 0.698244 0.462338 0.686776
O O3 0.836448 0.492806 0.759981
O O4 0.925650 0.495086 0.015276
O O5 0.464009 0.750000 0.529116
O O6 0.500000 0.000000 0.500000
O O7 0.494657 0.011847 0.635084
O O8 0.286735 0.250000 0.944196
O O9 0.400819 0.986954 0.106109
O O10 0.223951 0.025481 0.780011
O O11 0.171648 0.018753 0.847646
O O12 0.906798 0.750000 0.435333
O O13 0.935626 0.006442 0.543728
O O14 0.000000 0.000000 0.500000
O O15 0.002978 0.250000 0.183280
O O16 0.138820 0.004102 0.345056
O O17 0.950064 0.003228 0.186774
O O18 0.531850 0.750000 0.315527
O O19 0.641581 0.489757 0.432167
O O20 0.782612 0.250000 0.613473
O O21 0.051822 0.250000 0.739777
#
# Coordination Sequence:
#
# PCOD9162147 Si02
#       8
#     4   4   4   4   4   4   4   4
#     4   8  18  34  52  74 101 136 178 222 266 312
#     4  10  20  35  51  73 106 143 178 218 268 316
#     4   9  19  35  55  80 110 141 176 217 261 318
#     4   9  17  32  54  79 108 141 174 213 263 317
#     4  11  21  34  54  80 108 138 178 227 269 317
#     4  11  22  35  54  79 104 139 182 221 264 316
#     4  10  20  38  57  74 103 141 181 227 272 316
#     4  10  21  35  52  80 113 144 177 214 267 321
#
# _framework density 17.57377
#
# number of rings (size 3 to 8) (size 9 to 14) (size 15 to 20)
#    0.000    2.250    0.000    4.875    1.750    3.000 
#    0.000    6.250    0.000    0.750    0.000    0.000 
#    0.000    0.000    0.000    0.000    0.000    0.000 
#
# Total GULP energy -178489.270029 kJ/mol
# GULP energy per Si atom -5577.789688 kJ/mol
# Density = 1.753377 g / cm^3
# Si number density = 17.573770 Si / 1000 Ang^3
#
#
#
# Elastic Constant Matrix: (Units=GPa)
#
#
# Indices 1 2 3 4 5 6 
#
# 1 43.0759 16.5441 23.5100 0.0000 0.2244 0.0000
# 2 16.5441 58.4750 31.3561 0.0000 -2.5558 0.0000
# 3 23.5100 31.3561 103.9923 0.0000 -19.0178 0.0000
# 4 0.0000 0.0000 0.0000 24.5107 0.0000 -1.3284
# 5 0.2244 -2.5558 -19.0178 0.0000 7.3885 0.0000
# 6 0.0000 0.0000 0.0000 -1.3284 0.0000 29.0875
#
#
#
# Elastic Compliance Matrix: (Units=1/GPa)
#
#
# Indices 1 2 3 4 5 6 
#
# 1 0.031438 -0.003912 -0.011997 0.000000 -0.033188 0.000000
# 2 -0.003912 0.022021 -0.008201 0.000000 -0.013373 0.000000
# 3 -0.011997 -0.008201 0.027110 0.000000 0.067309 0.000000
# 4 0.000000 0.000000 0.000000 0.040900 0.000000 0.001868
# 5 -0.033188 -0.013373 0.067309 0.000000 0.304979 0.000000
# 6 0.000000 0.000000 0.000000 0.001868 0.000000 0.034464
#
#
# Mechanical properties :
#
#
# Convention : Reuss Voigt Hill
#
# Bulk Modulus (GPa) = 30.91274 38.70707 34.80990
# Shear Modulus (GPa) = 9.61694 21.13954 15.37824
#
# Velocity S-wave (km/s) = 2.34184 3.47205 2.96136
# Velocity P-wave (km/s) = 4.99407 6.17631 5.61638
#
# Compressibility (1/GPa) = 0.03234912
#
# Stress axis : x y z
#
# Youngs Moduli (GPa) = 31.80864 45.41042 36.88614
#
# Poissons Ratio (x) = 0.17765 0.44253
# Poissons Ratio (y) = 0.12444 0.30251
# Poissons Ratio (z) = 0.38161 0.37242
#
# Static dielectric constant tensor:
#      x y z
#    x 1.578340 0.000000 -0.016710 
#    y 0.000000 1.587280 0.000000 
#    z -0.016710 0.000000 1.612410 
# 
# From -- ./inp_files/67426.got.cif
#   From: 2010.05.17/outbox.cif.g08.bks.cpg/sg11_34_cif.got.tgz:67426.got - 2010.06.03 12:22:45.
