data_PCOD9162842
_publ_section_title
;
Structure prediction by ZEFSAII (Michael W. Deem and Ramdas Pophale) SiO2 
 PCOD9162842
Probable space group: P 21/M
;
_chemical_formula_sum "Si O2"
_cell_formula_units_Z 28
_cell_length_a 16.171879
_cell_length_b 13.581620
_cell_length_c 15.938416
_cell_angle_alpha 90.000000
_cell_angle_beta 26.293226
_cell_angle_gamma 90.000000
_cell_volume 1550.696557
_symmetry_space_group_name_H-M "P 21/M"
_symmetry_group_IT_number 11
_symmetry_cell_setting 'monoclinic'
loop_
_space_group_symop_operation_xyz
x,y,z
-x,1/2+y,-z
-x,-y,-z
x,1/2-y,z
loop_
_atom_site_type_symbol
_atom_site_label
_atom_site_fract_x
_atom_site_fract_y
_atom_site_fract_z
Si Si1 0.934039 0.631983 0.205362
Si Si2 0.829557 0.368498 0.171285
Si Si3 0.418048 0.130155 0.588001
Si Si4 0.965936 0.366708 0.459591
Si Si5 0.915751 0.992215 0.794212
Si Si6 0.280831 0.515065 0.192381
Si Si7 0.814349 0.631783 0.039557
O O1 0.941237 0.750000 0.211623
O O2 0.737252 0.607461 0.340665
O O3 0.973442 0.572693 0.253605
O O4 0.089612 0.605252 0.993396
O O5 0.819953 0.250000 0.179240
O O6 0.624267 0.406535 0.378887
O O7 0.985232 0.391501 0.099408
O O8 0.425280 0.250000 0.582675
O O9 0.339321 0.103846 0.751256
O O10 0.974424 0.250000 0.446179
O O11 0.954536 0.418927 0.378796
O O12 0.800603 0.404742 0.669478
O O13 0.158352 0.415449 0.320447
O O14 0.803416 0.926094 0.962980
O O15 0.781247 0.039596 0.846438
O O16 0.500000 0.500000 0.000000
O O17 0.806145 0.750000 0.034151
#
# Coordination Sequence:
#
# PCOD9162842 Si02
#       7
#     4   4   4   4   4   4   4
#     4   9  18  33  50  72 108 149 186 232 274 316
#     4   8  15  30  49  70 104 150 190 223 269 323
#     4   8  15  30  49  70 104 150 190 222 268 322
#     4   9  20  41  64  85 114 149 181 229 293 352
#     4  10  20  36  55  84 114 138 183 237 280 342
#     4   9  21  42  62  85 115 148 187 229 286 357
#     4   9  17  31  50  74 108 142 180 229 274 321
#
# _framework density 18.056401999999999
#
# number of rings (size 3 to 8) (size 9 to 14) (size 15 to 20)
#    0.857    2.286    0.000    2.143    0.000    3.429 
#    5.143    1.429    0.000    0.000    0.000    0.000 
#    0.000    0.000    0.000    0.000    0.000    0.000 
#
# Total GULP energy -156014.839531 kJ/mol
# GULP energy per Si atom -5571.958555 kJ/mol
# Density = 1.801530 g / cm^3
# Si number density = 18.056402 Si / 1000 Ang^3
#
#
#
# Elastic Constant Matrix: (Units=GPa)
#
#
# Indices 1 2 3 4 5 6 
#
# 1 76.8298 27.3418 45.3424 0.0000 23.5601 0.0000
# 2 27.3418 94.4402 33.1034 0.0000 10.2888 0.0000
# 3 45.3424 33.1034 126.9205 0.0000 -8.5230 0.0000
# 4 0.0000 0.0000 0.0000 23.9340 0.0000 7.6720
# 5 23.5601 10.2888 -8.5230 0.0000 17.6807 0.0000
# 6 0.0000 0.0000 0.0000 7.6720 0.0000 26.1139
#
#
#
# Elastic Compliance Matrix: (Units=1/GPa)
#
#
# Indices 1 2 3 4 5 6 
#
# 1 0.052478 0.002698 -0.025064 0.000000 -0.083582 0.000000
# 2 0.002698 0.013184 -0.005332 0.000000 -0.013838 0.000000
# 3 -0.025064 -0.005332 0.021367 0.000000 0.046802 0.000000
# 4 0.000000 0.000000 0.000000 0.046125 0.000000 -0.013551
# 5 -0.083582 -0.013838 0.046802 0.000000 0.198548 0.000000
# 6 0.000000 0.000000 0.000000 -0.013551 0.000000 0.042275
#
#
# Mechanical properties :
#
#
# Convention : Reuss Voigt Hill
#
# Bulk Modulus (GPa) = 31.61248 56.64063 44.12656
# Shear Modulus (GPa) = 11.36576 26.37255 18.86916
#
# Velocity S-wave (km/s) = 2.51162 3.82588 3.23617
# Velocity P-wave (km/s) = 5.09477 7.13816 6.20121
#
# Compressibility (1/GPa) = 0.03163307
#
# Stress axis : x y z
#
# Youngs Moduli (GPa) = 19.05552 75.84929 46.80180
#
# Poissons Ratio (x) = -0.20466 1.17306
# Poissons Ratio (y) = -0.05142 0.24954
# Poissons Ratio (z) = 0.47761 0.40442
#
# Static dielectric constant tensor:
#      x y z
#    x 1.596260 0.000000 0.003480 
#    y 0.000000 1.665320 0.000000 
#    z 0.003480 0.000000 1.619390 
# 
# From -- ./inp_files/52441.got.cif
#   From: 2010.05.17/outbox.cif.g08.bks.cpg/sg11_27_cif.got.tgz:52441.got - 2010.06.03 12:22:45.
