data_PCOD9163890
_publ_section_title
;
Structure prediction by ZEFSAII (Michael W. Deem and Ramdas Pophale) SiO2 
 PCOD9163890
Probable space group: P 21/M
;
_chemical_formula_sum "Si O2"
_cell_formula_units_Z 26
_cell_length_a 20.055973
_cell_length_b 9.442500
_cell_length_c 10.205416
_cell_angle_alpha 90.000000
_cell_angle_beta 143.457743
_cell_angle_gamma 90.000000
_cell_volume 1150.751554
_symmetry_space_group_name_H-M "P 21/M"
_symmetry_group_IT_number 11
_symmetry_cell_setting 'monoclinic'
loop_
_space_group_symop_operation_xyz
x,y,z
-x,1/2+y,-z
-x,-y,-z
x,1/2-y,z
loop_
_atom_site_type_symbol
_atom_site_label
_atom_site_fract_x
_atom_site_fract_y
_atom_site_fract_z
Si Si1 0.840704 0.412733 0.325819
Si Si2 0.197873 0.088966 0.478320
Si Si3 0.099894 0.086825 0.822271
Si Si4 0.547631 0.750000 0.556424
Si Si5 0.543724 0.910790 0.189882
Si Si6 0.856439 0.087952 0.851849
Si Si7 0.608670 0.470269 0.549168
O O1 0.799468 0.250000 0.253144
O O2 0.793145 0.501752 0.372594
O O3 0.828052 0.498738 0.170623
O O4 0.973362 0.406783 0.566404
O O5 0.155755 0.250000 0.433458
O O6 0.323211 0.101160 0.619741
O O7 0.131424 0.999977 0.263668
O O8 0.134870 0.250000 0.892668
O O9 0.095892 0.998693 0.950012
O O10 0.633018 0.623802 0.646450
O O11 0.454975 0.630384 0.453126
O O12 0.498501 0.750000 0.128132
O O13 0.526573 0.996326 0.296370
O O14 0.500000 0.000000 0.000000
O O15 0.896983 0.250000 0.904087
O O16 0.723289 0.093194 0.674528
#
# Coordination Sequence:
#
# PCOD9163890 Si02
#       7
#     4   4   4   2   4   4   4
#     4  10  21  41  62  89 119 152 193 238 291 348
#     4  10  22  40  62  85 117 156 197 240 290 350
#     4  10  22  39  63  88 120 154 189 239 294 348
#     4  10  20  38  60  82 114 154 190 244 288 342
#     4  10  22  39  58  82 114 152 193 236 284 337
#     4  11  22  38  60  88 117 154 196 243 293 347
#     4  10  21  39  58  84 116 151 194 240 293 338
#
# _framework density 22.59393
#
# number of rings (size 3 to 8) (size 9 to 14) (size 15 to 20)
#    0.000    1.846    1.538    1.846    3.231    3.692 
#    5.538    0.000    0.000    0.000    0.000    0.000 
#    0.000    0.000    0.000    0.000    0.000    0.000 
#
# Total GULP energy -144783.804559 kJ/mol
# GULP energy per Si atom -5568.607868 kJ/mol
# Density = 2.254251 g / cm^3
# Si number density = 22.593930 Si / 1000 Ang^3
#
#
#
# Elastic Constant Matrix: (Units=GPa)
#
#
# Indices 1 2 3 4 5 6 
#
# 1 67.1369 26.9036 0.9434 0.0000 -22.6856 0.0000
# 2 26.9036 224.5675 39.5517 0.0000 -22.2807 0.0000
# 3 0.9434 39.5517 77.0747 0.0000 -18.3225 0.0000
# 4 0.0000 0.0000 0.0000 18.3641 0.0000 8.9992
# 5 -22.6856 -22.2807 -18.3225 0.0000 25.4897 0.0000
# 6 0.0000 0.0000 0.0000 8.9992 0.0000 14.6937
#
#
#
# Elastic Compliance Matrix: (Units=1/GPa)
#
#
# Indices 1 2 3 4 5 6 
#
# 1 0.023569 -0.001528 0.006229 0.000000 0.024119 0.000000
# 2 -0.001528 0.005190 -0.002279 0.000000 0.001539 0.000000
# 3 0.006229 -0.002279 0.017985 0.000000 0.016480 0.000000
# 4 0.000000 0.000000 0.000000 0.077806 0.000000 -0.047653
# 5 0.024119 0.001539 0.016480 0.000000 0.073888 0.000000
# 6 0.000000 0.000000 0.000000 -0.047653 0.000000 0.097241
#
#
# Mechanical properties :
#
#
# Convention : Reuss Voigt Hill
#
# Bulk Modulus (GPa) = 19.38370 55.95294 37.66832
# Shear Modulus (GPa) = 16.23207 31.80152 24.01679
#
# Velocity S-wave (km/s) = 2.68325 3.75577 3.26387
# Velocity P-wave (km/s) = 4.26586 6.60501 5.55984
#
# Compressibility (1/GPa) = 0.05158973
#
# Stress axis : x y z
#
# Youngs Moduli (GPa) = 42.42796 192.67547 55.60104
#
# Poissons Ratio (x) = 0.29437 -0.34634
# Poissons Ratio (y) = 0.06482 0.12670
# Poissons Ratio (z) = -0.26429 0.43907
#
# Static dielectric constant tensor:
#      x y z
#    x 1.874600 0.000000 0.051380 
#    y 0.000000 1.811280 0.000000 
#    z 0.051380 0.000000 1.927800 
# 
# From -- ./inp_files/26070.got.cif
#   From: 2010.05.17/outbox.cif.g08.bks.cpg/sg11_14_cif.got.tgz:26070.got - 2010.06.03 12:22:45.
