data_PCOD9163136
_publ_section_title
;
Structure prediction by ZEFSAII (Michael W. Deem and Ramdas Pophale) SiO2 
 PCOD9163136
Probable space group: P 21/M
;
_chemical_formula_sum "Si O2"
_cell_formula_units_Z 32
_cell_length_a 27.663569
_cell_length_b 9.331902
_cell_length_c 10.663781
_cell_angle_alpha 90.000000
_cell_angle_beta 144.332618
_cell_angle_gamma 90.000000
_cell_volume 1605.154539
_symmetry_space_group_name_H-M "P 21/M"
_symmetry_group_IT_number 11
_symmetry_cell_setting 'monoclinic'
loop_
_space_group_symop_operation_xyz
x,y,z
-x,1/2+y,-z
-x,-y,-z
x,1/2-y,z
loop_
_atom_site_type_symbol
_atom_site_label
_atom_site_fract_x
_atom_site_fract_y
_atom_site_fract_z
Si Si1 0.971238 0.585201 0.259005
Si Si2 0.866253 0.912189 0.782733
Si Si3 0.277463 0.917342 0.409618
Si Si4 0.119411 0.416289 0.466138
Si Si5 0.549476 0.922290 0.216041
Si Si6 0.537567 0.421646 0.700597
Si Si7 0.731304 0.419107 0.126289
Si Si8 0.175533 0.584680 0.938747
O O1 0.986052 0.750000 0.322823
O O2 0.904505 0.513626 0.210057
O O3 0.056808 0.502122 0.422312
O O4 0.927298 0.578023 0.029404
O O5 0.830466 0.750000 0.710097
O O6 0.908720 0.928480 0.737769
O O7 0.794053 0.027238 0.648766
O O8 0.297012 0.750000 0.471011
O O9 0.358151 0.014475 0.590666
O O10 0.236518 0.934408 0.185859
O O11 0.121082 0.250000 0.504736
O O12 0.210597 0.484430 0.664882
O O13 0.548176 0.750000 0.197071
O O14 0.509451 0.954968 0.268325
O O15 0.500000 0.000000 0.000000
O O16 0.500000 0.500000 0.500000
O O17 0.532195 0.250000 0.669171
O O18 0.634771 0.457663 0.921774
O O19 0.738580 0.250000 0.173753
O O20 0.770965 0.440237 0.072272
O O21 0.147589 0.750000 0.880807
#
# Coordination Sequence:
#
# PCOD9163136 Si02
#       8
#     4   4   4   4   4   4   4   4
#     4  10  20  36  59  84 113 151 193 240 292 347
#     4   9  20  37  57  84 117 152 194 241 290 349
#     4  10  20  36  61  88 114 151 195 241 297 354
#     4  11  23  37  55  83 118 153 193 239 291 350
#     4  11  24  40  60  91 128 163 203 253 309 369
#     4  10  23  43  67  93 123 161 207 256 307 370
#     4  10  22  40  60  84 116 152 193 241 293 349
#     4   9  19  37  60  84 112 148 193 242 290 347
#
# _framework density 19.935773999999999
#
# number of rings (size 3 to 8) (size 9 to 14) (size 15 to 20)
#    0.000    2.000    0.000    2.625    1.750    5.500 
#    0.000    0.000    0.000    0.000    0.000    0.000 
#    0.000    0.000    0.000    0.000    0.000    0.000 
#
# Total GULP energy -178811.195834 kJ/mol
# GULP energy per Si atom -5587.849870 kJ/mol
# Density = 1.989040 g / cm^3
# Si number density = 19.935774 Si / 1000 Ang^3
#
#
#
# Elastic Constant Matrix: (Units=GPa)
#
#
# Indices 1 2 3 4 5 6 
#
# 1 53.1951 44.7870 30.4262 0.0000 -2.6349 0.0000
# 2 44.7870 83.0982 45.1337 0.0000 3.4943 0.0000
# 3 30.4262 45.1337 78.7290 0.0000 9.1467 0.0000
# 4 0.0000 0.0000 0.0000 35.3001 0.0000 4.6823
# 5 -2.6349 3.4943 9.1467 0.0000 34.7567 0.0000
# 6 0.0000 0.0000 0.0000 4.6823 0.0000 24.6637
#
#
#
# Elastic Compliance Matrix: (Units=1/GPa)
#
#
# Indices 1 2 3 4 5 6 
#
# 1 0.036332 -0.017185 -0.004859 0.000000 0.005761 0.000000
# 2 -0.017185 0.025631 -0.007842 0.000000 -0.001816 0.000000
# 3 -0.004859 -0.007842 0.019626 0.000000 -0.004745 0.000000
# 4 0.000000 0.000000 0.000000 0.029060 0.000000 -0.005517
# 5 0.005761 -0.001816 -0.004745 0.000000 0.030639 0.000000
# 6 0.000000 0.000000 0.000000 -0.005517 0.000000 0.041593
#
#
# Mechanical properties :
#
#
# Convention : Reuss Voigt Hill
#
# Bulk Modulus (GPa) = 45.83117 50.63513 48.23315
# Shear Modulus (GPa) = 20.00604 25.25580 22.63092
#
# Velocity S-wave (km/s) = 3.17128 3.56316 3.37292
# Velocity P-wave (km/s) = 6.03728 6.51017 6.27818
#
# Compressibility (1/GPa) = 0.02181921
#
# Stress axis : x y z
#
# Youngs Moduli (GPa) = 27.52428 39.01470 50.95240
#
# Poissons Ratio (x) = 0.67046 0.24756
# Poissons Ratio (y) = 0.47300 0.39955
# Poissons Ratio (z) = 0.13373 0.30594
#
# Static dielectric constant tensor:
#      x y z
#    x 1.691310 0.000000 -0.032090 
#    y 0.000000 1.681010 0.000000 
#    z -0.032090 0.000000 1.704020 
# 
# From -- ./inp_files/45362.got.cif
#   From: 2010.05.17/outbox.cif.g08.bks.cpg/sg11_23_cif.got.tgz:45362.got - 2010.06.03 12:22:45.
