data_PCOD9163645
_publ_section_title
;
Structure prediction by ZEFSAII (Michael W. Deem and Ramdas Pophale) SiO2 
 PCOD9163645
Probable space group: P 21/M
;
_chemical_formula_sum "Si O2"
_cell_formula_units_Z 20
_cell_length_a 6.601492
_cell_length_b 17.395075
_cell_length_c 8.314903
_cell_angle_alpha 90.000000
_cell_angle_beta 73.444685
_cell_angle_gamma 90.000000
_cell_volume 915.246637
_symmetry_space_group_name_H-M "P 21/M"
_symmetry_group_IT_number 11
_symmetry_cell_setting 'monoclinic'
loop_
_space_group_symop_operation_xyz
x,y,z
-x,1/2+y,-z
-x,-y,-z
x,1/2-y,z
loop_
_atom_site_type_symbol
_atom_site_label
_atom_site_fract_x
_atom_site_fract_y
_atom_site_fract_z
Si Si1 0.842579 0.890307 0.219714
Si Si2 0.612113 0.917790 0.941254
Si Si3 0.291189 0.665210 0.171651
Si Si4 0.012720 0.544701 0.666751
Si Si5 0.429668 0.914026 0.460728
O O1 0.744676 0.888830 0.065452
O O2 0.658380 0.873762 0.392402
O O3 0.043842 0.838095 0.197300
O O4 0.926686 0.977693 0.222212
O O5 0.417223 0.859077 0.983000
O O6 0.783734 0.922346 0.761875
O O7 0.500000 0.000000 0.000000
O O8 0.356318 0.750000 0.211345
O O9 0.344299 0.603026 0.298911
O O10 0.000000 0.500000 0.500000
O O11 0.216802 0.600870 0.611241
O O12 0.500000 0.000000 0.500000
#
# Coordination Sequence:
#
# PCOD9163645 Si02
#       5
#     4   4   4   4   4
#     4  10  20  37  60  93 126 166 210 262 324 385
#     4  11  22  38  64  95 124 167 221 274 313 383
#     4  11  23  41  63  93 134 180 219 265 334 407
#     4  11  18  35  62  96 125 154 211 276 324 368
#     4   9  20  36  63  96 127 165 221 274 321 381
#
# _framework density 21.852035000000001
#
# number of rings (size 3 to 8) (size 9 to 14) (size 15 to 20)
#    0.000    1.600    4.000    1.800    0.000    3.200 
#    0.000    1.000    0.000    0.000    0.000    0.000 
#    0.000    0.000    0.000    0.000    0.000    0.000 
#
# Total GULP energy -111346.274861 kJ/mol
# GULP energy per Si atom -5567.313743 kJ/mol
# Density = 2.180230 g / cm^3
# Si number density = 21.852035 Si / 1000 Ang^3
#
#
#
# Elastic Constant Matrix: (Units=GPa)
#
#
# Indices 1 2 3 4 5 6 
#
# 1 127.3106 27.9045 50.6494 0.0000 -46.8621 0.0000
# 2 27.9045 52.4092 34.2914 0.0000 -15.4040 0.0000
# 3 50.6494 34.2914 106.5647 0.0000 -45.3446 0.0000
# 4 0.0000 0.0000 0.0000 10.4325 0.0000 0.4723
# 5 -46.8621 -15.4040 -45.3446 0.0000 59.3592 0.0000
# 6 0.0000 0.0000 0.0000 0.4723 0.0000 18.5043
#
#
#
# Elastic Compliance Matrix: (Units=1/GPa)
#
#
# Indices 1 2 3 4 5 6 
#
# 1 0.011866 -0.003183 -0.001453 0.000000 0.007432 0.000000
# 2 -0.003183 0.025033 -0.007182 0.000000 -0.001503 0.000000
# 3 -0.001453 -0.007182 0.016452 0.000000 0.009557 0.000000
# 4 0.000000 0.000000 0.000000 0.095965 0.000000 -0.002449
# 5 0.007432 -0.001503 0.009557 0.000000 0.029624 0.000000
# 6 0.000000 0.000000 0.000000 -0.002449 0.000000 0.054104
#
#
# Mechanical properties :
#
#
# Convention : Reuss Voigt Hill
#
# Bulk Modulus (GPa) = 33.65307 56.88612 45.26959
# Shear Modulus (GPa) = 18.75569 29.22182 23.98875
#
# Velocity S-wave (km/s) = 2.93286 3.66082 3.31687
# Velocity P-wave (km/s) = 5.18679 6.63006 5.95233
#
# Compressibility (1/GPa) = 0.02971497
#
# Stress axis : x y z
#
# Youngs Moduli (GPa) = 84.27272 39.94775 60.78130
#
# Poissons Ratio (x) = 0.12714 0.08834
# Poissons Ratio (y) = 0.26821 0.43653
# Poissons Ratio (z) = 0.12249 0.28691
#
# Static dielectric constant tensor:
#      x y z
#    x 1.913300 0.000000 -0.025100 
#    y 0.000000 1.826240 0.000000 
#    z -0.025100 0.000000 1.886970 
# 
# From -- ./inp_files/10238.got.cif
#   From: 2010.05.17/outbox.cif.g08.bks.cpg/sg11_6_cif.got.tgz:10238.got - 2010.06.03 12:22:45.
