data_PCOD9163690
_publ_section_title
;
Structure prediction by ZEFSAII (Michael W. Deem and Ramdas Pophale) SiO2 
 PCOD9163690
Probable space group: P 21/M
;
_chemical_formula_sum "Si O2"
_cell_formula_units_Z 32
_cell_length_a 22.849378
_cell_length_b 8.887936
_cell_length_c 11.466452
_cell_angle_alpha 90.000000
_cell_angle_beta 131.899677
_cell_angle_gamma 90.000000
_cell_volume 1733.250408
_symmetry_space_group_name_H-M "P 21/M"
_symmetry_group_IT_number 11
_symmetry_cell_setting 'monoclinic'
loop_
_space_group_symop_operation_xyz
x,y,z
-x,1/2+y,-z
-x,-y,-z
x,1/2-y,z
loop_
_atom_site_type_symbol
_atom_site_label
_atom_site_fract_x
_atom_site_fract_y
_atom_site_fract_z
Si Si1 0.512861 0.429278 0.144359
Si Si2 0.800793 0.071021 0.235443
Si Si3 0.869338 0.929387 0.098586
Si Si4 0.824240 0.569285 0.518988
Si Si5 0.668953 0.931032 0.460190
Si Si6 0.697957 0.929830 0.767749
Si Si7 0.371039 0.928637 0.097961
Si Si8 0.989366 0.930317 0.858298
O O1 0.512310 0.250000 0.135101
O O2 0.595064 0.487067 0.305353
O O3 0.442860 0.485803 0.134452
O O4 0.500000 0.500000 0.000000
O O5 0.812594 0.250000 0.244734
O O6 0.818805 0.010153 0.387234
O O7 0.709653 0.040182 0.080483
O O8 0.853019 0.990770 0.206339
O O9 0.880545 0.750000 0.115451
O O10 0.789270 0.961550 0.919444
O O11 0.942585 0.008031 0.135028
O O12 0.823962 0.750000 0.501068
O O13 0.748479 0.531205 0.496391
O O14 0.904257 0.529425 0.692414
O O15 0.657829 0.750000 0.437580
O O16 0.678618 0.969581 0.609282
O O17 0.686778 0.750000 0.767648
O O18 0.645880 0.015805 0.793515
O O19 0.385339 0.750000 0.114756
O O20 0.993891 0.750000 0.871960
O O21 0.000000 0.000000 0.000000
#
# Coordination Sequence:
#
# PCOD9163690 Si02
#       8
#     4   4   4   4   4   4   4   4
#     4  12  25  40  59  84 114 149 189 233 284 339
#     4  10  21  37  59  87 116 148 189 236 283 333
#     4  10  20  37  61  87 116 152 191 231 281 338
#     4  10  22  39  59  83 113 151 191 233 283 339
#     4  10  21  39  61  84 113 149 190 235 282 334
#     4   9  19  37  61  87 116 152 191 231 280 337
#     4  10  21  38  60  87 117 149 188 233 281 335
#     4  11  23  39  59  85 116 150 191 236 284 338
#
# _framework density 18.462423000000001
#
# number of rings (size 3 to 8) (size 9 to 14) (size 15 to 20)
#    0.000    1.750    0.000    4.125    0.000    9.000 
#    0.000    1.250    0.000    0.000    0.000    0.000 
#    0.000    0.000    0.000    0.000    0.000    0.000 
#
# Total GULP energy -178889.230070 kJ/mol
# GULP energy per Si atom -5590.288440 kJ/mol
# Density = 1.842040 g / cm^3
# Si number density = 18.462423 Si / 1000 Ang^3
#
#
#
# Elastic Constant Matrix: (Units=GPa)
#
#
# Indices 1 2 3 4 5 6 
#
# 1 179.7852 89.6703 113.9048 0.0000 2.1380 0.0000
# 2 89.6703 81.6264 85.0123 0.0000 0.2444 0.0000
# 3 113.9048 85.0123 158.2340 0.0000 -18.9378 0.0000
# 4 0.0000 0.0000 0.0000 31.3642 0.0000 -2.3927
# 5 2.1380 0.2444 -18.9378 0.0000 29.2806 0.0000
# 6 0.0000 0.0000 0.0000 -2.3927 0.0000 37.5677
#
#
#
# Elastic Compliance Matrix: (Units=1/GPa)
#
#
# Indices 1 2 3 4 5 6 
#
# 1 0.013720 -0.009620 -0.005223 0.000000 -0.004299 0.000000
# 2 -0.009620 0.038060 -0.014607 0.000000 -0.009063 0.000000
# 3 -0.005223 -0.014607 0.019496 0.000000 0.013113 0.000000
# 4 0.000000 0.000000 0.000000 0.032039 0.000000 0.002041
# 5 -0.004299 -0.009063 0.013113 0.000000 0.043023 0.000000
# 6 0.000000 0.000000 0.000000 0.002041 0.000000 0.026749
#
#
# Mechanical properties :
#
#
# Convention : Reuss Voigt Hill
#
# Bulk Modulus (GPa) = 80.80069 110.75783 95.77926
# Shear Modulus (GPa) = 21.17631 28.37972 24.77801
#
# Velocity S-wave (km/s) = 3.39041 3.92492 3.66741
# Velocity P-wave (km/s) = 7.69327 8.98116 8.36204
#
# Compressibility (1/GPa) = 0.01237613
#
# Stress axis : x y z
#
# Youngs Moduli (GPa) = 72.88374 26.27454 51.29144
#
# Poissons Ratio (x) = 0.25277 0.26787
# Poissons Ratio (y) = 0.70118 0.74922
# Poissons Ratio (z) = 0.38064 0.38380
#
# Static dielectric constant tensor:
#      x y z
#    x 1.601940 0.000000 0.006200 
#    y 0.000000 1.616710 0.000000 
#    z 0.006200 0.000000 1.610970 
# 
# From -- ./inp_files/42944.got.cif
#   From: 2010.05.17/outbox.cif.g08.bks.cpg/sg11_22_cif.got.tgz:42944.got - 2010.06.03 12:22:45.
