data_PCOD9163912
_publ_section_title
;
Structure prediction by ZEFSAII (Michael W. Deem and Ramdas Pophale) SiO2 
 PCOD9163912
Probable space group: P 21/M
;
_chemical_formula_sum "Si O2"
_cell_formula_units_Z 28
_cell_length_a 9.579672
_cell_length_b 8.523134
_cell_length_c 30.116145
_cell_angle_alpha 90.000000
_cell_angle_beta 142.461702
_cell_angle_gamma 90.000000
_cell_volume 1498.216307
_symmetry_space_group_name_H-M "P 21/M"
_symmetry_group_IT_number 11
_symmetry_cell_setting 'monoclinic'
loop_
_space_group_symop_operation_xyz
x,y,z
-x,1/2+y,-z
-x,-y,-z
x,1/2-y,z
loop_
_atom_site_type_symbol
_atom_site_label
_atom_site_fract_x
_atom_site_fract_y
_atom_site_fract_z
Si Si1 0.824096 0.438463 0.363429
Si Si2 0.741438 0.561537 0.931713
Si Si3 0.420288 0.560344 0.932128
Si Si4 0.663976 0.061563 0.502977
Si Si5 0.484586 0.559567 0.631767
Si Si6 0.894989 0.940062 0.796683
Si Si7 0.585211 0.062948 0.797733
O O1 0.825923 0.250000 0.361900
O O2 0.708856 0.486743 0.381315
O O3 0.653771 0.501542 0.282706
O O4 0.078640 0.502933 0.424553
O O5 0.745239 0.750000 0.932687
O O6 0.590373 0.508263 0.935815
O O7 0.632390 0.502931 0.858355
O O8 0.000000 0.500000 0.000000
O O9 0.423618 0.750000 0.933649
O O10 0.157438 0.510646 0.857539
O O11 0.500000 0.500000 0.000000
O O12 0.662193 0.250000 0.502355
O O13 0.573734 0.004321 0.432115
O O14 0.500000 0.000000 0.500000
O O15 0.486555 0.750000 0.631102
O O16 0.727564 0.510422 0.714176
O O17 0.887824 0.750000 0.797154
O O18 0.781469 0.004031 0.813145
O O19 0.586482 0.250000 0.798881
#
# Coordination Sequence:
#
# PCOD9163912 Si02
#       7
#     4   4   4   4   4   4   4
#     4  10  20  38  61  83 108 146 189 232 280 334
#     4  11  23  39  58  84 115 152 191 231 277 331
#     4  10  22  37  57  82 111 146 188 231 276 327
#     4  11  22  36  54  82 116 150 187 233 283 336
#     4   8  17  34  58  82 107 141 185 230 278 334
#     4   9  18  37  60  82 107 142 184 230 280 333
#     4  11  22  37  58  87 116 145 182 229 279 335
#
# _framework density 18.688891000000002
#
# number of rings (size 3 to 8) (size 9 to 14) (size 15 to 20)
#    0.000    2.000    0.000    4.714    0.000    5.143 
#    0.000    9.286    0.000    0.000    0.000    0.000 
#    0.000    0.000    0.000    0.000    0.000    0.000 
#
# Total GULP energy -156407.766462 kJ/mol
# GULP energy per Si atom -5585.991659 kJ/mol
# Density = 1.864635 g / cm^3
# Si number density = 18.688891 Si / 1000 Ang^3
#
#
#
# Elastic Constant Matrix: (Units=GPa)
#
#
# Indices 1 2 3 4 5 6 
#
# 1 178.4008 42.0194 147.4560 0.0000 6.5647 0.0000
# 2 42.0194 54.5713 41.6944 0.0000 1.3937 0.0000
# 3 147.4560 41.6944 176.7029 0.0000 0.4228 0.0000
# 4 0.0000 0.0000 0.0000 30.5842 0.0000 2.1545
# 5 6.5647 1.3937 0.4228 0.0000 39.4978 0.0000
# 6 0.0000 0.0000 0.0000 2.1545 0.0000 27.1732
#
#
#
# Elastic Compliance Matrix: (Units=1/GPa)
#
#
# Indices 1 2 3 4 5 6 
#
# 1 0.018772 -0.002950 -0.014962 0.000000 -0.002856 0.000000
# 2 -0.002950 0.022839 -0.002927 0.000000 -0.000284 0.000000
# 3 -0.014962 -0.002927 0.018830 0.000000 0.002389 0.000000
# 4 0.000000 0.000000 0.000000 0.032880 0.000000 -0.002607
# 5 -0.002856 -0.000284 0.002389 0.000000 0.025777 0.000000
# 6 0.000000 0.000000 0.000000 -0.002607 0.000000 0.037008
#
#
# Mechanical properties :
#
#
# Convention : Reuss Voigt Hill
#
# Bulk Modulus (GPa) = 53.29447 96.89049 75.09248
# Shear Modulus (GPa) = 24.50515 31.35139 27.92827
#
# Velocity S-wave (km/s) = 3.62500 4.10022 3.86991
# Velocity P-wave (km/s) = 6.78965 8.62393 7.76117
#
# Compressibility (1/GPa) = 0.01876367
#
# Stress axis : x y z
#
# Youngs Moduli (GPa) = 53.27048 43.78382 53.10712
#
# Poissons Ratio (x) = 0.12915 0.79460
# Poissons Ratio (y) = 0.15714 0.15544
# Poissons Ratio (z) = 0.79704 0.12815
#
# Static dielectric constant tensor:
#      x y z
#    x 1.620040 0.000000 0.001130 
#    y 0.000000 1.641410 0.000000 
#    z 0.001130 0.000000 1.628800 
# 
# From -- ./inp_files/28388.got.cif
#   From: 2010.05.17/outbox.cif.g08.bks.cpg/sg11_15_cif.got.tgz:28388.got - 2010.06.03 12:22:45.
