data_PCOD9163164
_publ_section_title
;
Structure prediction by ZEFSAII (Michael W. Deem and Ramdas Pophale) SiO2 
 PCOD9163164
Probable space group: P 21/M
;
_chemical_formula_sum "Si O2"
_cell_formula_units_Z 32
_cell_length_a 30.879202
_cell_length_b 9.081958
_cell_length_c 12.137460
_cell_angle_alpha 90.000000
_cell_angle_beta 28.150191
_cell_angle_gamma 90.000000
_cell_volume 1605.894403
_symmetry_space_group_name_H-M "P 21/M"
_symmetry_group_IT_number 11
_symmetry_cell_setting 'monoclinic'
loop_
_space_group_symop_operation_xyz
x,y,z
-x,1/2+y,-z
-x,-y,-z
x,1/2-y,z
loop_
_atom_site_type_symbol
_atom_site_label
_atom_site_fract_x
_atom_site_fract_y
_atom_site_fract_z
Si Si1 0.018935 0.078069 0.137185
Si Si2 0.872353 0.580433 0.317037
Si Si3 0.044975 0.073478 0.505852
Si Si4 0.390987 0.072680 0.542484
Si Si5 0.582037 0.079274 0.751066
Si Si6 0.696483 0.414142 0.707810
Si Si7 0.586663 0.420507 0.168817
Si Si8 0.741202 0.926279 0.968734
O O1 0.012068 0.250000 0.181396
O O2 0.935135 0.027146 0.247501
O O3 0.012256 0.980391 0.260254
O O4 0.105448 0.057699 0.861965
O O5 0.894286 0.750000 0.294838
O O6 0.768474 0.539784 0.573235
O O7 0.043561 0.250000 0.499390
O O8 0.152426 0.027408 0.280501
O O9 0.000000 0.000000 0.500000
O O10 0.398254 0.250000 0.513350
O O11 0.481787 0.024413 0.408119
O O12 0.300615 0.040370 0.816616
O O13 0.393508 0.998053 0.418116
O O14 0.558023 0.250000 0.784925
O O15 0.664193 0.074790 0.655095
O O16 0.500000 0.000000 0.000000
O O17 0.737363 0.250000 0.633221
O O18 0.612340 0.424336 0.981255
O O19 0.588249 0.250000 0.201410
O O20 0.668049 0.503427 0.048952
O O21 0.738669 0.750000 0.959502
#
# Coordination Sequence:
#
# PCOD9163164 Si02
#       8
#     4   4   4   4   4   4   4   4
#     4  10  21  39  61  85 117 154 192 240 298 353
#     4  10  21  36  58  89 118 150 195 243 294 350
#     4  11  24  42  63  88 117 154 199 245 299 357
#     4  10  21  40  60  83 120 158 193 241 291 339
#     4  11  22  38  58  82 114 153 195 235 281 340
#     4  10  21  36  55  84 119 154 193 238 291 346
#     4  10  20  36  59  85 119 156 192 236 289 345
#     4  10  23  40  60  87 117 150 195 245 290 344
#
# _framework density 19.926590999999998
#
# number of rings (size 3 to 8) (size 9 to 14) (size 15 to 20)
#    0.000    1.750    1.250    2.625    0.000    8.000 
#    0.000    3.750    0.000    0.000    0.000    0.000 
#    0.000    0.000    0.000    0.000    0.000    0.000 
#
# Total GULP energy -178650.571974 kJ/mol
# GULP energy per Si atom -5582.830374 kJ/mol
# Density = 1.988124 g / cm^3
# Si number density = 19.926591 Si / 1000 Ang^3
#
#
#
# Elastic Constant Matrix: (Units=GPa)
#
#
# Indices 1 2 3 4 5 6 
#
# 1 51.8526 13.3549 -8.1129 0.0000 20.2914 0.0000
# 2 13.3549 42.2884 13.0240 0.0000 7.9588 0.0000
# 3 -8.1129 13.0240 36.8242 0.0000 4.0270 0.0000
# 4 0.0000 0.0000 0.0000 27.0472 0.0000 4.2227
# 5 20.2914 7.9588 4.0270 0.0000 27.7637 0.0000
# 6 0.0000 0.0000 0.0000 4.2227 0.0000 37.0227
#
#
#
# Elastic Compliance Matrix: (Units=1/GPa)
#
#
# Indices 1 2 3 4 5 6 
#
# 1 0.033111 -0.010230 0.013452 0.000000 -0.023218 0.000000
# 2 -0.010230 0.030847 -0.013224 0.000000 0.000552 0.000000
# 3 0.013452 -0.013224 0.036029 0.000000 -0.011267 0.000000
# 4 0.000000 0.000000 0.000000 0.037643 0.000000 -0.004293
# 5 -0.023218 0.000552 -0.011267 0.000000 0.054463 0.000000
# 6 0.000000 0.000000 0.000000 -0.004293 0.000000 0.027500
#
#
# Mechanical properties :
#
#
# Convention : Reuss Voigt Hill
#
# Bulk Modulus (GPa) = 12.50272 18.61078 15.55675
# Shear Modulus (GPa) = 18.77887 25.88000 22.32944
#
# Velocity S-wave (km/s) = 3.07319 3.60775 3.35115
# Velocity P-wave (km/s) = 4.34519 5.16860 4.77468
#
# Compressibility (1/GPa) = 0.07998258
#
# Stress axis : x y z
#
# Youngs Moduli (GPa) = 30.20168 32.41857 27.75557
#
# Poissons Ratio (x) = 0.33163 -0.37337
# Poissons Ratio (y) = 0.30896 0.36704
# Poissons Ratio (z) = -0.40627 0.42870
#
# Static dielectric constant tensor:
#      x y z
#    x 1.701820 0.000000 0.007460 
#    y 0.000000 1.679500 0.000000 
#    z 0.007460 0.000000 1.708990 
# 
# From -- ./inp_files/45196.got.cif
#   From: 2010.05.17/outbox.cif.g08.bks.cpg/sg11_23_cif.got.tgz:45196.got - 2010.06.03 12:22:45.
