data_PCOD9163944
_publ_section_title
;
Structure prediction by ZEFSAII (Michael W. Deem and Ramdas Pophale) SiO2 
 PCOD9163944
Probable space group: P 21/M
;
_chemical_formula_sum "Si O2"
_cell_formula_units_Z 28
_cell_length_a 9.535739
_cell_length_b 8.815660
_cell_length_c 27.782324
_cell_angle_alpha 90.000000
_cell_angle_beta 142.325846
_cell_angle_gamma 90.000000
_cell_volume 1427.380730
_symmetry_space_group_name_H-M "P 21/M"
_symmetry_group_IT_number 11
_symmetry_cell_setting 'monoclinic'
loop_
_space_group_symop_operation_xyz
x,y,z
-x,1/2+y,-z
-x,-y,-z
x,1/2-y,z
loop_
_atom_site_type_symbol
_atom_site_label
_atom_site_fract_x
_atom_site_fract_y
_atom_site_fract_z
Si Si1 0.252064 0.570707 0.065112
Si Si2 0.303549 0.430285 0.979022
Si Si3 0.281741 0.065445 0.336517
Si Si4 0.516445 0.071933 0.224135
Si Si5 0.941498 0.567920 0.622573
Si Si6 0.809719 0.432036 0.484456
Si Si7 0.873628 0.930584 0.808084
O O1 0.235180 0.750000 0.054747
O O2 0.398046 0.527655 0.151210
O O3 0.352093 0.493977 0.044988
O O4 0.000000 0.500000 0.000000
O O5 0.306927 0.250000 0.980245
O O6 0.060983 0.487182 0.891814
O O7 0.500000 0.500000 0.000000
O O8 0.275872 0.250000 0.334845
O O9 0.179923 0.017891 0.360560
O O10 0.547346 0.020870 0.401747
O O11 0.137773 0.016924 0.250408
O O12 0.487151 0.250000 0.203233
O O13 0.375853 0.048895 0.235247
O O14 0.785494 0.041505 0.300690
O O15 0.905540 0.750000 0.607760
O O16 0.852932 0.485550 0.550850
O O17 0.822382 0.250000 0.484711
O O18 0.000000 0.500000 0.500000
O O19 0.924749 0.750000 0.822881
#
# Coordination Sequence:
#
# PCOD9163944 Si02
#       7
#     4   4   4   4   4   4   4
#     4  12  24  41  64  92 125 164 211 261 313 371
#     4  12  26  43  63  90 124 164 208 261 319 375
#     4   9  20  38  62  91 124 162 203 249 306 366
#     4  10  21  37  61  90 124 164 208 254 308 368
#     4  10  21  39  63  93 125 161 201 248 308 370
#     4  11  22  39  63  91 123 163 207 253 303 363
#     4  10  20  38  61  87 121 162 207 255 305 368
#
# _framework density 19.616351000000002
#
# number of rings (size 3 to 8) (size 9 to 14) (size 15 to 20)
#    0.000    1.429    1.429    4.286    2.000    2.857 
#    0.000    4.286    0.000    0.000    0.000    0.000 
#    0.000    0.000    0.000    0.000    0.000    0.000 
#
# Total GULP energy -156475.602006 kJ/mol
# GULP energy per Si atom -5588.414357 kJ/mol
# Density = 1.957170 g / cm^3
# Si number density = 19.616351 Si / 1000 Ang^3
#
#
#
# Elastic Constant Matrix: (Units=GPa)
#
#
# Indices 1 2 3 4 5 6 
#
# 1 97.4476 27.1064 6.3736 0.0000 -12.8779 0.0000
# 2 27.1064 75.2975 34.7146 0.0000 -6.0126 0.0000
# 3 6.3736 34.7146 56.1185 0.0000 -12.5376 0.0000
# 4 0.0000 0.0000 0.0000 30.5418 0.0000 -6.0072
# 5 -12.8779 -6.0126 -12.5376 0.0000 39.3074 0.0000
# 6 0.0000 0.0000 0.0000 -6.0072 0.0000 27.5431
#
#
#
# Elastic Compliance Matrix: (Units=1/GPa)
#
#
# Indices 1 2 3 4 5 6 
#
# 1 0.012096 -0.005337 0.002832 0.000000 0.004050 0.000000
# 2 -0.005337 0.020963 -0.012959 0.000000 -0.002675 0.000000
# 3 0.002832 -0.012959 0.027218 0.000000 0.007627 0.000000
# 4 0.000000 0.000000 0.000000 0.034209 0.000000 0.007461
# 5 0.004050 -0.002675 0.007627 0.000000 0.028791 0.000000
# 6 0.000000 0.000000 0.000000 0.007461 0.000000 0.037934
#
#
# Mechanical properties :
#
#
# Convention : Reuss Voigt Hill
#
# Bulk Modulus (GPa) = 34.07132 40.58364 37.32748
# Shear Modulus (GPa) = 24.76195 30.18974 27.47584
#
# Velocity S-wave (km/s) = 3.55676 3.92728 3.74660
# Velocity P-wave (km/s) = 5.85439 6.42637 6.14704
#
# Compressibility (1/GPa) = 0.02935020
#
# Stress axis : x y z
#
# Youngs Moduli (GPa) = 82.66869 47.70341 36.74018
#
# Poissons Ratio (x) = 0.25460 -0.10407
# Poissons Ratio (y) = 0.44121 0.47612
# Poissons Ratio (z) = -0.23416 0.61819
#
# Static dielectric constant tensor:
#      x y z
#    x 1.626760 0.000000 0.033460 
#    y 0.000000 1.658540 0.000000 
#    z 0.033460 0.000000 1.650420 
# 
# From -- ./inp_files/70805.got.cif
#   From: 2010.05.17/outbox.cif.g08.bks.cpg/sg11_36_cif.got.tgz:70805.got - 2010.06.03 12:22:45.
