data_PCOD9163948
_publ_section_title
;
Structure prediction by ZEFSAII (Michael W. Deem and Ramdas Pophale) SiO2 
 PCOD9163948
Probable space group: P 21/M
;
_chemical_formula_sum "Si O2"
_cell_formula_units_Z 28
_cell_length_a 12.121049
_cell_length_b 8.617731
_cell_length_c 15.242527
_cell_angle_alpha 90.000000
_cell_angle_beta 117.898573
_cell_angle_gamma 90.000000
_cell_volume 1407.125871
_symmetry_space_group_name_H-M "P 21/M"
_symmetry_group_IT_number 11
_symmetry_cell_setting 'monoclinic'
loop_
_space_group_symop_operation_xyz
x,y,z
-x,1/2+y,-z
-x,-y,-z
x,1/2-y,z
loop_
_atom_site_type_symbol
_atom_site_label
_atom_site_fract_x
_atom_site_fract_y
_atom_site_fract_z
Si Si1 0.779108 0.428132 0.708475
Si Si2 0.879447 0.566102 0.008144
Si Si3 0.971752 0.430023 0.215906
Si Si4 0.922599 0.936914 0.387144
Si Si5 0.367886 0.933824 0.173272
Si Si6 0.374123 0.065962 0.493952
Si Si7 0.639317 0.564465 0.303360
O O1 0.823049 0.250000 0.730714
O O2 0.667705 0.445786 0.736722
O O3 0.732648 0.471034 0.595010
O O4 0.890016 0.543956 0.771713
O O5 0.889629 0.750000 0.009126
O O6 0.884954 0.508490 0.110869
O O7 0.747569 0.512486 0.918685
O O8 0.000000 0.500000 0.000000
O O9 0.942803 0.250000 0.214554
O O10 0.973417 0.509591 0.311737
O O11 0.923711 0.750000 0.393805
O O12 0.777585 0.993096 0.331770
O O13 0.000000 0.000000 0.500000
O O14 0.365782 0.750000 0.151341
O O15 0.509282 0.995077 0.213107
O O16 0.361334 0.250000 0.471185
O O17 0.371524 0.043520 0.596378
O O18 0.500000 0.000000 0.500000
O O19 0.639594 0.750000 0.286480
#
# Coordination Sequence:
#
# PCOD9163948 Si02
#       7
#     4   4   4   4   4   4   4
#     4  11  21  35  58  88 123 160 203 256 316 378
#     4  12  24  40  63  95 129 165 209 260 319 382
#     4  12  25  42  64  91 125 167 214 263 316 375
#     4  11  23  43  69  95 127 169 216 265 314 374
#     4  10  20  38  61  88 124 162 203 254 315 377
#     4  11  20  33  53  84 123 162 204 250 309 378
#     4   9  20  39  61  85 121 166 207 256 315 371
#
# _framework density 19.898716
#
# number of rings (size 3 to 8) (size 9 to 14) (size 15 to 20)
#    0.000    1.143    2.857    4.714    0.000    1.714 
#    0.000    4.286    0.000    0.000    0.000    0.000 
#    0.000    0.000    0.000    0.000    0.000    0.000 
#
# Total GULP energy -156315.638462 kJ/mol
# GULP energy per Si atom -5582.701374 kJ/mol
# Density = 1.985343 g / cm^3
# Si number density = 19.898716 Si / 1000 Ang^3
#
#
#
# Elastic Constant Matrix: (Units=GPa)
#
#
# Indices 1 2 3 4 5 6 
#
# 1 88.5689 25.9141 40.6740 0.0000 17.5632 0.0000
# 2 25.9141 87.3819 41.4613 0.0000 4.4969 0.0000
# 3 40.6740 41.4613 127.2166 0.0000 22.7619 0.0000
# 4 0.0000 0.0000 0.0000 31.1443 0.0000 4.4529
# 5 17.5632 4.4969 22.7619 0.0000 34.0427 0.0000
# 6 0.0000 0.0000 0.0000 4.4529 0.0000 22.7917
#
#
#
# Elastic Compliance Matrix: (Units=1/GPa)
#
#
# Indices 1 2 3 4 5 6 
#
# 1 0.014389 -0.002671 -0.002800 0.000000 -0.005199 0.000000
# 2 -0.002671 0.014086 -0.004146 0.000000 0.002290 0.000000
# 3 -0.002800 -0.004146 0.011076 0.000000 -0.005413 0.000000
# 4 0.000000 0.000000 0.000000 0.033031 0.000000 -0.006453
# 5 -0.005199 0.002290 -0.005413 0.000000 0.035374 0.000000
# 6 0.000000 0.000000 0.000000 -0.006453 0.000000 0.045137
#
#
# Mechanical properties :
#
#
# Convention : Reuss Voigt Hill
#
# Bulk Modulus (GPa) = 49.22314 57.69624 53.45969
# Shear Modulus (GPa) = 27.91762 30.60360 29.26061
#
# Velocity S-wave (km/s) = 3.74971 3.92595 3.83884
# Velocity P-wave (km/s) = 6.59831 7.04334 6.82445
#
# Compressibility (1/GPa) = 0.02031565
#
# Stress axis : x y z
#
# Youngs Moduli (GPa) = 69.49845 70.99380 90.28820
#
# Poissons Ratio (x) = 0.18964 0.25278
# Poissons Ratio (y) = 0.18565 0.37437
# Poissons Ratio (z) = 0.19457 0.29437
#
# Static dielectric constant tensor:
#      x y z
#    x 1.729410 0.000000 0.031250 
#    y 0.000000 1.716430 0.000000 
#    z 0.031250 0.000000 1.712430 
# 
# From -- ./inp_files/49461.got.cif
#   From: 2010.05.17/outbox.cif.g08.bks.cpg/sg11_25_cif.got.tgz:49461.got - 2010.06.03 12:22:45.
