data_PCOD9163996
_publ_section_title
;
Structure prediction by ZEFSAII (Michael W. Deem and Ramdas Pophale) SiO2 
 PCOD9163996
Probable space group: P 21/M
;
_chemical_formula_sum "Si O2"
_cell_formula_units_Z 30
_cell_length_a 13.022388
_cell_length_b 19.597989
_cell_length_c 4.971061
_cell_angle_alpha 90.000000
_cell_angle_beta 94.468347
_cell_angle_gamma 90.000000
_cell_volume 1264.821374
_symmetry_space_group_name_H-M "P 21/M"
_symmetry_group_IT_number 11
_symmetry_cell_setting 'monoclinic'
loop_
_space_group_symop_operation_xyz
x,y,z
-x,1/2+y,-z
-x,-y,-z
x,1/2-y,z
loop_
_atom_site_type_symbol
_atom_site_label
_atom_site_fract_x
_atom_site_fract_y
_atom_site_fract_z
Si Si1 0.135701 0.750000 0.921475
Si Si2 0.505550 0.673783 0.732408
Si Si3 0.845267 0.037117 0.602822
Si Si4 0.340286 0.990544 0.072118
Si Si5 0.928897 0.921822 0.255986
Si Si6 0.538864 0.911212 0.254860
Si Si7 0.926914 0.673356 0.780434
Si Si8 0.719303 0.139867 0.284990
O O1 0.223612 0.691685 0.895116
O O2 0.043261 0.691861 0.896942
O O3 0.545302 0.750000 0.712760
O O4 0.508875 0.649097 0.040866
O O5 0.385503 0.670572 0.617949
O O6 0.561664 0.620438 0.548380
O O7 0.755505 0.001284 0.752399
O O8 0.800011 0.111361 0.517590
O O9 0.954576 0.050636 0.766251
O O10 0.869437 0.988158 0.354282
O O11 0.369254 0.051096 0.878590
O O12 0.443821 0.964927 0.247461
O O13 0.314448 0.926771 0.879344
O O14 0.887001 0.880135 0.992973
O O15 0.930799 0.866268 0.499144
O O16 0.877682 0.750000 0.751870
#
# Coordination Sequence:
#
# PCOD9163996 Si02
#       8
#     2   4   4   4   4   4   4   4
#     4  10  20  38  62  92 136 152 208 250 332 374
#     4  11  22  40  63  96 129 161 204 252 311 378
#     4  11  23  37  61  90 131 160 213 255 307 364
#     4  10  23  38  61  92 126 165 210 250 311 369
#     4  11  24  39  61  91 125 170 208 254 307 367
#     4  10  23  40  64  89 130 167 203 250 309 371
#     4  10  22  40  61  84 121 168 206 252 308 368
#     4  11  21  37  60 100 125 165 194 264 318 377
#
# _framework density 23.718765000000001
#
# number of rings (size 3 to 8) (size 9 to 14) (size 15 to 20)
#    0.400    1.067    3.333    1.600    3.733    2.667 
#    0.000    0.000    0.000    4.800    0.000    0.000 
#    0.000    0.000    0.000    0.000    0.000    0.000 
#
# Total GULP energy -167274.242050 kJ/mol
# GULP energy per Si atom -5575.808068 kJ/mol
# Density = 2.366478 g / cm^3
# Si number density = 23.718765 Si / 1000 Ang^3
#
#
#
# Elastic Constant Matrix: (Units=GPa)
#
#
# Indices 1 2 3 4 5 6 
#
# 1 31.9222 20.5330 25.3900 0.0000 -12.1501 0.0000
# 2 20.5330 111.5132 23.0581 0.0000 -4.4467 0.0000
# 3 25.3900 23.0581 96.9568 0.0000 -10.4185 0.0000
# 4 0.0000 0.0000 0.0000 1.7353 0.0000 -15.4455
# 5 -12.1501 -4.4467 -10.4185 0.0000 28.4362 0.0000
# 6 0.0000 0.0000 0.0000 -15.4455 0.0000 38.8654
#
#
#
# Elastic Compliance Matrix: (Units=1/GPa)
#
#
# Indices 1 2 3 4 5 6 
#
# 1 0.049453 -0.006452 -0.009633 0.000000 0.016592 0.000000
# 2 -0.006452 0.010286 -0.000916 0.000000 -0.001484 0.000000
# 3 -0.009633 -0.000916 0.013113 0.000000 0.000545 0.000000
# 4 0.000000 0.000000 0.000000 -0.227124 0.000000 -0.090261
# 5 0.016592 -0.001484 0.000545 0.000000 0.042224 0.000000
# 6 0.000000 0.000000 0.000000 -0.090261 0.000000 -0.010141
#
#
# Mechanical properties :
#
#
# Convention : Reuss Voigt Hill
#
# Bulk Modulus (GPa) = 25.74031 42.03936 33.88983
# Shear Modulus (GPa) = -66.45670 25.23479 -20.61096
#
# Velocity S-wave (km/s) = -5.29900 3.26531 -2.95103
# Velocity P-wave (km/s) = 5.15397 5.65499 1.64553
#
# Compressibility (1/GPa) = 0.03884957
#
# Stress axis : x y z
#
# Youngs Moduli (GPa) = 20.22103 97.22090 76.26115
#
# Poissons Ratio (x) = 0.62731 0.73462
# Poissons Ratio (y) = 0.13047 0.06985
# Poissons Ratio (z) = 0.19479 0.08905
#
# Static dielectric constant tensor:
#      x y z
#    x 1.924950 0.000000 0.050010 
#    y 0.000000 1.784900 0.000000 
#    z 0.050010 0.000000 1.936180 
# 
# From -- ./inp_files/6803.got.cif
#   From: 2010.05.17/outbox.cif.g08.bks.cpg/sg11_4_cif.got.tgz:6803.got - 2010.06.03 12:22:45.
