data_PCOD9163158
_publ_section_title
;
Structure prediction by ZEFSAII (Michael W. Deem and Ramdas Pophale) SiO2 
 PCOD9163158
Probable space group: P 21/M
;
_chemical_formula_sum "Si O2"
_cell_formula_units_Z 28
_cell_length_a 10.532365
_cell_length_b 23.028308
_cell_length_c 10.710805
_cell_angle_alpha 90.000000
_cell_angle_beta 34.122672
_cell_angle_gamma 90.000000
_cell_volume 1457.293605
_symmetry_space_group_name_H-M "P 21/M"
_symmetry_group_IT_number 11
_symmetry_cell_setting 'monoclinic'
loop_
_space_group_symop_operation_xyz
x,y,z
-x,1/2+y,-z
-x,-y,-z
x,1/2-y,z
loop_
_atom_site_type_symbol
_atom_site_label
_atom_site_fract_x
_atom_site_fract_y
_atom_site_fract_z
Si Si1 0.177170 0.882731 0.996786
Si Si2 0.479433 0.919658 0.376783
Si Si3 0.762589 0.022723 0.241975
Si Si4 0.642404 0.475287 0.767692
Si Si5 0.058559 0.419004 0.562583
Si Si6 0.739847 0.682867 0.275030
Si Si7 0.379621 0.316470 0.332647
O O1 0.304212 0.929416 0.807355
O O2 0.368852 0.840697 0.896233
O O3 0.041445 0.914968 0.216718
O O4 0.988773 0.846654 0.073293
O O5 0.236964 0.940868 0.629235
O O6 0.501408 0.940259 0.217495
O O7 0.566414 0.855869 0.335780
O O8 0.624657 0.962659 0.347293
O O9 0.000000 0.000000 0.000000
O O10 0.761616 0.529719 0.603072
O O11 0.844373 0.433973 0.651049
O O12 0.500000 0.500000 0.000000
O O13 0.191265 0.359219 0.429512
O O14 0.750803 0.750000 0.227346
O O15 0.658339 0.681522 0.486035
O O16 0.356017 0.250000 0.311639
#
# Coordination Sequence:
#
# PCOD9163158 Si02
#       7
#     4   4   4   4   4   4   4
#     4  11  19  36  60  87 117 152 188 242 299 353
#     4  11  22  35  56  87 120 151 190 239 301 355
#     4  11  20  32  55  90 118 147 185 241 300 357
#     4  11  23  40  59  84 117 159 197 246 299 348
#     4  10  22  38  58  85 115 149 202 243 287 348
#     4  10  21  36  54  86 122 153 192 233 287 366
#     4  10  20  36  59  85 116 152 192 242 293 347
#
# _framework density 19.213698999999998
#
# number of rings (size 3 to 8) (size 9 to 14) (size 15 to 20)
#    0.000    1.429    2.857    3.857    4.000    1.714 
#    0.000    0.714    0.000    0.857    0.000    0.000 
#    0.000    0.000    0.000    0.000    0.000    0.000 
#
# Total GULP energy -156167.499567 kJ/mol
# GULP energy per Si atom -5577.410699 kJ/mol
# Density = 1.916997 g / cm^3
# Si number density = 19.213699 Si / 1000 Ang^3
#
#
#
# Elastic Constant Matrix: (Units=GPa)
#
#
# Indices 1 2 3 4 5 6 
#
# 1 61.1874 53.4781 23.9882 0.0000 0.6633 0.0000
# 2 53.4781 154.4996 41.9839 0.0000 -0.7790 0.0000
# 3 23.9882 41.9839 78.6479 0.0000 3.8864 0.0000
# 4 0.0000 0.0000 0.0000 23.6231 0.0000 -5.3641
# 5 0.6633 -0.7790 3.8864 0.0000 22.4993 0.0000
# 6 0.0000 0.0000 0.0000 -5.3641 0.0000 35.3698
#
#
#
# Elastic Compliance Matrix: (Units=1/GPa)
#
#
# Indices 1 2 3 4 5 6 
#
# 1 0.024189 -0.007457 -0.003378 0.000000 -0.000388 0.000000
# 2 -0.007457 0.009890 -0.003059 0.000000 0.001091 0.000000
# 3 -0.003378 -0.003059 0.015511 0.000000 -0.002686 0.000000
# 4 0.000000 0.000000 0.000000 0.043841 0.000000 0.006649
# 5 -0.000388 0.001091 -0.002686 0.000000 0.044959 0.000000
# 6 0.000000 0.000000 0.000000 0.006649 0.000000 0.029281
#
#
# Mechanical properties :
#
#
# Convention : Reuss Voigt Hill
#
# Bulk Modulus (GPa) = 45.86672 59.24837 52.55754
# Shear Modulus (GPa) = 24.66369 27.95742 26.31055
#
# Velocity S-wave (km/s) = 3.58669 3.81869 3.70451
# Velocity P-wave (km/s) = 6.40907 7.09553 6.76102
#
# Compressibility (1/GPa) = 0.02180230
#
# Stress axis : x y z
#
# Youngs Moduli (GPa) = 41.34106 101.10845 64.47012
#
# Poissons Ratio (x) = 0.75394 0.21779
# Poissons Ratio (y) = 0.30827 0.19723
# Poissons Ratio (z) = 0.13966 0.30931
#
# Static dielectric constant tensor:
#      x y z
#    x 1.701940 0.000000 -0.023980 
#    y 0.000000 1.677020 0.000000 
#    z -0.023980 0.000000 2.495790 
# 
# From -- ./inp_files/36399.got.cif
#   From: 2010.05.17/outbox.cif.g08.bks.cpg/sg11_19_cif.got.tgz:36399.got - 2010.06.03 12:22:45.
