data_PCOD9163704
_publ_section_title
;
Structure prediction by ZEFSAII (Michael W. Deem and Ramdas Pophale) SiO2 
 PCOD9163704
Probable space group: P 21/M
;
_chemical_formula_sum "Si O2"
_cell_formula_units_Z 32
_cell_length_a 22.565221
_cell_length_b 8.251227
_cell_length_c 15.909706
_cell_angle_alpha 90.000000
_cell_angle_beta 147.305741
_cell_angle_gamma 90.000000
_cell_volume 1600.071849
_symmetry_space_group_name_H-M "P 21/M"
_symmetry_group_IT_number 11
_symmetry_cell_setting 'monoclinic'
loop_
_space_group_symop_operation_xyz
x,y,z
-x,1/2+y,-z
-x,-y,-z
x,1/2-y,z
loop_
_atom_site_type_symbol
_atom_site_label
_atom_site_fract_x
_atom_site_fract_y
_atom_site_fract_z
Si Si1 0.418814 0.445928 0.328776
Si Si2 0.174695 0.554941 0.694151
Si Si3 0.756068 0.943286 0.601486
Si Si4 0.481507 0.557574 0.728621
Si Si5 0.579279 0.057630 0.020818
Si Si6 0.973523 0.945739 0.338060
Si Si7 0.198810 0.052466 0.154222
Si Si8 0.014661 0.946486 0.196864
O O1 0.500000 0.500000 0.500000
O O2 0.419995 0.250000 0.328351
O O3 0.460977 0.504598 0.288527
O O4 0.296155 0.498081 0.207656
O O5 0.176575 0.750000 0.691159
O O6 0.296582 0.491425 0.823191
O O7 0.129523 0.507548 0.731789
O O8 0.083096 0.497727 0.518123
O O9 0.740856 0.750000 0.584499
O O10 0.772166 0.000804 0.717022
O O11 0.647470 0.020629 0.433032
O O12 0.866664 0.986324 0.684481
O O13 0.497588 0.750000 0.751323
O O14 0.531542 0.485176 0.872736
O O15 0.586368 0.250000 0.035990
O O16 0.500000 0.000000 0.000000
O O17 0.971261 0.750000 0.337722
O O18 0.978741 0.995422 0.247669
O O19 0.197429 0.250000 0.153059
O O20 0.079562 0.999182 0.980459
O O21 0.020419 0.750000 0.201506
#
# Coordination Sequence:
#
# PCOD9163704 Si02
#       8
#     4   4   4   4   4   4   4   4
#     4  10  20  37  61  88 120 158 201 250 303 363
#     4   9  20  39  59  84 119 152 188 240 293 347
#     4  11  22  38  59  83 120 160 199 247 299 358
#     4  11  24  40  63  91 120 158 206 252 305 371
#     4  11  25  43  64  91 126 162 202 252 306 361
#     4   9  19  36  61  87 112 151 195 240 292 350
#     4   9  19  36  57  84 120 156 194 245 299 353
#     4  10  21  36  59  86 116 154 199 247 298 353
#
# _framework density 19.999102000000001
#
# number of rings (size 3 to 8) (size 9 to 14) (size 15 to 20)
#    0.000    2.000    1.250    1.500    3.500    2.000 
#    0.000    1.250    0.000    0.000    0.000    0.000 
#    0.000    0.000    0.000    0.000    0.000    0.000 
#
# Total GULP energy -178768.389933 kJ/mol
# GULP energy per Si atom -5586.512185 kJ/mol
# Density = 1.995358 g / cm^3
# Si number density = 19.999102 Si / 1000 Ang^3
#
#
#
# Elastic Constant Matrix: (Units=GPa)
#
#
# Indices 1 2 3 4 5 6 
#
# 1 110.6614 10.8225 39.0733 0.0000 10.5697 0.0000
# 2 10.8225 14.9750 4.5405 0.0000 -1.6014 0.0000
# 3 39.0733 4.5405 61.4008 0.0000 6.9154 0.0000
# 4 0.0000 0.0000 0.0000 18.7980 0.0000 -2.1833
# 5 10.5697 -1.6014 6.9154 0.0000 35.5333 0.0000
# 6 0.0000 0.0000 0.0000 -2.1833 0.0000 22.3996
#
#
#
# Elastic Compliance Matrix: (Units=1/GPa)
#
#
# Indices 1 2 3 4 5 6 
#
# 1 0.012509 -0.007162 -0.007131 0.000000 -0.002656 0.000000
# 2 -0.007162 0.073015 -0.001485 0.000000 0.005710 0.000000
# 3 -0.007131 -0.001485 0.021167 0.000000 -0.002065 0.000000
# 4 0.000000 0.000000 0.000000 0.053806 0.000000 0.005244
# 5 -0.002656 0.005710 -0.002065 0.000000 0.029592 0.000000
# 6 0.000000 0.000000 0.000000 0.005244 0.000000 0.045155
#
#
# Mechanical properties :
#
#
# Convention : Reuss Voigt Hill
#
# Bulk Modulus (GPa) = 13.30950 32.87885 23.09418
# Shear Modulus (GPa) = 17.13244 24.18624 20.65934
#
# Velocity S-wave (km/s) = 2.93005 3.48137 3.21754
# Velocity P-wave (km/s) = 4.25634 5.71277 5.03747
#
# Compressibility (1/GPa) = 0.07513428
#
# Stress axis : x y z
#
# Youngs Moduli (GPa) = 79.94483 13.69586 47.24350
#
# Poissons Ratio (x) = 0.09809 0.33691
# Poissons Ratio (y) = 0.57255 0.07015
# Poissons Ratio (z) = 0.57011 0.02034
#
# Static dielectric constant tensor:
#      x y z
#    x 1.705340 0.000000 0.013340 
#    y 0.000000 1.672910 0.000000 
#    z 0.013340 0.000000 1.693370 
# 
# From -- ./inp_files/55695.got.cif
#   From: 2010.05.17/outbox.cif.g08.bks.cpg/sg11_28_cif.got.tgz:55695.got - 2010.06.03 12:22:45.
