data_PCOD9163282
_publ_section_title
;
Structure prediction by ZEFSAII (Michael W. Deem and Ramdas Pophale) SiO2 
 PCOD9163282
Probable space group: P 21/M
;
_chemical_formula_sum "Si O2"
_cell_formula_units_Z 32
_cell_length_a 22.157253
_cell_length_b 8.673149
_cell_length_c 28.627632
_cell_angle_alpha 90.000000
_cell_angle_beta 18.797901
_cell_angle_gamma 90.000000
_cell_volume 1772.741817
_symmetry_space_group_name_H-M "P 21/M"
_symmetry_group_IT_number 11
_symmetry_cell_setting 'monoclinic'
loop_
_space_group_symop_operation_xyz
x,y,z
-x,1/2+y,-z
-x,-y,-z
x,1/2-y,z
loop_
_atom_site_type_symbol
_atom_site_label
_atom_site_fract_x
_atom_site_fract_y
_atom_site_fract_z
Si Si1 0.581552 0.064654 0.834155
Si Si2 0.790812 0.064999 0.155499
Si Si3 0.494441 0.435002 0.451873
Si Si4 0.102387 0.562711 0.323708
Si Si5 0.815195 0.435255 0.842757
Si Si6 0.683807 0.935250 0.658284
Si Si7 0.508470 0.065821 0.695596
Si Si8 0.192198 0.565817 0.603738
O O1 0.579501 0.250000 0.835158
O O2 0.740056 0.012513 0.755017
O O3 0.629922 0.002310 0.747683
O O4 0.380592 0.002373 0.996843
O O5 0.795941 0.250000 0.150289
O O6 0.673290 0.019433 0.288353
O O7 0.669934 0.002495 0.200553
O O8 0.000000 0.000000 0.000000
O O9 0.500000 0.500000 0.500000
O O10 0.488979 0.250000 0.457248
O O11 0.312036 0.497541 0.558461
O O12 0.102176 0.750000 0.323812
O O13 0.148387 0.513213 0.237403
O O14 0.895110 0.513212 0.490617
O O15 0.809942 0.250000 0.847751
O O16 0.988256 0.494269 0.746821
O O17 0.679585 0.750000 0.662744
O O18 0.548060 0.994323 0.716894
O O19 0.491291 0.250000 0.711381
O O20 0.686179 0.029452 0.531907
O O21 0.180544 0.750000 0.616766
#
# Coordination Sequence:
#
# PCOD9163282 Si02
#       8
#     4   4   4   4   4   4   4   4
#     4  11  23  39  55  83 120 153 190 241 295 345
#     4  10  21  38  61  89 120 154 192 236 285 340
#     4  10  21  38  61  89 120 154 192 236 285 340
#     4   9  20  37  61  85 112 149 194 241 289 347
#     4  11  21  38  60  85 115 152 194 239 291 347
#     4  11  21  38  60  85 115 152 194 239 291 347
#     4  10  20  36  60  88 116 151 194 239 286 342
#     4  10  20  36  60  88 116 151 194 239 286 342
#
# _framework density 18.051134000000001
#
# number of rings (size 3 to 8) (size 9 to 14) (size 15 to 20)
#    0.000    1.750    1.250    3.375    0.000    2.500 
#    2.250    3.750    0.000    0.000    0.000    0.000 
#    0.000    0.000    0.000    0.000    0.000    0.000 
#
# Total GULP energy -178781.677060 kJ/mol
# GULP energy per Si atom -5586.927408 kJ/mol
# Density = 1.801005 g / cm^3
# Si number density = 18.051134 Si / 1000 Ang^3
#
#
#
# Elastic Constant Matrix: (Units=GPa)
#
#
# Indices 1 2 3 4 5 6 
#
# 1 177.8456 48.7558 100.6201 0.0000 -1.1023 0.0000
# 2 48.7558 56.8665 44.4985 0.0000 -2.6495 0.0000
# 3 100.6201 44.4985 159.6639 0.0000 -9.5570 0.0000
# 4 0.0000 0.0000 0.0000 23.6576 0.0000 -2.9514
# 5 -1.1023 -2.6495 -9.5570 0.0000 31.3412 0.0000
# 6 0.0000 0.0000 0.0000 -2.9514 0.0000 27.9857
#
#
#
# Elastic Compliance Matrix: (Units=1/GPa)
#
#
# Indices 1 2 3 4 5 6 
#
# 1 0.009615 -0.004479 -0.004903 0.000000 -0.001536 0.000000
# 2 -0.004479 0.024576 -0.003985 0.000000 0.000705 0.000000
# 3 -0.004903 -0.003985 0.010627 0.000000 0.002731 0.000000
# 4 0.000000 0.000000 0.000000 0.042833 0.000000 0.004517
# 5 -0.001536 0.000705 0.002731 0.000000 0.032745 0.000000
# 6 0.000000 0.000000 0.000000 0.004517 0.000000 0.036209
#
#
# Mechanical properties :
#
#
# Convention : Reuss Voigt Hill
#
# Bulk Modulus (GPa) = 55.29390 86.90277 71.09833
# Shear Modulus (GPa) = 26.40371 29.96365 28.18368
#
# Velocity S-wave (km/s) = 3.82870 4.07865 3.95565
# Velocity P-wave (km/s) = 7.08827 8.39211 7.76760
#
# Compressibility (1/GPa) = 0.01808518
#
# Stress axis : x y z
#
# Youngs Moduli (GPa) = 104.00144 40.69045 94.09793
#
# Poissons Ratio (x) = 0.18223 0.46139
# Poissons Ratio (y) = 0.46578 0.37495
# Poissons Ratio (z) = 0.50995 0.16214
#
# Static dielectric constant tensor:
#      x y z
#    x 1.591880 0.000000 0.005300 
#    y 0.000000 1.601130 0.000000 
#    z 0.005300 0.000000 1.599470 
# 
# From -- ./inp_files/72108.got.cif
#   From: 2010.05.17/outbox.cif.g08.bks.cpg/sg11_37_cif.got.tgz:72108.got - 2010.06.03 12:22:45.
