data_PCOD9163769
_publ_section_title
;
Structure prediction by ZEFSAII (Michael W. Deem and Ramdas Pophale) SiO2 
 PCOD9163769
Probable space group: P 21/M
;
_chemical_formula_sum "Si O2"
_cell_formula_units_Z 32
_cell_length_a 27.579443
_cell_length_b 8.847302
_cell_length_c 15.349226
_cell_angle_alpha 90.000000
_cell_angle_beta 26.283499
_cell_angle_gamma 90.000000
_cell_volume 1658.453019
_symmetry_space_group_name_H-M "P 21/M"
_symmetry_group_IT_number 11
_symmetry_cell_setting 'monoclinic'
loop_
_space_group_symop_operation_xyz
x,y,z
-x,1/2+y,-z
-x,-y,-z
x,1/2-y,z
loop_
_atom_site_type_symbol
_atom_site_label
_atom_site_fract_x
_atom_site_fract_y
_atom_site_fract_z
Si Si1 0.342465 0.932177 0.416753
Si Si2 0.976337 0.568102 0.797755
Si Si3 0.382126 0.425016 0.682320
Si Si4 0.771421 0.433745 0.578240
Si Si5 0.682494 0.081319 0.047375
Si Si6 0.932907 0.420268 0.682845
Si Si7 0.416329 0.570373 0.983940
Si Si8 0.771285 0.431785 0.217727
O O1 0.349183 0.750000 0.407401
O O2 0.267492 0.977052 0.455613
O O3 0.286035 0.978747 0.598928
O O4 0.464775 0.994237 0.204528
O O5 0.971105 0.750000 0.809696
O O6 0.937102 0.510813 0.766351
O O7 0.103322 0.519543 0.605185
O O8 0.891110 0.500684 0.005330
O O9 0.500000 0.500000 0.500000
O O10 0.385773 0.250000 0.652658
O O11 0.339378 0.451346 0.848345
O O12 0.306621 0.512118 0.735041
O O13 0.772255 0.250000 0.582161
O O14 0.677207 0.484983 0.797977
O O15 0.643020 0.250000 0.140664
O O16 0.812301 0.090525 0.837342
O O17 0.630611 0.051418 0.037682
O O18 0.972438 0.250000 0.636980
O O19 0.000000 0.500000 0.500000
O O20 0.430823 0.750000 0.976160
O O21 0.778820 0.250000 0.203673
#
# Coordination Sequence:
#
# PCOD9163769 Si02
#       8
#     4   4   4   4   4   4   4   4
#     4  10  22  40  62  87 119 160 203 253 311 368
#     4  11  22  39  63  89 120 161 208 254 306 369
#     4  12  24  38  59  85 117 158 200 245 298 359
#     4   9  20  40  63  88 120 159 201 251 315 372
#     4  10  21  37  57  84 119 157 194 237 294 356
#     4  11  22  37  59  86 122 161 200 245 296 357
#     4  10  20  37  62  90 121 156 198 250 306 368
#     4  11  23  40  60  87 124 162 204 255 307 363
#
# _framework density 19.295089999999998
#
# number of rings (size 3 to 8) (size 9 to 14) (size 15 to 20)
#    0.000    1.500    1.250    4.125    0.000    6.500 
#    0.000    3.750    0.000    0.000    0.000    0.000 
#    0.000    0.000    0.000    0.000    0.000    0.000 
#
# Total GULP energy -178631.136332 kJ/mol
# GULP energy per Si atom -5582.223010 kJ/mol
# Density = 1.925117 g / cm^3
# Si number density = 19.295090 Si / 1000 Ang^3
#
#
#
# Elastic Constant Matrix: (Units=GPa)
#
#
# Indices 1 2 3 4 5 6 
#
# 1 96.4637 29.5797 55.3417 0.0000 -8.1724 0.0000
# 2 29.5797 66.7771 48.5514 0.0000 2.1818 0.0000
# 3 55.3417 48.5514 161.9084 0.0000 -1.6992 0.0000
# 4 0.0000 0.0000 0.0000 31.7668 0.0000 -11.7478
# 5 -8.1724 2.1818 -1.6992 0.0000 33.2947 0.0000
# 6 0.0000 0.0000 0.0000 -11.7478 0.0000 -18.8707
#
#
#
# Elastic Compliance Matrix: (Units=1/GPa)
#
#
# Indices 1 2 3 4 5 6 
#
# 1 0.013839 -0.003619 -0.003609 0.000000 0.003450 0.000000
# 2 -0.003619 0.020177 -0.004839 0.000000 -0.002457 0.000000
# 3 -0.003609 -0.004839 0.008860 0.000000 -0.000117 0.000000
# 4 0.000000 0.000000 0.000000 0.025588 0.000000 -0.015930
# 5 0.003450 -0.002457 -0.000117 0.000000 0.031037 0.000000
# 6 0.000000 0.000000 0.000000 -0.015930 0.000000 -0.043075
#
#
# Mechanical properties :
#
#
# Convention : Reuss Voigt Hill
#
# Bulk Modulus (GPa) = 53.35718 65.78829 59.57273
# Shear Modulus (GPa) = 57.59900 22.01659 39.80779
#
# Velocity S-wave (km/s) = 5.46959 3.38160 4.54707
# Velocity P-wave (km/s) = 8.22204 7.02971 7.64914
#
# Compressibility (1/GPa) = 0.01874162
#
# Stress axis : x y z
#
# Youngs Moduli (GPa) = 72.25944 49.56132 112.86940
#
# Poissons Ratio (x) = 0.17936 0.40733
# Poissons Ratio (y) = 0.26151 0.54620
# Poissons Ratio (z) = 0.26078 0.23984
#
# Static dielectric constant tensor:
#      x y z
#    x 1.608040 0.000000 0.061960 
#    y 0.000000 1.685220 0.000000 
#    z 0.061960 0.000000 1.635060 
# 
# From -- ./inp_files/56152.got.cif
#   From: 2010.05.17/outbox.cif.g08.bks.cpg/sg11_29_cif.got.tgz:56152.got - 2010.06.03 12:22:45.
