data_PCOD9163034
_publ_section_title
;
Structure prediction by ZEFSAII (Michael W. Deem and Ramdas Pophale) SiO2 
 PCOD9163034
Probable space group: P 21/M
;
_chemical_formula_sum "Si O2"
_cell_formula_units_Z 28
_cell_length_a 14.883164
_cell_length_b 7.602111
_cell_length_c 12.503052
_cell_angle_alpha 90.000000
_cell_angle_beta 49.502235
_cell_angle_gamma 90.000000
_cell_volume 1075.735486
_symmetry_space_group_name_H-M "P 21/M"
_symmetry_group_IT_number 11
_symmetry_cell_setting 'monoclinic'
loop_
_space_group_symop_operation_xyz
x,y,z
-x,1/2+y,-z
-x,-y,-z
x,1/2-y,z
loop_
_atom_site_type_symbol
_atom_site_label
_atom_site_fract_x
_atom_site_fract_y
_atom_site_fract_z
Si Si1 0.892417 0.449199 0.509845
Si Si2 0.960007 0.546229 0.816999
Si Si3 0.294579 0.465091 0.069624
Si Si4 0.357774 0.038580 0.789761
Si Si5 0.823839 0.460105 0.237696
Si Si6 0.644180 0.554621 0.749604
Si Si7 0.600387 0.046927 0.545063
O O1 0.853561 0.250000 0.560964
O O2 0.941943 0.456114 0.352643
O O3 0.784649 0.569641 0.622016
O O4 0.000000 0.500000 0.500000
O O5 0.929702 0.750000 0.867678
O O6 0.044057 0.466900 0.844663
O O7 0.839870 0.475457 0.855099
O O8 0.292121 0.250000 0.081465
O O9 0.356827 0.527391 0.130561
O O10 0.363257 0.514009 0.909016
O O11 0.363884 0.250000 0.781584
O O12 0.468473 0.968033 0.635427
O O13 0.232791 0.987606 0.834981
O O14 0.833165 0.250000 0.248539
O O15 0.717101 0.530860 0.398038
O O16 0.591570 0.750000 0.790697
O O17 0.610400 0.456810 0.666798
O O18 0.598789 0.250000 0.513911
#
# Coordination Sequence:
#
# PCOD9163034 Si02
#       7
#     4   4   4   4   4   4   4
#     4  11  19  32  54  83 117 150 183 227 282 333
#     4   9  17  32  55  79 110 147 175 213 279 336
#     4   9  19  36  55  80 114 151 183 218 278 341
#     4  10  22  39  58  78 108 149 192 233 274 330
#     4  10  20  36  58  81 108 143 184 231 287 333
#     4  11  21  34  57  86 113 147 187 229 278 336
#     4  10  21  38  58  82 111 145 183 234 292 331
#
# _framework density 26.028704000000001
#
# number of rings (size 3 to 8) (size 9 to 14) (size 15 to 20)
#    0.000    2.000    2.857    1.286    0.000    2.286 
#    0.000    1.429    0.000    0.000    0.000    0.000 
#    0.000    0.000    0.000    0.000    0.000    0.000 
#
# Total GULP energy -156337.160653 kJ/mol
# GULP energy per Si atom -5583.470023 kJ/mol
# Density = 2.596946 g / cm^3
# Si number density = 26.028704 Si / 1000 Ang^3
#
#
#
# Elastic Constant Matrix: (Units=GPa)
#
#
# Indices 1 2 3 4 5 6 
#
# 1 75.9084 12.3761 0.0695 0.0000 4.5732 0.0000
# 2 12.3761 76.5515 13.3408 0.0000 1.0429 0.0000
# 3 0.0695 13.3408 89.4800 0.0000 17.0619 0.0000
# 4 0.0000 0.0000 0.0000 12.1938 0.0000 3.6931
# 5 4.5732 1.0429 17.0619 0.0000 52.3542 0.0000
# 6 0.0000 0.0000 0.0000 3.6931 0.0000 16.9631
#
#
#
# Elastic Compliance Matrix: (Units=1/GPa)
#
#
# Indices 1 2 3 4 5 6 
#
# 1 0.013627 -0.002287 0.000585 0.000000 -0.001335 0.000000
# 2 -0.002287 0.013804 -0.002177 0.000000 0.000634 0.000000
# 3 0.000585 -0.002177 0.012263 0.000000 -0.004004 0.000000
# 4 0.000000 0.000000 0.000000 0.087799 0.000000 -0.019115
# 5 -0.001335 0.000634 -0.004004 0.000000 0.020510 0.000000
# 6 0.000000 0.000000 0.000000 -0.019115 0.000000 0.063113
#
#
# Mechanical properties :
#
#
# Convention : Reuss Voigt Hill
#
# Bulk Modulus (GPa) = 31.31308 32.61254 31.96281
# Shear Modulus (GPa) = 21.78480 30.71246 26.24863
#
# Velocity S-wave (km/s) = 2.89615 3.43876 3.17905
# Velocity P-wave (km/s) = 4.82078 5.32197 5.07757
#
# Compressibility (1/GPa) = 0.03193554
#
# Stress axis : x y z
#
# Youngs Moduli (GPa) = 73.38632 72.44498 81.54377
#
# Poissons Ratio (x) = 0.16566 -0.04770
# Poissons Ratio (y) = 0.16782 0.17753
# Poissons Ratio (z) = -0.04293 0.15773
#
# Static dielectric constant tensor:
#      x y z
#    x 2.155810 0.000000 0.048570 
#    y 0.000000 1.980130 0.000000 
#    z 0.048570 0.000000 2.050600 
# 
# From -- ./inp_files/37887.got.cif
#   From: 2010.05.17/outbox.cif.g08.bks.cpg/sg11_19_cif.got.tgz:37887.got - 2010.06.03 12:22:45.
