data_PCOD9163772
_publ_section_title
;
Structure prediction by ZEFSAII (Michael W. Deem and Ramdas Pophale) SiO2 
 PCOD9163772
Probable space group: P 21/M
;
_chemical_formula_sum "Si O2"
_cell_formula_units_Z 24
_cell_length_a 20.786659
_cell_length_b 8.275139
_cell_length_c 11.860780
_cell_angle_alpha 90.000000
_cell_angle_beta 149.653602
_cell_angle_gamma 90.000000
_cell_volume 1030.764557
_symmetry_space_group_name_H-M "P 21/M"
_symmetry_group_IT_number 11
_symmetry_cell_setting 'monoclinic'
loop_
_space_group_symop_operation_xyz
x,y,z
-x,1/2+y,-z
-x,-y,-z
x,1/2-y,z
loop_
_atom_site_type_symbol
_atom_site_label
_atom_site_fract_x
_atom_site_fract_y
_atom_site_fract_z
Si Si1 0.955317 0.936462 0.089333
Si Si2 0.900151 0.935262 0.491142
Si Si3 0.692508 0.062441 0.733842
Si Si4 0.229222 0.559204 0.503357
Si Si5 0.728345 0.445459 0.045029
Si Si6 0.545936 0.561592 0.309510
O O1 0.924823 0.750000 0.019546
O O2 0.090988 0.983087 0.238172
O O3 0.997302 0.959022 0.285169
O O4 0.831646 0.044109 0.887733
O O5 0.942491 0.750000 0.554468
O O6 0.779651 0.959054 0.394463
O O7 0.850883 0.990765 0.296066
O O8 0.654544 0.250000 0.676369
O O9 0.710255 0.004054 0.888300
O O10 0.594586 0.962580 0.511035
O O11 0.223314 0.750000 0.520475
O O12 0.351472 0.524733 0.614154
O O13 0.734005 0.250000 0.054328
O O14 0.598914 0.496680 0.912906
O O15 0.451939 0.250000 0.716046
#
# Coordination Sequence:
#
# PCOD9163772 Si02
#       6
#     4   4   4   4   4   4
#     4   9  20  39  61  87 119 152 191 240 292 346
#     4  10  20  37  62  91 117 150 193 240 294 346
#     4  11  23  39  61  86 118 156 197 241 288 344
#     4   9  20  39  61  87 119 152 191 240 292 346
#     4  10  23  41  59  85 119 158 197 238 287 344
#     4  11  23  39  61  86 118 156 197 241 288 344
#
# _framework density 23.283687
#
# number of rings (size 3 to 8) (size 9 to 14) (size 15 to 20)
#    1.000    1.000    0.000    3.500    0.000    4.667 
#    0.000    0.000    0.000    0.000    0.000    0.000 
#    0.000    0.000    0.000    0.000    0.000    0.000 
#
# Total GULP energy -134020.113410 kJ/mol
# GULP energy per Si atom -5584.171392 kJ/mol
# Density = 2.323069 g / cm^3
# Si number density = 23.283687 Si / 1000 Ang^3
#
#
#
# Elastic Constant Matrix: (Units=GPa)
#
#
# Indices 1 2 3 4 5 6 
#
# 1 70.4997 -4.5729 6.2988 0.0000 11.1886 0.0000
# 2 -4.5729 39.7454 -13.8869 0.0000 9.1758 0.0000
# 3 6.2988 -13.8869 74.0163 0.0000 13.1496 0.0000
# 4 0.0000 0.0000 0.0000 16.0071 0.0000 -8.2070
# 5 11.1886 9.1758 13.1496 0.0000 35.4866 0.0000
# 6 0.0000 0.0000 0.0000 -8.2070 0.0000 24.3494
#
#
#
# Elastic Compliance Matrix: (Units=1/GPa)
#
#
# Indices 1 2 3 4 5 6 
#
# 1 0.015278 0.003202 0.000325 0.000000 -0.005766 0.000000
# 2 0.003202 0.030928 0.007633 0.000000 -0.011835 0.000000
# 3 0.000325 0.007633 0.016361 0.000000 -0.008139 0.000000
# 4 0.000000 0.000000 0.000000 0.075523 0.000000 0.025455
# 5 -0.005766 -0.011835 -0.008139 0.000000 0.036074 0.000000
# 6 0.000000 0.000000 0.000000 0.025455 0.000000 0.049649
#
#
# Mechanical properties :
#
#
# Convention : Reuss Voigt Hill
#
# Bulk Modulus (GPa) = 11.78037 17.77104 14.77570
# Shear Modulus (GPa) = 21.75921 28.26343 25.01132
#
# Velocity S-wave (km/s) = 3.06032 3.48785 3.28105
# Velocity P-wave (km/s) = 4.19021 4.88560 4.55121
#
# Compressibility (1/GPa) = 0.08488700
#
# Stress axis : x y z
#
# Youngs Moduli (GPa) = 65.45290 32.33340 61.12162
#
# Poissons Ratio (x) = -0.10355 -0.01986
# Poissons Ratio (y) = -0.20961 -0.46653
# Poissons Ratio (z) = -0.02127 -0.24679
#
# Static dielectric constant tensor:
#      x y z
#    x 1.976280 0.000000 -0.013600 
#    y 0.000000 1.809030 0.000000 
#    z -0.013600 0.000000 1.884300 
# 
# From -- ./inp_files/44020.got.cif
#   From: 2010.05.17/outbox.cif.g08.bks.cpg/sg11_23_cif.got.tgz:44020.got - 2010.06.03 12:22:45.
