data_PCOD9163597
_publ_section_title
;
Structure prediction by ZEFSAII (Michael W. Deem and Ramdas Pophale) SiO2 
 PCOD9163597
Probable space group: P 21/M
;
_chemical_formula_sum "Si O2"
_cell_formula_units_Z 24
_cell_length_a 23.842983
_cell_length_b 8.673740
_cell_length_c 19.094930
_cell_angle_alpha 90.000000
_cell_angle_beta 17.831360
_cell_angle_gamma 90.000000
_cell_volume 1209.242761
_symmetry_space_group_name_H-M "P 21/M"
_symmetry_group_IT_number 11
_symmetry_cell_setting 'monoclinic'
loop_
_space_group_symop_operation_xyz
x,y,z
-x,1/2+y,-z
-x,-y,-z
x,1/2-y,z
loop_
_atom_site_type_symbol
_atom_site_label
_atom_site_fract_x
_atom_site_fract_y
_atom_site_fract_z
Si Si1 0.680006 0.935793 0.322496
Si Si2 0.663831 0.934783 0.502643
Si Si3 0.422278 0.566324 0.164660
Si Si4 0.341655 0.934610 0.988230
Si Si5 0.018761 0.066485 0.147636
Si Si6 0.013222 0.065486 0.666263
O O1 0.673523 0.750000 0.330655
O O2 0.684765 0.986249 0.397545
O O3 0.500000 0.000000 0.500000
O O4 0.852210 0.982869 0.070258
O O5 0.697090 0.750000 0.466786
O O6 0.465948 0.963314 0.771592
O O7 0.813535 0.020473 0.371159
O O8 0.419936 0.750000 0.165740
O O9 0.554090 0.511180 0.070952
O O10 0.214495 0.506327 0.420675
O O11 0.500000 0.500000 0.000000
O O12 0.340703 0.750000 0.001143
O O13 0.134457 0.984250 0.216903
O O14 0.034848 0.250000 0.137744
O O15 0.064932 0.983057 0.165111
O O16 0.029429 0.250000 0.644147
#
# Coordination Sequence:
#
# PCOD9163597 Si02
#       6
#     4   4   4   4   4   4
#     4  10  22  37  54  83 121 163 214 265 316 372
#     4  10  20  37  60  85 120 166 213 260 314 375
#     4  12  26  45  70  98 131 166 206 259 317 380
#     4  10  22  41  67  96 127 168 216 262 315 376
#     4  11  22  36  57  89 125 164 213 266 317 371
#     4  11  23  42  68  96 130 171 213 259 316 381
#
# _framework density 19.847131000000001
#
# number of rings (size 3 to 8) (size 9 to 14) (size 15 to 20)
#    0.000    1.333    1.667    4.000    0.000    5.333 
#    0.000    0.000    0.000    0.000    0.000    0.000 
#    0.000    0.000    0.000    0.000    0.000    0.000 
#
# Total GULP energy -134153.716833 kJ/mol
# GULP energy per Si atom -5589.738201 kJ/mol
# Density = 1.980196 g / cm^3
# Si number density = 19.847131 Si / 1000 Ang^3
#
#
#
# Elastic Constant Matrix: (Units=GPa)
#
#
# Indices 1 2 3 4 5 6 
#
# 1 150.1458 53.8673 81.3983 0.0000 -12.8950 0.0000
# 2 53.8673 53.6859 42.2088 0.0000 -4.5000 0.0000
# 3 81.3983 42.2088 77.3687 0.0000 -0.3257 0.0000
# 4 0.0000 0.0000 0.0000 20.2178 0.0000 5.7746
# 5 -12.8950 -4.5000 -0.3257 0.0000 40.6733 0.0000
# 6 0.0000 0.0000 0.0000 5.7746 0.0000 32.6836
#
#
#
# Elastic Compliance Matrix: (Units=1/GPa)
#
#
# Indices 1 2 3 4 5 6 
#
# 1 0.017109 -0.004604 -0.015469 0.000000 0.004791 0.000000
# 2 -0.004604 0.034352 -0.013888 0.000000 0.002230 0.000000
# 3 -0.015469 -0.013888 0.036750 0.000000 -0.006146 0.000000
# 4 0.000000 0.000000 0.000000 0.052090 0.000000 -0.009203
# 5 0.004791 0.002230 -0.006146 0.000000 0.026303 0.000000
# 6 0.000000 0.000000 0.000000 -0.009203 0.000000 0.032222
#
#
# Mechanical properties :
#
#
# Convention : Reuss Voigt Hill
#
# Bulk Modulus (GPa) = 49.28344 70.68325 59.98334
# Shear Modulus (GPa) = 18.28079 25.63001 21.95540
#
# Velocity S-wave (km/s) = 3.03822 3.59746 3.32961
# Velocity P-wave (km/s) = 6.09862 7.27646 6.71342
#
# Compressibility (1/GPa) = 0.02029079
#
# Stress axis : x y z
#
# Youngs Moduli (GPa) = 58.44743 29.11035 27.21076
#
# Poissons Ratio (x) = 0.13402 0.42091
# Poissons Ratio (y) = 0.26908 0.37790
# Poissons Ratio (z) = 0.90411 0.40428
#
# Static dielectric constant tensor:
#      x y z
#    x 1.690100 0.000000 0.015990 
#    y 0.000000 1.659870 0.000000 
#    z 0.015990 0.000000 1.713540 
# 
# From -- ./inp_files/61841.got.cif
#   From: 2010.05.17/outbox.cif.g08.bks.cpg/sg11_31_cif.got.tgz:61841.got - 2010.06.03 12:22:45.
