data_PCOD9163144
_publ_section_title
;
Structure prediction by ZEFSAII (Michael W. Deem and Ramdas Pophale) SiO2 
 PCOD9163144
Probable space group: P 21/M
;
_chemical_formula_sum "Si O2"
_cell_formula_units_Z 28
_cell_length_a 9.077666
_cell_length_b 28.168195
_cell_length_c 5.528774
_cell_angle_alpha 90.000000
_cell_angle_beta 124.681645
_cell_angle_gamma 90.000000
_cell_volume 1162.535632
_symmetry_space_group_name_H-M "P 21/M"
_symmetry_group_IT_number 11
_symmetry_cell_setting 'monoclinic'
loop_
_space_group_symop_operation_xyz
x,y,z
-x,1/2+y,-z
-x,-y,-z
x,1/2-y,z
loop_
_atom_site_type_symbol
_atom_site_label
_atom_site_fract_x
_atom_site_fract_y
_atom_site_fract_z
Si Si1 0.998187 0.459272 0.299129
Si Si2 0.281823 0.850337 0.352024
Si Si3 0.695922 0.990247 0.792170
Si Si4 0.480237 0.750000 0.508968
Si Si5 0.839795 0.332335 0.268294
Si Si6 0.815959 0.859692 0.519176
Si Si7 0.540924 0.250000 0.013395
Si Si8 0.643104 0.613225 0.875174
O O1 0.000000 0.500000 0.500000
O O2 0.156271 0.475129 0.266003
O O3 0.061675 0.406604 0.422377
O O4 0.796029 0.465498 0.008458
O O5 0.359379 0.796953 0.400815
O O6 0.139008 0.850849 0.435403
O O7 0.437782 0.882451 0.605820
O O8 0.226318 0.861840 0.028661
O O9 0.682770 0.942720 0.942543
O O10 0.500000 0.000000 0.500000
O O11 0.576868 0.750000 0.855398
O O12 0.572857 0.750000 0.337376
O O13 0.681717 0.293595 0.144820
O O14 0.039056 0.317825 0.370009
O O15 0.740513 0.866005 0.721630
O O16 0.679669 0.860498 0.164768
#
# Coordination Sequence:
#
# PCOD9163144 Si02
#       8
#     4   4   4   2   4   4   2   4
#     4  10  21  41  58  81 117 154 189 242 296 341
#     4  10  20  36  59  85 112 146 197 230 279 339
#     4  10  23  39  60  84 114 153 198 240 289 347
#     4   8  16  32  54  80 112 146 178 238 278 326
#     4  10  20  36  60  85 109 153 190 233 278 342
#     4  11  23  39  58  81 120 150 183 236 298 336
#     4   8  16  32  54  82 112 138 192 232 270 330
#     4  11  23  40  55  85 119 147 185 242 286 343
#
# _framework density 24.085281999999999
#
# number of rings (size 3 to 8) (size 9 to 14) (size 15 to 20)
#    0.000    2.000    1.429    1.714    2.000    1.714 
#    0.000    1.429    0.000    0.000    0.000    0.000 
#    0.000    0.000    0.000    0.000    0.000    0.000 
#
# Total GULP energy -155960.454377 kJ/mol
# GULP energy per Si atom -5570.016228 kJ/mol
# Density = 2.403046 g / cm^3
# Si number density = 24.085282 Si / 1000 Ang^3
#
#
#
# Elastic Constant Matrix: (Units=GPa)
#
#
# Indices 1 2 3 4 5 6 
#
# 1 48.5581 3.9058 28.1539 0.0000 -2.4684 0.0000
# 2 3.9058 54.5538 11.7538 0.0000 -5.5633 0.0000
# 3 28.1539 11.7538 142.7355 0.0000 -3.6565 0.0000
# 4 0.0000 0.0000 0.0000 18.8065 0.0000 -16.4160
# 5 -2.4684 -5.5633 -3.6565 0.0000 47.6448 0.0000
# 6 0.0000 0.0000 0.0000 -16.4160 0.0000 115.2075
#
#
#
# Elastic Compliance Matrix: (Units=1/GPa)
#
#
# Indices 1 2 3 4 5 6 
#
# 1 0.023308 -0.000613 -0.004527 0.000000 0.000789 0.000000
# 2 -0.000613 0.018883 -0.001381 0.000000 0.002067 0.000000
# 3 -0.004527 -0.001381 0.008018 0.000000 0.000220 0.000000
# 4 0.000000 0.000000 0.000000 0.060726 0.000000 0.008653
# 5 0.000789 0.002067 0.000220 0.000000 0.021288 0.000000
# 6 0.000000 0.000000 0.000000 0.008653 0.000000 0.009913
#
#
# Mechanical properties :
#
#
# Convention : Reuss Voigt Hill
#
# Bulk Modulus (GPa) = 26.90541 37.05272 31.97906
# Shear Modulus (GPa) = 29.83896 49.80070 39.81983
#
# Velocity S-wave (km/s) = 3.52360 4.55211 4.07047
# Velocity P-wave (km/s) = 5.26778 6.56097 5.94961
#
# Compressibility (1/GPa) = 0.03716725
#
# Stress axis : x y z
#
# Youngs Moduli (GPa) = 42.90404 52.95829 124.71658
#
# Poissons Ratio (x) = 0.03247 0.56455
# Poissons Ratio (y) = 0.02630 0.17224
# Poissons Ratio (z) = 0.19421 0.07314
#
# Static dielectric constant tensor:
#      x y z
#    x 1.979360 0.000000 -0.025320 
#    y 0.000000 2.130980 0.000000 
#    z -0.025320 0.000000 2.006320 
# 
# From -- ./inp_files/3483.got.cif
#   From: 2010.05.17/outbox.cif.g08.bks.cpg/sg11_2_cif.got.tgz:3483.got - 2010.06.03 12:22:45.
