data_PCOD9163159
_publ_section_title
;
Structure prediction by ZEFSAII (Michael W. Deem and Ramdas Pophale) SiO2 
 PCOD9163159
Probable space group: P 21/M
;
_chemical_formula_sum "Si O2"
_cell_formula_units_Z 28
_cell_length_a 23.279285
_cell_length_b 10.430520
_cell_length_c 12.374232
_cell_angle_alpha 90.000000
_cell_angle_beta 28.169124
_cell_angle_gamma 90.000000
_cell_volume 1418.422345
_symmetry_space_group_name_H-M "P 21/M"
_symmetry_group_IT_number 11
_symmetry_cell_setting 'monoclinic'
loop_
_space_group_symop_operation_xyz
x,y,z
-x,1/2+y,-z
-x,-y,-z
x,1/2-y,z
loop_
_atom_site_type_symbol
_atom_site_label
_atom_site_fract_x
_atom_site_fract_y
_atom_site_fract_z
Si Si1 0.393806 0.602372 0.701322
Si Si2 0.431658 0.902071 0.276606
Si Si3 0.774354 0.095599 0.215620
Si Si4 0.244855 0.606424 0.410403
Si Si5 0.681781 0.023069 0.939167
Si Si6 0.070815 0.108193 0.447647
Si Si7 0.042948 0.398709 0.751605
O O1 0.500000 0.500000 0.500000
O O2 0.430876 0.750000 0.614444
O O3 0.279725 0.569376 0.813277
O O4 0.353491 0.593911 0.892398
O O5 0.446099 0.750000 0.269411
O O6 0.326809 0.949895 0.532337
O O7 0.373603 0.920248 0.254945
O O8 0.558856 0.964448 0.094266
O O9 0.781736 0.250000 0.212611
O O10 0.911477 0.051466 0.007895
O O11 0.206893 0.750000 0.507677
O O12 0.260382 0.602193 0.255566
O O13 0.149954 0.497109 0.601576
O O14 0.784846 0.918801 0.796983
O O15 0.041248 0.250000 0.455123
O O16 0.036551 0.103720 0.631134
O O17 0.000000 0.000000 0.500000
O O18 0.064653 0.250000 0.749466
#
# Coordination Sequence:
#
# PCOD9163159 Si02
#       7
#     4   4   4   4   4   4   4
#     4  11  22  37  58  84 115 150 187 232 287 348
#     4  10  20  36  59  85 116 154 194 237 287 343
#     4   9  18  35  59  83 112 152 192 232 283 344
#     4  10  22  38  58  86 117 151 192 241 292 335
#     4  11  21  37  59  85 117 152 193 236 289 345
#     4  10  21  35  56  84 115 152 194 239 289 344
#     4   9  19  37  58  81 111 151 196 236 282 341
#
# _framework density 19.740241999999999
#
# number of rings (size 3 to 8) (size 9 to 14) (size 15 to 20)
#    0.000    2.000    1.429    2.143    0.000    5.714 
#    0.000    2.143    0.000    0.000    0.000    0.000 
#    0.000    0.000    0.000    0.000    0.000    0.000 
#
# Total GULP energy -156220.996266 kJ/mol
# GULP energy per Si atom -5579.321295 kJ/mol
# Density = 1.969531 g / cm^3
# Si number density = 19.740242 Si / 1000 Ang^3
#
#
#
# Elastic Constant Matrix: (Units=GPa)
#
#
# Indices 1 2 3 4 5 6 
#
# 1 69.0976 29.0814 10.0234 0.0000 -3.0385 0.0000
# 2 29.0814 98.9120 36.0436 0.0000 -21.4607 0.0000
# 3 10.0234 36.0436 93.4220 0.0000 -18.3812 0.0000
# 4 0.0000 0.0000 0.0000 18.5016 0.0000 -5.8093
# 5 -3.0385 -21.4607 -18.3812 0.0000 28.8349 0.0000
# 6 0.0000 0.0000 0.0000 -5.8093 0.0000 25.9785
#
#
#
# Elastic Compliance Matrix: (Units=1/GPa)
#
#
# Indices 1 2 3 4 5 6 
#
# 1 0.016640 -0.005330 -0.000188 0.000000 -0.002333 0.000000
# 2 -0.005330 0.014725 -0.003503 0.000000 0.008165 0.000000
# 3 -0.000188 -0.003503 0.013217 0.000000 0.005798 0.000000
# 4 0.000000 0.000000 0.000000 0.058131 0.000000 0.012999
# 5 -0.002333 0.008165 0.005798 0.000000 0.044207 0.000000
# 6 0.000000 0.000000 0.000000 0.012999 0.000000 0.041400
#
#
# Mechanical properties :
#
#
# Convention : Reuss Voigt Hill
#
# Bulk Modulus (GPa) = 37.67925 45.74760 41.71342
# Shear Modulus (GPa) = 23.23319 27.08186 25.15753
#
# Velocity S-wave (km/s) = 3.43439 3.70795 3.57379
# Velocity P-wave (km/s) = 5.90387 6.44647 6.18112
#
# Compressibility (1/GPa) = 0.02653981
#
# Stress axis : x y z
#
# Youngs Moduli (GPa) = 60.09501 67.91144 75.66271
#
# Poissons Ratio (x) = 0.36198 0.01423
# Poissons Ratio (y) = 0.32032 0.26503
# Poissons Ratio (z) = 0.01130 0.23788
#
# Static dielectric constant tensor:
#      x y z
#    x 1.696790 0.000000 0.024730 
#    y 0.000000 1.682160 0.000000 
#    z 0.024730 0.000000 1.711910 
# 
# From -- ./inp_files/43212.got.cif
#   From: 2010.05.17/outbox.cif.g08.bks.cpg/sg11_22_cif.got.tgz:43212.got - 2010.06.03 12:22:45.
