data_PCOD9163058
_publ_section_title
;
Structure prediction by ZEFSAII (Michael W. Deem and Ramdas Pophale) SiO2 
 PCOD9163058
Probable space group: P 21/M
;
_chemical_formula_sum "Si O2"
_cell_formula_units_Z 24
_cell_length_a 9.855244
_cell_length_b 8.775946
_cell_length_c 20.434024
_cell_angle_alpha 90.000000
_cell_angle_beta 130.309302
_cell_angle_gamma 90.000000
_cell_volume 1347.693489
_symmetry_space_group_name_H-M "P 21/M"
_symmetry_group_IT_number 11
_symmetry_cell_setting 'monoclinic'
loop_
_space_group_symop_operation_xyz
x,y,z
-x,1/2+y,-z
-x,-y,-z
x,1/2-y,z
loop_
_atom_site_type_symbol
_atom_site_label
_atom_site_fract_x
_atom_site_fract_y
_atom_site_fract_z
Si Si1 0.885824 0.431743 0.524127
Si Si2 0.452681 0.933152 0.773324
Si Si3 0.852756 0.566856 0.753609
Si Si4 0.106915 0.068176 0.725275
Si Si5 0.856283 0.932363 0.906407
Si Si6 0.468832 0.067836 0.632923
O O1 0.871363 0.250000 0.511048
O O2 0.690967 0.505533 0.461193
O O3 0.000000 0.500000 0.500000
O O4 0.988330 0.462409 0.623551
O O5 0.441799 0.750000 0.763404
O O6 0.651815 0.973836 0.858844
O O7 0.298699 0.995145 0.771603
O O8 0.430641 0.006588 0.694521
O O9 0.842072 0.750000 0.746878
O O10 0.884742 0.522653 0.839447
O O11 0.661815 0.497030 0.674253
O O12 0.005792 0.503919 0.754933
O O13 0.122476 0.250000 0.737495
O O14 0.868351 0.750000 0.912987
O O15 0.000000 0.000000 0.000000
O O16 0.470674 0.250000 0.633520
#
# Coordination Sequence:
#
# PCOD9163058 Si02
#       6
#     4   4   4   4   4   4
#     4  11  22  35  54  81 114 150 196 240 281 329
#     4  10  20  36  58  83 114 150 188 229 281 337
#     4  10  22  40  59  82 115 151 186 230 288 340
#     4  11  23  37  56  85 115 149 192 236 283 332
#     4   9  20  38  62  89 111 141 183 227 278 341
#     4  11  21  35  56  82 111 150 197 238 279 330
#
# _framework density 17.808202999999999
#
# number of rings (size 3 to 8) (size 9 to 14) (size 15 to 20)
#    0.000    1.667    1.667    4.500    0.000    6.667 
#    0.000    0.833    0.000    0.000    0.000    0.000 
#    0.000    0.000    0.000    0.000    0.000    0.000 
#
# Total GULP energy -134093.748870 kJ/mol
# GULP energy per Si atom -5587.239536 kJ/mol
# Density = 1.776767 g / cm^3
# Si number density = 17.808203 Si / 1000 Ang^3
#
#
#
# Elastic Constant Matrix: (Units=GPa)
#
#
# Indices 1 2 3 4 5 6 
#
# 1 165.0894 62.7138 68.7112 0.0000 18.9792 0.0000
# 2 62.7138 88.0125 66.6786 0.0000 8.3499 0.0000
# 3 68.7112 66.6786 121.6052 0.0000 22.1709 0.0000
# 4 0.0000 0.0000 0.0000 31.9870 0.0000 3.5895
# 5 18.9792 8.3499 22.1709 0.0000 17.9077 0.0000
# 6 0.0000 0.0000 0.0000 3.5895 0.0000 34.4283
#
#
#
# Elastic Compliance Matrix: (Units=1/GPa)
#
#
# Indices 1 2 3 4 5 6 
#
# 1 0.009174 -0.004879 -0.001486 0.000000 -0.005608 0.000000
# 2 -0.004879 0.022434 -0.011081 0.000000 0.008430 0.000000
# 3 -0.001486 -0.011081 0.017965 0.000000 -0.015500 0.000000
# 4 0.000000 0.000000 0.000000 0.031633 0.000000 -0.003298
# 5 -0.005608 0.008430 -0.015500 0.000000 0.077046 0.000000
# 6 0.000000 0.000000 0.000000 -0.003298 0.000000 0.029390
#
#
# Mechanical properties :
#
#
# Convention : Reuss Voigt Hill
#
# Bulk Modulus (GPa) = 68.11635 85.65713 76.88674
# Shear Modulus (GPa) = 21.98515 28.63816 25.31165
#
# Velocity S-wave (km/s) = 3.51743 4.01452 3.77417
# Velocity P-wave (km/s) = 7.40469 8.34822 7.89057
#
# Compressibility (1/GPa) = 0.01468076
#
# Stress axis : x y z
#
# Youngs Moduli (GPa) = 109.00384 44.57512 55.66499
#
# Poissons Ratio (x) = 0.21750 0.08270
# Poissons Ratio (y) = 0.53187 0.61682
# Poissons Ratio (z) = 0.16194 0.49393
#
# Static dielectric constant tensor:
#      x y z
#    x 1.599460 0.000000 0.009020 
#    y 0.000000 1.602710 0.000000 
#    z 0.009020 0.000000 1.592480 
# 
# From -- ./inp_files/25711.got.cif
#   From: 2010.05.17/outbox.cif.g08.bks.cpg/sg11_13_cif.got.tgz:25711.got - 2010.06.03 12:22:45.
