data_PCOD9163724
_publ_section_title
;
Structure prediction by ZEFSAII (Michael W. Deem and Ramdas Pophale) SiO2 
 PCOD9163724
Probable space group: P 21/M
;
_chemical_formula_sum "Si O2"
_cell_formula_units_Z 32
_cell_length_a 12.786326
_cell_length_b 23.715450
_cell_length_c 7.919656
_cell_angle_alpha 90.000000
_cell_angle_beta 37.546146
_cell_angle_gamma 90.000000
_cell_volume 1463.477506
_symmetry_space_group_name_H-M "P 21/M"
_symmetry_group_IT_number 11
_symmetry_cell_setting 'monoclinic'
loop_
_space_group_symop_operation_xyz
x,y,z
-x,1/2+y,-z
-x,-y,-z
x,1/2-y,z
loop_
_atom_site_type_symbol
_atom_site_label
_atom_site_fract_x
_atom_site_fract_y
_atom_site_fract_z
Si Si1 0.896269 0.620691 0.021633
Si Si2 0.841750 0.817085 0.434080
Si Si3 0.042834 0.685309 0.530283
Si Si4 0.919492 0.486746 0.343876
Si Si5 0.640123 0.576939 0.788133
Si Si6 0.260550 0.910942 0.184404
Si Si7 0.734222 0.445728 0.164641
Si Si8 0.590018 0.562023 0.239399
O O1 0.919994 0.662694 0.834312
O O2 0.034813 0.569760 0.822996
O O3 0.919472 0.655075 0.164465
O O4 0.708320 0.592907 0.228928
O O5 0.805840 0.750000 0.458081
O O6 0.684880 0.860125 0.668891
O O7 0.957425 0.822828 0.454961
O O8 0.080077 0.750000 0.505657
O O9 0.211221 0.647417 0.331901
O O10 0.759982 0.530512 0.541164
O O11 0.884799 0.455985 0.569744
O O12 0.079479 0.525683 0.087231
O O13 0.441299 0.565740 0.011920
O O14 0.662453 0.575647 0.961809
O O15 0.262709 0.899179 0.983286
O O16 0.623088 0.496067 0.222402
O O17 0.613280 0.427665 0.474409
#
# Coordination Sequence:
#
# PCOD9163724 Si02
#       8
#     4   4   4   4   4   4   4   4
#     4  10  21  42  69 102 134 175 221 276 345 399
#     4  11  24  43  71  98 127 175 229 280 337 403
#     4  10  22  43  69  95 128 172 225 283 337 396
#     4  10  22  39  66  96 136 183 222 271 334 404
#     4  12  23  41  65  98 139 178 227 272 338 405
#     4  11  22  39  62  92 138 183 217 278 336 394
#     4  10  20  37  61  90 137 181 217 264 331 395
#     4  10  21  37  62  97 141 176 212 275 329 397
#
# _framework density 21.865725999999999
#
# number of rings (size 3 to 8) (size 9 to 14) (size 15 to 20)
#    0.000    1.500    2.500    2.625    1.750    1.000 
#    9.000    0.000    0.000    0.750    0.000    0.000 
#    0.000    0.000    0.000    0.000    0.000    0.000 
#
# Total GULP energy -178403.498910 kJ/mol
# GULP energy per Si atom -5575.109341 kJ/mol
# Density = 2.181596 g / cm^3
# Si number density = 21.865726 Si / 1000 Ang^3
#
#
#
# Elastic Constant Matrix: (Units=GPa)
#
#
# Indices 1 2 3 4 5 6 
#
# 1 68.0008 31.6539 44.7498 0.0000 13.7266 0.0000
# 2 31.6539 103.5829 58.2125 0.0000 -0.4350 0.0000
# 3 44.7498 58.2125 151.3477 0.0000 -1.3311 0.0000
# 4 0.0000 0.0000 0.0000 24.7329 0.0000 6.9114
# 5 13.7266 -0.4350 -1.3311 0.0000 42.3982 0.0000
# 6 0.0000 0.0000 0.0000 6.9114 0.0000 31.2997
#
#
#
# Elastic Compliance Matrix: (Units=1/GPa)
#
#
# Indices 1 2 3 4 5 6 
#
# 1 0.021050 -0.003738 -0.004848 0.000000 -0.007006 0.000000
# 2 -0.003738 0.012980 -0.003877 0.000000 0.001222 0.000000
# 3 -0.004848 -0.003877 0.009548 0.000000 0.001830 0.000000
# 4 0.000000 0.000000 0.000000 0.043091 0.000000 -0.009515
# 5 -0.007006 0.001222 0.001830 0.000000 0.025924 0.000000
# 6 0.000000 0.000000 0.000000 -0.009515 0.000000 0.034050
#
#
# Mechanical properties :
#
#
# Convention : Reuss Voigt Hill
#
# Bulk Modulus (GPa) = 53.60919 65.79599 59.70259
# Shear Modulus (GPa) = 28.12381 32.24051 30.18216
#
# Velocity S-wave (km/s) = 3.59026 3.84406 3.71932
# Velocity P-wave (km/s) = 6.46199 7.06106 6.76816
#
# Compressibility (1/GPa) = 0.01865352
#
# Stress axis : x y z
#
# Youngs Moduli (GPa) = 47.50588 77.04149 104.73523
#
# Poissons Ratio (x) = 0.28795 0.50776
# Poissons Ratio (y) = 0.17756 0.40602
# Poissons Ratio (z) = 0.23031 0.29866
#
# Static dielectric constant tensor:
#      x y z
#    x 1.932950 0.000000 0.012820 
#    y 0.000000 1.753640 0.000000 
#    z 0.012820 0.000000 1.856940 
# 
# From -- ./inp_files/23358.got.cif
#   From: 2010.05.17/outbox.cif.g08.bks.cpg/sg11_12_cif.got.tgz:23358.got - 2010.06.03 12:22:45.
