data_PCOD9163372
_publ_section_title
;
Structure prediction by ZEFSAII (Michael W. Deem and Ramdas Pophale) SiO2 
 PCOD9163372
Probable space group: P 21/M
;
_chemical_formula_sum "Si O2"
_cell_formula_units_Z 30
_cell_length_a 17.457439
_cell_length_b 13.727264
_cell_length_c 12.345594
_cell_angle_alpha 90.000000
_cell_angle_beta 156.405811
_cell_angle_gamma 90.000000
_cell_volume 1184.171107
_symmetry_space_group_name_H-M "P 21/M"
_symmetry_group_IT_number 11
_symmetry_cell_setting 'monoclinic'
loop_
_space_group_symop_operation_xyz
x,y,z
-x,1/2+y,-z
-x,-y,-z
x,1/2-y,z
loop_
_atom_site_type_symbol
_atom_site_label
_atom_site_fract_x
_atom_site_fract_y
_atom_site_fract_z
Si Si1 0.844503 0.047128 0.877379
Si Si2 0.254526 0.889134 0.568491
Si Si3 0.294165 0.147162 0.825746
Si Si4 0.336124 0.389454 0.636941
Si Si5 0.382087 0.356666 0.458282
Si Si6 0.171053 0.750000 0.269689
Si Si7 0.220564 0.576881 0.765295
Si Si8 0.158082 0.859702 0.914766
O O1 0.790420 0.157411 0.765918
O O2 0.917622 0.066506 0.093801
O O3 0.689211 0.959174 0.682076
O O4 0.000000 0.000000 0.000000
O O5 0.145932 0.832130 0.335246
O O6 0.160986 0.893120 0.566806
O O7 0.296889 0.996999 0.584102
O O8 0.473633 0.850469 0.861448
O O9 0.223569 0.250000 0.782603
O O10 0.256614 0.146840 0.647889
O O11 0.235891 0.040659 0.793833
O O12 0.287628 0.350046 0.456125
O O13 0.565540 0.379776 0.947342
O O14 0.338159 0.250000 0.348940
O O15 0.610055 0.364194 0.769903
O O16 0.115167 0.615440 0.734573
O O17 0.101649 0.750000 0.865084
#
# Coordination Sequence:
#
# PCOD9163372 Si02
#       8
#     4   4   4   4   4   2   4   4
#     4  12  27  44  63  84 122 166 220 261 301 364
#     4   9  16  27  50  87 116 149 196 250 292 354
#     4   9  14  23  43  80 127 164 186 227 303 369
#     4   8  14  27  44  80 126 160 188 237 300 365
#     4  10  20  36  61  92 123 159 202 261 311 357
#     4  12  22  38  64  86 114 160 218 258 300 358
#     4   8  17  28  50  85 125 149 189 240 304 362
#     4  10  21  40  63  91 122 159 198 250 313 378
#
# _framework density 25.334177
#
# number of rings (size 3 to 8) (size 9 to 14) (size 15 to 20)
#    0.000    2.400    2.667    2.400    1.867    1.600 
#    0.000    0.667    0.000    0.800    0.000    0.000 
#    0.000    0.000    0.000    0.000    0.000    0.000 
#
# Total GULP energy -167119.144039 kJ/mol
# GULP energy per Si atom -5570.638135 kJ/mol
# Density = 2.527652 g / cm^3
# Si number density = 25.334177 Si / 1000 Ang^3
#
#
#
# Elastic Constant Matrix: (Units=GPa)
#
#
# Indices 1 2 3 4 5 6 
#
# 1 113.4707 23.1562 15.6471 0.0000 -17.9266 0.0000
# 2 23.1562 197.6820 34.1197 0.0000 -12.3282 0.0000
# 3 15.6471 34.1197 60.7837 0.0000 2.7893 0.0000
# 4 0.0000 0.0000 0.0000 24.1217 0.0000 -6.8840
# 5 -17.9266 -12.3282 2.7893 0.0000 40.0126 0.0000
# 6 0.0000 0.0000 0.0000 -6.8840 0.0000 17.8120
#
#
#
# Elastic Compliance Matrix: (Units=1/GPa)
#
#
# Indices 1 2 3 4 5 6 
#
# 1 0.009963 -0.000452 -0.002518 0.000000 0.004500 0.000000
# 2 -0.000452 0.005778 -0.003210 0.000000 0.001801 0.000000
# 3 -0.002518 -0.003210 0.019060 0.000000 -0.003446 0.000000
# 4 0.000000 0.000000 0.000000 0.046596 0.000000 0.018008
# 5 0.004500 0.001801 -0.003446 0.000000 0.027803 0.000000
# 6 0.000000 0.000000 0.000000 0.018008 0.000000 0.063102
#
#
# Mechanical properties :
#
#
# Convention : Reuss Voigt Hill
#
# Bulk Modulus (GPa) = 44.55842 57.53139 51.04491
# Shear Modulus (GPa) = 26.02256 36.32349 31.17303
#
# Velocity S-wave (km/s) = 3.20843 3.79063 3.51162
# Velocity P-wave (km/s) = 5.59927 6.47432 6.05263
#
# Compressibility (1/GPa) = 0.02244245
#
# Stress axis : x y z
#
# Youngs Moduli (GPa) = 100.36979 173.07354 52.46686
#
# Poissons Ratio (x) = 0.07821 0.13209
# Poissons Ratio (y) = 0.04536 0.16840
# Poissons Ratio (z) = 0.25269 0.55550
#
# Static dielectric constant tensor:
#      x y z
#    x 2.011480 0.000000 0.073100 
#    y 0.000000 2.037130 0.000000 
#    z 0.073100 0.000000 2.116110 
# 
# From -- ./inp_files/41564.got.cif
#   From: 2010.05.17/outbox.cif.g08.bks.cpg/sg11_21_cif.got.tgz:41564.got - 2010.06.03 12:22:45.
