data_PCOD9163688
_publ_section_title
;
Structure prediction by ZEFSAII (Michael W. Deem and Ramdas Pophale) SiO2 
 PCOD9163688
Probable space group: P 21/M
;
_chemical_formula_sum "Si O2"
_cell_formula_units_Z 32
_cell_length_a 12.031973
_cell_length_b 8.644747
_cell_length_c 27.534406
_cell_angle_alpha 90.000000
_cell_angle_beta 145.443348
_cell_angle_gamma 90.000000
_cell_volume 1624.489903
_symmetry_space_group_name_H-M "P 21/M"
_symmetry_group_IT_number 11
_symmetry_cell_setting 'monoclinic'
loop_
_space_group_symop_operation_xyz
x,y,z
-x,1/2+y,-z
-x,-y,-z
x,1/2-y,z
loop_
_atom_site_type_symbol
_atom_site_label
_atom_site_fract_x
_atom_site_fract_y
_atom_site_fract_z
Si Si1 0.244266 0.435498 0.960118
Si Si2 0.932457 0.562569 0.423851
Si Si3 0.526108 0.561827 0.233043
Si Si4 0.080287 0.933455 0.802757
Si Si5 0.393160 0.435347 0.849124
Si Si6 0.269150 0.563413 0.469482
Si Si7 0.309004 0.564861 0.371056
Si Si8 0.914187 0.063463 0.918751
O O1 0.260275 0.250000 0.963360
O O2 0.201107 0.502155 0.891808
O O3 0.060923 0.478681 0.928448
O O4 0.436922 0.502978 0.054608
O O5 0.932719 0.750000 0.425208
O O6 0.712535 0.509821 0.331252
O O7 0.000000 0.500000 0.500000
O O8 0.085395 0.515698 0.436414
O O9 0.526039 0.750000 0.234794
O O10 0.559919 0.518072 0.189071
O O11 0.308939 0.509571 0.169756
O O12 0.082905 0.750000 0.803916
O O13 0.188846 0.997855 0.794206
O O14 0.859411 0.995880 0.723271
O O15 0.386165 0.250000 0.848761
O O16 0.278995 0.750000 0.474028
O O17 0.260225 0.517459 0.409423
O O18 0.474079 0.495599 0.562428
O O19 0.305190 0.750000 0.366968
O O20 0.911451 0.250000 0.921141
O O21 0.000000 0.000000 0.000000
#
# Coordination Sequence:
#
# PCOD9163688 Si02
#       8
#     4   4   4   4   4   4   4   4
#     4  11  23  38  57  85 120 156 196 242 292 349
#     4  10  21  38  58  84 119 156 197 242 292 349
#     4   9  19  37  62  87 114 154 195 237 295 352
#     4  12  25  39  56  83 121 156 193 240 295 355
#     4  11  21  38  63  85 112 151 198 244 295 355
#     4   9  19  37  60  85 117 153 192 240 296 351
#     4  10  20  37  62  88 113 148 194 242 294 354
#     4  10  20  37  61  87 116 150 194 243 291 346
#
# _framework density 19.698492000000002
#
# number of rings (size 3 to 8) (size 9 to 14) (size 15 to 20)
#    0.000    1.750    1.250    3.375    0.000    4.500 
#    0.000    4.375    0.000    0.000    0.000    0.000 
#    0.000    0.000    0.000    0.000    0.000    0.000 
#
# Total GULP energy -178826.919980 kJ/mol
# GULP energy per Si atom -5588.341249 kJ/mol
# Density = 1.965366 g / cm^3
# Si number density = 19.698492 Si / 1000 Ang^3
#
#
#
# Elastic Constant Matrix: (Units=GPa)
#
#
# Indices 1 2 3 4 5 6 
#
# 1 55.8480 8.5353 19.7671 0.0000 20.1354 0.0000
# 2 8.5353 24.4132 14.1565 0.0000 5.7144 0.0000
# 3 19.7671 14.1565 141.6812 0.0000 15.1607 0.0000
# 4 0.0000 0.0000 0.0000 30.8551 0.0000 0.6189
# 5 20.1354 5.7144 15.1607 0.0000 32.6789 0.0000
# 6 0.0000 0.0000 0.0000 0.6189 0.0000 24.8466
#
#
#
# Elastic Compliance Matrix: (Units=1/GPa)
#
#
# Indices 1 2 3 4 5 6 
#
# 1 0.023880 -0.004390 -0.001474 0.000000 -0.013262 0.000000
# 2 -0.004390 0.045388 -0.003538 0.000000 -0.003590 0.000000
# 3 -0.001474 -0.003538 0.007843 0.000000 -0.002112 0.000000
# 4 0.000000 0.000000 0.000000 0.032426 0.000000 -0.000808
# 5 -0.013262 -0.003590 -0.002112 0.000000 0.040380 0.000000
# 6 0.000000 0.000000 0.000000 -0.000808 0.000000 0.040267
#
#
# Mechanical properties :
#
#
# Convention : Reuss Voigt Hill
#
# Bulk Modulus (GPa) = 17.15053 34.09558 25.62306
# Shear Modulus (GPa) = 21.88905 29.64168 25.76536
#
# Velocity S-wave (km/s) = 3.33709 3.88334 3.62053
# Velocity P-wave (km/s) = 4.85527 6.11992 5.52391
#
# Compressibility (1/GPa) = 0.05830722
#
# Stress axis : x y z
#
# Youngs Moduli (GPa) = 41.87620 22.03204 127.49791
#
# Poissons Ratio (x) = 0.09672 0.18792
# Poissons Ratio (y) = 0.18383 0.45115
# Poissons Ratio (z) = 0.06172 0.07796
#
# Static dielectric constant tensor:
#      x y z
#    x 1.690590 0.000000 0.020550 
#    y 0.000000 1.663050 0.000000 
#    z 0.020550 0.000000 1.688760 
# 
# From -- ./inp_files/73168.got.cif
#   From: 2010.05.17/outbox.cif.g08.bks.cpg/sg11_37_cif.got.tgz:73168.got - 2010.06.03 12:22:45.
