data_PCOD9163069
_publ_section_title
;
Structure prediction by ZEFSAII (Michael W. Deem and Ramdas Pophale) SiO2 
 PCOD9163069
Probable space group: P 21/M
;
_chemical_formula_sum "Si O2"
_cell_formula_units_Z 28
_cell_length_a 17.787594
_cell_length_b 8.802913
_cell_length_c 9.675418
_cell_angle_alpha 90.000000
_cell_angle_beta 84.669378
_cell_angle_gamma 90.000000
_cell_volume 1508.450416
_symmetry_space_group_name_H-M "P 21/M"
_symmetry_group_IT_number 11
_symmetry_cell_setting 'monoclinic'
loop_
_space_group_symop_operation_xyz
x,y,z
-x,1/2+y,-z
-x,-y,-z
x,1/2-y,z
loop_
_atom_site_type_symbol
_atom_site_label
_atom_site_fract_x
_atom_site_fract_y
_atom_site_fract_z
Si Si1 0.553699 0.926486 0.377511
Si Si2 0.220042 0.430479 0.305253
Si Si3 0.172785 0.578264 0.748902
Si Si4 0.568914 0.431339 0.076987
Si Si5 0.920227 0.931007 0.471194
Si Si6 0.262896 0.430959 0.986157
Si Si7 0.687803 0.080642 0.485885
O O1 0.538046 0.750000 0.355018
O O2 0.500000 0.000000 0.500000
O O3 0.551578 0.019996 0.236833
O O4 0.635539 0.953146 0.429098
O O5 0.234109 0.250000 0.324925
O O6 0.142295 0.467142 0.399172
O O7 0.284283 0.528598 0.369505
O O8 0.224051 0.458336 0.141519
O O9 0.149340 0.750000 0.789107
O O10 0.108366 0.493740 0.671981
O O11 0.209452 0.496730 0.874843
O O12 0.240491 0.588301 0.626405
O O13 0.570592 0.250000 0.061983
O O14 0.652868 0.496571 0.030084
O O15 0.500000 0.500000 0.000000
O O16 0.925335 0.750000 0.462260
O O17 0.000000 0.000000 0.500000
O O18 0.271745 0.250000 0.964921
O O19 0.652748 0.250000 0.494386
#
# Coordination Sequence:
#
# PCOD9163069 Si02
#       7
#     4   4   4   4   4   4   4
#     4  12  25  41  61  84 115 153 199 252 306 361
#     4   9  21  38  59  87 120 156 198 242 295 356
#     4  10  20  36  60  88 118 154 196 241 292 354
#     4  12  26  44  62  86 120 161 206 254 310 364
#     4  10  20  38  63  91 123 157 196 244 296 355
#     4  11  22  39  62  88 120 159 202 248 301 361
#     4  10  20  36  58  84 114 149 196 245 295 352
#
# _framework density 18.562093999999998
#
# number of rings (size 3 to 8) (size 9 to 14) (size 15 to 20)
#    0.000    1.429    1.429    4.286    2.000    2.857 
#    0.000    0.714    0.000    0.000    0.000    0.000 
#    0.000    0.000    0.000    0.000    0.000    0.000 
#
# Total GULP energy -156300.884678 kJ/mol
# GULP energy per Si atom -5582.174453 kJ/mol
# Density = 1.851985 g / cm^3
# Si number density = 18.562094 Si / 1000 Ang^3
#
#
#
# Elastic Constant Matrix: (Units=GPa)
#
#
# Indices 1 2 3 4 5 6 
#
# 1 93.0035 52.0073 58.2311 0.0000 28.7032 0.0000
# 2 52.0073 121.4644 67.7134 0.0000 15.6509 0.0000
# 3 58.2311 67.7134 140.8965 0.0000 22.6279 0.0000
# 4 0.0000 0.0000 0.0000 29.1390 0.0000 5.9229
# 5 28.7032 15.6509 22.6279 0.0000 28.9747 0.0000
# 6 0.0000 0.0000 0.0000 5.9229 0.0000 33.8595
#
#
#
# Elastic Compliance Matrix: (Units=1/GPa)
#
#
# Indices 1 2 3 4 5 6 
#
# 1 0.020225 -0.004682 -0.003770 0.000000 -0.014563 0.000000
# 2 -0.004682 0.012444 -0.004243 0.000000 0.001230 0.000000
# 3 -0.003770 -0.004243 0.011122 0.000000 -0.002659 0.000000
# 4 0.000000 0.000000 0.000000 0.035583 0.000000 -0.006224
# 5 -0.014563 0.001230 -0.002659 0.000000 0.050351 0.000000
# 6 0.000000 0.000000 0.000000 -0.006224 0.000000 0.030623
#
#
# Mechanical properties :
#
#
# Convention : Reuss Voigt Hill
#
# Bulk Modulus (GPa) = 54.34383 79.02977 66.68680
# Shear Modulus (GPa) = 26.05893 30.22215 28.14054
#
# Velocity S-wave (km/s) = 3.75090 4.03943 3.89784
# Velocity P-wave (km/s) = 6.93537 8.02648 7.50079
#
# Compressibility (1/GPa) = 0.01840135
#
# Stress axis : x y z
#
# Youngs Moduli (GPa) = 49.44330 80.35693 89.91282
#
# Poissons Ratio (x) = 0.37620 0.33899
# Poissons Ratio (y) = 0.23147 0.38153
# Poissons Ratio (z) = 0.18641 0.34098
#
# Static dielectric constant tensor:
#      x y z
#    x 1.639410 0.000000 0.014380 
#    y 0.000000 1.711540 0.000000 
#    z 0.014380 0.000000 1.612150 
# 
# From -- ./inp_files/24106.got.cif
#   From: 2010.05.17/outbox.cif.g08.bks.cpg/sg11_13_cif.got.tgz:24106.got - 2010.06.03 12:22:45.
