data_PCOD9163048
_publ_section_title
;
Structure prediction by ZEFSAII (Michael W. Deem and Ramdas Pophale) SiO2 
 PCOD9163048
Probable space group: P 21/M
;
_chemical_formula_sum "Si O2"
_cell_formula_units_Z 32
_cell_length_a 9.453183
_cell_length_b 13.798893
_cell_length_c 25.966535
_cell_angle_alpha 90.000000
_cell_angle_beta 28.488021
_cell_angle_gamma 90.000000
_cell_volume 1615.592921
_symmetry_space_group_name_H-M "P 21/M"
_symmetry_group_IT_number 11
_symmetry_cell_setting 'monoclinic'
loop_
_space_group_symop_operation_xyz
x,y,z
-x,1/2+y,-z
-x,-y,-z
x,1/2-y,z
loop_
_atom_site_type_symbol
_atom_site_label
_atom_site_fract_x
_atom_site_fract_y
_atom_site_fract_z
Si Si1 0.806909 0.361144 0.090467
Si Si2 0.520639 0.036254 0.653698
Si Si3 0.777647 0.495041 0.005672
Si Si4 0.098437 0.140684 0.313855
Si Si5 0.923196 0.361897 0.873679
Si Si6 0.734684 0.515416 0.379221
Si Si7 0.745276 0.140547 0.810599
Si Si8 0.909435 0.635909 0.566563
O O1 0.901304 0.250000 0.062544
O O2 0.885756 0.414462 0.011916
O O3 0.452494 0.364293 0.205125
O O4 0.963699 0.425503 0.083629
O O5 0.252476 0.091221 0.767880
O O6 0.409143 0.016144 0.631074
O O7 0.809707 0.105423 0.557828
O O8 0.639924 0.935932 0.639454
O O9 0.508059 0.559179 0.114459
O O10 0.721983 0.432836 0.972522
O O11 0.010949 0.250000 0.329924
O O12 0.993394 0.117569 0.405348
O O13 0.964605 0.072043 0.313895
O O14 0.924137 0.250000 0.891564
O O15 0.815200 0.360620 0.849297
O O16 0.500000 0.500000 0.500000
O O17 0.947961 0.609410 0.315050
O O18 0.656860 0.250000 0.824303
O O19 0.837632 0.750000 0.585030
#
# Coordination Sequence:
#
# PCOD9163048 Si02
#       8
#     4   4   4   4   4   4   4   4
#     4  10  21  35  56  84 114 150 191 241 295 350
#     4  10  21  36  59  82 120 153 195 249 294 349
#     4  11  20  36  60  82 118 151 197 241 291 345
#     4  10  20  36  58  83 114 152 195 237 293 357
#     4  10  21  37  58  84 114 154 198 239 294 351
#     4  11  21  38  60  87 118 151 194 238 295 351
#     4  10  22  39  60  86 118 153 194 242 293 351
#     4  10  20  36  58  82 113 156 198 239 296 356
#
# _framework density 19.80697
#
# number of rings (size 3 to 8) (size 9 to 14) (size 15 to 20)
#    0.000    1.750    2.500    2.250    0.000    1.500 
#    0.000    0.625    0.000    0.750    0.000    0.000 
#    0.000    0.000    0.000    0.000    0.000    0.000 
#
# Total GULP energy -178442.080567 kJ/mol
# GULP energy per Si atom -5576.315018 kJ/mol
# Density = 1.976189 g / cm^3
# Si number density = 19.806970 Si / 1000 Ang^3
#
#
#
# Elastic Constant Matrix: (Units=GPa)
#
#
# Indices 1 2 3 4 5 6 
#
# 1 33.6923 41.4373 2.4620 0.0000 -9.1305 0.0000
# 2 41.4373 147.2961 30.5122 0.0000 -2.9564 0.0000
# 3 2.4620 30.5122 50.5693 0.0000 -1.1519 0.0000
# 4 0.0000 0.0000 0.0000 23.4020 0.0000 0.7459
# 5 -9.1305 -2.9564 -1.1519 0.0000 22.6480 0.0000
# 6 0.0000 0.0000 0.0000 0.7459 0.0000 31.4603
#
#
#
# Elastic Compliance Matrix: (Units=1/GPa)
#
#
# Indices 1 2 3 4 5 6 
#
# 1 0.055299 -0.016782 0.007900 0.000000 0.020505 0.000000
# 2 -0.016782 0.012865 -0.007070 0.000000 -0.005446 0.000000
# 3 0.007900 -0.007070 0.023735 0.000000 0.003469 0.000000
# 4 0.000000 0.000000 0.000000 0.042764 0.000000 -0.001014
# 5 0.020505 -0.005446 0.003469 0.000000 0.051886 0.000000
# 6 0.000000 0.000000 0.000000 -0.001014 0.000000 0.031810
#
#
# Mechanical properties :
#
#
# Convention : Reuss Voigt Hill
#
# Bulk Modulus (GPa) = 16.66737 42.26451 29.46594
# Shear Modulus (GPa) = 18.50071 25.97850 22.23961
#
# Velocity S-wave (km/s) = 3.05954 3.62551 3.35448
# Velocity P-wave (km/s) = 4.57321 6.23781 5.46921
#
# Compressibility (1/GPa) = 0.05999748
#
# Stress axis : x y z
#
# Youngs Moduli (GPa) = 18.08345 77.72900 42.13223
#
# Poissons Ratio (x) = 1.30443 -0.33286
# Poissons Ratio (y) = 0.30347 0.29785
# Poissons Ratio (z) = -0.14287 0.54951
#
# Static dielectric constant tensor:
#      x y z
#    x 1.692090 0.000000 0.000410 
#    y 0.000000 1.692640 0.000000 
#    z 0.000410 0.000000 1.763170 
# 
# From -- ./inp_files/68123.got.cif
#   From: 2010.05.17/outbox.cif.g08.bks.cpg/sg11_35_cif.got.tgz:68123.got - 2010.06.03 12:22:45.
