data_PCOD9163602
_publ_section_title
;
Structure prediction by ZEFSAII (Michael W. Deem and Ramdas Pophale) SiO2 
 PCOD9163602
Probable space group: P 21/M
;
_chemical_formula_sum "Si O2"
_cell_formula_units_Z 28
_cell_length_a 21.066613
_cell_length_b 7.663871
_cell_length_c 9.553363
_cell_angle_alpha 90.000000
_cell_angle_beta 50.127878
_cell_angle_gamma 90.000000
_cell_volume 1183.762687
_symmetry_space_group_name_H-M "P 21/M"
_symmetry_group_IT_number 11
_symmetry_cell_setting 'monoclinic'
loop_
_space_group_symop_operation_xyz
x,y,z
-x,1/2+y,-z
-x,-y,-z
x,1/2-y,z
loop_
_atom_site_type_symbol
_atom_site_label
_atom_site_fract_x
_atom_site_fract_y
_atom_site_fract_z
Si Si1 0.639231 0.037689 0.345704
Si Si2 0.390273 0.536732 0.927937
Si Si3 0.726333 0.051003 0.679137
Si Si4 0.023780 0.960560 0.307421
Si Si5 0.432292 0.048545 0.263020
Si Si6 0.114719 0.049730 0.711253
Si Si7 0.173778 0.548815 0.925648
O O1 0.635752 0.250000 0.363464
O O2 0.609924 0.986864 0.232995
O O3 0.734505 0.975875 0.224011
O O4 0.586037 0.960196 0.545445
O O5 0.390463 0.750000 0.933653
O O6 0.474599 0.478565 0.884074
O O7 0.307938 0.479266 0.125659
O O8 0.754773 0.250000 0.658260
O O9 0.643294 0.049794 0.702597
O O10 0.799427 0.955693 0.496163
O O11 0.024943 0.750000 0.294074
O O12 0.955226 0.023413 0.293004
O O13 0.000000 0.000000 0.500000
O O14 0.112878 0.027240 0.128832
O O15 0.428298 0.250000 0.224478
O O16 0.094338 0.250000 0.773562
O O17 0.128178 0.957269 0.840281
O O18 0.188134 0.750000 0.945759
#
# Coordination Sequence:
#
# PCOD9163602 Si02
#       7
#     4   4   4   4   4   4   4
#     4  10  20  37  60  86 116 152 199 244 285 348
#     4   9  21  37  57  85 117 155 198 247 296 348
#     4  11  22  38  61  86 114 157 205 241 290 352
#     4  10  24  42  63  94 125 156 191 237 292 350
#     4  11  21  37  58  85 120 154 194 246 302 347
#     4  11  23  40  61  89 124 154 193 244 293 344
#     4  10  21  39  64  89 117 157 201 238 284 348
#
# _framework density 23.653388
#
# number of rings (size 3 to 8) (size 9 to 14) (size 15 to 20)
#    0.000    1.714    1.429    2.571    2.000    1.714 
#    0.000    4.286    0.000    0.000    0.000    0.000 
#    0.000    0.000    0.000    0.000    0.000    0.000 
#
# Total GULP energy -156601.501215 kJ/mol
# GULP energy per Si atom -5592.910758 kJ/mol
# Density = 2.359955 g / cm^3
# Si number density = 23.653388 Si / 1000 Ang^3
#
#
#
# Elastic Constant Matrix: (Units=GPa)
#
#
# Indices 1 2 3 4 5 6 
#
# 1 62.9689 -5.0218 3.1142 0.0000 -4.7534 0.0000
# 2 -5.0218 57.1781 -2.1743 0.0000 -5.7545 0.0000
# 3 3.1142 -2.1743 118.3811 0.0000 -10.3243 0.0000
# 4 0.0000 0.0000 0.0000 20.4845 0.0000 8.4844
# 5 -4.7534 -5.7545 -10.3243 0.0000 32.7059 0.0000
# 6 0.0000 0.0000 0.0000 8.4844 0.0000 11.3797
#
#
#
# Elastic Compliance Matrix: (Units=1/GPa)
#
#
# Indices 1 2 3 4 5 6 
#
# 1 0.016219 0.001680 -0.000169 0.000000 0.002599 0.000000
# 2 0.001680 0.018022 0.000601 0.000000 0.003605 0.000000
# 3 -0.000169 0.000601 0.008710 0.000000 0.002831 0.000000
# 4 0.000000 0.000000 0.000000 0.070627 0.000000 -0.052658
# 5 0.002599 0.003605 0.002831 0.000000 0.032481 0.000000
# 6 0.000000 0.000000 0.000000 -0.052658 0.000000 0.127136
#
#
# Mechanical properties :
#
#
# Convention : Reuss Voigt Hill
#
# Bulk Modulus (GPa) = 21.19766 25.59603 23.39684
# Shear Modulus (GPa) = 17.56251 29.08803 23.32527
#
# Velocity S-wave (km/s) = 2.72783 3.51060 3.14367
# Velocity P-wave (km/s) = 4.34772 5.22276 4.80520
#
# Compressibility (1/GPa) = 0.04717503
#
# Stress axis : x y z
#
# Youngs Moduli (GPa) = 61.65456 55.48650 114.81518
#
# Poissons Ratio (x) = -0.09320 0.01942
# Poissons Ratio (y) = -0.10356 -0.06903
# Poissons Ratio (z) = 0.01043 -0.03336
#
# Static dielectric constant tensor:
#      x y z
#    x 1.885030 0.000000 -0.003550 
#    y 0.000000 1.893920 0.000000 
#    z -0.003550 0.000000 1.890220 
# 
# From -- ./inp_files/26067.got.cif
#   From: 2010.05.17/outbox.cif.g08.bks.cpg/sg11_14_cif.got.tgz:26067.got - 2010.06.03 12:22:45.
