data_PCOD9163707
_publ_section_title
;
Structure prediction by ZEFSAII (Michael W. Deem and Ramdas Pophale) SiO2 
 PCOD9163707
Probable space group: P 21/M
;
_chemical_formula_sum "Si O2"
_cell_formula_units_Z 28
_cell_length_a 9.575439
_cell_length_b 8.056846
_cell_length_c 27.737383
_cell_angle_alpha 90.000000
_cell_angle_beta 142.144989
_cell_angle_gamma 90.000000
_cell_volume 1313.169809
_symmetry_space_group_name_H-M "P 21/M"
_symmetry_group_IT_number 11
_symmetry_cell_setting 'monoclinic'
loop_
_space_group_symop_operation_xyz
x,y,z
-x,1/2+y,-z
-x,-y,-z
x,1/2-y,z
loop_
_atom_site_type_symbol
_atom_site_label
_atom_site_fract_x
_atom_site_fract_y
_atom_site_fract_z
Si Si1 0.258828 0.560482 0.074442
Si Si2 0.308127 0.444906 0.984442
Si Si3 0.282371 0.051148 0.335149
Si Si4 0.546075 0.057028 0.239774
Si Si5 0.939381 0.546297 0.625769
Si Si6 0.795543 0.551574 0.479904
Si Si7 0.857755 0.952425 0.805362
O O1 0.262829 0.750000 0.092011
O O2 0.405986 0.457272 0.152164
O O3 0.347100 0.542112 0.044487
O O4 0.000000 0.500000 0.000000
O O5 0.321264 0.250000 0.998580
O O6 0.065142 0.484509 0.894149
O O7 0.500000 0.500000 0.000000
O O8 0.260054 0.250000 0.330419
O O9 0.194765 0.987809 0.363130
O O10 0.138238 0.994240 0.249322
O O11 0.546247 0.011411 0.397700
O O12 0.579188 0.250000 0.261296
O O13 0.378948 0.988206 0.235221
O O14 0.798361 0.987717 0.302173
O O15 0.935183 0.750000 0.625755
O O16 0.838610 0.494082 0.546784
O O17 0.791015 0.750000 0.478989
O O18 0.000000 0.500000 0.500000
O O19 0.863950 0.750000 0.809021
#
# Coordination Sequence:
#
# PCOD9163707 Si02
#       7
#     4   4   4   4   4   4   4
#     4  12  24  41  63  92 124 164 211 260 315 370
#     4  12  26  43  64  90 125 164 208 262 317 376
#     4  10  21  39  63  92 125 162 201 249 308 369
#     4  10  20  37  61  88 121 162 207 256 306 367
#     4   9  20  38  62  92 124 161 203 248 306 367
#     4  11  22  39  63  91 123 163 207 253 303 364
#     4  10  21  38  61  89 124 164 208 253 307 370
#
# _framework density 21.322451999999998
#
# number of rings (size 3 to 8) (size 9 to 14) (size 15 to 20)
#    0.000    1.429    1.429    4.286    2.000    2.857 
#    0.000    4.286    0.000    0.000    0.000    0.000 
#    0.000    0.000    0.000    0.000    0.000    0.000 
#
# Total GULP energy -156497.247308 kJ/mol
# GULP energy per Si atom -5589.187404 kJ/mol
# Density = 2.127392 g / cm^3
# Si number density = 21.322452 Si / 1000 Ang^3
#
#
#
# Elastic Constant Matrix: (Units=GPa)
#
#
# Indices 1 2 3 4 5 6 
#
# 1 114.9710 -3.7383 7.3870 0.0000 -13.3619 0.0000
# 2 -3.7383 26.5753 -11.2276 0.0000 0.5143 0.0000
# 3 7.3870 -11.2276 67.4982 0.0000 -11.2069 0.0000
# 4 0.0000 0.0000 0.0000 24.6279 0.0000 2.5486
# 5 -13.3619 0.5143 -11.2069 0.0000 40.3871 0.0000
# 6 0.0000 0.0000 0.0000 2.5486 0.0000 21.5105
#
#
#
# Elastic Compliance Matrix: (Units=1/GPa)
#
#
# Indices 1 2 3 4 5 6 
#
# 1 0.009092 0.001082 -0.000333 0.000000 0.002902 0.000000
# 2 0.001082 0.040680 0.006941 0.000000 0.001766 0.000000
# 3 -0.000333 0.006941 0.016745 0.000000 0.004448 0.000000
# 4 0.000000 0.000000 0.000000 0.041108 0.000000 -0.004871
# 5 0.002902 0.001766 0.004448 0.000000 0.026932 0.000000
# 6 0.000000 0.000000 0.000000 -0.004871 0.000000 0.047066
#
#
# Mechanical properties :
#
#
# Convention : Reuss Voigt Hill
#
# Bulk Modulus (GPa) = 12.21054 21.54296 16.87675
# Shear Modulus (GPa) = 25.83430 31.74665 28.79048
#
# Velocity S-wave (km/s) = 3.48458 3.86279 3.67855
# Velocity P-wave (km/s) = 4.68282 5.47907 5.09652
#
# Compressibility (1/GPa) = 0.08189644
#
# Stress axis : x y z
#
# Youngs Moduli (GPa) = 109.99074 24.58232 59.72006
#
# Poissons Ratio (x) = -0.02660 0.01990
# Poissons Ratio (y) = -0.11901 -0.41454
# Poissons Ratio (z) = 0.03665 -0.17064
#
# Static dielectric constant tensor:
#      x y z
#    x 1.813080 0.000000 -0.040110 
#    y 0.000000 1.816280 0.000000 
#    z -0.040110 0.000000 1.797390 
# 
# From -- ./inp_files/28362.got.cif
#   From: 2010.05.17/outbox.cif.g08.bks.cpg/sg11_15_cif.got.tgz:28362.got - 2010.06.03 12:22:45.
