data_PCOD9163007
_publ_section_title
;
Structure prediction by ZEFSAII (Michael W. Deem and Ramdas Pophale) SiO2 
 PCOD9163007
Probable space group: P 21/M
;
_chemical_formula_sum "Si O2"
_cell_formula_units_Z 28
_cell_length_a 13.367154
_cell_length_b 8.700044
_cell_length_c 14.863941
_cell_angle_alpha 90.000000
_cell_angle_beta 56.526070
_cell_angle_gamma 90.000000
_cell_volume 1441.888546
_symmetry_space_group_name_H-M "P 21/M"
_symmetry_group_IT_number 11
_symmetry_cell_setting 'monoclinic'
loop_
_space_group_symop_operation_xyz
x,y,z
-x,1/2+y,-z
-x,-y,-z
x,1/2-y,z
loop_
_atom_site_type_symbol
_atom_site_label
_atom_site_fract_x
_atom_site_fract_y
_atom_site_fract_z
Si Si1 0.711656 0.435827 0.553148
Si Si2 0.220410 0.934613 0.674452
Si Si3 0.773551 0.433160 0.896629
Si Si4 0.431371 0.067116 0.686638
Si Si5 0.556829 0.933999 0.113211
Si Si6 0.711672 0.566847 0.744711
Si Si7 0.990838 0.564677 0.904244
O O1 0.716633 0.250000 0.560595
O O2 0.780626 0.484706 0.429019
O O3 0.571024 0.476828 0.607892
O O4 0.752178 0.511271 0.626086
O O5 0.219622 0.750000 0.673585
O O6 0.106947 0.985823 0.789073
O O7 0.341996 0.986737 0.662777
O O8 0.778177 0.250000 0.893464
O O9 0.787462 0.499242 0.789407
O O10 0.873826 0.501846 0.912363
O O11 0.645581 0.488998 0.998775
O O12 0.423793 0.250000 0.676639
O O13 0.397546 0.035326 0.807464
O O14 0.552886 0.750000 0.102088
O O15 0.422929 0.000217 0.175905
O O16 0.709114 0.750000 0.750495
O O17 0.986957 0.750000 0.908884
O O18 0.000000 0.500000 0.000000
#
# Coordination Sequence:
#
# PCOD9163007 Si02
#       7
#     4   4   4   4   4   4   4
#     4   9  19  37  56  81 115 150 186 232 283 333
#     4  10  21  36  57  81 111 149 191 235 282 333
#     4  12  24  39  59  83 112 151 192 235 284 337
#     4   9  18  31  53  83 116 148 181 224 280 337
#     4  10  20  36  57  85 119 153 187 231 282 337
#     4  11  22  37  58  86 116 148 186 232 281 339
#     4  11  24  42  61  85 114 149 191 237 283 334
#
# _framework density 19.418976000000001
#
# number of rings (size 3 to 8) (size 9 to 14) (size 15 to 20)
#    0.000    1.714    0.000    6.000    0.000    6.857 
#    0.000    0.714    0.000    0.000    0.000    0.000 
#    0.000    0.000    0.000    0.000    0.000    0.000 
#
# Total GULP energy -156506.890678 kJ/mol
# GULP energy per Si atom -5589.531810 kJ/mol
# Density = 1.937478 g / cm^3
# Si number density = 19.418976 Si / 1000 Ang^3
#
#
#
# Elastic Constant Matrix: (Units=GPa)
#
#
# Indices 1 2 3 4 5 6 
#
# 1 90.8658 35.9512 49.9818 0.0000 36.4958 0.0000
# 2 35.9512 80.6529 47.9842 0.0000 18.5986 0.0000
# 3 49.9818 47.9842 145.9658 0.0000 32.2532 0.0000
# 4 0.0000 0.0000 0.0000 27.6146 0.0000 6.6190
# 5 36.4958 18.5986 32.2532 0.0000 26.7093 0.0000
# 6 0.0000 0.0000 0.0000 6.6190 0.0000 31.4961
#
#
#
# Elastic Compliance Matrix: (Units=1/GPa)
#
#
# Indices 1 2 3 4 5 6 
#
# 1 0.025433 -0.003768 -0.000506 0.000000 -0.031517 0.000000
# 2 -0.003768 0.016788 -0.003796 0.000000 -0.001958 0.000000
# 3 -0.000506 -0.003796 0.010278 0.000000 -0.009076 0.000000
# 4 0.000000 0.000000 0.000000 0.038134 0.000000 -0.008014
# 5 -0.031517 -0.001958 -0.009076 0.000000 0.092829 0.000000
# 6 0.000000 0.000000 0.000000 -0.008014 0.000000 0.033434
#
#
# Mechanical properties :
#
#
# Convention : Reuss Voigt Hill
#
# Bulk Modulus (GPa) = 27.50356 65.03544 46.26950
# Shear Modulus (GPa) = 20.39523 29.40180 24.89851
#
# Velocity S-wave (km/s) = 3.24431 3.89533 3.58463
# Velocity P-wave (km/s) = 5.31301 7.33450 6.40402
#
# Compressibility (1/GPa) = 0.03635893
#
# Stress axis : x y z
#
# Youngs Moduli (GPa) = 39.31877 59.56522 97.29900
#
# Poissons Ratio (x) = 0.22444 0.04923
# Poissons Ratio (y) = 0.14815 0.36936
# Poissons Ratio (z) = 0.01990 0.22612
#
# Static dielectric constant tensor:
#      x y z
#    x 1.663960 0.000000 0.007180 
#    y 0.000000 1.647140 0.000000 
#    z 0.007180 0.000000 1.698530 
# 
# From -- ./inp_files/49118.got.cif
#   From: 2010.05.17/outbox.cif.g08.bks.cpg/sg11_25_cif.got.tgz:49118.got - 2010.06.03 12:22:45.
