data_PCOD9163668
_publ_section_title
;
Structure prediction by ZEFSAII (Michael W. Deem and Ramdas Pophale) SiO2 
 PCOD9163668
Probable space group: P 21/M
;
_chemical_formula_sum "Si O2"
_cell_formula_units_Z 32
_cell_length_a 29.833572
_cell_length_b 8.161167
_cell_length_c 12.825026
_cell_angle_alpha 90.000000
_cell_angle_beta 29.628188
_cell_angle_gamma 90.000000
_cell_volume 1543.716369
_symmetry_space_group_name_H-M "P 21/M"
_symmetry_group_IT_number 11
_symmetry_cell_setting 'monoclinic'
loop_
_space_group_symop_operation_xyz
x,y,z
-x,1/2+y,-z
-x,-y,-z
x,1/2-y,z
loop_
_atom_site_type_symbol
_atom_site_label
_atom_site_fract_x
_atom_site_fract_y
_atom_site_fract_z
Si Si1 0.492596 0.060300 0.349340
Si Si2 0.472807 0.938155 0.168265
Si Si3 0.764933 0.554690 0.635424
Si Si4 0.711662 0.548332 0.188027
Si Si5 0.269408 0.564149 0.516904
Si Si6 0.684561 0.555904 0.015034
Si Si7 0.969546 0.051990 0.177700
Si Si8 0.856960 0.939208 0.060892
O O1 0.495161 0.250000 0.374344
O O2 0.390991 0.995890 0.575613
O O3 0.507759 0.041030 0.194650
O O4 0.576421 0.972444 0.234810
O O5 0.502110 0.750000 0.123301
O O6 0.363877 0.945425 0.386119
O O7 0.500000 0.000000 0.000000
O O8 0.751977 0.750000 0.658677
O O9 0.716536 0.481114 0.631587
O O10 0.870597 0.513704 0.406027
O O11 0.726611 0.489110 0.822671
O O12 0.710804 0.750000 0.195785
O O13 0.726501 0.495504 0.038723
O O14 0.789683 0.488937 0.109310
O O15 0.234340 0.750000 0.593421
O O16 0.198754 0.449190 0.718176
O O17 0.700407 0.750000 0.981290
O O18 0.967652 0.250000 0.183728
O O19 0.044978 0.990684 0.108189
O O20 0.000000 0.000000 0.000000
O O21 0.871179 0.750000 0.003220
#
# Coordination Sequence:
#
# PCOD9163668 Si02
#       8
#     4   4   4   4   4   4   4   4
#     4  11  21  35  59  87 116 153 196 245 294 344
#     4  11  23  36  52  80 117 156 194 237 291 349
#     4  11  23  38  58  83 116 157 194 236 291 348
#     4   9  19  38  62  86 114 153 199 243 290 347
#     4  11  22  35  55  82 114 148 187 239 288 340
#     4  10  22  40  60  83 115 157 202 244 289 345
#     4  11  22  36  60  90 118 150 189 238 292 351
#     4  10  20  37  61  86 113 146 186 233 289 350
#
# _framework density 20.729196999999999
#
# number of rings (size 3 to 8) (size 9 to 14) (size 15 to 20)
#    0.000    1.500    2.500    3.000    0.000    5.000 
#    0.000    1.875    0.000    0.000    0.000    0.000 
#    0.000    0.000    0.000    0.000    0.000    0.000 
#
# Total GULP energy -178740.082704 kJ/mol
# GULP energy per Si atom -5585.627584 kJ/mol
# Density = 2.068202 g / cm^3
# Si number density = 20.729197 Si / 1000 Ang^3
#
#
#
# Elastic Constant Matrix: (Units=GPa)
#
#
# Indices 1 2 3 4 5 6 
#
# 1 148.4547 -3.9268 39.8013 0.0000 7.4540 0.0000
# 2 -3.9268 15.0339 -2.3517 0.0000 -2.7457 0.0000
# 3 39.8013 -2.3517 56.9881 0.0000 0.6771 0.0000
# 4 0.0000 0.0000 0.0000 12.6744 0.0000 -6.5676
# 5 7.4540 -2.7457 0.6771 0.0000 29.8807 0.0000
# 6 0.0000 0.0000 0.0000 -6.5676 0.0000 20.7577
#
#
#
# Elastic Compliance Matrix: (Units=1/GPa)
#
#
# Indices 1 2 3 4 5 6 
#
# 1 0.008415 0.000945 -0.005816 0.000000 -0.001881 0.000000
# 2 0.000945 0.068181 0.002083 0.000000 0.005982 0.000000
# 3 -0.005816 0.002083 0.021681 0.000000 0.001151 0.000000
# 4 0.000000 0.000000 0.000000 0.094371 0.000000 0.029858
# 5 -0.001881 0.005982 0.001151 0.000000 0.034459 0.000000
# 6 0.000000 0.000000 0.000000 0.029858 0.000000 0.057622
#
#
# Mechanical properties :
#
#
# Convention : Reuss Voigt Hill
#
# Bulk Modulus (GPa) = 10.78735 31.94692 21.36713
# Shear Modulus (GPa) = 15.56632 25.12615 20.34624
#
# Velocity S-wave (km/s) = 2.74330 3.48532 3.13633
# Velocity P-wave (km/s) = 3.90506 5.62509 4.84206
#
# Compressibility (1/GPa) = 0.09270121
#
# Stress axis : x y z
#
# Youngs Moduli (GPa) = 118.84025 14.66678 46.12232
#
# Poissons Ratio (x) = -0.01386 0.26823
# Poissons Ratio (y) = -0.11227 -0.09606
# Poissons Ratio (z) = 0.69113 -0.03055
#
# Static dielectric constant tensor:
#      x y z
#    x 1.758100 0.000000 -0.001510 
#    y 0.000000 1.741450 0.000000 
#    z -0.001510 0.000000 1.743750 
# 
# From -- ./inp_files/45117.got.cif
#   From: 2010.05.17/outbox.cif.g08.bks.cpg/sg11_23_cif.got.tgz:45117.got - 2010.06.03 12:22:45.
