data_PCOD9163341
_publ_section_title
;
Structure prediction by ZEFSAII (Michael W. Deem and Ramdas Pophale) SiO2 
 PCOD9163341
Probable space group: P 21/M
;
_chemical_formula_sum "Si O2"
_cell_formula_units_Z 24
_cell_length_a 7.353548
_cell_length_b 19.522814
_cell_length_c 10.164601
_cell_angle_alpha 90.000000
_cell_angle_beta 128.754857
_cell_angle_gamma 90.000000
_cell_volume 1137.968953
_symmetry_space_group_name_H-M "P 21/M"
_symmetry_group_IT_number 11
_symmetry_cell_setting 'monoclinic'
loop_
_space_group_symop_operation_xyz
x,y,z
-x,1/2+y,-z
-x,-y,-z
x,1/2-y,z
loop_
_atom_site_type_symbol
_atom_site_label
_atom_site_fract_x
_atom_site_fract_y
_atom_site_fract_z
Si Si1 0.812942 0.926531 0.165998
Si Si2 0.706693 0.422452 0.184393
Si Si3 0.326927 0.329794 0.669519
Si Si4 0.513116 0.578453 0.656205
Si Si5 0.903005 0.828590 0.725722
Si Si6 0.297089 0.929477 0.266723
O O1 0.813250 0.869765 0.280561
O O2 0.021583 0.918918 0.156250
O O3 0.828301 0.003364 0.231281
O O4 0.556842 0.923822 0.987028
O O5 0.677358 0.402075 0.322492
O O6 0.858986 0.370302 0.170277
O O7 0.364580 0.250000 0.719287
O O8 0.195691 0.332518 0.469146
O O9 0.565040 0.372402 0.752657
O O10 0.715755 0.633775 0.732095
O O11 0.625600 0.504954 0.746084
O O12 0.391789 0.572699 0.459624
O O13 0.932980 0.750000 0.775386
#
# Coordination Sequence:
#
# PCOD9163341 Si02
#       6
#     4   4   4   4   4   4
#     4  11  23  37  58  88 121 156 194 237 289 352
#     4  11  23  37  58  88 121 156 194 237 289 352
#     4  10  22  40  61  86 116 151 195 246 295 345
#     4  10  20  36  61  88 114 150 197 244 290 342
#     4  10  22  40  61  86 116 151 195 246 295 345
#     4  10  20  36  61  88 114 150 197 244 290 342
#
# _framework density 21.090206999999999
#
# number of rings (size 3 to 8) (size 9 to 14) (size 15 to 20)
#    0.000    1.667    3.333    1.000    0.000    5.333 
#    0.000    3.333    0.000    0.000    0.000    0.000 
#    0.000    0.000    0.000    0.000    0.000    0.000 
#
# Total GULP energy -134209.190905 kJ/mol
# GULP energy per Si atom -5592.049621 kJ/mol
# Density = 2.104220 g / cm^3
# Si number density = 21.090207 Si / 1000 Ang^3
#
#
#
# Elastic Constant Matrix: (Units=GPa)
#
#
# Indices 1 2 3 4 5 6 
#
# 1 68.3894 28.1887 13.6471 0.0000 23.4513 0.0000
# 2 28.1887 142.0449 25.3973 0.0000 18.3541 0.0000
# 3 13.6471 25.3973 31.1762 0.0000 3.0440 0.0000
# 4 0.0000 0.0000 0.0000 14.1320 0.0000 2.6298
# 5 23.4513 18.3541 3.0440 0.0000 31.0964 0.0000
# 6 0.0000 0.0000 0.0000 2.6298 0.0000 32.9816
#
#
#
# Elastic Compliance Matrix: (Units=1/GPa)
#
#
# Indices 1 2 3 4 5 6 
#
# 1 0.021623 -0.001083 -0.007121 0.000000 -0.014971 0.000000
# 2 -0.001083 0.008890 -0.006397 0.000000 -0.003804 0.000000
# 3 -0.007121 -0.006397 0.039892 0.000000 0.005241 0.000000
# 4 0.000000 0.000000 0.000000 0.071827 0.000000 -0.005727
# 5 -0.014971 -0.003804 0.005241 0.000000 0.045181 0.000000
# 6 0.000000 0.000000 0.000000 -0.005727 0.000000 0.030777
#
#
# Mechanical properties :
#
#
# Convention : Reuss Voigt Hill
#
# Bulk Modulus (GPa) = 24.26986 41.78629 33.02807
# Shear Modulus (GPa) = 19.14779 27.26715 23.20747
#
# Velocity S-wave (km/s) = 3.01641 3.59957 3.32081
# Velocity P-wave (km/s) = 4.86459 6.09360 5.51345
#
# Compressibility (1/GPa) = 0.04120337
#
# Stress axis : x y z
#
# Youngs Moduli (GPa) = 46.24635 112.48230 25.06759
#
# Poissons Ratio (x) = 0.12187 0.17851
# Poissons Ratio (y) = 0.05011 0.16035
# Poissons Ratio (z) = 0.32932 0.71951
#
# Static dielectric constant tensor:
#      x y z
#    x 1.744570 0.000000 -0.006950 
#    y 0.000000 1.715890 0.000000 
#    z -0.006950 0.000000 1.812510 
# 
# From -- ./inp_files/19078.got.cif
#   From: 2010.05.17/outbox.cif.g08.bks.cpg/sg11_10_cif.got.tgz:19078.got - 2010.06.03 12:22:45.
