data_PCOD9163376
_publ_section_title
;
Structure prediction by ZEFSAII (Michael W. Deem and Ramdas Pophale) SiO2 
 PCOD9163376
Probable space group: P 21/M
;
_chemical_formula_sum "Si O2"
_cell_formula_units_Z 24
_cell_length_a 23.578914
_cell_length_b 8.562654
_cell_length_c 11.199355
_cell_angle_alpha 90.000000
_cell_angle_beta 149.161443
_cell_angle_gamma 90.000000
_cell_volume 1159.101358
_symmetry_space_group_name_H-M "P 21/M"
_symmetry_group_IT_number 11
_symmetry_cell_setting 'monoclinic'
loop_
_space_group_symop_operation_xyz
x,y,z
-x,1/2+y,-z
-x,-y,-z
x,1/2-y,z
loop_
_atom_site_type_symbol
_atom_site_label
_atom_site_fract_x
_atom_site_fract_y
_atom_site_fract_z
Si Si1 0.980238 0.436031 0.094158
Si Si2 0.484309 0.433019 0.608253
Si Si3 0.426098 0.435115 0.976756
Si Si4 0.875547 0.062824 0.272605
Si Si5 0.245685 0.937232 0.189782
Si Si6 0.803282 0.435949 0.394743
O O1 0.995579 0.250000 0.132690
O O2 0.073990 0.518575 0.341806
O O3 0.000000 0.500000 0.000000
O O4 0.853685 0.468707 0.899193
O O5 0.500000 0.500000 0.500000
O O6 0.511192 0.250000 0.650274
O O7 0.545284 0.500574 0.837467
O O8 0.356351 0.467299 0.407209
O O9 0.440325 0.250000 0.005418
O O10 0.500000 0.500000 0.000000
O O11 0.297894 0.480871 0.722708
O O12 0.884552 0.250000 0.290194
O O13 0.805333 0.014931 0.260213
O O14 0.808860 0.019173 0.034937
O O15 0.000000 0.000000 0.500000
O O16 0.270219 0.750000 0.235237
O O17 0.788275 0.250000 0.378269
#
# Coordination Sequence:
#
# PCOD9163376 Si02
#       6
#     4   4   4   4   4   4
#     4  11  24  41  63  92 131 175 221 271 328 393
#     4  12  26  46  72 102 137 181 231 284 341 406
#     4  12  27  48  73 101 135 179 229 284 343 408
#     4  10  20  36  61  93 129 165 206 258 317 383
#     4  10  22  41  65  95 132 174 218 271 328 393
#     4  11  23  41  67  98 133 171 215 270 330 399
#
# _framework density 20.705696
#
# number of rings (size 3 to 8) (size 9 to 14) (size 15 to 20)
#    0.000    1.000    1.667    5.000    2.333    4.000 
#    0.000    0.000    0.000    0.000    0.000    0.000 
#    0.000    0.000    0.000    0.000    0.000    0.000 
#
# Total GULP energy -134081.877334 kJ/mol
# GULP energy per Si atom -5586.744889 kJ/mol
# Density = 2.065857 g / cm^3
# Si number density = 20.705696 Si / 1000 Ang^3
#
#
#
# Elastic Constant Matrix: (Units=GPa)
#
#
# Indices 1 2 3 4 5 6 
#
# 1 118.1975 47.1662 16.0568 0.0000 6.7922 0.0000
# 2 47.1662 86.7680 12.1212 0.0000 3.0909 0.0000
# 3 16.0568 12.1212 55.0387 0.0000 14.0749 0.0000
# 4 0.0000 0.0000 0.0000 38.2785 0.0000 1.8564
# 5 6.7922 3.0909 14.0749 0.0000 35.0430 0.0000
# 6 0.0000 0.0000 0.0000 1.8564 0.0000 33.8495
#
#
#
# Elastic Compliance Matrix: (Units=1/GPa)
#
#
# Indices 1 2 3 4 5 6 
#
# 1 0.011032 -0.005723 -0.001717 0.000000 -0.000944 0.000000
# 2 -0.005723 0.014860 -0.001729 0.000000 0.000493 0.000000
# 3 -0.001717 -0.001729 0.021093 0.000000 -0.007987 0.000000
# 4 0.000000 0.000000 0.000000 0.026194 0.000000 -0.001437
# 5 -0.000944 0.000493 -0.007987 0.000000 0.031884 0.000000
# 6 0.000000 0.000000 0.000000 -0.001437 0.000000 0.029621
#
#
# Mechanical properties :
#
#
# Convention : Reuss Voigt Hill
#
# Bulk Modulus (GPa) = 34.90754 45.63252 40.27003
# Shear Modulus (GPa) = 30.75587 33.74487 32.25037
#
# Velocity S-wave (km/s) = 3.85825 4.04138 3.95088
# Velocity P-wave (km/s) = 6.06165 6.62295 6.34851
#
# Compressibility (1/GPa) = 0.02864711
#
# Stress axis : x y z
#
# Youngs Moduli (GPa) = 90.64783 67.29436 47.40900
#
# Poissons Ratio (x) = 0.38515 0.08138
# Poissons Ratio (y) = 0.51880 0.08197
# Poissons Ratio (z) = 0.15560 0.11636
#
# Static dielectric constant tensor:
#      x y z
#    x 2.429850 0.000000 0.066860 
#    y 0.000000 1.699250 0.000000 
#    z 0.066860 0.000000 1.856180 
# 
# From -- ./inp_files/44026.got.cif
#   From: 2010.05.17/outbox.cif.g08.bks.cpg/sg11_23_cif.got.tgz:44026.got - 2010.06.03 12:22:45.
