data_PCOD9163035
_publ_section_title
;
Structure prediction by ZEFSAII (Michael W. Deem and Ramdas Pophale) SiO2 
 PCOD9163035
Probable space group: P 21/M
;
_chemical_formula_sum "Si O2"
_cell_formula_units_Z 28
_cell_length_a 7.828018
_cell_length_b 8.044112
_cell_length_c 26.322521
_cell_angle_alpha 90.000000
_cell_angle_beta 127.531943
_cell_angle_gamma 90.000000
_cell_volume 1314.432124
_symmetry_space_group_name_H-M "P 21/M"
_symmetry_group_IT_number 11
_symmetry_cell_setting 'monoclinic'
loop_
_space_group_symop_operation_xyz
x,y,z
-x,1/2+y,-z
-x,-y,-z
x,1/2-y,z
loop_
_atom_site_type_symbol
_atom_site_label
_atom_site_fract_x
_atom_site_fract_y
_atom_site_fract_z
Si Si1 0.933455 0.445448 0.057581
Si Si2 0.985842 0.049393 0.657770
Si Si3 0.877846 0.549571 0.426985
Si Si4 0.648007 0.060085 0.921543
Si Si5 0.616051 0.453644 0.670112
Si Si6 0.753479 0.061146 0.207857
Si Si7 0.920034 0.437722 0.809956
O O1 0.958084 0.250000 0.049957
O O2 0.125174 0.547254 0.066344
O O3 0.969966 0.468145 0.123672
O O4 0.709893 0.497379 0.989876
O O5 0.983708 0.250000 0.657661
O O6 0.779706 0.994192 0.654381
O O7 0.000536 0.992185 0.602275
O O8 0.200231 0.988949 0.726052
O O9 0.871050 0.750000 0.423679
O O10 0.628896 0.491872 0.381943
O O11 0.000000 0.500000 0.500000
O O12 0.571044 0.250000 0.909485
O O13 0.482072 0.957023 0.858046
O O14 0.621049 0.250000 0.671969
O O15 0.712821 0.507370 0.742433
O O16 0.827540 0.250000 0.213929
O O17 0.903385 0.940100 0.202391
O O18 0.873033 0.250000 0.818529
#
# Coordination Sequence:
#
# PCOD9163035 Si02
#       7
#     4   4   4   4   4   4   4
#     4  10  21  36  54  81 112 144 189 243 288 332
#     4   9  19  37  59  81 112 152 191 231 285 349
#     4  10  21  37  58  85 115 148 187 229 278 343
#     4  10  21  37  55  76 110 153 191 230 287 351
#     4   8  17  35  56  81 111 147 190 231 274 338
#     4  11  22  36  56  83 112 142 186 243 291 334
#     4  10  20  36  58  81 108 148 191 230 287 352
#
# _framework density 21.301976
#
# number of rings (size 3 to 8) (size 9 to 14) (size 15 to 20)
#    0.000    2.286    0.000    3.429    2.000    3.429 
#    0.000    3.571    0.000    0.000    0.000    0.000 
#    0.000    0.000    0.000    0.000    0.000    0.000 
#
# Total GULP energy -156151.116206 kJ/mol
# GULP energy per Si atom -5576.825579 kJ/mol
# Density = 2.125349 g / cm^3
# Si number density = 21.301976 Si / 1000 Ang^3
#
#
#
# Elastic Constant Matrix: (Units=GPa)
#
#
# Indices 1 2 3 4 5 6 
#
# 1 -3.1122 -6.6978 -64.7206 0.0000 -44.5592 0.0000
# 2 -6.6978 34.1781 -3.5294 0.0000 -7.6236 0.0000
# 3 -64.7206 -3.5294 -57.1158 0.0000 -81.4526 0.0000
# 4 0.0000 0.0000 0.0000 26.8570 0.0000 -5.0372
# 5 -44.5592 -7.6236 -81.4526 0.0000 20.9265 0.0000
# 6 0.0000 0.0000 0.0000 -5.0372 0.0000 13.7500
#
#
#
# Elastic Compliance Matrix: (Units=1/GPa)
#
#
# Indices 1 2 3 4 5 6 
#
# 1 0.018689 0.000977 -0.011983 0.000000 -0.006490 0.000000
# 2 0.000977 0.029166 -0.003210 0.000000 0.000211 0.000000
# 3 -0.011983 -0.003210 0.005240 0.000000 -0.006291 0.000000
# 4 0.000000 0.000000 0.000000 0.039981 0.000000 0.014647
# 5 -0.006490 0.000211 -0.006291 0.000000 0.009559 0.000000
# 6 0.000000 0.000000 0.000000 0.014647 0.000000 0.078093
#
#
# Mechanical properties :
#
#
# Convention : Reuss Voigt Hill
#
# Bulk Modulus (GPa) = 40.54691 -19.54950 10.49871
# Shear Modulus (GPa) = 23.00124 15.56655 19.28389
#
# Velocity S-wave (km/s) = 3.28955 2.70618 3.01202
# Velocity P-wave (km/s) = 5.78825 0.75321 4.12742
#
# Compressibility (1/GPa) = 0.02466279
#
# Stress axis : x y z
#
# Youngs Moduli (GPa) = 53.50742 34.28700 190.85689
#
# Poissons Ratio (x) = -0.03351 2.28699
# Poissons Ratio (y) = -0.05230 0.61272
# Poissons Ratio (z) = 0.64117 0.11007
#
# Static dielectric constant tensor:
#      x y z
#    x 1.777200 0.000000 -0.012100 
#    y 0.000000 1.753640 0.000000 
#    z -0.012100 0.000000 1.832210 
# 
# From -- ./inp_files/70932.got.cif
#   From: 2010.05.17/outbox.cif.g08.bks.cpg/sg11_36_cif.got.tgz:70932.got - 2010.06.03 12:22:45.
