data_PCOD9163220
_publ_section_title
;
Structure prediction by ZEFSAII (Michael W. Deem and Ramdas Pophale) SiO2 
 PCOD9163220
Probable space group: P 21/M
;
_chemical_formula_sum "Si O2"
_cell_formula_units_Z 28
_cell_length_a 18.649725
_cell_length_b 11.954229
_cell_length_c 15.779607
_cell_angle_alpha 90.000000
_cell_angle_beta 22.095520
_cell_angle_gamma 90.000000
_cell_volume 1323.284876
_symmetry_space_group_name_H-M "P 21/M"
_symmetry_group_IT_number 11
_symmetry_cell_setting 'monoclinic'
loop_
_space_group_symop_operation_xyz
x,y,z
-x,1/2+y,-z
-x,-y,-z
x,1/2-y,z
loop_
_atom_site_type_symbol
_atom_site_label
_atom_site_fract_x
_atom_site_fract_y
_atom_site_fract_z
Si Si1 0.044674 0.124155 0.852511
Si Si2 0.890463 0.127478 0.512620
Si Si3 0.102325 0.956056 0.158798
Si Si4 0.591485 0.869623 0.214075
Si Si5 0.317634 0.547838 0.649390
Si Si6 0.454927 0.376648 0.935039
Si Si7 0.264013 0.623681 0.148236
O O1 0.108571 0.250000 0.793844
O O2 0.192886 0.046017 0.738719
O O3 0.026442 0.096769 0.772789
O O4 0.834672 0.108996 0.123803
O O5 0.959266 0.250000 0.410617
O O6 0.664256 0.120985 0.745431
O O7 0.908082 0.119359 0.594821
O O8 0.989192 0.038224 0.345592
O O9 0.202972 0.876604 0.116874
O O10 0.260626 0.030041 0.937321
O O11 0.686832 0.750000 0.126391
O O12 0.411814 0.880072 0.471737
O O13 0.531504 0.874149 0.181660
O O14 0.500000 0.500000 0.500000
O O15 0.373571 0.250000 0.047136
O O16 0.363001 0.500182 0.053454
O O17 0.353200 0.750000 0.065574
#
# Coordination Sequence:
#
# PCOD9163220 Si02
#       7
#     4   4   4   4   4   4   4
#     4  11  25  43  66  95 131 168 209 260 323 393
#     4  10  20  36  59  88 121 163 216 272 317 374
#     4  11  21  39  58  91 128 164 212 260 321 387
#     4  10  20  37  62  88 119 162 208 262 321 379
#     4  11  23  45  65  95 124 163 211 262 317 385
#     4   9  19  36  59  87 119 158 212 271 325 382
#     4  10  21  37  59  87 124 169 214 264 327 385
#
# _framework density 21.159465999999998
#
# number of rings (size 3 to 8) (size 9 to 14) (size 15 to 20)
#    0.000    1.714    1.429    3.000    0.000    1.714 
#    0.000    7.857    0.000    0.000    0.000    0.000 
#    0.000    0.000    0.000    0.000    0.000    0.000 
#
# Total GULP energy -156025.122272 kJ/mol
# GULP energy per Si atom -5572.325795 kJ/mol
# Density = 2.111131 g / cm^3
# Si number density = 21.159466 Si / 1000 Ang^3
#
#
#
# Elastic Constant Matrix: (Units=GPa)
#
#
# Indices 1 2 3 4 5 6 
#
# 1 44.8267 16.4244 12.2533 0.0000 -3.0769 0.0000
# 2 16.4244 150.5777 37.0552 0.0000 8.1138 0.0000
# 3 12.2533 37.0552 65.7906 0.0000 6.8443 0.0000
# 4 0.0000 0.0000 0.0000 10.2411 0.0000 13.2553
# 5 -3.0769 8.1138 6.8443 0.0000 34.4359 0.0000
# 6 0.0000 0.0000 0.0000 13.2553 0.0000 9.9732
#
#
#
# Elastic Compliance Matrix: (Units=1/GPa)
#
#
# Indices 1 2 3 4 5 6 
#
# 1 0.024273 -0.001893 -0.003805 0.000000 0.003371 0.000000
# 2 -0.001893 0.007889 -0.003962 0.000000 -0.001241 0.000000
# 3 -0.003805 -0.003962 0.018460 0.000000 -0.003075 0.000000
# 4 0.000000 0.000000 0.000000 -0.135570 0.000000 0.180184
# 5 0.003371 -0.001241 -0.003075 0.000000 0.030244 0.000000
# 6 0.000000 0.000000 0.000000 0.180184 0.000000 -0.139211
#
#
# Mechanical properties :
#
#
# Convention : Reuss Voigt Hill
#
# Bulk Modulus (GPa) = 31.94667 43.62898 37.78782
# Shear Modulus (GPa) = -30.45809 23.96085 -3.24862
#
# Velocity S-wave (km/s) = -3.79813 3.36876 -1.24042
# Velocity P-wave (km/s) = 2.02573 5.98291 3.98068
#
# Compressibility (1/GPa) = 0.03130216
#
# Stress axis : x y z
#
# Youngs Moduli (GPa) = 41.19754 126.75267 54.17142
#
# Poissons Ratio (x) = 0.23992 0.20615
# Poissons Ratio (y) = 0.07798 0.21462
# Poissons Ratio (z) = 0.15678 0.50219
#
# Static dielectric constant tensor:
#      x y z
#    x 1.838550 0.000000 -0.015840 
#    y 0.000000 1.391560 0.000000 
#    z -0.015840 0.000000 1.758390 
# 
# From -- ./inp_files/61481.got.cif
#   From: 2010.05.17/outbox.cif.g08.bks.cpg/sg11_31_cif.got.tgz:61481.got - 2010.06.03 12:22:45.
