data_PCOD9163172
_publ_section_title
;
Structure prediction by ZEFSAII (Michael W. Deem and Ramdas Pophale) SiO2 
 PCOD9163172
Probable space group: P 21/M
;
_chemical_formula_sum "Si O2"
_cell_formula_units_Z 28
_cell_length_a 9.479288
_cell_length_b 13.368627
_cell_length_c 15.257578
_cell_angle_alpha 90.000000
_cell_angle_beta 127.974361
_cell_angle_gamma 90.000000
_cell_volume 1524.165169
_symmetry_space_group_name_H-M "P 21/M"
_symmetry_group_IT_number 11
_symmetry_cell_setting 'monoclinic'
loop_
_space_group_symop_operation_xyz
x,y,z
-x,1/2+y,-z
-x,-y,-z
x,1/2-y,z
loop_
_atom_site_type_symbol
_atom_site_label
_atom_site_fract_x
_atom_site_fract_y
_atom_site_fract_z
Si Si1 0.239831 0.634513 0.296138
Si Si2 0.920999 0.537401 0.062779
Si Si3 0.544175 0.514763 0.328288
Si Si4 0.178009 0.863505 0.480193
Si Si5 0.431554 0.363223 0.140207
Si Si6 0.313099 0.532458 0.884949
Si Si7 0.220776 0.134356 0.708449
O O1 0.274424 0.750000 0.284895
O O2 0.410274 0.564694 0.344852
O O3 0.195766 0.632458 0.381911
O O4 0.077137 0.592141 0.176015
O O5 0.831552 0.453009 0.092885
O O6 0.751867 0.610544 0.980851
O O7 0.000000 0.500000 0.000000
O O8 0.699302 0.447098 0.429533
O O9 0.440200 0.441347 0.222690
O O10 0.625707 0.602707 0.300012
O O11 0.226554 0.750000 0.527350
O O12 0.967157 0.879096 0.413462
O O13 0.426750 0.250000 0.168547
O O14 0.612068 0.381873 0.151338
O O15 0.238813 0.442541 0.795896
O O16 0.500000 0.500000 0.000000
O O17 0.232434 0.250000 0.741379
#
# Coordination Sequence:
#
# PCOD9163172 Si02
#       7
#     4   4   4   4   4   4   4
#     4  11  22  37  59  86 116 152 194 236 285 344
#     4  11  20  38  60  85 116 148 190 240 291 343
#     4  11  21  37  56  86 119 149 189 239 286 333
#     4  10  21  37  60  83 109 152 196 233 283 344
#     4  10  21  37  58  81 115 157 189 231 289 344
#     4   9  20  35  57  84 114 147 187 235 286 339
#     4  10  20  36  59  86 113 147 194 239 282 336
#
# _framework density 18.370712999999999
#
# number of rings (size 3 to 8) (size 9 to 14) (size 15 to 20)
#    0.000    1.714    2.857    2.143    0.000    2.286 
#    0.000    1.429    0.000    0.857    0.000    0.000 
#    0.000    0.000    0.000    0.000    0.000    0.000 
#
# Total GULP energy -156099.537889 kJ/mol
# GULP energy per Si atom -5574.983496 kJ/mol
# Density = 1.832890 g / cm^3
# Si number density = 18.370713 Si / 1000 Ang^3
#
#
#
# Elastic Constant Matrix: (Units=GPa)
#
#
# Indices 1 2 3 4 5 6 
#
# 1 61.6819 20.2028 -12.1494 0.0000 -1.1345 0.0000
# 2 20.2028 43.7913 -0.1479 0.0000 13.3949 0.0000
# 3 -12.1494 -0.1479 46.9001 0.0000 11.6022 0.0000
# 4 0.0000 0.0000 0.0000 14.9302 0.0000 12.0983
# 5 -1.1345 13.3949 11.6022 0.0000 26.8858 0.0000
# 6 0.0000 0.0000 0.0000 12.0983 0.0000 15.4522
#
#
#
# Elastic Compliance Matrix: (Units=1/GPa)
#
#
# Indices 1 2 3 4 5 6 
#
# 1 0.020698 -0.010907 0.004217 0.000000 0.004488 0.000000
# 2 -0.010907 0.033312 0.001678 0.000000 -0.017781 0.000000
# 3 0.004217 0.001678 0.025281 0.000000 -0.011568 0.000000
# 4 0.000000 0.000000 0.000000 0.183223 0.000000 -0.143454
# 5 0.004488 -0.017781 -0.011568 0.000000 0.051234 0.000000
# 6 0.000000 0.000000 0.000000 -0.143454 0.000000 0.177033
#
#
# Mechanical properties :
#
#
# Convention : Reuss Voigt Hill
#
# Bulk Modulus (GPa) = 14.43676 18.68717 16.56196
# Shear Modulus (GPa) = 9.54391 21.08482 15.31436
#
# Velocity S-wave (km/s) = 2.28177 3.39151 2.89040
# Velocity P-wave (km/s) = 3.84936 5.05280 4.49157
#
# Compressibility (1/GPa) = 0.06926762
#
# Stress axis : x y z
#
# Youngs Moduli (GPa) = 48.31408 30.01908 39.55485
#
# Poissons Ratio (x) = 0.32743 -0.16681
# Poissons Ratio (y) = 0.52698 -0.06638
# Poissons Ratio (z) = -0.20375 -0.05038
#
# Static dielectric constant tensor:
#      x y z
#    x 1.660860 0.000000 -0.015330 
#    y 0.000000 1.615670 0.000000 
#    z -0.015330 0.000000 1.630290 
# 
# From -- ./inp_files/21401.got.cif
#   From: 2010.05.17/outbox.cif.g08.bks.cpg/sg11_11_cif.got.tgz:21401.got - 2010.06.03 12:22:45.
