data_PCOD9163469
_publ_section_title
;
Structure prediction by ZEFSAII (Michael W. Deem and Ramdas Pophale) SiO2 
 PCOD9163469
Probable space group: P 21/M
;
_chemical_formula_sum "Si O2"
_cell_formula_units_Z 20
_cell_length_a 16.388413
_cell_length_b 16.346343
_cell_length_c 5.122808
_cell_angle_alpha 90.000000
_cell_angle_beta 52.807775
_cell_angle_gamma 90.000000
_cell_volume 1093.232178
_symmetry_space_group_name_H-M "P 21/M"
_symmetry_group_IT_number 11
_symmetry_cell_setting 'monoclinic'
loop_
_space_group_symop_operation_xyz
x,y,z
-x,1/2+y,-z
-x,-y,-z
x,1/2-y,z
loop_
_atom_site_type_symbol
_atom_site_label
_atom_site_fract_x
_atom_site_fract_y
_atom_site_fract_z
Si Si1 0.561015 0.418689 0.808613
Si Si2 0.112333 0.017799 0.178790
Si Si3 0.226468 0.994782 0.466997
Si Si4 0.471741 0.342925 0.476561
Si Si5 0.244560 0.153054 0.733453
O O1 0.678948 0.439639 0.629624
O O2 0.530958 0.396887 0.572640
O O3 0.500000 0.500000 0.000000
O O4 0.520540 0.353302 0.096207
O O5 0.190885 0.983173 0.242130
O O6 0.134825 0.980053 0.851289
O O7 0.147775 0.112795 0.071675
O O8 0.000000 0.000000 0.500000
O O9 0.253121 0.091072 0.469934
O O10 0.480632 0.250000 0.548321
O O11 0.350801 0.361524 0.682944
O O12 0.235666 0.250000 0.697614
#
# Coordination Sequence:
#
# PCOD9163469 Si02
#       5
#     4   4   4   4   4
#     4  12  20  36  57  83 117 150 194 224 281 343
#     4  10  20  37  57  83 108 142 188 237 289 327
#     4  10  21  34  58  85 106 148 186 234 271 335
#     4  11  23  36  55  84 120 155 187 232 286 337
#     4   9  21  35  55  86 116 141 181 234 288 331
#
# _framework density 18.294377000000001
#
# number of rings (size 3 to 8) (size 9 to 14) (size 15 to 20)
#    1.200    0.400    2.000    4.200    0.000    0.800 
#    0.000    0.000    0.000    7.200    0.000    0.000 
#    0.000    0.000    0.000    0.000    0.000    0.000 
#
# Total GULP energy -111387.592266 kJ/mol
# GULP energy per Si atom -5569.379613 kJ/mol
# Density = 1.825274 g / cm^3
# Si number density = 18.294377 Si / 1000 Ang^3
#
#
#
# Elastic Constant Matrix: (Units=GPa)
#
#
# Indices 1 2 3 4 5 6 
#
# 1 42.1639 14.3254 -1.5813 0.0000 -0.5081 0.0000
# 2 14.3254 41.8909 10.9370 0.0000 -11.6911 0.0000
# 3 -1.5813 10.9370 62.5917 0.0000 -10.5032 0.0000
# 4 0.0000 0.0000 0.0000 25.1328 0.0000 2.4126
# 5 -0.5081 -11.6911 -10.5032 0.0000 41.0191 0.0000
# 6 0.0000 0.0000 0.0000 2.4126 0.0000 19.6444
#
#
#
# Elastic Compliance Matrix: (Units=1/GPa)
#
#
# Indices 1 2 3 4 5 6 
#
# 1 0.027342 -0.010503 0.002174 0.000000 -0.002098 0.000000
# 2 -0.010503 0.030698 -0.004371 0.000000 0.007500 0.000000
# 3 0.002174 -0.004371 0.017336 0.000000 0.003220 0.000000
# 4 0.000000 0.000000 0.000000 0.040263 0.000000 -0.004945
# 5 -0.002098 0.007500 0.003220 0.000000 0.027315 0.000000
# 6 0.000000 0.000000 0.000000 -0.004945 0.000000 0.051512
#
#
# Mechanical properties :
#
#
# Convention : Reuss Voigt Hill
#
# Bulk Modulus (GPa) = 20.01009 21.55653 20.78331
# Shear Modulus (GPa) = 21.13951 25.35696 23.24823
#
# Velocity S-wave (km/s) = 3.40298 3.72701 3.56868
# Velocity P-wave (km/s) = 5.13828 5.50723 5.32595
#
# Compressibility (1/GPa) = 0.04997478
#
# Stress axis : x y z
#
# Youngs Moduli (GPa) = 36.57410 32.57588 57.68489
#
# Poissons Ratio (x) = 0.34215 -0.12540
# Poissons Ratio (y) = 0.38415 0.25213
# Poissons Ratio (z) = -0.07951 0.14238
#
# Static dielectric constant tensor:
#      x y z
#    x 1.636230 0.000000 0.011730 
#    y 0.000000 1.691220 0.000000 
#    z 0.011730 0.000000 1.678130 
# 
# From -- ./inp_files/4503.got.cif
#   From: 2010.05.17/outbox.cif.g08.bks.cpg/sg11_3_cif.got.tgz:4503.got - 2010.06.03 12:22:45.
