data_PCOD9163067
_publ_section_title
;
Structure prediction by ZEFSAII (Michael W. Deem and Ramdas Pophale) SiO2 
 PCOD9163067
Probable space group: P 21/M
;
_chemical_formula_sum "Si O2"
_cell_formula_units_Z 28
_cell_length_a 15.268483
_cell_length_b 7.891543
_cell_length_c 22.607499
_cell_angle_alpha 90.000000
_cell_angle_beta 30.051512
_cell_angle_gamma 90.000000
_cell_volume 1364.130524
_symmetry_space_group_name_H-M "P 21/M"
_symmetry_group_IT_number 11
_symmetry_cell_setting 'monoclinic'
loop_
_space_group_symop_operation_xyz
x,y,z
-x,1/2+y,-z
-x,-y,-z
x,1/2-y,z
loop_
_atom_site_type_symbol
_atom_site_label
_atom_site_fract_x
_atom_site_fract_y
_atom_site_fract_z
Si Si1 0.284254 0.051532 0.851832
Si Si2 0.677859 0.552591 0.625460
Si Si3 0.440562 0.452674 0.968543
Si Si4 0.056847 0.544205 0.876702
Si Si5 0.765849 0.548770 0.700864
Si Si6 0.942642 0.050538 0.380058
Si Si7 0.037688 0.457275 0.195845
O O1 0.310653 0.250000 0.848107
O O2 0.469875 0.964771 0.751111
O O3 0.129424 0.991065 0.985791
O O4 0.207389 0.025304 0.831078
O O5 0.722337 0.750000 0.595681
O O6 0.760830 0.478184 0.637325
O O7 0.758742 0.469012 0.520102
O O8 0.444026 0.250000 0.961114
O O9 0.578465 0.524889 0.841368
O O10 0.500000 0.500000 0.000000
O O11 0.241346 0.509062 0.074906
O O12 0.063970 0.750000 0.875689
O O13 0.059184 0.489269 0.807314
O O14 0.796967 0.750000 0.676956
O O15 0.911751 0.477156 0.660078
O O16 0.983457 0.250000 0.350864
O O17 0.958035 0.982575 0.304618
O O18 0.035446 0.250000 0.196236
#
# Coordination Sequence:
#
# PCOD9163067 Si02
#       7
#     4   4   4   4   4   4   4
#     4  10  20  36  58  84 112 141 176 221 276 332
#     4  11  23  37  55  80 110 144 187 233 273 319
#     4  11  20  33  54  81 114 147 182 222 269 325
#     4   9  18  35  60  86 109 137 176 222 273 329
#     4  10  21  37  55  79 111 146 185 231 277 321
#     4  10  20  37  56  75 109 149 186 225 270 327
#     4   9  18  34  56  80 110 146 179 219 274 325
#
# _framework density 20.525894000000001
#
# number of rings (size 3 to 8) (size 9 to 14) (size 15 to 20)
#    0.000    2.000    1.429    2.571    0.000    3.429 
#    0.000    2.857    0.000    0.000    0.000    0.000 
#    0.000    0.000    0.000    0.000    0.000    0.000 
#
# Total GULP energy -156391.375222 kJ/mol
# GULP energy per Si atom -5585.406258 kJ/mol
# Density = 2.047918 g / cm^3
# Si number density = 20.525894 Si / 1000 Ang^3
#
#
#
# Elastic Constant Matrix: (Units=GPa)
#
#
# Indices 1 2 3 4 5 6 
#
# 1 105.2638 5.3234 30.8275 0.0000 27.3920 0.0000
# 2 5.3234 20.0393 -4.4207 0.0000 0.3958 0.0000
# 3 30.8275 -4.4207 58.3713 0.0000 14.6503 0.0000
# 4 0.0000 0.0000 0.0000 22.9053 0.0000 -2.9719
# 5 27.3920 0.3958 14.6503 0.0000 21.9003 0.0000
# 6 0.0000 0.0000 0.0000 -2.9719 0.0000 9.7288
#
#
#
# Elastic Compliance Matrix: (Units=1/GPa)
#
#
# Indices 1 2 3 4 5 6 
#
# 1 0.015169 -0.004675 -0.004356 0.000000 -0.015974 0.000000
# 2 -0.004675 0.052513 0.006269 0.000000 0.000704 0.000000
# 3 -0.004356 0.006269 0.022315 0.000000 -0.009593 0.000000
# 4 0.000000 0.000000 0.000000 0.045460 0.000000 0.013887
# 5 -0.015974 0.000704 -0.009593 0.000000 0.072046 0.000000
# 6 0.000000 0.000000 0.000000 0.013887 0.000000 0.107029
#
#
# Mechanical properties :
#
#
# Convention : Reuss Voigt Hill
#
# Bulk Modulus (GPa) = 11.83811 27.45942 19.64877
# Shear Modulus (GPa) = 14.35906 21.03649 17.69778
#
# Velocity S-wave (km/s) = 2.64779 3.20484 2.93954
# Velocity P-wave (km/s) = 3.88942 5.20593 4.59507
#
# Compressibility (1/GPa) = 0.08447297
#
# Stress axis : x y z
#
# Youngs Moduli (GPa) = 65.92439 19.04294 44.81383
#
# Poissons Ratio (x) = 0.08903 0.19520
# Poissons Ratio (y) = 0.30819 -0.28095
# Poissons Ratio (z) = 0.28716 -0.11938
#
# Static dielectric constant tensor:
#      x y z
#    x 1.738700 0.000000 0.019060 
#    y 0.000000 1.737170 0.000000 
#    z 0.019060 0.000000 1.705770 
# 
# From -- ./inp_files/37390.got.cif
#   From: 2010.05.17/outbox.cif.g08.bks.cpg/sg11_19_cif.got.tgz:37390.got - 2010.06.03 12:22:45.
