data_PCOD9163375
_publ_section_title
;
Structure prediction by ZEFSAII (Michael W. Deem and Ramdas Pophale) SiO2 
 PCOD9163375
Probable space group: P 21/M
;
_chemical_formula_sum "Si O2"
_cell_formula_units_Z 32
_cell_length_a 12.108344
_cell_length_b 8.864996
_cell_length_c 22.307022
_cell_angle_alpha 90.000000
_cell_angle_beta 36.719957
_cell_angle_gamma 90.000000
_cell_volume 1431.649238
_symmetry_space_group_name_H-M "P 21/M"
_symmetry_group_IT_number 11
_symmetry_cell_setting 'monoclinic'
loop_
_space_group_symop_operation_xyz
x,y,z
-x,1/2+y,-z
-x,-y,-z
x,1/2-y,z
loop_
_atom_site_type_symbol
_atom_site_label
_atom_site_fract_x
_atom_site_fract_y
_atom_site_fract_z
Si Si1 0.760362 0.575194 0.265729
Si Si2 0.096384 0.428748 0.557636
Si Si3 0.702995 0.568778 0.911236
Si Si4 0.923379 0.570215 0.936809
Si Si5 0.612388 0.074340 0.146744
Si Si6 0.295221 0.930142 0.587008
Si Si7 0.236922 0.426539 0.245781
Si Si8 0.601365 0.424890 0.650427
O O1 0.806930 0.750000 0.257004
O O2 0.791136 0.475200 0.311239
O O3 0.545845 0.568383 0.340300
O O4 0.882383 0.511893 0.157896
O O5 0.113754 0.250000 0.549471
O O6 0.187168 0.497462 0.578537
O O7 0.211116 0.497986 0.452885
O O8 0.884131 0.479276 0.655085
O O9 0.688208 0.750000 0.915378
O O10 0.813550 0.530747 0.923058
O O11 0.796275 0.521904 0.807932
O O12 0.500000 0.500000 0.000000
O O13 0.947088 0.750000 0.930275
O O14 0.795257 0.511625 0.046170
O O15 0.655390 0.250000 0.137386
O O16 0.454688 0.061954 0.163952
O O17 0.505412 0.007506 0.249924
O O18 0.300783 0.750000 0.578094
O O19 0.500000 0.000000 0.500000
O O20 0.185155 0.250000 0.274322
O O21 0.632262 0.250000 0.651800
#
# Coordination Sequence:
#
# PCOD9163375 Si02
#       8
#     4   4   4   4   4   4   4   4
#     4  11  24  42  66  95 126 167 212 260 318 377
#     4  12  25  41  66  97 128 167 211 258 314 381
#     4  10  20  36  61  92 126 164 201 248 310 371
#     4  11  23  39  64  96 130 168 208 258 319 380
#     4  11  24  43  67  92 124 167 216 266 316 377
#     4  12  23  39  65  96 132 169 206 255 315 379
#     4  10  22  41  64  93 129 168 208 260 317 374
#     4  11  25  45  67  90 124 165 212 270 320 373
#
# _framework density 22.351845999999998
#
# number of rings (size 3 to 8) (size 9 to 14) (size 15 to 20)
#    0.000    1.000    2.500    4.500    0.000    5.500 
#    0.000    0.000    0.000    0.000    0.000    0.000 
#    0.000    0.000    0.000    0.000    0.000    0.000 
#
# Total GULP energy -179173.287170 kJ/mol
# GULP energy per Si atom -5599.165224 kJ/mol
# Density = 2.230097 g / cm^3
# Si number density = 22.351846 Si / 1000 Ang^3
#
#
#
# Elastic Constant Matrix: (Units=GPa)
#
#
# Indices 1 2 3 4 5 6 
#
# 1 35.8929 6.9142 3.9328 0.0000 5.3374 0.0000
# 2 6.9142 96.2253 34.1206 0.0000 -4.7517 0.0000
# 3 3.9328 34.1206 149.6312 0.0000 0.5590 0.0000
# 4 0.0000 0.0000 0.0000 43.9459 0.0000 1.0982
# 5 5.3374 -4.7517 0.5590 0.0000 40.4356 0.0000
# 6 0.0000 0.0000 0.0000 1.0982 0.0000 23.1838
#
#
#
# Elastic Compliance Matrix: (Units=1/GPa)
#
#
# Indices 1 2 3 4 5 6 
#
# 1 0.028915 -0.002192 -0.000245 0.000000 -0.004071 0.000000
# 2 -0.002192 0.011548 -0.002582 0.000000 0.001682 0.000000
# 3 -0.000245 -0.002582 0.007280 0.000000 -0.000372 0.000000
# 4 0.000000 0.000000 0.000000 0.022782 0.000000 -0.001079
# 5 -0.004071 0.001682 -0.000372 0.000000 0.025471 0.000000
# 6 0.000000 0.000000 0.000000 -0.001079 0.000000 0.043185
#
#
# Mechanical properties :
#
#
# Convention : Reuss Voigt Hill
#
# Bulk Modulus (GPa) = 26.52134 41.29828 33.90981
# Shear Modulus (GPa) = 30.90479 37.29850 34.10164
#
# Velocity S-wave (km/s) = 3.72243 4.08940 3.91023
# Velocity P-wave (km/s) = 5.51058 6.38860 5.96576
#
# Compressibility (1/GPa) = 0.03770549
#
# Stress axis : x y z
#
# Youngs Moduli (GPa) = 34.58401 86.59200 137.36797
#
# Poissons Ratio (x) = 0.18979 0.03365
# Poissons Ratio (y) = 0.07580 0.35469
# Poissons Ratio (z) = 0.00847 0.22359
#
# Static dielectric constant tensor:
#      x y z
#    x 1.885310 0.000000 -0.002200 
#    y 0.000000 1.740400 0.000000 
#    z -0.002200 0.000000 1.831360 
# 
# From -- ./inp_files/68977.got.cif
#   From: 2010.05.17/outbox.cif.g08.bks.cpg/sg11_35_cif.got.tgz:68977.got - 2010.06.03 12:22:45.
