data_PCOD9163145
_publ_section_title
;
Structure prediction by ZEFSAII (Michael W. Deem and Ramdas Pophale) SiO2 
 PCOD9163145
Probable space group: P 21/M
;
_chemical_formula_sum "Si O2"
_cell_formula_units_Z 32
_cell_length_a 7.209935
_cell_length_b 9.231809
_cell_length_c 25.011422
_cell_angle_alpha 90.000000
_cell_angle_beta 89.459115
_cell_angle_gamma 90.000000
_cell_volume 1664.704647
_symmetry_space_group_name_H-M "P 21/M"
_symmetry_group_IT_number 11
_symmetry_cell_setting 'monoclinic'
loop_
_space_group_symop_operation_xyz
x,y,z
-x,1/2+y,-z
-x,-y,-z
x,1/2-y,z
loop_
_atom_site_type_symbol
_atom_site_label
_atom_site_fract_x
_atom_site_fract_y
_atom_site_fract_z
Si Si1 0.335287 0.922617 0.715100
Si Si2 0.951603 0.421043 0.736168
Si Si3 0.601592 0.423418 0.798458
Si Si4 0.866219 0.583246 0.459817
Si Si5 0.197704 0.922721 0.992723
Si Si6 0.192763 0.585830 0.379551
Si Si7 0.510930 0.577611 0.080657
Si Si8 0.542326 0.421434 0.407394
O O1 0.338819 0.750000 0.720546
O O2 0.386286 0.955467 0.653177
O O3 0.479194 0.994622 0.755287
O O4 0.134457 0.985118 0.730303
O O5 0.000511 0.250000 0.737323
O O6 0.817625 0.455291 0.786034
O O7 0.829886 0.444808 0.682932
O O8 0.579542 0.250000 0.790843
O O9 0.537838 0.459556 0.858327
O O10 0.837934 0.750000 0.475871
O O11 0.674569 0.503387 0.448445
O O12 0.000000 0.500000 0.500000
O O13 0.988513 0.581435 0.405225
O O14 0.173925 0.750000 0.986834
O O15 0.316214 0.989365 0.943504
O O16 0.331350 0.948778 0.043693
O O17 0.000000 0.000000 0.000000
O O18 0.265032 0.750000 0.386213
O O19 0.332186 0.477872 0.408246
O O20 0.551609 0.750000 0.077537
O O21 0.552898 0.250000 0.415861
#
# Coordination Sequence:
#
# PCOD9163145 Si02
#       8
#     4   4   4   4   4   4   4   4
#     4  11  23  36  55  86 120 153 189 234 289 347
#     4  10  20  36  59  85 112 151 197 236 283 343
#     4  10  21  38  60  84 115 153 196 242 286 339
#     4  11  24  42  63  87 116 149 190 242 292 344
#     4  10  20  36  60  87 118 155 198 242 292 347
#     4  10  21  38  62  87 112 147 193 237 281 339
#     4   9  20  38  58  84 116 153 197 244 289 340
#     4  11  23  38  60  87 117 152 189 232 289 349
#
# _framework density 19.222629000000001
#
# number of rings (size 3 to 8) (size 9 to 14) (size 15 to 20)
#    0.000    1.750    2.500    1.500    0.000    5.500 
#    0.000    2.500    0.000    0.000    0.000    0.000 
#    0.000    0.000    0.000    0.000    0.000    0.000 
#
# Total GULP energy -178779.008411 kJ/mol
# GULP energy per Si atom -5586.844013 kJ/mol
# Density = 1.917888 g / cm^3
# Si number density = 19.222629 Si / 1000 Ang^3
#
#
#
# Elastic Constant Matrix: (Units=GPa)
#
#
# Indices 1 2 3 4 5 6 
#
# 1 86.3686 39.2173 0.3627 0.0000 -6.3682 0.0000
# 2 39.2173 56.2602 19.2454 0.0000 2.8338 0.0000
# 3 0.3627 19.2454 47.7453 0.0000 -7.5552 0.0000
# 4 0.0000 0.0000 0.0000 27.6118 0.0000 3.9674
# 5 -6.3682 2.8338 -7.5552 0.0000 18.4797 0.0000
# 6 0.0000 0.0000 0.0000 3.9674 0.0000 31.7749
#
#
#
# Elastic Compliance Matrix: (Units=1/GPa)
#
#
# Indices 1 2 3 4 5 6 
#
# 1 0.021040 -0.018649 0.009577 0.000000 0.014025 0.000000
# 2 -0.018649 0.038033 -0.018314 0.000000 -0.019746 0.000000
# 3 0.009577 -0.018314 0.031241 0.000000 0.018881 0.000000
# 4 0.000000 0.000000 0.000000 0.036878 0.000000 -0.004605
# 5 0.014025 -0.019746 0.018881 0.000000 0.069694 0.000000
# 6 0.000000 0.000000 0.000000 -0.004605 0.000000 0.032046
#
#
# Mechanical properties :
#
#
# Convention : Reuss Voigt Hill
#
# Bulk Modulus (GPa) = 28.13479 34.22500 31.17989
# Shear Modulus (GPa) = 16.91748 24.34319 20.63034
#
# Velocity S-wave (km/s) = 2.96984 3.56249 3.27958
# Velocity P-wave (km/s) = 5.14081 5.89618 5.53141
#
# Compressibility (1/GPa) = 0.03554319
#
# Stress axis : x y z
#
# Youngs Moduli (GPa) = 47.52849 26.29275 32.00885
#
# Poissons Ratio (x) = 0.49033 -0.30653
# Poissons Ratio (y) = 0.88635 0.58620
# Poissons Ratio (z) = -0.45516 0.48151
#
# Static dielectric constant tensor:
#      x y z
#    x 1.646890 0.000000 -0.022900 
#    y 0.000000 1.649770 0.000000 
#    z -0.022900 0.000000 1.676270 
# 
# From -- ./inp_files/72581.got.cif
#   From: 2010.05.17/outbox.cif.g08.bks.cpg/sg11_37_cif.got.tgz:72581.got - 2010.06.03 12:22:45.
