data_PCOD9163505
_publ_section_title
;
Structure prediction by ZEFSAII (Michael W. Deem and Ramdas Pophale) SiO2 
 PCOD9163505
Probable space group: P 21/M
;
_chemical_formula_sum "Si O2"
_cell_formula_units_Z 30
_cell_length_a 13.738026
_cell_length_b 9.486386
_cell_length_c 11.687766
_cell_angle_alpha 90.000000
_cell_angle_beta 110.343162
_cell_angle_gamma 90.000000
_cell_volume 1428.192950
_symmetry_space_group_name_H-M "P 21/M"
_symmetry_group_IT_number 11
_symmetry_cell_setting 'monoclinic'
loop_
_space_group_symop_operation_xyz
x,y,z
-x,1/2+y,-z
-x,-y,-z
x,1/2-y,z
loop_
_atom_site_type_symbol
_atom_site_label
_atom_site_fract_x
_atom_site_fract_y
_atom_site_fract_z
Si Si1 0.651168 0.087746 0.436432
Si Si2 0.677199 0.411154 0.701195
Si Si3 0.044517 0.407925 0.683652
Si Si4 0.513523 0.000195 0.823640
Si Si5 0.143024 0.409334 0.472644
Si Si6 0.457273 0.250000 0.979111
Si Si7 0.145874 0.411894 0.139669
Si Si8 0.100208 0.588303 0.903811
O O1 0.687282 0.250000 0.435385
O O2 0.616447 0.077620 0.555593
O O3 0.569649 0.053164 0.304561
O O4 0.745886 0.979355 0.467945
O O5 0.715782 0.250000 0.724731
O O6 0.607955 0.445793 0.782763
O O7 0.773888 0.518148 0.740356
O O8 0.030976 0.250000 0.725498
O O9 0.094746 0.398902 0.579898
O O10 0.115843 0.501391 0.794829
O O11 0.935678 0.487381 0.624574
O O12 0.469565 0.126091 0.884026
O O13 0.545540 0.873922 0.921216
O O14 0.144211 0.250000 0.424014
O O15 0.173481 0.250000 0.128691
O O16 0.024509 0.414736 0.124950
O O17 0.152537 0.506969 0.029083
O O18 0.133389 0.750000 0.909162
#
# Coordination Sequence:
#
# PCOD9163505 Si02
#       8
#     4   4   4   4   4   2   4   4
#     4  11  24  42  66  97 129 166 211 262 319 381
#     4  11  24  42  65  96 129 165 211 265 318 380
#     4  10  20  37  58  84 121 165 209 260 313 373
#     4  11  23  48  68  99 125 172 207 260 317 380
#     4  10  22  38  58  88 123 161 211 258 315 369
#     4  10  24  46  74  90 130 170 208 258 316 382
#     4  10  22  38  58  88 123 161 209 257 317 372
#     4  10  20  37  59  86 120 163 210 262 313 374
#
# _framework density 21.005565000000001
#
# number of rings (size 3 to 8) (size 9 to 14) (size 15 to 20)
#    0.000    1.600    1.333    2.800    1.867    5.867 
#    4.800    0.000    0.000    0.000    0.000    0.000 
#    0.000    0.000    0.000    0.000    0.000    0.000 
#
# Total GULP energy -167058.958242 kJ/mol
# GULP energy per Si atom -5568.631941 kJ/mol
# Density = 2.095776 g / cm^3
# Si number density = 21.005565 Si / 1000 Ang^3
#
#
#
# Elastic Constant Matrix: (Units=GPa)
#
#
# Indices 1 2 3 4 5 6 
#
# 1 34.9041 18.4332 16.8901 0.0000 -0.3706 0.0000
# 2 18.4332 188.6089 46.8216 0.0000 -5.6403 0.0000
# 3 16.8901 46.8216 105.8650 0.0000 -16.4253 0.0000
# 4 0.0000 0.0000 0.0000 41.0858 0.0000 -4.6189
# 5 -0.3706 -5.6403 -16.4253 0.0000 20.9046 0.0000
# 6 0.0000 0.0000 0.0000 -4.6189 0.0000 15.7287
#
#
#
# Elastic Compliance Matrix: (Units=1/GPa)
#
#
# Indices 1 2 3 4 5 6 
#
# 1 0.032007 -0.002054 -0.004779 0.000000 -0.003741 0.000000
# 2 -0.002054 0.006093 -0.002412 0.000000 -0.000287 0.000000
# 3 -0.004779 -0.002412 0.012710 0.000000 0.009252 0.000000
# 4 0.000000 0.000000 0.000000 0.025170 0.000000 0.007392
# 5 -0.003741 -0.000287 0.009252 0.000000 0.054962 0.000000
# 6 0.000000 0.000000 0.000000 0.007392 0.000000 0.065749
#
#
# Mechanical properties :
#
#
# Convention : Reuss Voigt Hill
#
# Bulk Modulus (GPa) = 30.93842 54.85196 42.89519
# Shear Modulus (GPa) = 22.12846 32.02601 27.07724
#
# Velocity S-wave (km/s) = 3.24922 3.90891 3.59423
# Velocity P-wave (km/s) = 5.37003 6.82220 6.13921
#
# Compressibility (1/GPa) = 0.03232227
#
# Stress axis : x y z
#
# Youngs Moduli (GPa) = 31.24293 164.12880 78.67558
#
# Poissons Ratio (x) = 0.33707 0.37597
# Poissons Ratio (y) = 0.06416 0.18974
# Poissons Ratio (z) = 0.14930 0.39582
#
# Static dielectric constant tensor:
#      x y z
#    x 1.764560 0.000000 -0.015590 
#    y 0.000000 1.742450 0.000000 
#    z -0.015590 0.000000 1.775450 
# 
# From -- ./inp_files/37997.got.cif
#   From: 2010.05.17/outbox.cif.g08.bks.cpg/sg11_19_cif.got.tgz:37997.got - 2010.06.03 12:22:45.
