data_PCOD9163135
_publ_section_title
;
Structure prediction by ZEFSAII (Michael W. Deem and Ramdas Pophale) SiO2 
 PCOD9163135
Probable space group: P 21/M
;
_chemical_formula_sum "Si O2"
_cell_formula_units_Z 32
_cell_length_a 30.145187
_cell_length_b 7.809190
_cell_length_c 12.065841
_cell_angle_alpha 90.000000
_cell_angle_beta 148.979852
_cell_angle_gamma 90.000000
_cell_volume 1463.777179
_symmetry_space_group_name_H-M "P 21/M"
_symmetry_group_IT_number 11
_symmetry_cell_setting 'monoclinic'
loop_
_space_group_symop_operation_xyz
x,y,z
-x,1/2+y,-z
-x,-y,-z
x,1/2-y,z
loop_
_atom_site_type_symbol
_atom_site_label
_atom_site_fract_x
_atom_site_fract_y
_atom_site_fract_z
Si Si1 0.456529 0.457309 0.089243
Si Si2 0.042395 0.449852 0.913979
Si Si3 0.734722 0.547522 0.918658
Si Si4 0.919959 0.957133 0.251147
Si Si5 0.584831 0.956473 0.751740
Si Si6 0.291280 0.950386 0.603765
Si Si7 0.654378 0.458125 0.511721
Si Si8 0.116786 0.050299 0.305043
O O1 0.454757 0.250000 0.081775
O O2 0.427437 0.515920 0.149107
O O3 0.555086 0.510911 0.282890
O O4 0.387247 0.523851 0.854234
O O5 0.094052 0.250000 0.260320
O O6 0.940771 0.465200 0.723456
O O7 0.066960 0.522774 0.846942
O O8 0.087828 0.522126 0.122206
O O9 0.742711 0.750000 0.958534
O O10 0.669546 0.475558 0.870935
O O11 0.690015 0.524668 0.703595
O O12 0.830856 0.476791 0.112756
O O13 0.914491 0.750000 0.232981
O O14 0.000000 0.000000 0.500000
O O15 0.590115 0.750000 0.766439
O O16 0.500000 0.000000 0.500000
O O17 0.272155 0.750000 0.560437
O O18 0.290490 0.017452 0.475933
O O19 0.219197 0.033146 0.526933
O O20 0.656325 0.250000 0.518842
O O21 0.933956 0.750000 0.038006
#
# Coordination Sequence:
#
# PCOD9163135 Si02
#       8
#     4   4   4   4   4   4   4   4
#     4  10  21  37  55  79 114 153 191 233 280 331
#     4   9  19  37  59  82 112 147 187 235 285 339
#     4  10  21  37  60  87 113 148 191 235 286 341
#     4  10  22  39  57  83 119 153 190 237 287 340
#     4  10  20  36  59  84 113 147 188 236 280 331
#     4  11  23  36  53  82 117 150 188 232 282 340
#     4  10  21  37  57  82 114 149 189 236 280 333
#     4  10  20  36  60  85 110 145 185 233 288 343
#
# _framework density 21.861252
#
# number of rings (size 3 to 8) (size 9 to 14) (size 15 to 20)
#    0.000    2.000    1.250    1.875    0.000    5.500 
#    0.000    1.250    0.000    0.000    0.000    0.000 
#    0.000    0.000    0.000    0.000    0.000    0.000 
#
# Total GULP energy -178783.289117 kJ/mol
# GULP energy per Si atom -5586.977785 kJ/mol
# Density = 2.181149 g / cm^3
# Si number density = 21.861252 Si / 1000 Ang^3
#
#
#
# Elastic Constant Matrix: (Units=GPa)
#
#
# Indices 1 2 3 4 5 6 
#
# 1 124.6462 4.8420 19.9026 0.0000 21.1492 0.0000
# 2 4.8420 31.5845 -5.3991 0.0000 1.6866 0.0000
# 3 19.9026 -5.3991 60.5174 0.0000 27.5916 0.0000
# 4 0.0000 0.0000 0.0000 27.6989 0.0000 -0.9625
# 5 21.1492 1.6866 27.5916 0.0000 39.6219 0.0000
# 6 0.0000 0.0000 0.0000 -0.9625 0.0000 14.4021
#
#
#
# Elastic Compliance Matrix: (Units=1/GPa)
#
#
# Indices 1 2 3 4 5 6 
#
# 1 0.008931 -0.001397 -0.001341 0.000000 -0.003774 0.000000
# 2 -0.001397 0.033041 0.005434 0.000000 -0.004445 0.000000
# 3 -0.001341 0.005434 0.025244 0.000000 -0.017094 0.000000
# 4 0.000000 0.000000 0.000000 0.036187 0.000000 0.002418
# 5 -0.003774 -0.004445 -0.017094 0.000000 0.039346 0.000000
# 6 0.000000 0.000000 0.000000 0.002418 0.000000 0.069596
#
#
# Mechanical properties :
#
#
# Convention : Reuss Voigt Hill
#
# Bulk Modulus (GPa) = 13.77269 28.38213 21.07741
# Shear Modulus (GPa) = 21.63029 29.50475 25.56752
#
# Velocity S-wave (km/s) = 3.14894 3.67773 3.42356
# Velocity P-wave (km/s) = 4.41982 5.57183 5.02892
#
# Compressibility (1/GPa) = 0.07260746
#
# Stress axis : x y z
#
# Youngs Moduli (GPa) = 111.96356 30.26500 39.61348
#
# Poissons Ratio (x) = 0.04228 0.05314
# Poissons Ratio (y) = 0.15641 -0.21525
# Poissons Ratio (z) = 0.15018 -0.16445
#
# Static dielectric constant tensor:
#      x y z
#    x 1.815940 0.000000 0.023690 
#    y 0.000000 1.798450 0.000000 
#    z 0.023690 0.000000 1.781030 
# 
# From -- ./inp_files/42809.got.cif
#   From: 2010.05.17/outbox.cif.g08.bks.cpg/sg11_22_cif.got.tgz:42809.got - 2010.06.03 12:22:45.
