data_PCOD9163062
_publ_section_title
;
Structure prediction by ZEFSAII (Michael W. Deem and Ramdas Pophale) SiO2 
 PCOD9163062
Probable space group: P 21/M
;
_chemical_formula_sum "Si O2"
_cell_formula_units_Z 32
_cell_length_a 15.567528
_cell_length_b 7.722869
_cell_length_c 21.432306
_cell_angle_alpha 90.000000
_cell_angle_beta 34.735193
_cell_angle_gamma 90.000000
_cell_volume 1468.174859
_symmetry_space_group_name_H-M "P 21/M"
_symmetry_group_IT_number 11
_symmetry_cell_setting 'monoclinic'
loop_
_space_group_symop_operation_xyz
x,y,z
-x,1/2+y,-z
-x,-y,-z
x,1/2-y,z
loop_
_atom_site_type_symbol
_atom_site_label
_atom_site_fract_x
_atom_site_fract_y
_atom_site_fract_z
Si Si1 0.363707 0.948051 0.626644
Si Si2 0.901735 0.037615 0.392199
Si Si3 0.269801 0.446836 0.993614
Si Si4 0.435884 0.550905 0.386379
Si Si5 0.844105 0.950259 0.674629
Si Si6 0.674617 0.457736 0.900795
Si Si7 0.421015 0.046905 0.254634
Si Si8 0.962280 0.463063 0.215161
O O1 0.337361 0.750000 0.627324
O O2 0.200121 0.028394 0.711942
O O3 0.500000 0.000000 0.500000
O O4 0.427810 0.965367 0.657959
O O5 0.903656 0.250000 0.393249
O O6 0.728703 0.979425 0.497347
O O7 0.969247 0.986100 0.284579
O O8 0.995483 0.975734 0.397223
O O9 0.273131 0.250000 0.968190
O O10 0.278864 0.453651 0.062943
O O11 0.100839 0.522719 0.088406
O O12 0.422878 0.531344 0.877006
O O13 0.438311 0.750000 0.405298
O O14 0.445346 0.539328 0.306653
O O15 0.870292 0.750000 0.641543
O O16 0.726528 0.024727 0.694137
O O17 0.753565 0.961737 0.793606
O O18 0.698839 0.250000 0.888100
O O19 0.500000 0.500000 0.000000
O O20 0.394186 0.250000 0.280955
O O21 0.970886 0.250000 0.208925
#
# Coordination Sequence:
#
# PCOD9163062 Si02
#       8
#     4   4   4   4   4   4   4   4
#     4  11  21  38  64  94 123 152 192 242 301 358
#     4   9  17  34  59  88 119 155 193 240 296 353
#     4  11  21  37  61  86 117 157 200 242 295 353
#     4  11  23  41  63  86 117 159 205 244 293 357
#     4  10  20  36  58  83 117 158 199 244 296 347
#     4  12  22  32  51  82 117 154 198 246 291 339
#     4  11  24  40  58  84 120 161 204 246 293 348
#     4   9  18  34  60  92 122 151 186 239 303 358
#
# _framework density 21.795767999999999
#
# number of rings (size 3 to 8) (size 9 to 14) (size 15 to 20)
#    0.000    1.500    3.750    2.625    0.000    1.000 
#    0.000    5.625    0.000    0.000    0.000    0.000 
#    0.000    0.000    0.000    0.000    0.000    0.000 
#
# Total GULP energy -178518.939537 kJ/mol
# GULP energy per Si atom -5578.716861 kJ/mol
# Density = 2.174616 g / cm^3
# Si number density = 21.795768 Si / 1000 Ang^3
#
#
#
# Elastic Constant Matrix: (Units=GPa)
#
#
# Indices 1 2 3 4 5 6 
#
# 1 120.4277 -6.3027 26.0332 0.0000 -22.7043 0.0000
# 2 -6.3027 51.9763 -8.0458 0.0000 -6.8584 0.0000
# 3 26.0332 -8.0458 46.1273 0.0000 -15.5186 0.0000
# 4 0.0000 0.0000 0.0000 16.8983 0.0000 -1.1721
# 5 -22.7043 -6.8584 -15.5186 0.0000 42.3871 0.0000
# 6 0.0000 0.0000 0.0000 -1.1721 0.0000 11.3897
#
#
#
# Elastic Compliance Matrix: (Units=1/GPa)
#
#
# Indices 1 2 3 4 5 6 
#
# 1 0.010009 0.001113 -0.004095 0.000000 0.004042 0.000000
# 2 0.001113 0.020909 0.004970 0.000000 0.005799 0.000000
# 3 -0.004095 0.004970 0.027816 0.000000 0.008794 0.000000
# 4 0.000000 0.000000 0.000000 0.059603 0.000000 0.006133
# 5 0.004042 0.005799 0.008794 0.000000 0.029915 0.000000
# 6 0.000000 0.000000 0.000000 0.006133 0.000000 0.088430
#
#
# Mechanical properties :
#
#
# Convention : Reuss Voigt Hill
#
# Bulk Modulus (GPa) = 15.94636 26.87786 21.41211
# Shear Modulus (GPa) = 19.71536 27.92481 23.82008
#
# Velocity S-wave (km/s) = 3.01084 3.58327 3.30945
# Velocity P-wave (km/s) = 4.40670 5.42939 4.94456
#
# Compressibility (1/GPa) = 0.06271022
#
# Stress axis : x y z
#
# Youngs Moduli (GPa) = 99.90704 47.82628 35.95085
#
# Poissons Ratio (x) = -0.05324 0.14721
# Poissons Ratio (y) = -0.11122 -0.17867
# Poissons Ratio (z) = 0.40911 -0.23768
#
# Static dielectric constant tensor:
#      x y z
#    x 1.953710 0.000000 -0.165360 
#    y 0.000000 1.798030 0.000000 
#    z -0.165360 0.000000 1.908380 
# 
# From -- ./inp_files/65193.got.cif
#   From: 2010.05.17/outbox.cif.g08.bks.cpg/sg11_33_cif.got.tgz:65193.got - 2010.06.03 12:22:45.
