data_PCOD9163235
_publ_section_title
;
Structure prediction by ZEFSAII (Michael W. Deem and Ramdas Pophale) SiO2 
 PCOD9163235
Probable space group: P 21/M
;
_chemical_formula_sum "Si O2"
_cell_formula_units_Z 32
_cell_length_a 28.093386
_cell_length_b 7.526021
_cell_length_c 21.587335
_cell_angle_alpha 90.000000
_cell_angle_beta 161.450871
_cell_angle_gamma 90.000000
_cell_volume 1451.965730
_symmetry_space_group_name_H-M "P 21/M"
_symmetry_group_IT_number 11
_symmetry_cell_setting 'monoclinic'
loop_
_space_group_symop_operation_xyz
x,y,z
-x,1/2+y,-z
-x,-y,-z
x,1/2-y,z
loop_
_atom_site_type_symbol
_atom_site_label
_atom_site_fract_x
_atom_site_fract_y
_atom_site_fract_z
Si Si1 0.521926 0.032121 0.346956
Si Si2 0.634677 0.037303 0.619306
Si Si3 0.328690 0.038422 0.803946
Si Si4 0.197458 0.467828 0.904803
Si Si5 0.240647 0.954218 0.456958
Si Si6 0.031412 0.537943 0.966379
Si Si7 0.830218 0.962614 0.270165
Si Si8 0.886684 0.457205 0.574331
O O1 0.527329 0.250000 0.353901
O O2 0.590674 0.971254 0.496717
O O3 0.623219 0.968388 0.414778
O O4 0.350377 0.980095 0.126678
O O5 0.648244 0.250000 0.631604
O O6 0.800578 0.973135 0.842014
O O7 0.500000 0.000000 0.500000
O O8 0.307456 0.250000 0.777688
O O9 0.277796 0.970205 0.808609
O O10 0.220541 0.965791 0.617243
O O11 0.500000 0.000000 0.000000
O O12 0.192610 0.250000 0.897828
O O13 0.197054 0.528935 0.832888
O O14 0.048021 0.531916 0.754647
O O15 0.285737 0.750000 0.525498
O O16 0.193128 0.036590 0.463742
O O17 0.096591 0.956388 0.234410
O O18 0.023838 0.750000 0.947904
O O19 0.000000 0.500000 0.000000
O O20 0.810896 0.750000 0.243378
O O21 0.000000 0.000000 0.500000
O O22 0.913732 0.250000 0.622892
#
# Coordination Sequence:
#
# PCOD9163235 Si02
#       8
#     4   4   4   4   4   4   4   4
#     4   9  18  35  56  81 114 146 186 237 284 339
#     4  10  22  38  58  85 115 150 192 240 293 345
#     4  11  24  39  59  87 120 157 197 243 295 346
#     4   9  18  33  56  84 112 144 187 238 286 343
#     4  10  21  37  60  87 116 154 198 239 288 351
#     4  11  22  39  61  86 117 154 196 243 295 348
#     4  10  20  36  60  85 111 148 191 235 291 346
#     4  10  21  37  60  87 115 152 196 238 289 349
#
# _framework density 22.039088
#
# number of rings (size 3 to 8) (size 9 to 14) (size 15 to 20)
#    0.000    2.000    2.500    0.750    3.500    2.000 
#    0.000    0.000    0.000    1.500    0.000    0.000 
#    0.000    0.000    0.000    0.000    0.000    0.000 
#
# Total GULP energy -178829.172626 kJ/mol
# GULP energy per Si atom -5588.411645 kJ/mol
# Density = 2.198893 g / cm^3
# Si number density = 22.039088 Si / 1000 Ang^3
#
#
#
# Elastic Constant Matrix: (Units=GPa)
#
#
# Indices 1 2 3 4 5 6 
#
# 1 126.6045 3.7061 17.9454 0.0000 35.3525 0.0000
# 2 3.7061 57.3991 -10.4925 0.0000 0.7008 0.0000
# 3 17.9454 -10.4925 98.4718 0.0000 35.1488 0.0000
# 4 0.0000 0.0000 0.0000 19.0441 0.0000 -2.7790
# 5 35.3525 0.7008 35.1488 0.0000 42.0655 0.0000
# 6 0.0000 0.0000 0.0000 -2.7790 0.0000 11.8102
#
#
#
# Elastic Compliance Matrix: (Units=1/GPa)
#
#
# Indices 1 2 3 4 5 6 
#
# 1 0.010535 -0.000238 0.001729 0.000000 -0.010295 0.000000
# 2 -0.000238 0.017987 0.002844 0.000000 -0.002475 0.000000
# 3 0.001729 0.002844 0.015217 0.000000 -0.014216 0.000000
# 4 0.000000 0.000000 0.000000 0.054377 0.000000 0.012795
# 5 -0.010295 -0.002475 -0.014216 0.000000 0.044344 0.000000
# 6 0.000000 0.000000 0.000000 0.012795 0.000000 0.087683
#
#
# Mechanical properties :
#
#
# Convention : Reuss Voigt Hill
#
# Bulk Modulus (GPa) = 19.08067 33.86593 26.47330
# Shear Modulus (GPa) = 20.92534 32.67171 26.79852
#
# Velocity S-wave (km/s) = 3.08468 3.85443 3.49084
# Velocity P-wave (km/s) = 4.62206 5.93367 5.31846
#
# Compressibility (1/GPa) = 0.05240906
#
# Stress axis : x y z
#
# Youngs Moduli (GPa) = 94.91987 55.59482 65.71458
#
# Poissons Ratio (x) = 0.01325 -0.11365
# Poissons Ratio (y) = 0.02263 -0.18687
# Poissons Ratio (z) = -0.16416 -0.15809
#
# Static dielectric constant tensor:
#      x y z
#    x 1.800720 0.000000 0.027020 
#    y 0.000000 1.821370 0.000000 
#    z 0.027020 0.000000 1.759170 
# 
# From -- ./inp_files/67137.got.cif
#   From: 2010.05.17/outbox.cif.g08.bks.cpg/sg11_34_cif.got.tgz:67137.got - 2010.06.03 12:22:45.
