data_PCOD9163297
_publ_section_title
;
Structure prediction by ZEFSAII (Michael W. Deem and Ramdas Pophale) SiO2 
 PCOD9163297
Probable space group: P 21/M
;
_chemical_formula_sum "Si O2"
_cell_formula_units_Z 28
_cell_length_a 28.798178
_cell_length_b 8.705099
_cell_length_c 10.078101
_cell_angle_alpha 90.000000
_cell_angle_beta 142.291158
_cell_angle_gamma 90.000000
_cell_volume 1545.324889
_symmetry_space_group_name_H-M "P 21/M"
_symmetry_group_IT_number 11
_symmetry_cell_setting 'monoclinic'
loop_
_space_group_symop_operation_xyz
x,y,z
-x,1/2+y,-z
-x,-y,-z
x,1/2-y,z
loop_
_atom_site_type_symbol
_atom_site_label
_atom_site_fract_x
_atom_site_fract_y
_atom_site_fract_z
Si Si1 0.130334 0.065470 0.442855
Si Si2 0.127409 0.066763 0.130941
Si Si3 0.457300 0.934543 0.277761
Si Si4 0.705085 0.067964 0.180132
Si Si5 0.291455 0.567930 0.499156
Si Si6 0.001002 0.934641 0.651792
Si Si7 0.454487 0.934779 0.772674
O O1 0.128131 0.250000 0.433994
O O2 0.112371 0.013101 0.250232
O O3 0.070772 0.013611 0.419708
O O4 0.215460 0.013153 0.669104
O O5 0.116671 0.250000 0.101847
O O6 0.214798 0.024316 0.299186
O O7 0.073382 0.988222 0.901298
O O8 0.456801 0.750000 0.276866
O O9 0.500000 0.000000 0.500000
O O10 0.504397 0.995591 0.260228
O O11 0.369379 0.985551 0.066335
O O12 0.714983 0.250000 0.180307
O O13 0.689183 0.046558 0.301227
O O14 0.276804 0.750000 0.446488
O O15 0.365677 0.522777 0.584568
O O16 0.999870 0.750000 0.641101
O O17 0.000000 0.000000 0.500000
O O18 0.458316 0.750000 0.780983
O O19 0.500000 0.000000 0.000000
#
# Coordination Sequence:
#
# PCOD9163297 Si02
#       7
#     4   4   4   4   4   4   4
#     4   9  20  37  60  88 113 142 187 235 280 334
#     4  10  20  36  60  89 115 144 186 234 282 337
#     4  11  23  40  57  83 117 156 200 243 292 348
#     4   9  18  35  58  83 114 148 188 234 283 339
#     4   9  18  35  57  85 116 148 187 234 285 336
#     4  11  23  40  59  83 117 153 187 229 281 339
#     4  11  21  36  60  87 117 154 195 242 291 344
#
# _framework density 18.119167000000001
#
# number of rings (size 3 to 8) (size 9 to 14) (size 15 to 20)
#    0.000    2.000    1.429    2.143    0.000    4.000 
#    2.571    0.000    0.000    0.000    0.000    0.000 
#    0.000    0.000    0.000    0.000    0.000    0.000 
#
# Total GULP energy -156268.277661 kJ/mol
# GULP energy per Si atom -5581.009916 kJ/mol
# Density = 1.807793 g / cm^3
# Si number density = 18.119167 Si / 1000 Ang^3
#
#
#
# Elastic Constant Matrix: (Units=GPa)
#
#
# Indices 1 2 3 4 5 6 
#
# 1 116.6079 35.6580 88.4857 0.0000 -2.1136 0.0000
# 2 35.6580 40.0427 39.7285 0.0000 -1.0827 0.0000
# 3 88.4857 39.7285 149.2717 0.0000 -2.8280 0.0000
# 4 0.0000 0.0000 0.0000 34.9784 0.0000 1.3814
# 5 -2.1136 -1.0827 -2.8280 0.0000 24.9457 0.0000
# 6 0.0000 0.0000 0.0000 1.3814 0.0000 29.9161
#
#
#
# Elastic Compliance Matrix: (Units=1/GPa)
#
#
# Indices 1 2 3 4 5 6 
#
# 1 0.016898 -0.006941 -0.008166 0.000000 0.000205 0.000000
# 2 -0.006941 0.036790 -0.005670 0.000000 0.000366 0.000000
# 3 -0.008166 -0.005670 0.013059 0.000000 0.000543 0.000000
# 4 0.000000 0.000000 0.000000 0.028641 0.000000 -0.001323
# 5 0.000205 0.000366 0.000543 0.000000 0.040182 0.000000
# 6 0.000000 0.000000 0.000000 -0.001323 0.000000 0.033488
#
#
# Mechanical properties :
#
#
# Convention : Reuss Voigt Hill
#
# Bulk Modulus (GPa) = 39.69272 70.40743 55.05007
# Shear Modulus (GPa) = 22.82999 27.43805 25.13402
#
# Velocity S-wave (km/s) = 3.55349 3.89564 3.72849
# Velocity P-wave (km/s) = 6.22819 7.69266 6.99883
#
# Compressibility (1/GPa) = 0.02519353
#
# Stress axis : x y z
#
# Youngs Moduli (GPa) = 59.17686 27.18157 76.57372
#
# Poissons Ratio (x) = 0.18866 0.62530
# Poissons Ratio (y) = 0.41072 0.43420
# Poissons Ratio (z) = 0.48324 0.15413
#
# Static dielectric constant tensor:
#      x y z
#    x 1.609740 0.000000 0.011660 
#    y 0.000000 1.612850 0.000000 
#    z 0.011660 0.000000 1.597470 
# 
# From -- ./inp_files/28603.got.cif
#   From: 2010.05.17/outbox.cif.g08.bks.cpg/sg11_15_cif.got.tgz:28603.got - 2010.06.03 12:22:45.
