data_PCOD9163978
_publ_section_title
;
Structure prediction by ZEFSAII (Michael W. Deem and Ramdas Pophale) SiO2 
 PCOD9163978
Probable space group: P 21/M
;
_chemical_formula_sum "Si O2"
_cell_formula_units_Z 28
_cell_length_a 20.592762
_cell_length_b 8.856641
_cell_length_c 16.358000
_cell_angle_alpha 90.000000
_cell_angle_beta 29.903858
_cell_angle_gamma 90.000000
_cell_volume 1487.370549
_symmetry_space_group_name_H-M "P 21/M"
_symmetry_group_IT_number 11
_symmetry_cell_setting 'monoclinic'
loop_
_space_group_symop_operation_xyz
x,y,z
-x,1/2+y,-z
-x,-y,-z
x,1/2-y,z
loop_
_atom_site_type_symbol
_atom_site_label
_atom_site_fract_x
_atom_site_fract_y
_atom_site_fract_z
Si Si1 0.429029 0.069439 0.330738
Si Si2 0.124098 0.930632 0.910396
Si Si3 0.105534 0.430833 0.109588
Si Si4 0.706305 0.431841 0.958717
Si Si5 0.408103 0.930615 0.530944
Si Si6 0.860039 0.067993 0.630609
Si Si7 0.817526 0.068425 0.490670
O O1 0.423472 0.250000 0.343864
O O2 0.442449 0.998588 0.405741
O O3 0.298792 0.008534 0.430953
O O4 0.556582 0.028538 0.138800
O O5 0.110609 0.750000 0.928621
O O6 0.257776 0.965664 0.716806
O O7 0.132773 0.996346 0.992117
O O8 0.000000 0.000000 0.000000
O O9 0.116980 0.250000 0.091681
O O10 0.203626 0.492948 0.070780
O O11 0.958090 0.467565 0.298437
O O12 0.718779 0.250000 0.952530
O O13 0.758925 0.475531 0.811922
O O14 0.422914 0.750000 0.513543
O O15 0.500000 0.000000 0.500000
O O16 0.871298 0.250000 0.617951
O O17 0.819327 0.021844 0.583850
O O18 0.000000 0.000000 0.500000
O O19 0.801500 0.250000 0.503952
#
# Coordination Sequence:
#
# PCOD9163978 Si02
#       7
#     4   4   4   4   4   4   4
#     4  11  24  40  59  88 121 157 200 242 293 354
#     4  11  24  40  59  86 118 152 195 245 297 351
#     4  11  22  37  60  89 117 151 198 243 292 353
#     4  10  22  39  60  87 120 154 194 244 292 345
#     4  11  24  42  63  87 118 157 199 245 295 352
#     4  10  20  38  62  88 120 155 195 243 294 347
#     4  10  22  39  59  87 122 157 195 244 295 348
#
# _framework density 18.825168000000001
#
# number of rings (size 3 to 8) (size 9 to 14) (size 15 to 20)
#    0.000    1.429    1.429    3.429    0.000   12.571 
#    0.000    0.000    0.000    0.000    0.000    0.000 
#    0.000    0.000    0.000    0.000    0.000    0.000 
#
# Total GULP energy -156573.047883 kJ/mol
# GULP energy per Si atom -5591.894567 kJ/mol
# Density = 1.878232 g / cm^3
# Si number density = 18.825168 Si / 1000 Ang^3
#
#
#
# Elastic Constant Matrix: (Units=GPa)
#
#
# Indices 1 2 3 4 5 6 
#
# 1 54.9133 9.5846 -1.4177 0.0000 0.2959 0.0000
# 2 9.5846 24.7199 30.6998 0.0000 -5.3977 0.0000
# 3 -1.4177 30.6998 85.6966 0.0000 4.6730 0.0000
# 4 0.0000 0.0000 0.0000 23.2079 0.0000 -3.6523
# 5 0.2959 -5.3977 4.6730 0.0000 41.9018 0.0000
# 6 0.0000 0.0000 0.0000 -3.6523 0.0000 38.2302
#
#
#
# Elastic Compliance Matrix: (Units=1/GPa)
#
#
# Indices 1 2 3 4 5 6 
#
# 1 0.021437 -0.017387 0.006755 0.000000 -0.003144 0.000000
# 2 -0.017387 0.093967 -0.034829 0.000000 0.016112 0.000000
# 3 0.006755 -0.034829 0.024655 0.000000 -0.007284 0.000000
# 4 0.000000 0.000000 0.000000 0.043747 0.000000 0.004179
# 5 -0.003144 0.016112 -0.007284 0.000000 0.026775 0.000000
# 6 0.000000 0.000000 0.000000 0.004179 0.000000 0.026557
#
#
# Mechanical properties :
#
#
# Convention : Reuss Voigt Hill
#
# Bulk Modulus (GPa) = 20.35144 27.00702 23.67923
# Shear Modulus (GPa) = 14.51640 29.09884 21.80762
#
# Velocity S-wave (km/s) = 2.77991 3.93586 3.40726
# Velocity P-wave (km/s) = 4.59762 5.91878 5.29953
#
# Compressibility (1/GPa) = 0.04913657
#
# Stress axis : x y z
#
# Youngs Moduli (GPa) = 46.64919 10.64204 40.55969
#
# Poissons Ratio (x) = 0.18503 -0.27397
# Poissons Ratio (y) = 0.81109 1.41265
# Poissons Ratio (z) = -0.31511 0.37065
#
# Static dielectric constant tensor:
#      x y z
#    x 1.604680 0.000000 0.008070 
#    y 0.000000 1.633410 0.000000 
#    z 0.008070 0.000000 1.644940 
# 
# From -- ./inp_files/54539.got.cif
#   From: 2010.05.17/outbox.cif.g08.bks.cpg/sg11_28_cif.got.tgz:54539.got - 2010.06.03 12:22:45.
