data_PCOD9163072
_publ_section_title
;
Structure prediction by ZEFSAII (Michael W. Deem and Ramdas Pophale) SiO2 
 PCOD9163072
Probable space group: P 21/M
;
_chemical_formula_sum "Si O2"
_cell_formula_units_Z 24
_cell_length_a 16.673711
_cell_length_b 11.909698
_cell_length_c 21.884814
_cell_angle_alpha 90.000000
_cell_angle_beta 15.946614
_cell_angle_gamma 90.000000
_cell_volume 1193.988802
_symmetry_space_group_name_H-M "P 21/M"
_symmetry_group_IT_number 11
_symmetry_cell_setting 'monoclinic'
loop_
_space_group_symop_operation_xyz
x,y,z
-x,1/2+y,-z
-x,-y,-z
x,1/2-y,z
loop_
_atom_site_type_symbol
_atom_site_label
_atom_site_fract_x
_atom_site_fract_y
_atom_site_fract_z
Si Si1 0.057712 0.376747 0.880121
Si Si2 0.062048 0.622462 0.170114
Si Si3 0.725136 0.127761 0.549938
Si Si4 0.848810 0.123659 0.600592
Si Si5 0.561719 0.048268 0.328972
Si Si6 0.648448 0.553655 0.950712
O O1 0.177603 0.250000 0.787556
O O2 0.919049 0.404108 0.915705
O O3 0.296038 0.468956 0.723771
O O4 0.815603 0.380562 0.111002
O O5 0.159168 0.750000 0.108432
O O6 0.720729 0.611252 0.438622
O O7 0.244001 0.540641 0.080070
O O8 0.607376 0.250000 0.618973
O O9 0.723786 0.116850 0.623695
O O10 0.061811 0.117662 0.282603
O O11 0.551889 0.032895 0.641596
O O12 0.998871 0.250000 0.494376
O O13 0.592611 0.124953 0.837796
O O14 0.000000 0.000000 0.500000
O O15 0.500000 0.500000 0.000000
#
# Coordination Sequence:
#
# PCOD9163072 Si02
#       6
#     4   4   4   4   4   4
#     4  10  20  36  58  84 115 149 189 238 294 355
#     4  10  22  37  57  85 118 152 194 246 297 352
#     4  10  21  38  58  83 117 152 196 246 295 354
#     4  11  23  40  60  87 118 156 201 252 303 362
#     4  10  20  36  58  84 114 150 193 233 293 355
#     4  11  22  39  59  83 117 156 203 243 302 355
#
# _framework density 20.100691000000001
#
# number of rings (size 3 to 8) (size 9 to 14) (size 15 to 20)
#    0.000    1.667    1.667    3.000    0.000    2.000 
#    0.000    0.833    0.000   16.000    0.000    0.000 
#    0.000    0.000    0.000    0.000    0.000    0.000 
#
# Total GULP energy -133908.644373 kJ/mol
# GULP energy per Si atom -5579.526849 kJ/mol
# Density = 2.005494 g / cm^3
# Si number density = 20.100691 Si / 1000 Ang^3
#
#
#
# Elastic Constant Matrix: (Units=GPa)
#
#
# Indices 1 2 3 4 5 6 
#
# 1 106.0672 46.5615 2.5416 0.0000 7.6115 0.0000
# 2 46.5615 111.0184 10.4451 0.0000 -9.0298 0.0000
# 3 2.5416 10.4451 41.2780 0.0000 4.9630 0.0000
# 4 0.0000 0.0000 0.0000 6.6289 0.0000 8.4868
# 5 7.6115 -9.0298 4.9630 0.0000 29.6334 0.0000
# 6 0.0000 0.0000 0.0000 8.4868 0.0000 9.4893
#
#
#
# Elastic Compliance Matrix: (Units=1/GPa)
#
#
# Indices 1 2 3 4 5 6 
#
# 1 0.012254 -0.005675 0.001294 0.000000 -0.005094 0.000000
# 2 -0.005675 0.012177 -0.003422 0.000000 0.005741 0.000000
# 3 0.001294 -0.003422 0.025695 0.000000 -0.005679 0.000000
# 4 0.000000 0.000000 0.000000 -1.040160 0.000000 0.930278
# 5 -0.005094 0.005741 -0.005679 0.000000 0.037755 0.000000
# 6 0.000000 0.000000 0.000000 0.930278 0.000000 -0.726622
#
#
# Mechanical properties :
#
#
# Convention : Reuss Voigt Hill
#
# Bulk Modulus (GPa) = 28.96981 41.94001 35.45491
# Shear Modulus (GPa) = -3.02702 22.40468 9.68883
#
# Velocity S-wave (km/s) = -1.22849 3.34222 2.19787
# Velocity P-wave (km/s) = 3.52581 5.98366 4.91098
#
# Compressibility (1/GPa) = 0.03451870
#
# Stress axis : x y z
#
# Youngs Moduli (GPa) = 81.60694 82.12395 38.91816
#
# Poissons Ratio (x) = 0.46608 -0.05036
# Poissons Ratio (y) = 0.46315 0.13318
# Poissons Ratio (z) = -0.10560 0.28103
#
# Static dielectric constant tensor:
#      x y z
#    x 1.662800 0.000000 -0.001510 
#    y 0.000000 1.729500 0.000000 
#    z -0.001510 0.000000 1.709670 
# 
# From -- ./inp_files/52350.got.cif
#   From: 2010.05.17/outbox.cif.g08.bks.cpg/sg11_27_cif.got.tgz:52350.got - 2010.06.03 12:22:45.
