data_PCOD9163157
_publ_section_title
;
Structure prediction by ZEFSAII (Michael W. Deem and Ramdas Pophale) SiO2 
 PCOD9163157
Probable space group: P 21/M
;
_chemical_formula_sum "Si O2"
_cell_formula_units_Z 28
_cell_length_a 8.307098
_cell_length_b 11.132877
_cell_length_c 15.263403
_cell_angle_alpha 90.000000
_cell_angle_beta 115.688513
_cell_angle_gamma 90.000000
_cell_volume 1272.072675
_symmetry_space_group_name_H-M "P 21/M"
_symmetry_group_IT_number 11
_symmetry_cell_setting 'monoclinic'
loop_
_space_group_symop_operation_xyz
x,y,z
-x,1/2+y,-z
-x,-y,-z
x,1/2-y,z
loop_
_atom_site_type_symbol
_atom_site_label
_atom_site_fract_x
_atom_site_fract_y
_atom_site_fract_z
Si Si1 0.176185 0.884339 0.932211
Si Si2 0.719009 0.545873 0.462338
Si Si3 0.381769 0.117848 0.375299
Si Si4 0.656480 0.387842 0.218301
Si Si5 0.941137 0.553386 0.359554
Si Si6 0.398350 0.882949 0.162892
Si Si7 0.098338 0.952102 0.219808
O O1 0.092559 0.750000 0.914821
O O2 0.298955 0.888754 0.874710
O O3 0.291760 0.897378 0.046547
O O4 0.033750 0.989134 0.882065
O O5 0.645380 0.620907 0.526281
O O6 0.554705 0.461735 0.397451
O O7 0.805068 0.609312 0.398318
O O8 0.876754 0.467153 0.544009
O O9 0.406707 0.250000 0.347366
O O10 0.206902 0.059219 0.292615
O O11 0.606786 0.250000 0.227834
O O12 0.838891 0.428485 0.310781
O O13 0.520133 0.498449 0.200609
O O14 0.990625 0.606621 0.275909
O O15 0.487858 0.750000 0.182245
O O16 0.251359 0.881208 0.205411
#
# Coordination Sequence:
#
# PCOD9163157 Si02
#       7
#     4   4   4   4   4   4   4
#     4   9  19  37  61  90 122 158 202 253 302 352
#     4   9  19  36  55  81 114 147 183 234 305 356
#     4  10  20  36  59  86 114 146 194 250 297 349
#     4  10  21  39  65  92 117 154 208 257 296 348
#     4   9  19  37  56  80 116 150 193 245 294 348
#     4  11  23  39  58  87 129 165 196 243 307 366
#     4  10  20  36  59  85 115 155 203 247 293 348
#
# _framework density 22.011320999999999
#
# number of rings (size 3 to 8) (size 9 to 14) (size 15 to 20)
#    0.000    2.286    0.000    2.143    0.000    6.286 
#    0.000   20.000    0.000    0.000    0.000    0.000 
#    0.000    0.000    0.000    0.000    0.000    0.000 
#
# Total GULP energy -156132.957692 kJ/mol
# GULP energy per Si atom -5576.177060 kJ/mol
# Density = 2.196122 g / cm^3
# Si number density = 22.011321 Si / 1000 Ang^3
#
#
#
# Elastic Constant Matrix: (Units=GPa)
#
#
# Indices 1 2 3 4 5 6 
#
# 1 96.7075 27.7827 13.2833 0.0000 -3.2463 0.0000
# 2 27.7827 123.4002 20.8864 0.0000 18.7919 0.0000
# 3 13.2833 20.8864 94.9194 0.0000 -0.6844 0.0000
# 4 0.0000 0.0000 0.0000 0.1703 0.0000 3.1558
# 5 -3.2463 18.7919 -0.6844 0.0000 35.1615 0.0000
# 6 0.0000 0.0000 0.0000 3.1558 0.0000 -3.2881
#
#
#
# Elastic Compliance Matrix: (Units=1/GPa)
#
#
# Indices 1 2 3 4 5 6 
#
# 1 0.011354 -0.002777 -0.000960 0.000000 0.002514 0.000000
# 2 -0.002777 0.009887 -0.001827 0.000000 -0.005576 0.000000
# 3 -0.000960 -0.001827 0.011080 0.000000 0.001104 0.000000
# 4 0.000000 0.000000 0.000000 0.312589 0.000000 0.300012
# 5 0.002514 -0.005576 0.001104 0.000000 0.031674 0.000000
# 6 0.000000 0.000000 0.000000 0.300012 0.000000 -0.016188
#
#
# Mechanical properties :
#
#
# Convention : Reuss Voigt Hill
#
# Bulk Modulus (GPa) = 47.18383 48.77022 47.97702
# Shear Modulus (GPa) = 13.20696 23.28038 18.24367
#
# Velocity S-wave (km/s) = 2.45216 3.25569 2.88207
# Velocity P-wave (km/s) = 5.43141 6.02807 5.73750
#
# Compressibility (1/GPa) = 0.02119370
#
# Stress axis : x y z
#
# Youngs Moduli (GPa) = 88.07180 101.13982 90.25582
#
# Poissons Ratio (x) = 0.28083 0.08663
# Poissons Ratio (y) = 0.24455 0.16492
# Poissons Ratio (z) = 0.08454 0.18481
#
# Static dielectric constant tensor:
#      x y z
#    x 1.850190 0.000000 -0.044570 
#    y 0.000000 1.764100 0.000000 
#    z -0.044570 0.000000 1.792460 
# 
# From -- ./inp_files/47263.got.cif
#   From: 2010.05.17/outbox.cif.g08.bks.cpg/sg11_24_cif.got.tgz:47263.got - 2010.06.03 12:22:45.
