data_PCOD9163345
_publ_section_title
;
Structure prediction by ZEFSAII (Michael W. Deem and Ramdas Pophale) SiO2 
 PCOD9163345
Probable space group: P 21/M
;
_chemical_formula_sum "Si O2"
_cell_formula_units_Z 20
_cell_length_a 17.335944
_cell_length_b 8.946628
_cell_length_c 17.168172
_cell_angle_alpha 90.000000
_cell_angle_beta 155.250792
_cell_angle_gamma 90.000000
_cell_volume 1114.754169
_symmetry_space_group_name_H-M "P 21/M"
_symmetry_group_IT_number 11
_symmetry_cell_setting 'monoclinic'
loop_
_space_group_symop_operation_xyz
x,y,z
-x,1/2+y,-z
-x,-y,-z
x,1/2-y,z
loop_
_atom_site_type_symbol
_atom_site_label
_atom_site_fract_x
_atom_site_fract_y
_atom_site_fract_z
Si Si1 0.297988 0.429072 0.803998
Si Si2 0.893083 0.425072 0.973918
Si Si3 0.042871 0.070554 0.423211
Si Si4 0.484515 0.072858 0.400184
Si Si5 0.178279 0.425158 0.375529
O O1 0.312415 0.250000 0.823232
O O2 0.201654 0.465605 0.632273
O O3 0.147047 0.491020 0.726717
O O4 0.500000 0.500000 0.000000
O O5 0.862389 0.250000 0.928464
O O6 0.701376 0.509039 0.807235
O O7 0.000000 0.500000 0.000000
O O8 0.015181 0.436423 0.163130
O O9 0.013398 0.250000 0.399221
O O10 0.109827 0.031159 0.398276
O O11 0.475941 0.250000 0.400861
O O12 0.500000 0.000000 0.500000
O O13 0.655634 0.022729 0.504940
O O14 0.235748 0.250000 0.430930
#
# Coordination Sequence:
#
# PCOD9163345 Si02
#       5
#     4   4   4   4   4
#     4  10  20  36  61  88 118 153 189 233 284 344
#     4  11  22  37  59  83 111 148 193 242 291 344
#     4   9  20  39  60  85 116 152 193 236 284 341
#     4  12  24  38  58  82 113 151 194 242 291 345
#     4  10  22  40  61  84 114 152 195 241 288 343
#
# _framework density 17.941175999999999
#
# number of rings (size 3 to 8) (size 9 to 14) (size 15 to 20)
#    0.000    1.600    2.000    3.000    0.000    4.000 
#    0.000    8.000    0.000    0.000    0.000    0.000 
#    0.000    0.000    0.000    0.000    0.000    0.000 
#
# Total GULP energy -111734.168389 kJ/mol
# GULP energy per Si atom -5586.708419 kJ/mol
# Density = 1.790034 g / cm^3
# Si number density = 17.941176 Si / 1000 Ang^3
#
#
#
# Elastic Constant Matrix: (Units=GPa)
#
#
# Indices 1 2 3 4 5 6 
#
# 1 150.7271 76.4479 64.8774 0.0000 5.2733 0.0000
# 2 76.4479 125.6594 81.4387 0.0000 14.8537 0.0000
# 3 64.8774 81.4387 127.9107 0.0000 26.3846 0.0000
# 4 0.0000 0.0000 0.0000 36.0138 0.0000 8.1401
# 5 5.2733 14.8537 26.3846 0.0000 20.9783 0.0000
# 6 0.0000 0.0000 0.0000 8.1401 0.0000 29.9948
#
#
#
# Elastic Compliance Matrix: (Units=1/GPa)
#
#
# Indices 1 2 3 4 5 6 
#
# 1 0.010229 -0.004745 -0.003146 0.000000 0.004745 0.000000
# 2 -0.004745 0.015795 -0.007546 0.000000 -0.000500 0.000000
# 3 -0.003146 -0.007546 0.017491 0.000000 -0.015864 0.000000
# 4 0.000000 0.000000 0.000000 0.029582 0.000000 -0.008028
# 5 0.004745 -0.000500 -0.015864 0.000000 0.066782 0.000000
# 6 0.000000 0.000000 0.000000 -0.008028 0.000000 0.035518
#
#
# Mechanical properties :
#
#
# Convention : Reuss Voigt Hill
#
# Bulk Modulus (GPa) = 79.11764 94.42503 86.77134
# Shear Modulus (GPa) = 23.75474 29.49959 26.62717
#
# Velocity S-wave (km/s) = 3.64268 4.05932 3.85663
# Velocity P-wave (km/s) = 7.86678 8.64381 8.26443
#
# Compressibility (1/GPa) = 0.01263941
#
# Stress axis : x y z
#
# Youngs Moduli (GPa) = 97.75719 63.31233 57.17356
#
# Poissons Ratio (x) = 0.30044 0.17987
# Poissons Ratio (y) = 0.46389 0.43145
# Poissons Ratio (z) = 0.30754 0.47778
#
# Static dielectric constant tensor:
#      x y z
#    x 1.590440 0.000000 -0.005510 
#    y 0.000000 1.605000 0.000000 
#    z -0.005510 0.000000 1.631960 
# 
# From -- ./inp_files/7444.got.cif
#   From: 2010.05.17/outbox.cif.g08.bks.cpg/sg11_4_cif.got.tgz:7444.got - 2010.06.03 12:22:45.
