data_PCOD9163993
_publ_section_title
;
Structure prediction by ZEFSAII (Michael W. Deem and Ramdas Pophale) SiO2 
 PCOD9163993
Probable space group: P 21/M
;
_chemical_formula_sum "Si O2"
_cell_formula_units_Z 32
_cell_length_a 11.818664
_cell_length_b 21.953680
_cell_length_c 6.797913
_cell_angle_alpha 90.000000
_cell_angle_beta 116.044013
_cell_angle_gamma 90.000000
_cell_volume 1584.705744
_symmetry_space_group_name_H-M "P 21/M"
_symmetry_group_IT_number 11
_symmetry_cell_setting 'monoclinic'
loop_
_space_group_symop_operation_xyz
x,y,z
-x,1/2+y,-z
-x,-y,-z
x,1/2-y,z
loop_
_atom_site_type_symbol
_atom_site_label
_atom_site_fract_x
_atom_site_fract_y
_atom_site_fract_z
Si Si1 0.263917 0.415938 0.927813
Si Si2 0.703894 0.385295 0.516835
Si Si3 0.946940 0.932214 0.912441
Si Si4 0.136198 0.819451 0.059163
Si Si5 0.360913 0.682115 0.917019
Si Si6 0.754167 0.983363 0.468773
Si Si7 0.639658 0.820051 0.306625
Si Si8 0.570706 0.590832 0.569116
O O1 0.255116 0.472348 0.770131
O O2 0.283570 0.359361 0.794395
O O3 0.141819 0.414252 0.971652
O O4 0.377675 0.419382 0.171630
O O5 0.790456 0.334775 0.682976
O O6 0.656258 0.365155 0.268724
O O7 0.779178 0.447739 0.548451
O O8 0.577959 0.398903 0.545257
O O9 0.860182 0.942139 0.653245
O O10 0.042348 0.876207 0.954492
O O11 0.000000 0.000000 0.000000
O O12 0.084120 0.750000 0.020717
O O13 0.245110 0.821944 0.977788
O O14 0.361202 0.750000 0.828322
O O15 0.494344 0.675410 0.125922
O O16 0.621991 0.962914 0.468106
O O17 0.678289 0.750000 0.340115
O O18 0.637946 0.850408 0.520764
#
# Coordination Sequence:
#
# PCOD9163993 Si02
#       8
#     4   4   4   4   4   4   4   4
#     4  10  23  42  62  96 129 163 220 266 324 392
#     4  12  21  37  66  94 129 170 207 265 330 394
#     4  11  24  45  68  93 128 176 227 274 321 389
#     4  11  25  44  65  94 131 168 216 273 327 387
#     4  10  22  37  59  94 128 163 208 259 328 396
#     4  10  24  40  63  95 127 170 220 268 323 389
#     4  10  20  38  62  91 129 168 210 265 327 393
#     4  10  21  38  59  96 134 166 209 265 326 396
#
# _framework density 20.193023
#
# number of rings (size 3 to 8) (size 9 to 14) (size 15 to 20)
#    0.000    1.500    3.750    0.750    1.750    3.500 
#    0.000    5.000    0.000    0.000    0.000    0.000 
#    0.000    0.000    0.000    0.000    0.000    0.000 
#
# Total GULP energy -178598.524476 kJ/mol
# GULP energy per Si atom -5581.203890 kJ/mol
# Density = 2.014706 g / cm^3
# Si number density = 20.193023 Si / 1000 Ang^3
#
#
#
# Elastic Constant Matrix: (Units=GPa)
#
#
# Indices 1 2 3 4 5 6 
#
# 1 65.4357 37.5405 11.9499 0.0000 4.2470 0.0000
# 2 37.5405 100.8527 3.1719 0.0000 6.8683 0.0000
# 3 11.9499 3.1719 67.5874 0.0000 0.6322 0.0000
# 4 0.0000 0.0000 0.0000 38.9301 0.0000 0.0827
# 5 4.2470 6.8683 0.6322 0.0000 23.5667 0.0000
# 6 0.0000 0.0000 0.0000 0.0827 0.0000 29.4881
#
#
#
# Elastic Compliance Matrix: (Units=1/GPa)
#
#
# Indices 1 2 3 4 5 6 
#
# 1 0.020149 -0.007303 -0.003207 0.000000 -0.001417 0.000000
# 2 -0.007303 0.012777 0.000714 0.000000 -0.002427 0.000000
# 3 -0.003207 0.000714 0.015329 0.000000 -0.000042 0.000000
# 4 0.000000 0.000000 0.000000 0.025687 0.000000 -0.000072
# 5 -0.001417 -0.002427 -0.000042 0.000000 0.043396 0.000000
# 6 0.000000 0.000000 0.000000 -0.000072 0.000000 0.033912
#
#
# Mechanical properties :
#
#
# Convention : Reuss Voigt Hill
#
# Bulk Modulus (GPa) = 34.88559 37.68892 36.28726
# Shear Modulus (GPa) = 27.71668 30.47787 29.09728
#
# Velocity S-wave (km/s) = 3.70886 3.88922 3.80011
# Velocity P-wave (km/s) = 5.97114 6.23481 6.10440
#
# Compressibility (1/GPa) = 0.02866513
#
# Stress axis : x y z
#
# Youngs Moduli (GPa) = 49.62928 78.26795 65.23385
#
# Poissons Ratio (x) = 0.57158 0.20918
# Poissons Ratio (y) = 0.36244 -0.04660
# Poissons Ratio (z) = 0.15914 -0.05591
#
# Static dielectric constant tensor:
#      x y z
#    x 1.717940 0.000000 0.013540 
#    y 0.000000 1.747640 0.000000 
#    z 0.013540 0.000000 1.701790 
# 
# From -- ./inp_files/5500.got.cif
#   From: 2010.05.17/outbox.cif.g08.bks.cpg/sg11_3_cif.got.tgz:5500.got - 2010.06.03 12:22:45.
