data_PCOD9163471
_publ_section_title
;
Structure prediction by ZEFSAII (Michael W. Deem and Ramdas Pophale) SiO2 
 PCOD9163471
Probable space group: P 21/M
;
_chemical_formula_sum "Si O2"
_cell_formula_units_Z 28
_cell_length_a 15.362785
_cell_length_b 8.556012
_cell_length_c 11.828560
_cell_angle_alpha 90.000000
_cell_angle_beta 114.204312
_cell_angle_gamma 90.000000
_cell_volume 1418.112086
_symmetry_space_group_name_H-M "P 21/M"
_symmetry_group_IT_number 11
_symmetry_cell_setting 'monoclinic'
loop_
_space_group_symop_operation_xyz
x,y,z
-x,1/2+y,-z
-x,-y,-z
x,1/2-y,z
loop_
_atom_site_type_symbol
_atom_site_label
_atom_site_fract_x
_atom_site_fract_y
_atom_site_fract_z
Si Si1 0.973760 0.561214 0.363481
Si Si2 0.638800 0.438597 0.514608
Si Si3 0.107676 0.063183 0.053350
Si Si4 0.206463 0.438893 0.871464
Si Si5 0.588568 0.062674 0.975446
Si Si6 0.541498 0.437858 0.698133
Si Si7 0.155866 0.561455 0.316628
O O1 0.974390 0.750000 0.364313
O O2 0.870194 0.510577 0.263570
O O3 0.000000 0.500000 0.500000
O O4 0.057545 0.510085 0.322338
O O5 0.632420 0.250000 0.505787
O O6 0.601939 0.489046 0.620102
O O7 0.566364 0.508405 0.385052
O O8 0.749363 0.484495 0.564372
O O9 0.103658 0.250000 0.050741
O O10 0.160382 0.003332 0.192799
O O11 0.161134 0.012931 0.967899
O O12 0.000000 0.000000 0.000000
O O13 0.211905 0.250000 0.872261
O O14 0.311794 0.506431 0.919420
O O15 0.586101 0.250000 0.973593
O O16 0.579177 0.006689 0.839597
O O17 0.500000 0.000000 0.000000
O O18 0.544561 0.250000 0.700817
O O19 0.154723 0.750000 0.309321
#
# Coordination Sequence:
#
# PCOD9163471 Si02
#       7
#     4   4   4   4   4   4   4
#     4  10  22  40  58  80 115 154 194 243 292 345
#     4   9  18  33  58  85 112 147 185 233 289 346
#     4  11  21  35  59  89 121 154 191 238 293 350
#     4  10  22  41  61  86 121 155 190 244 300 347
#     4  11  24  41  62  87 116 154 199 246 293 348
#     4   9  19  36  55  81 115 147 184 235 291 343
#     4  10  20  37  57  83 118 151 191 242 292 345
#
# _framework density 19.744558999999999
#
# number of rings (size 3 to 8) (size 9 to 14) (size 15 to 20)
#    0.000    2.000    1.429    1.714    0.000    6.286 
#    0.000    5.714    0.000    0.000    0.000    0.000 
#    0.000    0.000    0.000    0.000    0.000    0.000 
#
# Total GULP energy -156389.053656 kJ/mol
# GULP energy per Si atom -5585.323345 kJ/mol
# Density = 1.969962 g / cm^3
# Si number density = 19.744559 Si / 1000 Ang^3
#
#
#
# Elastic Constant Matrix: (Units=GPa)
#
#
# Indices 1 2 3 4 5 6 
#
# 1 110.0997 22.1268 57.3548 0.0000 30.4649 0.0000
# 2 22.1268 8.5647 19.0155 0.0000 4.2988 0.0000
# 3 57.3548 19.0155 137.4791 0.0000 21.0169 0.0000
# 4 0.0000 0.0000 0.0000 34.1426 0.0000 3.8616
# 5 30.4649 4.2988 21.0169 0.0000 36.8679 0.0000
# 6 0.0000 0.0000 0.0000 3.8616 0.0000 25.9945
#
#
#
# Elastic Compliance Matrix: (Units=1/GPa)
#
#
# Indices 1 2 3 4 5 6 
#
# 1 0.023752 -0.053738 -0.000475 0.000000 -0.013090 0.000000
# 2 -0.053738 0.291737 -0.021384 0.000000 0.022579 0.000000
# 3 -0.000475 -0.021384 0.010942 0.000000 -0.003352 0.000000
# 4 0.000000 0.000000 0.000000 0.029789 0.000000 -0.004425
# 5 -0.013090 0.022579 -0.003352 0.000000 0.037219 0.000000
# 6 0.000000 0.000000 0.000000 -0.004425 0.000000 0.039127
#
#
# Mechanical properties :
#
#
# Convention : Reuss Voigt Hill
#
# Bulk Modulus (GPa) = 5.70660 50.34864 28.02762
# Shear Modulus (GPa) = 7.78604 29.91075 18.84839
#
# Velocity S-wave (km/s) = 1.98795 3.89638 3.09303
# Velocity P-wave (km/s) = 2.85758 6.76740 5.19439
#
# Compressibility (1/GPa) = 0.17523566
#
# Stress axis : x y z
#
# Youngs Moduli (GPa) = 42.10147 3.42774 91.38896
#
# Poissons Ratio (x) = 0.18420 0.04342
# Poissons Ratio (y) = 2.26247 1.95430
# Poissons Ratio (z) = 0.02000 0.07330
#
# Static dielectric constant tensor:
#      x y z
#    x 1.690970 0.000000 0.004110 
#    y 0.000000 1.675230 0.000000 
#    z 0.004110 0.000000 1.689620 
# 
# From -- ./inp_files/38436.got.cif
#   From: 2010.05.17/outbox.cif.g08.bks.cpg/sg11_20_cif.got.tgz:38436.got - 2010.06.03 12:22:45.
