data_PCOD9163752
_publ_section_title
;
Structure prediction by ZEFSAII (Michael W. Deem and Ramdas Pophale) SiO2 
 PCOD9163752
Probable space group: P 21/M
;
_chemical_formula_sum "Si O2"
_cell_formula_units_Z 32
_cell_length_a 11.837259
_cell_length_b 8.927727
_cell_length_c 15.486113
_cell_angle_alpha 90.000000
_cell_angle_beta 84.881979
_cell_angle_gamma 90.000000
_cell_volume 1630.044674
_symmetry_space_group_name_H-M "P 21/M"
_symmetry_group_IT_number 11
_symmetry_cell_setting 'monoclinic'
loop_
_space_group_symop_operation_xyz
x,y,z
-x,1/2+y,-z
-x,-y,-z
x,1/2-y,z
loop_
_atom_site_type_symbol
_atom_site_label
_atom_site_fract_x
_atom_site_fract_y
_atom_site_fract_z
Si Si1 0.562582 0.926883 0.865297
Si Si2 0.325910 0.072052 0.463899
Si Si3 0.917666 0.929146 0.076408
Si Si4 0.944842 0.072410 0.258270
Si Si5 0.528054 0.072528 0.694111
Si Si6 0.927998 0.572030 0.581768
Si Si7 0.309870 0.926548 0.653414
Si Si8 0.337325 0.071166 0.958691
O O1 0.559341 0.750000 0.847680
O O2 0.589605 0.013831 0.775834
O O3 0.439626 0.982572 0.906808
O O4 0.647662 0.953579 0.939408
O O5 0.344443 0.250000 0.473972
O O6 0.203990 0.048060 0.427287
O O7 0.418688 0.002270 0.394419
O O8 0.321858 0.991944 0.556454
O O9 0.923528 0.750000 0.071146
O O10 0.786650 0.972632 0.066035
O O11 0.952371 0.985799 0.168447
O O12 0.000000 0.000000 0.000000
O O13 0.963425 0.250000 0.241446
O O14 0.818170 0.054173 0.305140
O O15 0.029978 0.019087 0.327502
O O16 0.532864 0.250000 0.687736
O O17 0.398583 0.015396 0.706346
O O18 0.949990 0.750000 0.577902
O O19 0.000000 0.500000 0.500000
O O20 0.336823 0.750000 0.652500
O O21 0.353896 0.250000 0.942338
#
# Coordination Sequence:
#
# PCOD9163752 Si02
#       8
#     4   4   4   4   4   4   4   4
#     4  10  20  37  62  89 116 150 194 244 298 357
#     4  11  23  39  60  86 118 157 199 245 299 354
#     4  11  24  41  61  87 121 159 199 246 298 354
#     4  10  22  40  63  91 121 156 197 245 299 355
#     4  12  25  39  56  83 122 159 198 244 296 357
#     4  10  21  39  63  89 119 155 198 248 297 351
#     4  11  22  39  63  88 119 155 197 245 296 356
#     4   9  20  39  62  87 117 153 194 242 298 356
#
# _framework density 19.631364000000001
#
# number of rings (size 3 to 8) (size 9 to 14) (size 15 to 20)
#    0.000    1.500    1.250    3.750    0.000    6.500 
#    0.000    5.000    0.000    0.000    0.000    0.000 
#    0.000    0.000    0.000    0.000    0.000    0.000 
#
# Total GULP energy -178941.843291 kJ/mol
# GULP energy per Si atom -5591.932603 kJ/mol
# Density = 1.958668 g / cm^3
# Si number density = 19.631364 Si / 1000 Ang^3
#
#
#
# Elastic Constant Matrix: (Units=GPa)
#
#
# Indices 1 2 3 4 5 6 
#
# 1 43.3852 22.0240 19.2889 0.0000 16.4798 0.0000
# 2 22.0240 54.4848 31.1533 0.0000 1.4473 0.0000
# 3 19.2889 31.1533 116.4285 0.0000 14.5527 0.0000
# 4 0.0000 0.0000 0.0000 39.0198 0.0000 1.0589
# 5 16.4798 1.4473 14.5527 0.0000 27.7882 0.0000
# 6 0.0000 0.0000 0.0000 1.0589 0.0000 25.2710
#
#
#
# Elastic Compliance Matrix: (Units=1/GPa)
#
#
# Indices 1 2 3 4 5 6 
#
# 1 0.039427 -0.015617 0.000500 0.000000 -0.022831 0.000000
# 2 -0.015617 0.027964 -0.006282 0.000000 0.011095 0.000000
# 3 0.000500 -0.006282 0.010896 0.000000 -0.005676 0.000000
# 4 0.000000 0.000000 0.000000 0.025657 0.000000 -0.001075
# 5 -0.022831 0.011095 -0.005676 0.000000 0.051921 0.000000
# 6 0.000000 0.000000 0.000000 -0.001075 0.000000 0.039616
#
#
# Mechanical properties :
#
#
# Convention : Reuss Voigt Hill
#
# Bulk Modulus (GPa) = 28.17678 39.91452 34.04565
# Shear Modulus (GPa) = 19.99136 27.87128 23.93132
#
# Velocity S-wave (km/s) = 3.19460 3.77202 3.49526
# Velocity P-wave (km/s) = 5.29069 6.27272 5.80252
#
# Compressibility (1/GPa) = 0.03549022
#
# Stress axis : x y z
#
# Youngs Moduli (GPa) = 25.36339 35.76081 91.77357
#
# Poissons Ratio (x) = 0.55847 -0.04593
# Poissons Ratio (y) = 0.39610 0.57651
# Poissons Ratio (z) = -0.01269 0.22464
#
# Static dielectric constant tensor:
#      x y z
#    x 1.706070 0.000000 0.029490 
#    y 0.000000 1.653280 0.000000 
#    z 0.029490 0.000000 1.682180 
# 
# From -- ./inp_files/49364.got.cif
#   From: 2010.05.17/outbox.cif.g08.bks.cpg/sg11_25_cif.got.tgz:49364.got - 2010.06.03 12:22:45.
