data_PCOD9163271
_publ_section_title
;
Structure prediction by ZEFSAII (Michael W. Deem and Ramdas Pophale) SiO2 
 PCOD9163271
Probable space group: P 21/M
;
_chemical_formula_sum "Si O2"
_cell_formula_units_Z 28
_cell_length_a 9.730398
_cell_length_b 18.224624
_cell_length_c 14.314622
_cell_angle_alpha 90.000000
_cell_angle_beta 34.589833
_cell_angle_gamma 90.000000
_cell_volume 1441.073657
_symmetry_space_group_name_H-M "P 21/M"
_symmetry_group_IT_number 11
_symmetry_cell_setting 'monoclinic'
loop_
_space_group_symop_operation_xyz
x,y,z
-x,1/2+y,-z
-x,-y,-z
x,1/2-y,z
loop_
_atom_site_type_symbol
_atom_site_label
_atom_site_fract_x
_atom_site_fract_y
_atom_site_fract_z
Si Si1 0.595182 0.335873 0.785941
Si Si2 0.122662 0.513393 0.830461
Si Si3 0.369937 0.468866 0.982514
Si Si4 0.444419 0.906034 0.398608
Si Si5 0.265794 0.476866 0.379443
Si Si6 0.386687 0.664126 0.624710
Si Si7 0.850638 0.667192 0.481953
O O1 0.553968 0.250000 0.813219
O O2 0.404074 0.381655 0.953055
O O3 0.574597 0.362202 0.689064
O O4 0.863555 0.351697 0.678974
O O5 0.299767 0.443921 0.720173
O O6 0.253374 0.594164 0.750285
O O7 0.000000 0.500000 0.000000
O O8 0.908120 0.511656 0.875089
O O9 0.525921 0.497851 0.806950
O O10 0.500000 0.500000 0.000000
O O11 0.360609 0.856134 0.530445
O O12 0.297928 0.981109 0.459595
O O13 0.270247 0.390231 0.381588
O O14 0.000000 0.500000 0.500000
O O15 0.309656 0.750000 0.686973
O O16 0.673402 0.662292 0.491867
O O17 0.839375 0.750000 0.522792
#
# Coordination Sequence:
#
# PCOD9163271 Si02
#       7
#     4   4   4   4   4   4   4
#     4  10  21  39  61  87 122 162 200 251 311 365
#     4  12  23  42  61  91 126 169 204 252 315 374
#     4  11  25  38  61  89 121 158 208 248 306 370
#     4  11  22  38  66  90 120 160 215 258 299 371
#     4  11  20  38  64  88 116 161 206 248 301 362
#     4  11  25  40  62  96 126 159 206 261 309 360
#     4  10  20  36  60  87 118 153 198 249 301 354
#
# _framework density 19.429957999999999
#
# number of rings (size 3 to 8) (size 9 to 14) (size 15 to 20)
#    0.000    1.143    7.143    0.857    4.000    0.571 
#    0.000    0.714    0.000    1.714    0.000    0.000 
#    0.000    0.000    0.000    0.000    0.000    0.000 
#
# Total GULP energy -155882.860093 kJ/mol
# GULP energy per Si atom -5567.245003 kJ/mol
# Density = 1.938573 g / cm^3
# Si number density = 19.429958 Si / 1000 Ang^3
#
#
#
# Elastic Constant Matrix: (Units=GPa)
#
#
# Indices 1 2 3 4 5 6 
#
# 1 113.9134 27.2388 29.3514 0.0000 -22.3656 0.0000
# 2 27.2388 71.7715 9.6062 0.0000 2.3341 0.0000
# 3 29.3514 9.6062 33.9771 0.0000 -10.5340 0.0000
# 4 0.0000 0.0000 0.0000 27.6592 0.0000 -5.0069
# 5 -22.3656 2.3341 -10.5340 0.0000 37.3559 0.0000
# 6 0.0000 0.0000 0.0000 -5.0069 0.0000 32.7230
#
#
#
# Elastic Compliance Matrix: (Units=1/GPa)
#
#
# Indices 1 2 3 4 5 6 
#
# 1 0.012999 -0.004003 -0.008336 0.000000 0.005682 0.000000
# 2 -0.004003 0.015889 -0.002285 0.000000 -0.004034 0.000000
# 3 -0.008336 -0.002285 0.039203 0.000000 0.006207 0.000000
# 4 0.000000 0.000000 0.000000 0.037184 0.000000 0.005689
# 5 0.005682 -0.004034 0.006207 0.000000 0.032174 0.000000
# 6 0.000000 0.000000 0.000000 0.005689 0.000000 0.031430
#
#
# Mechanical properties :
#
#
# Convention : Reuss Voigt Hill
#
# Bulk Modulus (GPa) = 25.74416 39.11718 32.43067
# Shear Modulus (GPa) = 23.68820 29.77866 26.73343
#
# Velocity S-wave (km/s) = 3.49543 3.91911 3.71332
# Velocity P-wave (km/s) = 5.43776 6.37616 5.92556
#
# Compressibility (1/GPa) = 0.03884376
#
# Stress axis : x y z
#
# Youngs Moduli (GPa) = 76.92743 62.93587 25.50814
#
# Poissons Ratio (x) = 0.25190 0.21264
# Poissons Ratio (y) = 0.30790 0.05829
# Poissons Ratio (z) = 0.64128 0.14382
#
# Static dielectric constant tensor:
#      x y z
#    x 1.732810 0.000000 -0.028580 
#    y 0.000000 1.720450 0.000000 
#    z -0.028580 0.000000 1.690310 
# 
# From -- ./inp_files/47988.got.cif
#   From: 2010.05.17/outbox.cif.g08.bks.cpg/sg11_24_cif.got.tgz:47988.got - 2010.06.03 12:22:45.
