data_PCOD9163635
_publ_section_title
;
Structure prediction by ZEFSAII (Michael W. Deem and Ramdas Pophale) SiO2 
 PCOD9163635
Probable space group: P 21/M
;
_chemical_formula_sum "Si O2"
_cell_formula_units_Z 32
_cell_length_a 5.343160
_cell_length_b 24.614794
_cell_length_c 11.538813
_cell_angle_alpha 90.000000
_cell_angle_beta 74.840294
_cell_angle_gamma 90.000000
_cell_volume 1464.782433
_symmetry_space_group_name_H-M "P 21/M"
_symmetry_group_IT_number 11
_symmetry_cell_setting 'monoclinic'
loop_
_space_group_symop_operation_xyz
x,y,z
-x,1/2+y,-z
-x,-y,-z
x,1/2-y,z
loop_
_atom_site_type_symbol
_atom_site_label
_atom_site_fract_x
_atom_site_fract_y
_atom_site_fract_z
Si Si1 0.703848 0.376195 0.758459
Si Si2 0.525222 0.912326 0.447979
Si Si3 0.741022 0.688023 0.100399
Si Si4 0.634688 0.934818 0.815105
Si Si5 0.935861 0.471942 0.867681
Si Si6 0.937130 0.394291 0.076725
Si Si7 0.655073 0.476260 0.350213
Si Si8 0.151159 0.310403 0.635409
O O1 0.567834 0.408942 0.672995
O O2 0.507968 0.351383 0.875736
O O3 0.897034 0.417378 0.796311
O O4 0.851306 0.327729 0.674484
O O5 0.302593 0.925365 0.568670
O O6 0.688166 0.857914 0.446228
O O7 0.674767 0.969757 0.426928
O O8 0.695852 0.750000 0.068517
O O9 0.786124 0.689332 0.234105
O O10 0.972581 0.659223 0.003607
O O11 0.874533 0.899068 0.834100
O O12 0.605825 0.956895 0.686952
O O13 0.369891 0.900964 0.866511
O O14 0.679258 0.991405 0.880078
O O15 0.156775 0.507283 0.778079
O O16 0.998634 0.445625 0.983891
O O17 0.195268 0.250000 0.585089
#
# Coordination Sequence:
#
# PCOD9163635 Si02
#       8
#     4   4   4   4   4   4   4   4
#     4  11  19  36  62  91 127 158 199 260 320 386
#     4  10  22  38  61  89 126 164 205 258 323 380
#     4  10  22  39  60  89 123 161 208 264 320 373
#     4  12  26  40  61  92 133 171 212 251 312 377
#     4  12  22  38  59  92 135 167 205 253 315 387
#     4  12  25  40  62  92 128 172 212 259 311 382
#     4  11  23  39  58  93 127 171 209 257 316 386
#     4  10  20  37  60  89 121 157 205 262 318 379
#
# _framework density 21.846247000000002
#
# number of rings (size 3 to 8) (size 9 to 14) (size 15 to 20)
#    0.000    1.000    5.000    2.625    1.750    2.000 
#    0.000    0.000    0.000    1.500    0.000    0.000 
#    0.000    0.000    0.000    0.000    0.000    0.000 
#
# Total GULP energy -178300.641195 kJ/mol
# GULP energy per Si atom -5571.895037 kJ/mol
# Density = 2.179652 g / cm^3
# Si number density = 21.846247 Si / 1000 Ang^3
#
#
#
# Elastic Constant Matrix: (Units=GPa)
#
#
# Indices 1 2 3 4 5 6 
#
# 1 88.4969 31.1833 29.9000 0.0000 -4.6978 0.0000
# 2 31.1833 107.4866 30.0663 0.0000 -6.2055 0.0000
# 3 29.9000 30.0663 77.1553 0.0000 -3.1376 0.0000
# 4 0.0000 0.0000 0.0000 34.9339 0.0000 -11.0096
# 5 -4.6978 -6.2055 -3.1376 0.0000 21.1929 0.0000
# 6 0.0000 0.0000 0.0000 -11.0096 0.0000 20.1663
#
#
#
# Elastic Compliance Matrix: (Units=1/GPa)
#
#
# Indices 1 2 3 4 5 6 
#
# 1 0.013768 -0.002723 -0.004208 0.000000 0.001632 0.000000
# 2 -0.002723 0.011110 -0.003186 0.000000 0.002178 0.000000
# 3 -0.004208 -0.003186 0.015853 0.000000 0.000481 0.000000
# 4 0.000000 0.000000 0.000000 0.034574 0.000000 0.018875
# 5 0.001632 0.002178 0.000481 0.000000 0.048256 0.000000
# 6 0.000000 0.000000 0.000000 0.018875 0.000000 0.059893
#
#
# Mechanical properties :
#
#
# Convention : Reuss Voigt Hill
#
# Bulk Modulus (GPa) = 48.78686 50.60421 49.69554
# Shear Modulus (GPa) = 23.75079 27.39122 25.57100
#
# Velocity S-wave (km/s) = 3.30082 3.54477 3.42497
# Velocity P-wave (km/s) = 6.07516 6.32202 6.19982
#
# Compressibility (1/GPa) = 0.02049732
#
# Stress axis : x y z
#
# Youngs Moduli (GPa) = 72.63415 90.00658 63.08123
#
# Poissons Ratio (x) = 0.24508 0.26544
# Poissons Ratio (y) = 0.19778 0.20096
# Poissons Ratio (z) = 0.30564 0.28674
#
# Static dielectric constant tensor:
#      x y z
#    x 1.920930 0.000000 -0.051950 
#    y 0.000000 1.816560 0.000000 
#    z -0.051950 0.000000 1.915390 
# 
# From -- ./inp_files/30243.got.cif
#   From: 2010.05.17/outbox.cif.g08.bks.cpg/sg11_16_cif.got.tgz:30243.got - 2010.06.03 12:22:45.
