data_PCOD9163838
_publ_section_title
;
Structure prediction by ZEFSAII (Michael W. Deem and Ramdas Pophale) SiO2 
 PCOD9163838
Probable space group: P 21/M
;
_chemical_formula_sum "Si O2"
_cell_formula_units_Z 20
_cell_length_a 7.899256
_cell_length_b 14.761538
_cell_length_c 7.269952
_cell_angle_alpha 90.000000
_cell_angle_beta 78.480651
_cell_angle_gamma 90.000000
_cell_volume 830.638741
_symmetry_space_group_name_H-M "P 21/M"
_symmetry_group_IT_number 11
_symmetry_cell_setting 'monoclinic'
loop_
_space_group_symop_operation_xyz
x,y,z
-x,1/2+y,-z
-x,-y,-z
x,1/2-y,z
loop_
_atom_site_type_symbol
_atom_site_label
_atom_site_fract_x
_atom_site_fract_y
_atom_site_fract_z
Si Si1 0.731605 0.750000 0.072761
Si Si2 0.727847 0.383593 0.387073
Si Si3 0.923944 0.580360 0.897942
Si Si4 0.191569 0.453092 0.436034
Si Si5 0.808405 0.750000 0.428256
Si Si6 0.578783 0.250000 0.132721
Si Si7 0.214390 0.750000 0.294102
O O1 0.667086 0.750000 0.295667
O O2 0.841134 0.658931 0.033332
O O3 0.602470 0.750000 0.931077
O O4 0.699341 0.488394 0.443746
O O5 0.607723 0.334981 0.263551
O O6 0.734103 0.333679 0.583378
O O7 0.917996 0.375752 0.251735
O O8 0.783604 0.539210 0.787412
O O9 0.000000 0.500000 0.000000
O O10 0.204806 0.346512 0.470221
O O11 0.000000 0.500000 0.500000
O O12 0.007886 0.750000 0.318736
O O13 0.706466 0.250000 0.927360
#
# Coordination Sequence:
#
# PCOD9163838 Si02
#       7
#     2   4   4   4   2   2   2
#     4  12  25  43  63 105 138 179 224 280 350 414
#     4  10  22  43  68 103 133 178 236 279 340 413
#     4  11  22  40  74 104 132 174 230 296 346 395
#     4  10  20  37  66 104 131 163 222 293 344 392
#     4  12  20  39  66  98 134 167 233 295 336 393
#     4  11  27  43  65  94 146 190 225 272 345 430
#     4  11  20  41  70  99 128 184 236 277 345 405
#
# _framework density 24.077857999999999
#
# number of rings (size 3 to 8) (size 9 to 14) (size 15 to 20)
#    0.000    1.200    4.000    5.400    2.800    0.000 
#    7.200    5.000    0.000    0.000    0.000    0.000 
#    0.000    0.000    0.000    0.000    0.000    0.000 
#
# Total GULP energy -111730.510959 kJ/mol
# GULP energy per Si atom -5586.525548 kJ/mol
# Density = 2.402306 g / cm^3
# Si number density = 24.077858 Si / 1000 Ang^3
#
#
#
# Elastic Constant Matrix: (Units=GPa)
#
#
# Indices 1 2 3 4 5 6 
#
# 1 79.4130 37.6752 37.0830 0.0000 19.9401 0.0000
# 2 37.6752 173.3483 72.6217 0.0000 29.4756 0.0000
# 3 37.0830 72.6217 154.0455 0.0000 40.6343 0.0000
# 4 0.0000 0.0000 0.0000 48.6963 0.0000 18.2272
# 5 19.9401 29.4756 40.6343 0.0000 48.6259 0.0000
# 6 0.0000 0.0000 0.0000 18.2272 0.0000 5.5845
#
#
#
# Elastic Compliance Matrix: (Units=1/GPa)
#
#
# Indices 1 2 3 4 5 6 
#
# 1 0.015259 -0.001951 -0.001815 0.000000 -0.003558 0.000000
# 2 -0.001951 0.007586 -0.002700 0.000000 -0.001542 0.000000
# 3 -0.001815 -0.002700 0.009715 0.000000 -0.005737 0.000000
# 4 0.000000 0.000000 0.000000 -0.092636 0.000000 0.302352
# 5 -0.003558 -0.001542 -0.005737 0.000000 0.027753 0.000000
# 6 0.000000 0.000000 0.000000 0.302352 0.000000 -0.807773
#
#
# Mechanical properties :
#
#
# Convention : Reuss Voigt Hill
#
# Bulk Modulus (GPa) = 50.94755 77.95186 64.44970
# Shear Modulus (GPa) = -6.09295 37.87646 15.89176
#
# Velocity S-wave (km/s) = -1.59249 3.97051 2.57186
# Velocity P-wave (km/s) = 4.22186 7.31199 5.97031
#
# Compressibility (1/GPa) = 0.01962803
#
# Stress axis : x y z
#
# Youngs Moduli (GPa) = 65.53557 131.82087 102.93736
#
# Poissons Ratio (x) = 0.25718 0.18683
# Poissons Ratio (y) = 0.12786 0.27791
# Poissons Ratio (z) = 0.11894 0.35589
#
# Static dielectric constant tensor:
#      x y z
#    x 2.009820 0.000000 0.009160 
#    y 0.000000 2.008330 0.000000 
#    z 0.009160 0.000000 1.962430 
# 
# From -- ./inp_files/12361.got.cif
#   From: 2010.05.17/outbox.cif.g08.bks.cpg/sg11_7_cif.got.tgz:12361.got - 2010.06.03 12:22:45.
