data_PCOD9163470
_publ_section_title
;
Structure prediction by ZEFSAII (Michael W. Deem and Ramdas Pophale) SiO2 
 PCOD9163470
Probable space group: P 21/M
;
_chemical_formula_sum "Si O2"
_cell_formula_units_Z 28
_cell_length_a 8.103589
_cell_length_b 24.135112
_cell_length_c 14.183456
_cell_angle_alpha 90.000000
_cell_angle_beta 149.734371
_cell_angle_gamma 90.000000
_cell_volume 1398.130125
_symmetry_space_group_name_H-M "P 21/M"
_symmetry_group_IT_number 11
_symmetry_cell_setting 'monoclinic'
loop_
_space_group_symop_operation_xyz
x,y,z
-x,1/2+y,-z
-x,-y,-z
x,1/2-y,z
loop_
_atom_site_type_symbol
_atom_site_label
_atom_site_fract_x
_atom_site_fract_y
_atom_site_fract_z
Si Si1 0.257380 0.188579 0.153528
Si Si2 0.745637 0.619865 0.471896
Si Si3 0.497381 0.687920 0.185249
Si Si4 0.494761 0.912483 0.848400
Si Si5 0.585884 0.184362 0.518479
Si Si6 0.341916 0.474351 0.700856
Si Si7 0.235921 0.110832 0.817412
O O1 0.368126 0.250000 0.175476
O O2 0.399869 0.138046 0.165600
O O3 0.362399 0.183623 0.314508
O O4 0.864905 0.186880 0.950779
O O5 0.747688 0.661369 0.383356
O O6 0.586645 0.652927 0.479482
O O7 0.548947 0.567628 0.328453
O O8 0.106066 0.597372 0.674015
O O9 0.596816 0.750000 0.213635
O O10 0.491501 0.653055 0.087005
O O11 0.555527 0.972175 0.830697
O O12 0.685512 0.909445 0.040249
O O13 0.652913 0.250000 0.572892
O O14 0.907164 0.147679 0.654486
O O15 0.258646 0.438812 0.753243
O O16 0.000000 0.500000 0.500000
#
# Coordination Sequence:
#
# PCOD9163470 Si02
#       7
#     4   4   4   4   4   4   4
#     4  10  22  38  59  85 117 152 192 237 287 343
#     4  10  21  37  59  84 113 150 189 235 286 338
#     4  10  20  37  57  83 115 149 189 237 287 342
#     4  11  22  39  59  84 116 151 191 236 286 342
#     4  11  22  38  58  86 118 151 190 235 284 341
#     4   9  20  40  60  82 113 150 193 239 284 338
#     4  11  22  37  60  86 115 153 192 235 287 340
#
# _framework density 20.026748000000001
#
# number of rings (size 3 to 8) (size 9 to 14) (size 15 to 20)
#    0.000    1.714    0.000    5.571    0.000    4.571 
#    0.000   14.286    0.000    0.000    0.000    0.000 
#    0.000    0.000    0.000    0.000    0.000    0.000 
#
# Total GULP energy -156207.456519 kJ/mol
# GULP energy per Si atom -5578.837733 kJ/mol
# Density = 1.998117 g / cm^3
# Si number density = 20.026748 Si / 1000 Ang^3
#
#
#
# Elastic Constant Matrix: (Units=GPa)
#
#
# Indices 1 2 3 4 5 6 
#
# 1 61.6496 41.7266 0.8354 0.0000 -16.8356 0.0000
# 2 41.7266 157.9113 25.3509 0.0000 -19.7685 0.0000
# 3 0.8354 25.3509 65.7821 0.0000 -17.4179 0.0000
# 4 0.0000 0.0000 0.0000 -121.8162 0.0000 -50.5707
# 5 -16.8356 -19.7685 -17.4179 0.0000 30.0870 0.0000
# 6 0.0000 0.0000 0.0000 -50.5707 0.0000 20.9857
#
#
#
# Elastic Compliance Matrix: (Units=1/GPa)
#
#
# Indices 1 2 3 4 5 6 
#
# 1 0.023172 -0.005388 0.005052 0.000000 0.012351 0.000000
# 2 -0.005388 0.008322 -0.002940 0.000000 0.000751 0.000000
# 3 0.005052 -0.002940 0.019496 0.000000 0.012182 0.000000
# 4 0.000000 0.000000 0.000000 -0.004104 0.000000 -0.009889
# 5 0.012351 0.000751 0.012182 0.000000 0.047694 0.000000
# 6 0.000000 0.000000 0.000000 -0.009889 0.000000 0.023821
#
#
# Mechanical properties :
#
#
# Convention : Reuss Voigt Hill
#
# Bulk Modulus (GPa) = 22.50248 46.79653 34.64951
# Shear Modulus (GPa) = 35.77418 0.34664 18.06041
#
# Velocity S-wave (km/s) = 4.23107 0.41649 3.00628
# Velocity P-wave (km/s) = 5.92705 4.86303 5.42121
#
# Compressibility (1/GPa) = 0.04443954
#
# Stress axis : x y z
#
# Youngs Moduli (GPa) = 43.15600 120.15791 51.29230
#
# Poissons Ratio (x) = 0.64739 -0.25915
# Poissons Ratio (y) = 0.23252 0.15079
# Poissons Ratio (z) = -0.21804 0.35325
#
# Static dielectric constant tensor:
#      x y z
#    x 1.706440 0.000000 0.016590 
#    y 0.000000 1.774000 0.000000 
#    z 0.016590 0.000000 1.697850 
# 
# From -- ./inp_files/23220.got.cif
#   From: 2010.05.17/outbox.cif.g08.bks.cpg/sg11_12_cif.got.tgz:23220.got - 2010.06.03 12:22:45.
