data_PCOD9163336
_publ_section_title
;
Structure prediction by ZEFSAII (Michael W. Deem and Ramdas Pophale) SiO2 
 PCOD9163336
Probable space group: P 21/M
;
_chemical_formula_sum "Si O2"
_cell_formula_units_Z 32
_cell_length_a 15.647972
_cell_length_b 7.745549
_cell_length_c 24.926324
_cell_angle_alpha 90.000000
_cell_angle_beta 28.285324
_cell_angle_gamma 90.000000
_cell_volume 1431.597705
_symmetry_space_group_name_H-M "P 21/M"
_symmetry_group_IT_number 11
_symmetry_cell_setting 'monoclinic'
loop_
_space_group_symop_operation_xyz
x,y,z
-x,1/2+y,-z
-x,-y,-z
x,1/2-y,z
loop_
_atom_site_type_symbol
_atom_site_label
_atom_site_fract_x
_atom_site_fract_y
_atom_site_fract_z
Si Si1 0.874979 0.456183 0.518843
Si Si2 0.466849 0.039192 0.762202
Si Si3 0.863231 0.956485 0.123715
Si Si4 0.017517 0.950050 0.824657
Si Si5 0.311560 0.442918 0.579039
Si Si6 0.640106 0.042465 0.876028
Si Si7 0.036430 0.453885 0.649623
Si Si8 0.624320 0.961159 0.067942
O O1 0.869425 0.250000 0.516526
O O2 0.671132 0.518509 0.641534
O O3 0.946420 0.529194 0.423458
O O4 0.000000 0.500000 0.500000
O O5 0.465686 0.250000 0.763706
O O6 0.332689 0.986213 0.789043
O O7 0.391952 0.982585 0.861520
O O8 0.862174 0.750000 0.132047
O O9 0.922343 0.039707 0.146626
O O10 0.000000 0.000000 0.000000
O O11 0.019102 0.750000 0.806646
O O12 0.159457 0.048271 0.709319
O O13 0.812268 0.017622 0.937292
O O14 0.500000 0.500000 0.500000
O O15 0.352462 0.250000 0.538567
O O16 0.209102 0.531067 0.585366
O O17 0.653790 0.250000 0.864777
O O18 0.547156 0.982940 0.872056
O O19 0.841199 0.972855 0.774133
O O20 0.500000 0.000000 0.000000
O O21 0.032559 0.250000 0.665451
O O22 0.629436 0.750000 0.065308
#
# Coordination Sequence:
#
# PCOD9163336 Si02
#       8
#     4   4   4   4   4   4   4   4
#     4  11  23  40  65  93 125 165 208 255 307 367
#     4   9  19  36  58  84 115 155 201 243 299 365
#     4  11  21  37  60  89 123 162 204 254 310 368
#     4  11  22  38  61  89 123 161 203 253 308 369
#     4  11  25  44  64  89 122 163 211 263 314 369
#     4  10  20  36  61  87 116 152 192 242 298 358
#     4  10  23  43  64  89 125 163 206 259 310 363
#     4   9  17  33  58  85 115 153 192 234 294 364
#
# _framework density 22.352650000000001
#
# number of rings (size 3 to 8) (size 9 to 14) (size 15 to 20)
#    0.000    1.750    1.250    3.000    1.750    3.500 
#    0.000    2.500    0.000    0.000    0.000    0.000 
#    0.000    0.000    0.000    0.000    0.000    0.000 
#
# Total GULP energy -178850.566464 kJ/mol
# GULP energy per Si atom -5589.080202 kJ/mol
# Density = 2.230177 g / cm^3
# Si number density = 22.352650 Si / 1000 Ang^3
#
#
#
# Elastic Constant Matrix: (Units=GPa)
#
#
# Indices 1 2 3 4 5 6 
#
# 1 142.4228 1.0651 40.2303 0.0000 -29.2256 0.0000
# 2 1.0651 38.1985 -4.4770 0.0000 -13.7000 0.0000
# 3 40.2303 -4.4770 108.8360 0.0000 -30.1115 0.0000
# 4 0.0000 0.0000 0.0000 20.0185 0.0000 5.4900
# 5 -29.2256 -13.7000 -30.1115 0.0000 49.5844 0.0000
# 6 0.0000 0.0000 0.0000 5.4900 0.0000 19.1747
#
#
#
# Elastic Compliance Matrix: (Units=1/GPa)
#
#
# Indices 1 2 3 4 5 6 
#
# 1 0.008392 0.000986 -0.001944 0.000000 0.004038 0.000000
# 2 0.000986 0.030786 0.004106 0.000000 0.011581 0.000000
# 3 -0.001944 0.004106 0.012107 0.000000 0.007341 0.000000
# 4 0.000000 0.000000 0.000000 0.054210 0.000000 -0.015521
# 5 0.004038 0.011581 0.007341 0.000000 0.030205 0.000000
# 6 0.000000 0.000000 0.000000 -0.015521 0.000000 0.056596
#
#
# Mechanical properties :
#
#
# Convention : Reuss Voigt Hill
#
# Bulk Modulus (GPa) = 17.36685 40.34379 28.85532
# Shear Modulus (GPa) = 24.36720 34.59810 29.48265
#
# Velocity S-wave (km/s) = 3.30529 3.93852 3.63571
# Velocity P-wave (km/s) = 4.72789 6.22660 5.52826
#
# Compressibility (1/GPa) = 0.05758096
#
# Stress axis : x y z
#
# Youngs Moduli (GPa) = 119.16438 32.48196 82.59966
#
# Poissons Ratio (x) = -0.03204 0.16059
# Poissons Ratio (y) = -0.11755 -0.33914
# Poissons Ratio (z) = 0.23167 -0.13337
#
# Static dielectric constant tensor:
#      x y z
#    x 1.832900 0.000000 -0.028930 
#    y 0.000000 1.870980 0.000000 
#    z -0.028930 0.000000 1.797050 
# 
# From -- ./inp_files/68988.got.cif
#   From: 2010.05.17/outbox.cif.g08.bks.cpg/sg11_35_cif.got.tgz:68988.got - 2010.06.03 12:22:45.
