data_PCOD9163977
_publ_section_title
;
Structure prediction by ZEFSAII (Michael W. Deem and Ramdas Pophale) SiO2 
 PCOD9163977
Probable space group: P 21/M
;
_chemical_formula_sum "Si O2"
_cell_formula_units_Z 20
_cell_length_a 9.900358
_cell_length_b 9.263271
_cell_length_c 11.464889
_cell_angle_alpha 90.000000
_cell_angle_beta 88.722910
_cell_angle_gamma 90.000000
_cell_volume 1051.180344
_symmetry_space_group_name_H-M "P 21/M"
_symmetry_group_IT_number 11
_symmetry_cell_setting 'monoclinic'
loop_
_space_group_symop_operation_xyz
x,y,z
-x,1/2+y,-z
-x,-y,-z
x,1/2-y,z
loop_
_atom_site_type_symbol
_atom_site_label
_atom_site_fract_x
_atom_site_fract_y
_atom_site_fract_z
Si Si1 0.450742 0.079085 0.883666
Si Si2 0.223105 0.917827 0.750921
Si Si3 0.854133 0.076002 0.500761
Si Si4 0.276144 0.920576 0.250014
Si Si5 0.945918 0.583071 0.889007
O O1 0.436842 0.250000 0.905461
O O2 0.567986 0.056857 0.784660
O O3 0.314334 0.012105 0.834613
O O4 0.500000 0.000000 0.000000
O O5 0.265925 0.750000 0.759727
O O6 0.224902 0.964223 0.615988
O O7 0.067055 0.924846 0.792948
O O8 0.873861 0.250000 0.496671
O O9 0.769858 0.040452 0.618560
O O10 0.000000 0.000000 0.500000
O O11 0.247629 0.750000 0.234513
O O12 0.185341 0.009073 0.161618
O O13 0.920270 0.750000 0.917219
O O14 0.000000 0.500000 0.000000
#
# Coordination Sequence:
#
# PCOD9163977 Si02
#       5
#     4   4   4   4   4
#     4  11  24  41  60  86 119 158 199 242 293 350
#     4  10  22  39  59  86 119 154 193 241 294 349
#     4  10  20  38  62  88 120 153 191 244 296 347
#     4  10  22  39  60  86 118 153 194 244 295 346
#     4  11  22  36  57  86 116 151 198 244 292 349
#
# _framework density 19.026230999999999
#
# number of rings (size 3 to 8) (size 9 to 14) (size 15 to 20)
#    0.000    1.600    2.000    2.400    0.000    9.600 
#    0.000    0.000    0.000    0.000    0.000    0.000 
#    0.000    0.000    0.000    0.000    0.000    0.000 
#
# Total GULP energy -111754.019332 kJ/mol
# GULP energy per Si atom -5587.700967 kJ/mol
# Density = 1.898293 g / cm^3
# Si number density = 19.026231 Si / 1000 Ang^3
#
#
#
# Elastic Constant Matrix: (Units=GPa)
#
#
# Indices 1 2 3 4 5 6 
#
# 1 48.4648 18.6355 -14.3515 0.0000 6.7092 0.0000
# 2 18.6355 41.2040 12.0035 0.0000 2.6321 0.0000
# 3 -14.3515 12.0035 66.2250 0.0000 2.9231 0.0000
# 4 0.0000 0.0000 0.0000 27.6540 0.0000 4.6533
# 5 6.7092 2.6321 2.9231 0.0000 34.1046 0.0000
# 6 0.0000 0.0000 0.0000 4.6533 0.0000 34.0201
#
#
#
# Elastic Compliance Matrix: (Units=1/GPa)
#
#
# Indices 1 2 3 4 5 6 
#
# 1 0.030614 -0.016357 0.009846 0.000000 -0.005604 0.000000
# 2 -0.016357 0.034447 -0.009850 0.000000 0.001404 0.000000
# 3 0.009846 -0.009850 0.019144 0.000000 -0.002818 0.000000
# 4 0.000000 0.000000 0.000000 0.037013 0.000000 -0.005063
# 5 -0.005604 0.001404 -0.002818 0.000000 0.030557 0.000000
# 6 0.000000 0.000000 0.000000 -0.005063 0.000000 0.030087
#
#
# Mechanical properties :
#
#
# Convention : Reuss Voigt Hill
#
# Bulk Modulus (GPa) = 19.42335 20.94098 20.18216
# Shear Modulus (GPa) = 21.57551 28.46284 25.01917
#
# Velocity S-wave (km/s) = 3.37113 3.87198 3.63020
# Velocity P-wave (km/s) = 5.03821 5.56956 5.31053
#
# Compressibility (1/GPa) = 0.05148444
#
# Stress axis : x y z
#
# Youngs Moduli (GPa) = 32.66426 29.03008 52.23686
#
# Poissons Ratio (x) = 0.47483 -0.51435
# Poissons Ratio (y) = 0.53428 0.51454
# Poissons Ratio (z) = -0.32163 0.28595
#
# Static dielectric constant tensor:
#      x y z
#    x 1.631430 0.000000 -0.039270 
#    y 0.000000 1.644870 0.000000 
#    z -0.039270 0.000000 1.671360 
# 
# From -- ./inp_files/15870.got.cif
#   From: 2010.05.17/outbox.cif.g08.bks.cpg/sg11_8_cif.got.tgz:15870.got - 2010.06.03 12:22:45.
