data_PCOD9163448
_publ_section_title
;
Structure prediction by ZEFSAII (Michael W. Deem and Ramdas Pophale) SiO2 
 PCOD9163448
Probable space group: P 21/M
;
_chemical_formula_sum "Si O2"
_cell_formula_units_Z 24
_cell_length_a 7.455462
_cell_length_b 19.751853
_cell_length_c 8.840495
_cell_angle_alpha 90.000000
_cell_angle_beta 113.344347
_cell_angle_gamma 90.000000
_cell_volume 1195.275107
_symmetry_space_group_name_H-M "P 21/M"
_symmetry_group_IT_number 11
_symmetry_cell_setting 'monoclinic'
loop_
_space_group_symop_operation_xyz
x,y,z
-x,1/2+y,-z
-x,-y,-z
x,1/2-y,z
loop_
_atom_site_type_symbol
_atom_site_label
_atom_site_fract_x
_atom_site_fract_y
_atom_site_fract_z
Si Si1 0.265068 0.942571 0.541494
Si Si2 0.939506 0.933987 0.852932
Si Si3 0.099468 0.912094 0.201329
Si Si4 0.829255 0.905967 0.504559
Si Si5 0.729694 0.829471 0.186874
Si Si6 0.456043 0.066251 0.086217
O O1 0.281005 0.910193 0.378220
O O2 0.391050 0.921241 0.727647
O O3 0.041562 0.924483 0.507328
O O4 0.289202 0.023479 0.535611
O O5 0.877554 0.887415 0.693103
O O6 0.747887 0.942215 0.892249
O O7 0.979605 0.009714 0.802355
O O8 0.109655 0.909073 0.022158
O O9 0.939274 0.856783 0.194609
O O10 0.729758 0.852537 0.361617
O O11 0.710480 0.750000 0.163196
O O12 0.573592 0.871442 0.037492
O O13 0.500000 0.000000 0.000000
#
# Coordination Sequence:
#
# PCOD9163448 Si02
#       6
#     4   4   4   4   4   4
#     4   9  17  31  52  79 112 133 180 219 271 321
#     4   9  18  31  54  84 112 130 179 230 273 310
#     4   8  17  32  53  80 104 140 175 220 268 321
#     4   9  17  32  53  79 102 142 179 224 263 321
#     4  10  20  37  55  76 110 150 184 221 281 340
#     4  11  21  33  52  87 113 148 179 229 280 329
#
# _framework density 20.079058
#
# number of rings (size 3 to 8) (size 9 to 14) (size 15 to 20)
#    0.000    2.667    1.667    1.000    7.000    2.667 
#    0.000    6.667    0.000    1.000    0.000    0.000 
#    0.000    0.000    0.000    0.000    0.000    0.000 
#
# Total GULP energy -133660.387962 kJ/mol
# GULP energy per Si atom -5569.182832 kJ/mol
# Density = 2.003336 g / cm^3
# Si number density = 20.079058 Si / 1000 Ang^3
#
#
#
# Elastic Constant Matrix: (Units=GPa)
#
#
# Indices 1 2 3 4 5 6 
#
# 1 45.4854 15.1876 18.0577 0.0000 -1.9192 0.0000
# 2 15.1876 120.0085 78.1121 0.0000 3.9367 0.0000
# 3 18.0577 78.1121 249.7958 0.0000 4.7606 0.0000
# 4 0.0000 0.0000 0.0000 20.0777 0.0000 2.0251
# 5 -1.9192 3.9367 4.7606 0.0000 30.1344 0.0000
# 6 0.0000 0.0000 0.0000 2.0251 0.0000 13.6228
#
#
#
# Elastic Compliance Matrix: (Units=1/GPa)
#
#
# Indices 1 2 3 4 5 6 
#
# 1 0.023246 -0.002370 -0.000976 0.000000 0.001944 0.000000
# 2 -0.002370 0.010726 -0.003163 0.000000 -0.001052 0.000000
# 3 -0.000976 -0.003163 0.005071 0.000000 -0.000450 0.000000
# 4 0.000000 0.000000 0.000000 0.050565 0.000000 -0.007517
# 5 0.001944 -0.001052 -0.000450 0.000000 0.033517 0.000000
# 6 0.000000 0.000000 0.000000 -0.007517 0.000000 0.074524
#
#
# Mechanical properties :
#
#
# Convention : Reuss Voigt Hill
#
# Bulk Modulus (GPa) = 38.42456 70.88939 54.65698
# Shear Modulus (GPa) = 22.79545 33.02913 27.91229
#
# Velocity S-wave (km/s) = 3.37305 4.06020 3.73248
# Velocity P-wave (km/s) = 5.86073 7.57378 6.77164
#
# Compressibility (1/GPa) = 0.02602502
#
# Stress axis : x y z
#
# Youngs Moduli (GPa) = 43.01786 93.23394 197.18502
#
# Poissons Ratio (x) = 0.22098 0.19252
# Poissons Ratio (y) = 0.10196 0.62361
# Poissons Ratio (z) = 0.04200 0.29486
#
# Static dielectric constant tensor:
#      x y z
#    x 1.793050 0.000000 -0.016100 
#    y 0.000000 1.645630 0.000000 
#    z -0.016100 0.000000 1.861130 
# 
# From -- ./inp_files/13841.got.cif
#   From: 2010.05.17/outbox.cif.g08.bks.cpg/sg11_7_cif.got.tgz:13841.got - 2010.06.03 12:22:45.
