data_PCOD9163787
_publ_section_title
;
Structure prediction by ZEFSAII (Michael W. Deem and Ramdas Pophale) SiO2 
 PCOD9163787
Probable space group: P 21/M
;
_chemical_formula_sum "Si O2"
_cell_formula_units_Z 20
_cell_length_a 9.206590
_cell_length_b 10.508924
_cell_length_c 11.636534
_cell_angle_alpha 90.000000
_cell_angle_beta 55.374616
_cell_angle_gamma 90.000000
_cell_volume 926.445106
_symmetry_space_group_name_H-M "P 21/M"
_symmetry_group_IT_number 11
_symmetry_cell_setting 'monoclinic'
loop_
_space_group_symop_operation_xyz
x,y,z
-x,1/2+y,-z
-x,-y,-z
x,1/2-y,z
loop_
_atom_site_type_symbol
_atom_site_label
_atom_site_fract_x
_atom_site_fract_y
_atom_site_fract_z
Si Si1 0.036855 0.518715 0.619096
Si Si2 0.905715 0.750000 0.439803
Si Si3 0.768500 0.250000 0.531159
Si Si4 0.519207 0.750000 0.635345
Si Si5 0.873048 0.601861 0.906833
Si Si6 0.737696 0.022276 0.180700
Si Si7 0.389197 0.250000 0.677343
O O1 0.879803 0.569173 0.768649
O O2 0.000000 0.500000 0.500000
O O3 0.087148 0.378273 0.635693
O O4 0.191561 0.622429 0.558069
O O5 0.721019 0.750000 0.590858
O O6 0.078546 0.750000 0.441967
O O7 0.573581 0.250000 0.664936
O O8 0.412586 0.624508 0.721245
O O9 0.549615 0.750000 0.483659
O O10 0.828746 0.750000 0.943749
O O11 0.074767 0.577676 0.859683
O O12 0.756418 0.508352 0.036561
O O13 0.703014 0.882588 0.249595
#
# Coordination Sequence:
#
# PCOD9163787 Si02
#       7
#     4   2   2   2   4   4   2
#     4  10  20  37  65  91 114 166 220 257 304 376
#     4  10  22  37  59  95 127 161 207 268 315 371
#     4  10  20  37  63  87 127 169 207 254 321 379
#     4  12  22  38  59  93 136 160 211 280 316 363
#     4  11  21  41  64  89 136 170 208 260 329 393
#     4  11  24  37  62  97 127 174 208 259 331 385
#     4  12  22  38  63  97 132 162 215 266 320 383
#
# _framework density 21.587895
#
# number of rings (size 3 to 8) (size 9 to 14) (size 15 to 20)
#    0.000    1.200    3.000    4.200    0.000    0.800 
#    0.000    0.000    0.000   28.800    0.000    0.000 
#    0.000    0.000    0.000    0.000    0.000    0.000 
#
# Total GULP energy -111617.081989 kJ/mol
# GULP energy per Si atom -5580.854099 kJ/mol
# Density = 2.153876 g / cm^3
# Si number density = 21.587895 Si / 1000 Ang^3
#
#
#
# Elastic Constant Matrix: (Units=GPa)
#
#
# Indices 1 2 3 4 5 6 
#
# 1 66.5804 -9.1121 15.9123 0.0000 3.0808 0.0000
# 2 -9.1121 141.2973 -1.2797 0.0000 2.3203 0.0000
# 3 15.9123 -1.2797 87.3983 0.0000 24.8093 0.0000
# 4 0.0000 0.0000 0.0000 51.2603 0.0000 -8.5457
# 5 3.0808 2.3203 24.8093 0.0000 30.6027 0.0000
# 6 0.0000 0.0000 0.0000 -8.5457 0.0000 -0.2456
#
#
#
# Elastic Compliance Matrix: (Units=1/GPa)
#
#
# Indices 1 2 3 4 5 6 
#
# 1 0.015859 0.000980 -0.003116 0.000000 0.000855 0.000000
# 2 0.000980 0.007154 0.000141 0.000000 -0.000755 0.000000
# 3 -0.003116 0.000141 0.015490 0.000000 -0.012254 0.000000
# 4 0.000000 0.000000 0.000000 0.002868 0.000000 -0.099813
# 5 0.000855 -0.000755 -0.012254 0.000000 0.042583 0.000000
# 6 0.000000 0.000000 0.000000 -0.099813 0.000000 -0.598715
#
#
# Mechanical properties :
#
#
# Convention : Reuss Voigt Hill
#
# Bulk Modulus (GPa) = 28.97429 34.03524 31.50477
# Shear Modulus (GPa) = -10.01467 35.64051 12.81292
#
# Velocity S-wave (km/s) = -2.15618 4.06760 2.43888
# Velocity P-wave (km/s) = 2.69293 6.15309 4.74934
#
# Compressibility (1/GPa) = 0.03451335
#
# Stress axis : x y z
#
# Youngs Moduli (GPa) = 63.05694 139.77844 64.55857
#
# Poissons Ratio (x) = -0.13704 0.20115
# Poissons Ratio (y) = -0.06182 -0.00908
# Poissons Ratio (z) = 0.19647 -0.01965
#
# Static dielectric constant tensor:
#      x y z
#    x 1.941380 0.000000 0.093190 
#    y 0.000000 1.808730 0.000000 
#    z 0.093190 0.000000 1.832830 
# 
# From -- ./inp_files/31081.got.cif
#   From: 2010.05.17/outbox.cif.g08.bks.cpg/sg11_16_cif.got.tgz:31081.got - 2010.06.03 12:22:45.
