data_PCOD9163052
_publ_section_title
;
Structure prediction by ZEFSAII (Michael W. Deem and Ramdas Pophale) SiO2 
 PCOD9163052
Probable space group: P 21/M
;
_chemical_formula_sum "Si O2"
_cell_formula_units_Z 28
_cell_length_a 9.265771
_cell_length_b 8.438039
_cell_length_c 29.911073
_cell_angle_alpha 90.000000
_cell_angle_beta 39.096508
_cell_angle_gamma 90.000000
_cell_volume 1474.784904
_symmetry_space_group_name_H-M "P 21/M"
_symmetry_group_IT_number 11
_symmetry_cell_setting 'monoclinic'
loop_
_space_group_symop_operation_xyz
x,y,z
-x,1/2+y,-z
-x,-y,-z
x,1/2-y,z
loop_
_atom_site_type_symbol
_atom_site_label
_atom_site_fract_x
_atom_site_fract_y
_atom_site_fract_z
Si Si1 0.415975 0.440181 0.568158
Si Si2 0.671824 0.560325 0.997365
Si Si3 0.107273 0.943618 0.291760
Si Si4 0.742607 0.561493 0.568244
Si Si5 0.046918 0.059119 0.847586
Si Si6 0.710704 0.056825 0.847785
Si Si7 0.434360 0.557829 0.293956
O O1 0.500000 0.500000 0.500000
O O2 0.416881 0.250000 0.567841
O O3 0.583224 0.499176 0.566701
O O4 0.155629 0.493960 0.640031
O O5 0.678746 0.750000 0.994751
O O6 0.917505 0.496197 0.923471
O O7 0.500000 0.500000 0.000000
O O8 0.541730 0.509905 0.074006
O O9 0.108373 0.750000 0.290923
O O10 0.216413 0.997647 0.218686
O O11 0.258783 0.993329 0.297580
O O12 0.745032 0.750000 0.566585
O O13 0.643925 0.503148 0.639203
O O14 0.000000 0.500000 0.500000
O O15 0.044221 0.250000 0.848193
O O16 0.307652 0.006118 0.779752
O O17 0.896177 0.006968 0.840785
O O18 0.714582 0.250000 0.846383
O O19 0.433672 0.750000 0.295551
#
# Coordination Sequence:
#
# PCOD9163052 Si02
#       7
#     4   4   4   4   4   4   4
#     4  11  22  38  61  88 117 149 186 230 279 334
#     4   9  16  27  47  73 102 135 177 227 276 326
#     4   9  18  33  55  80 107 141 182 225 273 328
#     4  12  25  41  61  85 114 148 186 231 282 337
#     4   9  17  30  50  75 106 142 180 222 272 331
#     4   8  14  27  47  72 100 135 177 221 268 320
#     4  10  20  36  58  83 110 144 185 228 275 332
#
# _framework density 18.985821000000001
#
# number of rings (size 3 to 8) (size 9 to 14) (size 15 to 20)
#    0.000    2.286    0.000    4.714    0.000    4.000 
#    0.000    1.429    0.000    6.857    0.000    0.000 
#    0.000    0.000    0.000    0.000    0.000    0.000 
#
# Total GULP energy -156255.802674 kJ/mol
# GULP energy per Si atom -5580.564381 kJ/mol
# Density = 1.894261 g / cm^3
# Si number density = 18.985821 Si / 1000 Ang^3
#
#
#
# Elastic Constant Matrix: (Units=GPa)
#
#
# Indices 1 2 3 4 5 6 
#
# 1 147.7558 27.4286 115.2513 0.0000 1.9027 0.0000
# 2 27.4286 30.2609 35.5991 0.0000 -3.1515 0.0000
# 3 115.2513 35.5991 237.2773 0.0000 0.7309 0.0000
# 4 0.0000 0.0000 0.0000 31.1250 0.0000 2.2443
# 5 1.9027 -3.1515 0.7309 0.0000 33.2983 0.0000
# 6 0.0000 0.0000 0.0000 2.2443 0.0000 19.2171
#
#
#
# Elastic Compliance Matrix: (Units=1/GPa)
#
#
# Indices 1 2 3 4 5 6 
#
# 1 0.011442 -0.004785 -0.004836 0.000000 -0.001001 0.000000
# 2 -0.004785 0.042651 -0.004088 0.000000 0.004400 0.000000
# 3 -0.004836 -0.004088 0.007178 0.000000 -0.000268 0.000000
# 4 0.000000 0.000000 0.000000 0.032401 0.000000 -0.003784
# 5 -0.001001 0.004400 -0.000268 0.000000 0.030511 0.000000
# 6 0.000000 0.000000 0.000000 -0.003784 0.000000 0.052479
#
#
# Mechanical properties :
#
#
# Convention : Reuss Voigt Hill
#
# Bulk Modulus (GPa) = 29.54165 85.76134 57.65150
# Shear Modulus (GPa) = 23.21639 32.52909 27.87274
#
# Velocity S-wave (km/s) = 3.50069 4.14374 3.83571
# Velocity P-wave (km/s) = 5.65096 8.25611 7.07449
#
# Compressibility (1/GPa) = 0.03385051
#
# Stress axis : x y z
#
# Youngs Moduli (GPa) = 87.40038 23.44612 139.31775
#
# Poissons Ratio (x) = 0.11220 0.67380
# Poissons Ratio (y) = 0.41824 0.56956
# Poissons Ratio (z) = 0.42271 0.09585
#
# Static dielectric constant tensor:
#      x y z
#    x 1.628010 0.000000 -0.005140 
#    y 0.000000 1.659180 0.000000 
#    z -0.005140 0.000000 1.669230 
# 
# From -- ./inp_files/72729.got.cif
#   From: 2010.05.17/outbox.cif.g08.bks.cpg/sg11_37_cif.got.tgz:72729.got - 2010.06.03 12:22:45.
