data_PCOD9163710
_publ_section_title
;
Structure prediction by ZEFSAII (Michael W. Deem and Ramdas Pophale) SiO2 
 PCOD9163710
Probable space group: P 21/M
;
_chemical_formula_sum "Si O2"
_cell_formula_units_Z 32
_cell_length_a 28.302979
_cell_length_b 7.727484
_cell_length_c 21.252443
_cell_angle_alpha 90.000000
_cell_angle_beta 17.180642
_cell_angle_gamma 90.000000
_cell_volume 1372.991903
_symmetry_space_group_name_H-M "P 21/M"
_symmetry_group_IT_number 11
_symmetry_cell_setting 'monoclinic'
loop_
_space_group_symop_operation_xyz
x,y,z
-x,1/2+y,-z
-x,-y,-z
x,1/2-y,z
loop_
_atom_site_type_symbol
_atom_site_label
_atom_site_fract_x
_atom_site_fract_y
_atom_site_fract_z
Si Si1 0.575692 0.556924 0.838697
Si Si2 0.207349 0.036229 0.539495
Si Si3 0.574801 0.951723 0.624772
Si Si4 0.254825 0.957836 0.973300
Si Si5 0.846497 0.461257 0.030540
Si Si6 0.820516 0.042656 0.205207
Si Si7 0.739545 0.951864 0.818910
Si Si8 0.021559 0.043493 0.374969
O O1 0.629073 0.750000 0.782606
O O2 0.723450 0.470183 0.614929
O O3 0.500000 0.500000 0.000000
O O4 0.425815 0.548742 0.981395
O O5 0.208210 0.250000 0.538263
O O6 0.328191 0.974499 0.439972
O O7 0.028918 0.985743 0.784280
O O8 0.547189 0.750000 0.674779
O O9 0.691887 0.963673 0.416027
O O10 0.404148 0.029625 0.822937
O O11 0.270511 0.750000 0.950652
O O12 0.252704 0.020128 0.904052
O O13 0.091364 0.995465 0.218546
O O14 0.843320 0.250000 0.035671
O O15 0.798701 0.518513 0.161008
O O16 0.802727 0.250000 0.229527
O O17 0.000000 0.000000 0.000000
O O18 0.703503 0.750000 0.874193
O O19 0.846489 0.016842 0.741108
O O20 0.853118 0.970183 0.612987
O O21 0.009766 0.250000 0.395018
#
# Coordination Sequence:
#
# PCOD9163710 Si02
#       8
#     4   4   4   4   4   4   4   4
#     4  11  23  37  57  85 117 154 198 247 298 347
#     4   9  18  35  58  80 112 156 195 233 285 350
#     4  10  20  37  61  89 117 150 195 238 279 345
#     4  10  21  36  59  87 116 155 195 233 285 352
#     4   9  19  36  58  85 116 153 193 234 285 352
#     4  11  21  37  62  88 117 152 193 239 290 343
#     4  10  21  38  58  80 111 153 195 239 295 356
#     4  10  21  37  59  85 115 147 190 247 296 347
#
# _framework density 23.306764000000001
#
# number of rings (size 3 to 8) (size 9 to 14) (size 15 to 20)
#    0.000    2.000    1.250    2.250    1.750    3.500 
#    0.000    2.500    0.000    0.000    0.000    0.000 
#    0.000    0.000    0.000    0.000    0.000    0.000 
#
# Total GULP energy -178878.559732 kJ/mol
# GULP energy per Si atom -5589.954992 kJ/mol
# Density = 2.325372 g / cm^3
# Si number density = 23.306764 Si / 1000 Ang^3
#
#
#
# Elastic Constant Matrix: (Units=GPa)
#
#
# Indices 1 2 3 4 5 6 
#
# 1 54.8734 5.1459 5.2254 0.0000 12.8253 0.0000
# 2 5.1459 40.8456 -14.4770 0.0000 -5.2217 0.0000
# 3 5.2254 -14.4770 68.7919 0.0000 11.8959 0.0000
# 4 0.0000 0.0000 0.0000 15.4881 0.0000 7.3085
# 5 12.8253 -5.2217 11.8959 0.0000 43.3977 0.0000
# 6 0.0000 0.0000 0.0000 7.3085 0.0000 16.8626
#
#
#
# Elastic Compliance Matrix: (Units=1/GPa)
#
#
# Indices 1 2 3 4 5 6 
#
# 1 0.020111 -0.003758 -0.001273 0.000000 -0.006047 0.000000
# 2 -0.003758 0.027284 0.005530 0.000000 0.002878 0.000000
# 3 -0.001273 0.005530 0.016394 0.000000 -0.003452 0.000000
# 4 0.000000 0.000000 0.000000 0.081166 0.000000 -0.035178
# 5 -0.006047 0.002878 -0.003452 0.000000 0.026122 0.000000
# 6 0.000000 0.000000 0.000000 -0.035178 0.000000 0.074550
#
#
# Mechanical properties :
#
#
# Convention : Reuss Voigt Hill
#
# Bulk Modulus (GPa) = 15.43541 17.36663 16.40102
# Shear Modulus (GPa) = 18.78124 26.39078 22.58601
#
# Velocity S-wave (km/s) = 2.84179 3.36865 3.11637
# Velocity P-wave (km/s) = 4.17190 4.75373 4.47229
#
# Compressibility (1/GPa) = 0.06478610
#
# Stress axis : x y z
#
# Youngs Moduli (GPa) = 49.72508 36.65210 60.99821
#
# Poissons Ratio (x) = 0.13773 0.07764
# Poissons Ratio (y) = 0.18685 -0.33729
# Poissons Ratio (z) = 0.06329 -0.20267
#
# Static dielectric constant tensor:
#      x y z
#    x 1.928720 0.000000 -0.005150 
#    y 0.000000 1.848120 0.000000 
#    z -0.005150 0.000000 1.855550 
# 
# From -- ./inp_files/67053.got.cif
#   From: 2010.05.17/outbox.cif.g08.bks.cpg/sg11_34_cif.got.tgz:67053.got - 2010.06.03 12:22:45.
