data_PCOD9163290
_publ_section_title
;
Structure prediction by ZEFSAII (Michael W. Deem and Ramdas Pophale) SiO2 
 PCOD9163290
Probable space group: P 21/M
;
_chemical_formula_sum "Si O2"
_cell_formula_units_Z 32
_cell_length_a 15.099498
_cell_length_b 8.340903
_cell_length_c 13.159241
_cell_angle_alpha 90.000000
_cell_angle_beta 86.141126
_cell_angle_gamma 90.000000
_cell_volume 1653.562780
_symmetry_space_group_name_H-M "P 21/M"
_symmetry_group_IT_number 11
_symmetry_cell_setting 'monoclinic'
loop_
_space_group_symop_operation_xyz
x,y,z
-x,1/2+y,-z
-x,-y,-z
x,1/2-y,z
loop_
_atom_site_type_symbol
_atom_site_label
_atom_site_fract_x
_atom_site_fract_y
_atom_site_fract_z
Si Si1 0.510504 0.941282 0.610772
Si Si2 0.101072 0.443635 0.493066
Si Si3 0.157626 0.445971 0.261253
Si Si4 0.343706 0.939140 0.755114
Si Si5 0.525880 0.937783 0.106420
Si Si6 0.642940 0.556868 0.757044
Si Si7 0.998042 0.558240 0.881648
Si Si8 0.848868 0.939952 0.283088
O O1 0.503977 0.750000 0.618256
O O2 0.424856 0.003396 0.679126
O O3 0.608169 0.980404 0.646167
O O4 0.500000 0.000000 0.500000
O O5 0.107362 0.250000 0.492322
O O6 0.139195 0.497103 0.379917
O O7 0.139017 0.498562 0.600302
O O8 0.000000 0.500000 0.500000
O O9 0.155255 0.250000 0.261995
O O10 0.257969 0.496681 0.227739
O O11 0.085874 0.498680 0.182018
O O12 0.330919 0.750000 0.739309
O O13 0.387170 0.969969 0.861051
O O14 0.251532 0.024829 0.742363
O O15 0.544183 0.750000 0.108375
O O16 0.437154 0.979055 0.175735
O O17 0.500000 0.000000 0.000000
O O18 0.639685 0.750000 0.772333
O O19 0.992884 0.750000 0.887496
O O20 0.083411 0.513234 0.805313
O O21 0.000000 0.500000 0.000000
O O22 0.865619 0.750000 0.282362
#
# Coordination Sequence:
#
# PCOD9163290 Si02
#       8
#     4   4   4   4   4   4   4   4
#     4   9  19  33  53  79 113 150 185 229 283 342
#     4  10  20  36  60  88 119 157 201 247 297 358
#     4   9  19  37  61  86 116 157 199 242 297 354
#     4  10  22  40  59  84 117 155 198 243 291 348
#     4  11  22  39  62  87 117 153 197 248 300 355
#     4   9  19  37  58  82 113 151 196 242 288 344
#     4  11  23  41  63  85 119 159 202 253 306 362
#     4  11  23  38  61  92 123 157 201 250 303 365
#
# _framework density 19.352150999999999
#
# number of rings (size 3 to 8) (size 9 to 14) (size 15 to 20)
#    0.000    2.000    1.250    3.000    1.750    4.000 
#    0.000    5.625    0.000    0.000    0.000    0.000 
#    0.000    0.000    0.000    0.000    0.000    0.000 
#
# Total GULP energy -178264.346442 kJ/mol
# GULP energy per Si atom -5570.760826 kJ/mol
# Density = 1.930810 g / cm^3
# Si number density = 19.352151 Si / 1000 Ang^3
#
#
#
# Elastic Constant Matrix: (Units=GPa)
#
#
# Indices 1 2 3 4 5 6 
#
# 1 138.8487 9.8715 57.3303 0.0000 20.8556 0.0000
# 2 9.8715 14.9657 13.7557 0.0000 -2.8062 0.0000
# 3 57.3303 13.7557 130.1385 0.0000 24.2575 0.0000
# 4 0.0000 0.0000 0.0000 28.1801 0.0000 0.0035
# 5 20.8556 -2.8062 24.2575 0.0000 22.9840 0.0000
# 6 0.0000 0.0000 0.0000 0.0035 0.0000 25.6810
#
#
#
# Elastic Compliance Matrix: (Units=1/GPa)
#
#
# Indices 1 2 3 4 5 6 
#
# 1 0.009601 -0.005439 -0.002374 0.000000 -0.006870 0.000000
# 2 -0.005439 0.086766 -0.012038 0.000000 0.028234 0.000000
# 3 -0.002374 -0.012038 0.012293 0.000000 -0.012290 0.000000
# 4 0.000000 0.000000 0.000000 0.035486 0.000000 -0.000005
# 5 -0.006870 0.028234 -0.012290 0.000000 0.066161 0.000000
# 6 0.000000 0.000000 0.000000 -0.000005 0.000000 0.038939
#
#
# Mechanical properties :
#
#
# Convention : Reuss Voigt Hill
#
# Bulk Modulus (GPa) = 14.50157 49.54088 32.02123
# Shear Modulus (GPa) = 16.02902 28.90204 22.46553
#
# Velocity S-wave (km/s) = 2.88111 3.86875 3.41087
# Velocity P-wave (km/s) = 4.31016 6.75363 5.66520
#
# Compressibility (1/GPa) = 0.06895804
#
# Stress axis : x y z
#
# Youngs Moduli (GPa) = 104.15618 11.52528 81.34604
#
# Poissons Ratio (x) = 0.06269 0.19311
# Poissons Ratio (y) = 0.56652 0.97923
# Poissons Ratio (z) = 0.24726 0.13874
#
# Static dielectric constant tensor:
#      x y z
#    x 1.649630 0.000000 0.009360 
#    y 0.000000 1.644280 0.000000 
#    z 0.009360 0.000000 1.740040 
# 
# From -- ./inp_files/38256.got.cif
#   From: 2010.05.17/outbox.cif.g08.bks.cpg/sg11_20_cif.got.tgz:38256.got - 2010.06.03 12:22:45.
