data_PCOD9163720
_publ_section_title
;
Structure prediction by ZEFSAII (Michael W. Deem and Ramdas Pophale) SiO2 
 PCOD9163720
Probable space group: P 21/M
;
_chemical_formula_sum "Si O2"
_cell_formula_units_Z 28
_cell_length_a 26.681514
_cell_length_b 8.686582
_cell_length_c 9.738409
_cell_angle_alpha 90.000000
_cell_angle_beta 141.347836
_cell_angle_gamma 90.000000
_cell_volume 1409.753003
_symmetry_space_group_name_H-M "P 21/M"
_symmetry_group_IT_number 11
_symmetry_cell_setting 'monoclinic'
loop_
_space_group_symop_operation_xyz
x,y,z
-x,1/2+y,-z
-x,-y,-z
x,1/2-y,z
loop_
_atom_site_type_symbol
_atom_site_label
_atom_site_fract_x
_atom_site_fract_y
_atom_site_fract_z
Si Si1 0.740374 0.933328 0.479697
Si Si2 0.863124 0.064612 0.957947
Si Si3 0.311138 0.932884 0.911504
Si Si4 0.483360 0.433220 0.315231
Si Si5 0.804323 0.564962 0.125106
Si Si6 0.028747 0.434885 0.415782
Si Si7 0.575730 0.065987 0.245908
O O1 0.742098 0.750000 0.474485
O O2 0.813651 0.994067 0.727561
O O3 0.738444 0.003896 0.323697
O O4 0.657820 0.987657 0.375295
O O5 0.857389 0.250000 0.943045
O O6 0.957734 0.018353 0.160550
O O7 0.825173 0.004858 0.020804
O O8 0.308913 0.750000 0.910529
O O9 0.275344 0.000564 0.975638
O O10 0.401862 0.990503 0.086561
O O11 0.500000 0.500000 0.500000
O O12 0.471675 0.250000 0.297004
O O13 0.554663 0.462806 0.360204
O O14 0.800877 0.750000 0.106226
O O15 0.877889 0.521088 0.386394
O O16 0.027061 0.250000 0.416190
O O17 0.000000 0.500000 0.500000
O O18 0.581406 0.250000 0.235807
O O19 0.500000 0.000000 0.000000
#
# Coordination Sequence:
#
# PCOD9163720 Si02
#       7
#     4   4   4   4   4   4   4
#     4  12  25  41  61  87 120 159 201 246 296 352
#     4  10  20  37  61  91 122 155 199 245 292 349
#     4  12  25  42  62  86 120 159 198 245 300 354
#     4  11  25  43  64  90 121 155 196 243 294 350
#     4  10  20  37  61  90 122 157 197 243 297 352
#     4   8  16  32  57  86 118 154 193 240 291 347
#     4  11  23  41  65  89 117 156 199 240 292 352
#
# _framework density 19.861635
#
# number of rings (size 3 to 8) (size 9 to 14) (size 15 to 20)
#    0.000    1.429    1.429    4.286    2.000    2.857 
#    0.000    0.714    0.000    0.000    0.000    0.000 
#    0.000    0.000    0.000    0.000    0.000    0.000 
#
# Total GULP energy -156421.913959 kJ/mol
# GULP energy per Si atom -5586.496927 kJ/mol
# Density = 1.981643 g / cm^3
# Si number density = 19.861635 Si / 1000 Ang^3
#
#
#
# Elastic Constant Matrix: (Units=GPa)
#
#
# Indices 1 2 3 4 5 6 
#
# 1 36.5129 11.7126 -15.2015 0.0000 -8.4376 0.0000
# 2 11.7126 78.5501 4.9997 0.0000 -10.5246 0.0000
# 3 -15.2015 4.9997 82.4594 0.0000 -13.6110 0.0000
# 4 0.0000 0.0000 0.0000 34.8844 0.0000 -3.6175
# 5 -8.4376 -10.5246 -13.6110 0.0000 28.2284 0.0000
# 6 0.0000 0.0000 0.0000 -3.6175 0.0000 20.0712
#
#
#
# Elastic Compliance Matrix: (Units=1/GPa)
#
#
# Indices 1 2 3 4 5 6 
#
# 1 0.035563 -0.004073 0.009025 0.000000 0.013463 0.000000
# 2 -0.004073 0.013867 -0.001021 0.000000 0.003460 0.000000
# 3 0.009025 -0.001021 0.015466 0.000000 0.009775 0.000000
# 4 0.000000 0.000000 0.000000 0.029212 0.000000 0.005265
# 5 0.013463 0.003460 0.009775 0.000000 0.045453 0.000000
# 6 0.000000 0.000000 0.000000 0.005265 0.000000 0.050771
#
#
# Mechanical properties :
#
#
# Convention : Reuss Voigt Hill
#
# Bulk Modulus (GPa) = 13.74407 22.28267 18.01337
# Shear Modulus (GPa) = 24.18703 29.70425 26.94564
#
# Velocity S-wave (km/s) = 3.49345 3.87144 3.68729
# Velocity P-wave (km/s) = 4.81738 5.58815 5.21702
#
# Compressibility (1/GPa) = 0.07275867
#
# Stress axis : x y z
#
# Youngs Moduli (GPa) = 28.11922 72.11507 64.65664
#
# Poissons Ratio (x) = 0.29375 -0.58355
# Poissons Ratio (y) = 0.11454 0.06598
# Poissons Ratio (z) = -0.25378 0.07359
#
# Static dielectric constant tensor:
#      x y z
#    x 1.674360 0.000000 0.016030 
#    y 0.000000 1.657430 0.000000 
#    z 0.016030 0.000000 1.720680 
# 
# From -- ./inp_files/28575.got.cif
#   From: 2010.05.17/outbox.cif.g08.bks.cpg/sg11_15_cif.got.tgz:28575.got - 2010.06.03 12:22:45.
