data_PCOD9163514
_publ_section_title
;
Structure prediction by ZEFSAII (Michael W. Deem and Ramdas Pophale) SiO2 
 PCOD9163514
Probable space group: P 21/M
;
_chemical_formula_sum "Si O2"
_cell_formula_units_Z 28
_cell_length_a 11.515407
_cell_length_b 14.885577
_cell_length_c 9.656492
_cell_angle_alpha 90.000000
_cell_angle_beta 122.352735
_cell_angle_gamma 90.000000
_cell_volume 1398.307405
_symmetry_space_group_name_H-M "P 21/M"
_symmetry_group_IT_number 11
_symmetry_cell_setting 'monoclinic'
loop_
_space_group_symop_operation_xyz
x,y,z
-x,1/2+y,-z
-x,-y,-z
x,1/2-y,z
loop_
_atom_site_type_symbol
_atom_site_label
_atom_site_fract_x
_atom_site_fract_y
_atom_site_fract_z
Si Si1 0.951367 0.606698 0.624659
Si Si2 0.035568 0.396962 0.051167
Si Si3 0.779416 0.152807 0.724216
Si Si4 0.837471 0.084530 0.466932
Si Si5 0.664704 0.544215 0.729828
Si Si6 0.555040 0.999788 0.189730
Si Si7 0.362756 0.149089 0.567433
O O1 0.998201 0.626001 0.810856
O O2 0.920717 0.499564 0.588632
O O3 0.801411 0.648829 0.510852
O O4 0.061477 0.630326 0.578473
O O5 0.200653 0.396664 0.144509
O O6 0.000000 0.500000 0.000000
O O7 0.934751 0.347008 0.883398
O O8 0.717418 0.250000 0.721567
O O9 0.787225 0.142353 0.563887
O O10 0.709043 0.060640 0.735151
O O11 0.705372 0.043800 0.303971
O O12 0.551114 0.548713 0.775155
O O13 0.615684 0.584752 0.551980
O O14 0.568372 0.899048 0.258487
O O15 0.500000 0.000000 0.000000
O O16 0.406751 0.250000 0.568862
#
# Coordination Sequence:
#
# PCOD9163514 Si02
#       7
#     4   4   4   4   4   4   4
#     4   9  18  35  63  86 122 153 196 253 315 357
#     4   9  17  33  58  87 115 154 196 250 300 358
#     4  11  22  37  61  93 123 160 208 258 311 364
#     4  10  20  37  58  90 118 161 198 249 308 369
#     4  10  21  42  62  89 127 164 207 253 309 370
#     4  11  24  40  64  89 124 170 209 251 314 373
#     4  10  21  41  68  93 119 165 215 256 306 368
#
# _framework density 20.024211000000001
#
# number of rings (size 3 to 8) (size 9 to 14) (size 15 to 20)
#    0.000    2.000    5.714    0.429    4.000    4.571 
#    0.000    1.429    0.000    0.000    0.000    0.000 
#    0.000    0.000    0.000    0.000    0.000    0.000 
#
# Total GULP energy -156225.368466 kJ/mol
# GULP energy per Si atom -5579.477445 kJ/mol
# Density = 1.997863 g / cm^3
# Si number density = 20.024211 Si / 1000 Ang^3
#
#
#
# Elastic Constant Matrix: (Units=GPa)
#
#
# Indices 1 2 3 4 5 6 
#
# 1 111.5761 8.2648 33.5527 0.0000 -10.3852 0.0000
# 2 8.2648 97.6770 29.8040 0.0000 -0.0856 0.0000
# 3 33.5527 29.8040 139.3285 0.0000 0.2308 0.0000
# 4 0.0000 0.0000 0.0000 3.5387 0.0000 1.0840
# 5 -10.3852 -0.0856 0.2308 0.0000 20.3657 0.0000
# 6 0.0000 0.0000 0.0000 1.0840 0.0000 -2.2935
#
#
#
# Elastic Compliance Matrix: (Units=1/GPa)
#
#
# Indices 1 2 3 4 5 6 
#
# 1 0.010190 -0.000114 -0.002438 0.000000 0.005224 0.000000
# 2 -0.000114 0.010954 -0.002316 0.000000 0.000014 0.000000
# 3 -0.002438 -0.002316 0.008262 0.000000 -0.001347 0.000000
# 4 0.000000 0.000000 0.000000 0.246851 0.000000 0.116673
# 5 0.005224 0.000014 -0.001347 0.000000 0.051781 0.000000
# 6 0.000000 0.000000 0.000000 0.116673 0.000000 -0.380879
#
#
# Mechanical properties :
#
#
# Convention : Reuss Voigt Hill
#
# Bulk Modulus (GPa) = 50.83676 54.64718 52.74197
# Shear Modulus (GPa) = -136.80837 22.78619 -57.01109
#
# Velocity S-wave (km/s) = -8.27465 3.37698 -5.34162
# Velocity P-wave (km/s) = 8.11482 6.52343 3.41285
#
# Compressibility (1/GPa) = 0.01967081
#
# Stress axis : x y z
#
# Youngs Moduli (GPa) = 98.13198 91.29010 121.03458
#
# Poissons Ratio (x) = 0.01038 0.29513
# Poissons Ratio (y) = 0.01115 0.28030
# Poissons Ratio (z) = 0.23928 0.21142
#
# Static dielectric constant tensor:
#      x y z
#    x 1.727540 0.000000 0.031470 
#    y 0.000000 1.787970 0.000000 
#    z 0.031470 0.000000 1.696300 
# 
# From -- ./inp_files/18155.got.cif
#   From: 2010.05.17/outbox.cif.g08.bks.cpg/sg11_10_cif.got.tgz:18155.got - 2010.06.03 12:22:45.
