data_PCOD9163038
_publ_section_title
;
Structure prediction by ZEFSAII (Michael W. Deem and Ramdas Pophale) SiO2 
 PCOD9163038
Probable space group: P 21/M
;
_chemical_formula_sum "Si O2"
_cell_formula_units_Z 32
_cell_length_a 12.484332
_cell_length_b 8.898062
_cell_length_c 29.547663
_cell_angle_alpha 90.000000
_cell_angle_beta 33.900008
_cell_angle_gamma 90.000000
_cell_volume 1830.710763
_symmetry_space_group_name_H-M "P 21/M"
_symmetry_group_IT_number 11
_symmetry_cell_setting 'monoclinic'
loop_
_space_group_symop_operation_xyz
x,y,z
-x,1/2+y,-z
-x,-y,-z
x,1/2-y,z
loop_
_atom_site_type_symbol
_atom_site_label
_atom_site_fract_x
_atom_site_fract_y
_atom_site_fract_z
Si Si1 0.432406 0.070180 0.242505
Si Si2 0.837745 0.429470 0.524562
Si Si3 0.011361 0.570817 0.378037
Si Si4 0.568859 0.571024 0.285153
Si Si5 0.501936 0.928340 0.882651
Si Si6 0.044521 0.070301 0.271181
Si Si7 0.666600 0.570819 0.972385
Si Si8 0.923357 0.068862 0.213684
O O1 0.405972 0.250000 0.254693
O O2 0.524254 0.037151 0.161203
O O3 0.223068 0.992709 0.316231
O O4 0.552324 0.009242 0.242434
O O5 0.864555 0.250000 0.513065
O O6 0.629666 0.460957 0.618678
O O7 0.000000 0.500000 0.500000
O O8 0.866686 0.500679 0.465102
O O9 0.012445 0.750000 0.380739
O O10 0.972748 0.516224 0.340535
O O11 0.582464 0.750000 0.274134
O O12 0.747057 0.509976 0.251103
O O13 0.473802 0.750000 0.899364
O O14 0.727038 0.960563 0.813944
O O15 0.371231 0.017633 0.963292
O O16 0.027871 0.250000 0.284807
O O17 0.941481 0.031230 0.260507
O O18 0.652688 0.750000 0.973889
O O19 0.875382 0.526321 0.880568
O O20 0.500000 0.500000 0.000000
O O21 0.903679 0.250000 0.217229
#
# Coordination Sequence:
#
# PCOD9163038 Si02
#       8
#     4   4   4   4   4   4   4   4
#     4  10  20  36  58  81 114 154 188 228 285 342
#     4  11  22  37  58  85 115 148 188 237 287 339
#     4  11  21  33  55  88 117 144 188 238 282 334
#     4  11  24  39  58  86 116 146 191 239 283 340
#     4   9  18  34  56  85 114 144 186 235 285 333
#     4   9  18  36  57  80 114 152 189 231 282 340
#     4  11  21  35  57  86 115 148 191 237 280 334
#     4  10  22  40  59  81 115 156 193 227 285 350
#
# _framework density 17.479548999999999
#
# number of rings (size 3 to 8) (size 9 to 14) (size 15 to 20)
#    0.000    1.750    2.500    3.375    0.000    5.500 
#    0.000    1.250    0.000    0.000    0.000    0.000 
#    0.000    0.000    0.000    0.000    0.000    0.000 
#
# Total GULP energy -178726.373233 kJ/mol
# GULP energy per Si atom -5585.199164 kJ/mol
# Density = 1.743976 g / cm^3
# Si number density = 17.479549 Si / 1000 Ang^3
#
#
#
# Elastic Constant Matrix: (Units=GPa)
#
#
# Indices 1 2 3 4 5 6 
#
# 1 152.7706 66.0298 75.1489 0.0000 8.8349 0.0000
# 2 66.0298 73.2580 62.1100 0.0000 5.9309 0.0000
# 3 75.1489 62.1100 99.2875 0.0000 8.8343 0.0000
# 4 0.0000 0.0000 0.0000 28.7964 0.0000 3.6656
# 5 8.8349 5.9309 8.8343 0.0000 27.2664 0.0000
# 6 0.0000 0.0000 0.0000 3.6656 0.0000 32.4946
#
#
#
# Elastic Compliance Matrix: (Units=1/GPa)
#
#
# Indices 1 2 3 4 5 6 
#
# 1 0.011732 -0.006476 -0.004753 0.000000 -0.000853 0.000000
# 2 -0.006476 0.032645 -0.015523 0.000000 0.000027 0.000000
# 3 -0.004753 -0.015523 0.023623 0.000000 -0.002737 0.000000
# 4 0.000000 0.000000 0.000000 0.035232 0.000000 -0.003974
# 5 -0.000853 0.000027 -0.002737 0.000000 0.037833 0.000000
# 6 0.000000 0.000000 0.000000 -0.003974 0.000000 0.031223
#
#
# Mechanical properties :
#
#
# Convention : Reuss Voigt Hill
#
# Bulk Modulus (GPa) = 68.97519 81.32148 75.14834
# Shear Modulus (GPa) = 21.68037 25.84664 23.76351
#
# Velocity S-wave (km/s) = 3.52565 3.84953 3.69114
# Velocity P-wave (km/s) = 7.49131 8.14760 7.82634
#
# Compressibility (1/GPa) = 0.01449797
#
# Stress axis : x y z
#
# Youngs Moduli (GPa) = 85.23706 30.63210 42.33172
#
# Poissons Ratio (x) = 0.19837 0.20120
# Poissons Ratio (y) = 0.55197 0.65710
# Poissons Ratio (z) = 0.40512 0.47549
#
# Static dielectric constant tensor:
#      x y z
#    x 1.588660 0.000000 0.020560 
#    y 0.000000 1.581500 0.000000 
#    z 0.020560 0.000000 1.579370 
# 
# From -- ./inp_files/42844.got.cif
#   From: 2010.05.17/outbox.cif.g08.bks.cpg/sg11_22_cif.got.tgz:42844.got - 2010.06.03 12:22:45.
