data_PCOD9163559
_publ_section_title
;
Structure prediction by ZEFSAII (Michael W. Deem and Ramdas Pophale) SiO2 
 PCOD9163559
Probable space group: P 21/M
;
_chemical_formula_sum "Si O2"
_cell_formula_units_Z 32
_cell_length_a 14.625648
_cell_length_b 8.680846
_cell_length_c 24.232426
_cell_angle_alpha 90.000000
_cell_angle_beta 31.863586
_cell_angle_gamma 90.000000
_cell_volume 1624.144370
_symmetry_space_group_name_H-M "P 21/M"
_symmetry_group_IT_number 11
_symmetry_cell_setting 'monoclinic'
loop_
_space_group_symop_operation_xyz
x,y,z
-x,1/2+y,-z
-x,-y,-z
x,1/2-y,z
loop_
_atom_site_type_symbol
_atom_site_label
_atom_site_fract_x
_atom_site_fract_y
_atom_site_fract_z
Si Si1 0.041666 0.565021 0.216761
Si Si2 0.059752 0.063932 0.528324
Si Si3 0.747829 0.568049 0.229489
Si Si4 0.471161 0.568762 0.852486
Si Si5 0.895842 0.567517 0.936631
Si Si6 0.556312 0.932821 0.683859
Si Si7 0.223780 0.564195 0.235579
Si Si8 0.678381 0.066473 0.385598
O O1 0.041378 0.750000 0.211026
O O2 0.846143 0.508512 0.328587
O O3 0.096257 0.489796 0.130967
O O4 0.165876 0.521955 0.203642
O O5 0.058129 0.250000 0.526264
O O6 0.259374 0.017688 0.435734
O O7 0.928140 0.016538 0.643901
O O8 0.000000 0.000000 0.500000
O O9 0.749398 0.750000 0.238746
O O10 0.605497 0.523172 0.257671
O O11 0.696663 0.481272 0.312203
O O12 0.941762 0.512295 0.116440
O O13 0.438884 0.750000 0.876445
O O14 0.563125 0.545810 0.746266
O O15 0.598033 0.507873 0.834822
O O16 0.288923 0.482109 0.945462
O O17 0.918287 0.750000 0.927022
O O18 0.531495 0.750000 0.685995
O O19 0.237671 0.750000 0.230947
O O20 0.683423 0.250000 0.388486
O O21 0.500000 0.000000 0.500000
#
# Coordination Sequence:
#
# PCOD9163559 Si02
#       8
#     4   4   4   4   4   4   4   4
#     4  10  21  39  61  88 120 157 199 247 300 357
#     4  10  20  37  59  86 121 161 198 242 295 349
#     4  11  23  40  62  90 120 156 199 247 300 359
#     4  11  23  40  63  89 119 158 203 251 298 354
#     4  11  23  42  65  87 117 157 197 252 308 357
#     4  10  22  39  60  89 123 161 200 243 297 354
#     4  10  22  38  60  90 123 159 199 244 297 354
#     4  11  22  38  59  86 120 158 201 248 297 354
#
# _framework density 19.702680999999998
#
# number of rings (size 3 to 8) (size 9 to 14) (size 15 to 20)
#    0.000    1.500    1.250    5.625    1.750    3.500 
#    0.000    0.000    0.000    0.000    0.000    0.000 
#    0.000    0.000    0.000    0.000    0.000    0.000 
#
# Total GULP energy -178886.190807 kJ/mol
# GULP energy per Si atom -5590.193463 kJ/mol
# Density = 1.965784 g / cm^3
# Si number density = 19.702681 Si / 1000 Ang^3
#
#
#
# Elastic Constant Matrix: (Units=GPa)
#
#
# Indices 1 2 3 4 5 6 
#
# 1 76.7651 11.2522 -11.5042 0.0000 -23.5492 0.0000
# 2 11.2522 45.9080 8.2710 0.0000 -6.9156 0.0000
# 3 -11.5042 8.2710 60.8416 0.0000 -24.4600 0.0000
# 4 0.0000 0.0000 0.0000 27.7078 0.0000 -3.7013
# 5 -23.5492 -6.9156 -24.4600 0.0000 26.3554 0.0000
# 6 0.0000 0.0000 0.0000 -3.7013 0.0000 34.4951
#
#
#
# Elastic Compliance Matrix: (Units=1/GPa)
#
#
# Indices 1 2 3 4 5 6 
#
# 1 0.039174 -0.005959 0.034553 0.000000 0.065508 0.000000
# 2 -0.005959 0.023632 -0.006360 0.000000 -0.005026 0.000000
# 3 0.034553 -0.006360 0.056750 0.000000 0.081874 0.000000
# 4 0.000000 0.000000 0.000000 0.036616 0.000000 0.003929
# 5 0.065508 -0.005026 0.081874 0.000000 0.171143 0.000000
# 6 0.000000 0.000000 0.000000 0.003929 0.000000 0.029411
#
#
# Mechanical properties :
#
#
# Convention : Reuss Voigt Hill
#
# Bulk Modulus (GPa) = 6.09665 22.17254 14.13460
# Shear Modulus (GPa) = 13.62651 29.41136 21.51894
#
# Velocity S-wave (km/s) = 2.63270 3.86782 3.30840
# Velocity P-wave (km/s) = 3.51319 5.58790 4.66729
#
# Compressibility (1/GPa) = 0.16402455
#
# Stress axis : x y z
#
# Youngs Moduli (GPa) = 25.52696 42.31554 17.62128
#
# Poissons Ratio (x) = 0.25215 -0.60887
# Poissons Ratio (y) = 0.15211 0.11207
# Poissons Ratio (z) = -0.88204 0.26912
#
# Static dielectric constant tensor:
#      x y z
#    x 1.677020 0.000000 -0.003960 
#    y 0.000000 1.659780 0.000000 
#    z -0.003960 0.000000 1.692880 
# 
# From -- ./inp_files/51756.got.cif
#   From: 2010.05.17/outbox.cif.g08.bks.cpg/sg11_26_cif.got.tgz:51756.got - 2010.06.03 12:22:45.
