data_PCOD9163394
_publ_section_title
;
Structure prediction by ZEFSAII (Michael W. Deem and Ramdas Pophale) SiO2 
 PCOD9163394
Probable space group: P 21/M
;
_chemical_formula_sum "Si O2"
_cell_formula_units_Z 32
_cell_length_a 31.981346
_cell_length_b 8.727443
_cell_length_c 12.322784
_cell_angle_alpha 90.000000
_cell_angle_beta 30.138693
_cell_angle_gamma 90.000000
_cell_volume 1726.944519
_symmetry_space_group_name_H-M "P 21/M"
_symmetry_group_IT_number 11
_symmetry_cell_setting 'monoclinic'
loop_
_space_group_symop_operation_xyz
x,y,z
-x,1/2+y,-z
-x,-y,-z
x,1/2-y,z
loop_
_atom_site_type_symbol
_atom_site_label
_atom_site_fract_x
_atom_site_fract_y
_atom_site_fract_z
Si Si1 0.711560 0.066366 0.158074
Si Si2 0.771106 0.934825 0.800094
Si Si3 0.896377 0.566953 0.123740
Si Si4 0.592475 0.066415 0.806189
Si Si5 0.472353 0.066676 0.445996
Si Si6 0.252567 0.565986 0.682958
Si Si7 0.379847 0.066031 0.024664
Si Si8 0.075005 0.434803 0.692735
O O1 0.700936 0.250000 0.178933
O O2 0.755744 0.024711 0.172044
O O3 0.621319 0.987930 0.362514
O O4 0.757567 0.011123 0.946646
O O5 0.769865 0.750000 0.815376
O O6 0.856756 0.979877 0.549124
O O7 0.694689 0.974167 0.890770
O O8 0.896301 0.750000 0.120527
O O9 0.818795 0.504836 0.230973
O O10 0.893985 0.519755 0.256154
O O11 0.983912 0.504785 0.881764
O O12 0.586756 0.250000 0.821805
O O13 0.656286 0.021466 0.567345
O O14 0.500000 0.000000 0.000000
O O15 0.630479 0.005088 0.833539
O O16 0.477662 0.250000 0.435159
O O17 0.500000 0.000000 0.500000
O O18 0.534803 0.997747 0.217132
O O19 0.247219 0.750000 0.686401
O O20 0.383458 0.250000 0.024906
O O21 0.068474 0.250000 0.706178
#
# Coordination Sequence:
#
# PCOD9163394 Si02
#       8
#     4   4   4   4   4   4   4   4
#     4  11  23  39  59  83 115 155 199 246 292 342
#     4  10  21  37  58  84 115 152 190 235 292 347
#     4  10  20  36  62  92 115 147 190 234 287 348
#     4  11  23  39  59  84 116 154 196 241 293 349
#     4  12  23  37  57  83 114 154 199 241 291 343
#     4  10  23  41  59  82 116 157 195 237 290 345
#     4  11  22  37  58  85 118 151 191 243 295 346
#     4   9  19  37  60  88 121 150 181 232 293 348
#
# _framework density 18.529838000000002
#
# number of rings (size 3 to 8) (size 9 to 14) (size 15 to 20)
#    0.000    1.500    1.250    4.125    0.000    5.500 
#    0.000    0.625    0.000    0.000    0.000    0.000 
#    0.000    0.000    0.000    0.000    0.000    0.000 
#
# Total GULP energy -178866.520365 kJ/mol
# GULP energy per Si atom -5589.578761 kJ/mol
# Density = 1.848766 g / cm^3
# Si number density = 18.529838 Si / 1000 Ang^3
#
#
#
# Elastic Constant Matrix: (Units=GPa)
#
#
# Indices 1 2 3 4 5 6 
#
# 1 110.4454 40.0478 62.7739 0.0000 0.6688 0.0000
# 2 40.0478 48.3376 42.1868 0.0000 1.6181 0.0000
# 3 62.7739 42.1868 139.1780 0.0000 6.1267 0.0000
# 4 0.0000 0.0000 0.0000 30.1095 0.0000 -0.1015
# 5 0.6688 1.6181 6.1267 0.0000 33.0122 0.0000
# 6 0.0000 0.0000 0.0000 -0.1015 0.0000 33.3054
#
#
#
# Elastic Compliance Matrix: (Units=1/GPa)
#
#
# Indices 1 2 3 4 5 6 
#
# 1 0.014371 -0.008491 -0.003946 0.000000 0.000857 0.000000
# 2 -0.008491 0.033148 -0.006205 0.000000 -0.000301 0.000000
# 3 -0.003946 -0.006205 0.010918 0.000000 -0.001642 0.000000
# 4 0.000000 0.000000 0.000000 0.033212 0.000000 0.000101
# 5 0.000857 -0.000301 -0.001642 0.000000 0.030594 0.000000
# 6 0.000000 0.000000 0.000000 0.000101 0.000000 0.030026
#
#
# Mechanical properties :
#
#
# Convention : Reuss Voigt Hill
#
# Bulk Modulus (GPa) = 47.27351 65.33091 56.30221
# Shear Modulus (GPa) = 25.43210 29.48221 27.45716
#
# Velocity S-wave (km/s) = 3.70874 3.99315 3.85357
# Velocity P-wave (km/s) = 6.62625 7.52290 7.08876
#
# Compressibility (1/GPa) = 0.02115349
#
# Stress axis : x y z
#
# Youngs Moduli (GPa) = 69.58682 30.16773 91.59554
#
# Poissons Ratio (x) = 0.25616 0.36139
# Poissons Ratio (y) = 0.59088 0.56831
# Poissons Ratio (z) = 0.27456 0.18718
#
# Static dielectric constant tensor:
#      x y z
#    x 1.564550 0.000000 -0.040050 
#    y 0.000000 1.621870 0.000000 
#    z -0.040050 0.000000 1.580900 
# 
# From -- ./inp_files/45159.got.cif
#   From: 2010.05.17/outbox.cif.g08.bks.cpg/sg11_23_cif.got.tgz:45159.got - 2010.06.03 12:22:45.
