data_PCOD9163919
_publ_section_title
;
Structure prediction by ZEFSAII (Michael W. Deem and Ramdas Pophale) SiO2 
 PCOD9163919
Probable space group: P 21/M
;
_chemical_formula_sum "Si O2"
_cell_formula_units_Z 32
_cell_length_a 19.814574
_cell_length_b 12.738299
_cell_length_c 15.645916
_cell_angle_alpha 90.000000
_cell_angle_beta 153.205876
_cell_angle_gamma 90.000000
_cell_volume 1780.195058
_symmetry_space_group_name_H-M "P 21/M"
_symmetry_group_IT_number 11
_symmetry_cell_setting 'monoclinic'
loop_
_space_group_symop_operation_xyz
x,y,z
-x,1/2+y,-z
-x,-y,-z
x,1/2-y,z
loop_
_atom_site_type_symbol
_atom_site_label
_atom_site_fract_x
_atom_site_fract_y
_atom_site_fract_z
Si Si1 0.172851 0.023647 0.211357
Si Si2 0.393879 0.871285 0.550838
Si Si3 0.798939 0.127000 0.389044
Si Si4 0.073722 0.484923 0.793403
Si Si5 0.267321 0.874346 0.883132
Si Si6 0.148319 0.368462 0.357944
Si Si7 0.587298 0.514529 0.260094
Si Si8 0.717833 0.628452 0.836896
O O1 0.184778 0.109223 0.300402
O O2 0.245558 0.062923 0.206141
O O3 0.257866 0.922832 0.345460
O O4 0.000000 0.000000 0.000000
O O5 0.364601 0.750000 0.538215
O O6 0.543678 0.878749 0.664054
O O7 0.420345 0.937586 0.666656
O O8 0.777717 0.250000 0.387446
O O9 0.801746 0.118846 0.289878
O O10 0.663363 0.055347 0.271928
O O11 0.951815 0.083282 0.603549
O O12 0.163396 0.563341 0.832478
O O13 0.978985 0.552216 0.754539
O O14 0.187842 0.414075 0.976106
O O15 0.282340 0.750000 0.921598
O O16 0.428537 0.932033 0.062959
O O17 0.100314 0.250000 0.316943
O O18 0.293847 0.396196 0.578547
O O19 0.756554 0.750000 0.865638
#
# Coordination Sequence:
#
# PCOD9163919 Si02
#       8
#     4   4   4   4   4   4   4   4
#     4  11  22  39  58  87 117 149 189 238 288 339
#     4  10  22  39  61  86 118 154 192 237 284 345
#     4  10  22  38  59  88 119 155 196 244 299 351
#     4  11  21  39  59  85 119 156 197 243 290 346
#     4  11  22  38  60  87 119 155 197 244 299 354
#     4  10  21  37  57  82 114 153 195 237 287 344
#     4  10  20  38  61  84 119 151 197 240 292 345
#     4  11  22  39  60  84 118 155 195 237 286 345
#
# _framework density 17.975559000000001
#
# number of rings (size 3 to 8) (size 9 to 14) (size 15 to 20)
#    0.000    1.500    2.500    3.000    0.000    1.000 
#    0.000    0.000    0.000    6.000    0.000    0.000 
#    0.000    0.000    0.000    0.000    0.000    0.000 
#
# Total GULP energy -178692.721373 kJ/mol
# GULP energy per Si atom -5584.147543 kJ/mol
# Density = 1.793465 g / cm^3
# Si number density = 17.975559 Si / 1000 Ang^3
#
#
#
# Elastic Constant Matrix: (Units=GPa)
#
#
# Indices 1 2 3 4 5 6 
#
# 1 62.2899 3.2537 5.9641 0.0000 -8.0022 0.0000
# 2 3.2537 76.9293 30.2895 0.0000 -8.0985 0.0000
# 3 5.9641 30.2895 86.9190 0.0000 -1.2753 0.0000
# 4 0.0000 0.0000 0.0000 15.3225 0.0000 1.2177
# 5 -8.0022 -8.0985 -1.2753 0.0000 24.7443 0.0000
# 6 0.0000 0.0000 0.0000 1.2177 0.0000 15.3554
#
#
#
# Elastic Compliance Matrix: (Units=1/GPa)
#
#
# Indices 1 2 3 4 5 6 
#
# 1 0.016857 0.000336 -0.001193 0.000000 0.005500 0.000000
# 2 0.000336 0.015631 -0.005397 0.000000 0.004946 0.000000
# 3 -0.001193 -0.005397 0.013446 0.000000 -0.001459 0.000000
# 4 0.000000 0.000000 0.000000 0.065677 0.000000 -0.005208
# 5 0.005500 0.004946 -0.001459 0.000000 0.043736 0.000000
# 6 0.000000 0.000000 0.000000 -0.005208 0.000000 0.065537
#
#
# Mechanical properties :
#
#
# Convention : Reuss Voigt Hill
#
# Bulk Modulus (GPa) = 29.91792 33.90587 31.91190
# Shear Modulus (GPa) = 20.44702 23.52651 21.98676
#
# Velocity S-wave (km/s) = 3.37633 3.62167 3.50115
# Velocity P-wave (km/s) = 5.64617 6.03256 5.84256
#
# Compressibility (1/GPa) = 0.03342478
#
# Stress axis : x y z
#
# Youngs Moduli (GPa) = 59.32179 63.97718 74.36986
#
# Poissons Ratio (x) = -0.02148 0.08872
# Poissons Ratio (y) = -0.01992 0.40140
# Poissons Ratio (z) = 0.07077 0.34531
#
# Static dielectric constant tensor:
#      x y z
#    x 1.600580 0.000000 0.000440 
#    y 0.000000 1.594850 0.000000 
#    z 0.000440 0.000000 1.590900 
# 
# From -- ./inp_files/21516.got.cif
#   From: 2010.05.17/outbox.cif.g08.bks.cpg/sg11_11_cif.got.tgz:21516.got - 2010.06.03 12:22:45.
