data_PCOD9163648
_publ_section_title
;
Structure prediction by ZEFSAII (Michael W. Deem and Ramdas Pophale) SiO2 
 PCOD9163648
Probable space group: P 21/M
;
_chemical_formula_sum "Si O2"
_cell_formula_units_Z 20
_cell_length_a 17.015896
_cell_length_b 14.413243
_cell_length_c 11.162694
_cell_angle_alpha 90.000000
_cell_angle_beta 159.771025
_cell_angle_gamma 90.000000
_cell_volume 946.621418
_symmetry_space_group_name_H-M "P 21/M"
_symmetry_group_IT_number 11
_symmetry_cell_setting 'monoclinic'
loop_
_space_group_symop_operation_xyz
x,y,z
-x,1/2+y,-z
-x,-y,-z
x,1/2-y,z
loop_
_atom_site_type_symbol
_atom_site_label
_atom_site_fract_x
_atom_site_fract_y
_atom_site_fract_z
Si Si1 0.651073 0.355323 0.787330
Si Si2 0.783857 0.039674 0.339841
Si Si3 0.975302 0.045217 0.093626
Si Si4 0.595972 0.644089 0.330327
Si Si5 0.085242 0.145519 0.584819
O O1 0.593893 0.250000 0.665825
O O2 0.467358 0.387639 0.624285
O O3 0.730697 0.422807 0.794393
O O4 0.880406 0.350940 0.195522
O O5 0.966125 0.105630 0.533019
O O6 0.893923 0.021204 0.625526
O O7 0.763764 0.939554 0.245314
O O8 0.546067 0.088859 0.972594
O O9 0.139876 0.134751 0.319559
O O10 0.000000 0.000000 0.000000
O O11 0.519713 0.750000 0.216614
O O12 0.178294 0.250000 0.729908
#
# Coordination Sequence:
#
# PCOD9163648 Si02
#       5
#     4   4   4   4   4
#     4   8  16  33  54  75 102 140 185 224 263 320
#     4   9  17  32  54  81 109 140 187 233 268 320
#     4  11  22  34  52  80 116 149 177 219 276 334
#     4  10  20  37  61  81 102 142 191 234 276 320
#     4   8  14  28  54  82 107 140 182 232 280 313
#
# _framework density 21.127770000000002
#
# number of rings (size 3 to 8) (size 9 to 14) (size 15 to 20)
#    0.000    2.800    0.000    4.200    0.000    1.600 
#    0.000    4.000    0.000    4.800    0.000    0.000 
#    0.000    0.000    0.000    0.000    0.000    0.000 
#
# Total GULP energy -111414.971038 kJ/mol
# GULP energy per Si atom -5570.748552 kJ/mol
# Density = 2.107968 g / cm^3
# Si number density = 21.127770 Si / 1000 Ang^3
#
#
#
# Elastic Constant Matrix: (Units=GPa)
#
#
# Indices 1 2 3 4 5 6 
#
# 1 115.5796 23.4967 13.6286 0.0000 -3.0012 0.0000
# 2 23.4967 104.8303 11.1456 0.0000 -13.4067 0.0000
# 3 13.6286 11.1456 7.6100 0.0000 7.9855 0.0000
# 4 0.0000 0.0000 0.0000 16.2690 0.0000 7.5069
# 5 -3.0012 -13.4067 7.9855 0.0000 29.3157 0.0000
# 6 0.0000 0.0000 0.0000 7.5069 0.0000 19.8486
#
#
#
# Elastic Compliance Matrix: (Units=1/GPa)
#
#
# Indices 1 2 3 4 5 6 
#
# 1 0.013927 0.004103 -0.048191 0.000000 0.016429 0.000000
# 2 0.004103 0.018330 -0.060813 0.000000 0.025368 0.000000
# 3 -0.048191 -0.060813 0.477675 0.000000 -0.162862 0.000000
# 4 0.000000 0.000000 0.000000 0.074461 0.000000 -0.028162
# 5 0.016429 0.025368 -0.162862 0.000000 0.091758 0.000000
# 6 0.000000 0.000000 0.000000 -0.028162 0.000000 0.061032
#
#
# Mechanical properties :
#
#
# Convention : Reuss Voigt Hill
#
# Bulk Modulus (GPa) = 3.33190 36.06242 19.69716
# Shear Modulus (GPa) = 4.77542 25.06993 14.92267
#
# Velocity S-wave (km/s) = 1.50505 3.44842 2.66053
# Velocity P-wave (km/s) = 2.14492 5.74119 4.33370
#
# Compressibility (1/GPa) = 0.30012919
#
# Stress axis : x y z
#
# Youngs Moduli (GPa) = 71.80314 54.55679 2.09347
#
# Poissons Ratio (x) = -0.22386 0.10089
# Poissons Ratio (y) = -0.29463 0.12731
# Poissons Ratio (z) = 3.46028 3.31778
#
# Static dielectric constant tensor:
#      x y z
#    x 1.848780 0.000000 0.037320 
#    y 0.000000 1.815110 0.000000 
#    z 0.037320 0.000000 1.754350 
# 
# From -- ./inp_files/17272.got.cif
#   From: 2010.05.17/outbox.cif.g08.bks.cpg/sg11_9_cif.got.tgz:17272.got - 2010.06.03 12:22:45.
