data_PCOD9163810
_publ_section_title
;
Structure prediction by ZEFSAII (Michael W. Deem and Ramdas Pophale) SiO2 
 PCOD9163810
Probable space group: P 21/M
;
_chemical_formula_sum "Si O2"
_cell_formula_units_Z 32
_cell_length_a 12.246707
_cell_length_b 8.823416
_cell_length_c 21.967286
_cell_angle_alpha 90.000000
_cell_angle_beta 45.407800
_cell_angle_gamma 90.000000
_cell_volume 1690.389020
_symmetry_space_group_name_H-M "P 21/M"
_symmetry_group_IT_number 11
_symmetry_cell_setting 'monoclinic'
loop_
_space_group_symop_operation_xyz
x,y,z
-x,1/2+y,-z
-x,-y,-z
x,1/2-y,z
loop_
_atom_site_type_symbol
_atom_site_label
_atom_site_fract_x
_atom_site_fract_y
_atom_site_fract_z
Si Si1 0.941386 0.068802 0.257215
Si Si2 0.925556 0.069743 0.468529
Si Si3 0.434383 0.429174 0.224254
Si Si4 0.247208 0.070951 0.915619
Si Si5 0.385050 0.432133 0.594876
Si Si6 0.052204 0.569566 0.888001
Si Si7 0.132678 0.569534 0.283281
Si Si8 0.574964 0.429723 0.638563
O O1 0.940479 0.250000 0.265068
O O2 0.947147 0.033014 0.183272
O O3 0.784025 0.000054 0.344961
O O4 0.083373 0.998728 0.237970
O O5 0.955108 0.250000 0.454495
O O6 0.743265 0.046843 0.543722
O O7 0.000000 0.000000 0.500000
O O8 0.005098 0.989922 0.380679
O O9 0.414643 0.250000 0.228271
O O10 0.597307 0.481073 0.133903
O O11 0.294526 0.509918 0.244753
O O12 0.434620 0.480668 0.294814
O O13 0.278210 0.250000 0.903341
O O14 0.177066 0.021067 0.878084
O O15 0.113086 0.038527 0.016790
O O16 0.500000 0.500000 0.500000
O O17 0.382140 0.250000 0.590797
O O18 0.450542 0.471483 0.636395
O O19 0.082197 0.750000 0.883477
O O20 0.132478 0.750000 0.281821
O O21 0.560084 0.250000 0.657984
#
# Coordination Sequence:
#
# PCOD9163810 Si02
#       8
#     4   4   4   4   4   4   4   4
#     4  11  23  41  62  86 119 157 200 244 294 356
#     4  11  21  36  58  85 117 155 198 244 293 346
#     4  12  24  38  59  87 118 153 196 244 297 352
#     4  10  20  37  63  93 125 154 189 240 295 352
#     4  11  23  39  59  86 119 157 199 243 294 346
#     4   9  20  39  64  93 122 156 194 237 292 354
#     4  12  25  41  60  84 117 157 202 248 298 354
#     4  10  22  38  58  84 117 153 195 244 295 350
#
# _framework density 18.930554000000001
#
# number of rings (size 3 to 8) (size 9 to 14) (size 15 to 20)
#    0.000    1.250    1.250    5.250    0.000    6.000 
#    0.000    0.625    0.000    0.000    0.000    0.000 
#    0.000    0.000    0.000    0.000    0.000    0.000 
#
# Total GULP energy -179010.757968 kJ/mol
# GULP energy per Si atom -5594.086186 kJ/mol
# Density = 1.888747 g / cm^3
# Si number density = 18.930554 Si / 1000 Ang^3
#
#
#
# Elastic Constant Matrix: (Units=GPa)
#
#
# Indices 1 2 3 4 5 6 
#
# 1 107.6419 48.6335 34.3313 0.0000 -1.1550 0.0000
# 2 48.6335 88.0030 36.5114 0.0000 -0.5759 0.0000
# 3 34.3313 36.5114 67.8188 0.0000 3.2068 0.0000
# 4 0.0000 0.0000 0.0000 29.2766 0.0000 -0.5778
# 5 -1.1550 -0.5759 3.2068 0.0000 25.5076 0.0000
# 6 0.0000 0.0000 0.0000 -0.5778 0.0000 33.9089
#
#
#
# Elastic Compliance Matrix: (Units=1/GPa)
#
#
# Indices 1 2 3 4 5 6 
#
# 1 0.013014 -0.005711 -0.003557 0.000000 0.000907 0.000000
# 2 -0.005711 0.017182 -0.006404 0.000000 0.000934 0.000000
# 3 -0.003557 -0.006404 0.020127 0.000000 -0.002836 0.000000
# 4 0.000000 0.000000 0.000000 0.034168 0.000000 0.000582
# 5 0.000907 0.000934 -0.002836 0.000000 0.039623 0.000000
# 6 0.000000 0.000000 0.000000 0.000582 0.000000 0.029501
#
#
# Mechanical properties :
#
#
# Convention : Reuss Voigt Hill
#
# Bulk Modulus (GPa) = 52.68184 55.82399 54.25291
# Shear Modulus (GPa) = 26.13913 27.33779 26.73846
#
# Velocity S-wave (km/s) = 3.71993 3.80427 3.76233
# Velocity P-wave (km/s) = 6.80734 6.98924 6.89889
#
# Compressibility (1/GPa) = 0.01898187
#
# Stress axis : x y z
#
# Youngs Moduli (GPa) = 76.83893 58.20043 49.68412
#
# Poissons Ratio (x) = 0.33236 0.17671
# Poissons Ratio (y) = 0.43880 0.31816
# Poissons Ratio (z) = 0.27329 0.37269
#
# Static dielectric constant tensor:
#      x y z
#    x 1.647750 0.000000 0.001700 
#    y 0.000000 1.629360 0.000000 
#    z 0.001700 0.000000 1.649830 
# 
# From -- ./inp_files/64365.got.cif
#   From: 2010.05.17/outbox.cif.g08.bks.cpg/sg11_33_cif.got.tgz:64365.got - 2010.06.03 12:22:45.
