data_PCOD9163223
_publ_section_title
;
Structure prediction by ZEFSAII (Michael W. Deem and Ramdas Pophale) SiO2 
 PCOD9163223
Probable space group: P 21/M
;
_chemical_formula_sum "Si O2"
_cell_formula_units_Z 32
_cell_length_a 7.239840
_cell_length_b 21.003067
_cell_length_c 11.640602
_cell_angle_alpha 90.000000
_cell_angle_beta 61.801764
_cell_angle_gamma 90.000000
_cell_volume 1559.982647
_symmetry_space_group_name_H-M "P 21/M"
_symmetry_group_IT_number 11
_symmetry_cell_setting 'monoclinic'
loop_
_space_group_symop_operation_xyz
x,y,z
-x,1/2+y,-z
-x,-y,-z
x,1/2-y,z
loop_
_atom_site_type_symbol
_atom_site_label
_atom_site_fract_x
_atom_site_fract_y
_atom_site_fract_z
Si Si1 0.157528 0.143443 0.096904
Si Si2 0.902731 0.325139 0.786779
Si Si3 0.301798 0.675096 0.692468
Si Si4 0.688130 0.449475 0.452100
Si Si5 0.593538 0.175680 0.084544
Si Si6 0.806165 0.893380 0.157470
Si Si7 0.682943 0.077102 0.710543
Si Si8 0.934861 0.502346 0.818582
O O1 0.364877 0.166789 0.098518
O O2 0.155517 0.066778 0.103334
O O3 0.950246 0.171099 0.216499
O O4 0.157199 0.154182 0.960461
O O5 0.909419 0.250000 0.777656
O O6 0.792179 0.356227 0.710257
O O7 0.128817 0.355208 0.746744
O O8 0.758136 0.345359 0.939111
O O9 0.359390 0.750000 0.654810
O O10 0.363577 0.621744 0.580510
O O11 0.386211 0.649963 0.792133
O O12 0.500000 0.500000 0.500000
O O13 0.754465 0.445297 0.564915
O O14 0.875085 0.476047 0.319346
O O15 0.637448 0.250000 0.087153
O O16 0.567034 0.915410 0.221060
O O17 0.960340 0.954225 0.121407
O O18 0.762231 0.031311 0.789111
#
# Coordination Sequence:
#
# PCOD9163223 Si02
#       8
#     4   4   4   4   4   4   4   4
#     4  11  21  35  62  92 122 161 197 251 319 383
#     4  10  22  39  60  90 125 161 202 256 317 384
#     4  10  23  42  63  90 126 161 209 267 316 375
#     4  11  23  43  68  88 123 175 220 265 313 375
#     4  10  20  36  59  89 122 156 199 250 315 381
#     4  11  21  38  58  92 125 160 200 253 316 381
#     4  11  23  41  62  88 123 162 212 255 311 373
#     4  10  24  39  60  88 123 162 208 260 310 369
#
# _framework density 20.513048999999999
#
# number of rings (size 3 to 8) (size 9 to 14) (size 15 to 20)
#    0.000    1.500    3.750    1.125    1.750    2.000 
#    0.000    0.000    0.000    0.000    0.000    0.000 
#    0.000    0.000    0.000    0.000    0.000    0.000 
#
# Total GULP energy -178608.010799 kJ/mol
# GULP energy per Si atom -5581.500337 kJ/mol
# Density = 2.046636 g / cm^3
# Si number density = 20.513049 Si / 1000 Ang^3
#
#
#
# Elastic Constant Matrix: (Units=GPa)
#
#
# Indices 1 2 3 4 5 6 
#
# 1 110.5117 10.3835 20.5009 0.0000 18.4658 0.0000
# 2 10.3835 82.4525 6.3765 0.0000 11.5995 0.0000
# 3 20.5009 6.3765 32.9083 0.0000 6.4264 0.0000
# 4 0.0000 0.0000 0.0000 21.7589 0.0000 5.5003
# 5 18.4658 11.5995 6.4264 0.0000 26.8675 0.0000
# 6 0.0000 0.0000 0.0000 5.5003 0.0000 26.9834
#
#
#
# Elastic Compliance Matrix: (Units=1/GPa)
#
#
# Indices 1 2 3 4 5 6 
#
# 1 0.011164 -0.000082 -0.005715 0.000000 -0.006271 0.000000
# 2 -0.000082 0.012982 -0.001449 0.000000 -0.005202 0.000000
# 3 -0.005715 -0.001449 0.034973 0.000000 -0.003812 0.000000
# 4 0.000000 0.000000 0.000000 0.048455 0.000000 -0.009877
# 5 -0.006271 -0.005202 -0.003812 0.000000 0.044687 0.000000
# 6 0.000000 0.000000 0.000000 -0.009877 0.000000 0.039073
#
#
# Mechanical properties :
#
#
# Convention : Reuss Voigt Hill
#
# Bulk Modulus (GPa) = 22.40685 33.37713 27.89199
# Shear Modulus (GPa) = 22.65500 27.69607 25.17554
#
# Velocity S-wave (km/s) = 3.32689 3.67845 3.50708
# Velocity P-wave (km/s) = 5.06996 5.86070 5.47961
#
# Compressibility (1/GPa) = 0.04462921
#
# Stress axis : x y z
#
# Youngs Moduli (GPa) = 89.56982 77.02749 28.59375
#
# Poissons Ratio (x) = 0.00630 0.16340
# Poissons Ratio (y) = 0.00733 0.04142
# Poissons Ratio (z) = 0.51186 0.11159
#
# Static dielectric constant tensor:
#      x y z
#    x 1.717450 0.000000 0.001540 
#    y 0.000000 1.761950 0.000000 
#    z 0.001540 0.000000 1.741840 
# 
# From -- ./inp_files/5480.got.cif
#   From: 2010.05.17/outbox.cif.g08.bks.cpg/sg11_3_cif.got.tgz:5480.got - 2010.06.03 12:22:45.
