data_PCOD9163239
_publ_section_title
;
Structure prediction by ZEFSAII (Michael W. Deem and Ramdas Pophale) SiO2 
 PCOD9163239
Probable space group: P 21/M
;
_chemical_formula_sum "Si O2"
_cell_formula_units_Z 32
_cell_length_a 32.350850
_cell_length_b 8.998962
_cell_length_c 12.845026
_cell_angle_alpha 90.000000
_cell_angle_beta 26.821039
_cell_angle_gamma 90.000000
_cell_volume 1687.280405
_symmetry_space_group_name_H-M "P 21/M"
_symmetry_group_IT_number 11
_symmetry_cell_setting 'monoclinic'
loop_
_space_group_symop_operation_xyz
x,y,z
-x,1/2+y,-z
-x,-y,-z
x,1/2-y,z
loop_
_atom_site_type_symbol
_atom_site_label
_atom_site_fract_x
_atom_site_fract_y
_atom_site_fract_z
Si Si1 0.860556 0.922207 0.879950
Si Si2 0.783297 0.425684 0.856561
Si Si3 0.590189 0.925787 0.343358
Si Si4 0.886038 0.072906 0.409145
Si Si5 0.214453 0.569440 0.576144
Si Si6 0.347820 0.081233 0.567177
Si Si7 0.596993 0.425678 0.762040
Si Si8 0.069260 0.572140 0.076692
O O1 0.886547 0.750000 0.808485
O O2 0.850629 0.002345 0.791322
O O3 0.922174 0.000815 0.828318
O O4 0.757259 0.927923 0.159149
O O5 0.776008 0.250000 0.893928
O O6 0.822338 0.447186 0.653378
O O7 0.683582 0.499739 0.092160
O O8 0.592581 0.750000 0.315635
O O9 0.592954 0.942876 0.462205
O O10 0.500000 0.000000 0.500000
O O11 0.905965 0.250000 0.355300
O O12 0.835268 0.022935 0.418092
O O13 0.978855 0.984929 0.222217
O O14 0.215844 0.750000 0.572136
O O15 0.319262 0.519533 0.353321
O O16 0.154872 0.525874 0.810960
O O17 0.363855 0.250000 0.492582
O O18 0.370847 0.965520 0.426536
O O19 0.588159 0.250000 0.795209
O O20 0.500000 0.500000 0.000000
O O21 0.069366 0.750000 0.085215
#
# Coordination Sequence:
#
# PCOD9163239 Si02
#       8
#     4   4   4   4   4   4   4   4
#     4  10  20  36  60  85 114 151 192 242 293 347
#     4  10  21  37  58  84 117 156 197 241 297 354
#     4  10  21  37  59  86 116 152 197 243 294 353
#     4  10  22  40  59  83 118 159 195 237 297 356
#     4   9  20  39  60  83 116 154 194 241 293 346
#     4   9  19  36  56  80 110 146 188 238 290 341
#     4  11  22  37  58  86 118 152 192 240 292 350
#     4  11  21  36  61  90 115 149 198 245 293 353
#
# _framework density 18.965430000000001
#
# number of rings (size 3 to 8) (size 9 to 14) (size 15 to 20)
#    0.000    2.000    1.250    3.000    0.000    5.000 
#    0.000    4.375    0.000    0.000    0.000    0.000 
#    0.000    0.000    0.000    0.000    0.000    0.000 
#
# Total GULP energy -178707.751333 kJ/mol
# GULP energy per Si atom -5584.617229 kJ/mol
# Density = 1.892226 g / cm^3
# Si number density = 18.965430 Si / 1000 Ang^3
#
#
#
# Elastic Constant Matrix: (Units=GPa)
#
#
# Indices 1 2 3 4 5 6 
#
# 1 122.7235 49.9236 29.4901 0.0000 -23.2325 0.0000
# 2 49.9236 72.6958 30.6069 0.0000 -5.5894 0.0000
# 3 29.4901 30.6069 50.7606 0.0000 -16.6916 0.0000
# 4 0.0000 0.0000 0.0000 27.5056 0.0000 -4.3390
# 5 -23.2325 -5.5894 -16.6916 0.0000 30.4980 0.0000
# 6 0.0000 0.0000 0.0000 -4.3390 0.0000 32.1319
#
#
#
# Elastic Compliance Matrix: (Units=1/GPa)
#
#
# Indices 1 2 3 4 5 6 
#
# 1 0.013173 -0.008520 0.000330 0.000000 0.008654 0.000000
# 2 -0.008520 0.024223 -0.012597 0.000000 -0.008946 0.000000
# 3 0.000330 -0.012597 0.032228 0.000000 0.015581 0.000000
# 4 0.000000 0.000000 0.000000 0.037148 0.000000 0.005016
# 5 0.008654 -0.008946 0.015581 0.000000 0.046270 0.000000
# 6 0.000000 0.000000 0.000000 0.005016 0.000000 0.031799
#
#
# Mechanical properties :
#
#
# Convention : Reuss Voigt Hill
#
# Bulk Modulus (GPa) = 35.65184 51.80235 43.72710
# Shear Modulus (GPa) = 21.20742 27.10440 24.15591
#
# Velocity S-wave (km/s) = 3.34760 3.78451 3.57274
# Velocity P-wave (km/s) = 5.81215 6.81690 6.33447
#
# Compressibility (1/GPa) = 0.02804904
#
# Stress axis : x y z
#
# Youngs Moduli (GPa) = 75.91001 41.28248 31.02892
#
# Poissons Ratio (x) = 0.35174 -0.01024
# Poissons Ratio (y) = 0.64678 0.39089
# Poissons Ratio (z) = -0.02504 0.52005
#
# Static dielectric constant tensor:
#      x y z
#    x 1.647700 0.000000 -0.004660 
#    y 0.000000 1.644290 0.000000 
#    z -0.004660 0.000000 1.650020 
# 
# From -- ./inp_files/45139.got.cif
#   From: 2010.05.17/outbox.cif.g08.bks.cpg/sg11_23_cif.got.tgz:45139.got - 2010.06.03 12:22:45.
