data_PCOD9163170
_publ_section_title
;
Structure prediction by ZEFSAII (Michael W. Deem and Ramdas Pophale) SiO2 
 PCOD9163170
Probable space group: P 21/M
;
_chemical_formula_sum "Si O2"
_cell_formula_units_Z 18
_cell_length_a 7.672322
_cell_length_b 19.495004
_cell_length_c 5.064578
_cell_angle_alpha 90.000000
_cell_angle_beta 115.768221
_cell_angle_gamma 90.000000
_cell_volume 682.191153
_symmetry_space_group_name_H-M "P 21/M"
_symmetry_group_IT_number 11
_symmetry_cell_setting 'monoclinic'
loop_
_space_group_symop_operation_xyz
x,y,z
-x,1/2+y,-z
-x,-y,-z
x,1/2-y,z
loop_
_atom_site_type_symbol
_atom_site_label
_atom_site_fract_x
_atom_site_fract_y
_atom_site_fract_z
Si Si1 0.039021 0.866900 0.327522
Si Si2 0.378844 0.602178 0.948143
Si Si3 0.743917 0.966779 0.891831
Si Si4 0.699055 0.645981 0.483845
Si Si5 0.102049 0.250000 0.054845
O O1 0.934481 0.936312 0.158968
O O2 0.872929 0.831765 0.405073
O O3 0.055322 0.811664 0.107737
O O4 0.224331 0.875784 0.630399
O O5 0.554967 0.565333 0.908645
O O6 0.496068 0.654605 0.208411
O O7 0.278494 0.547057 0.076952
O O8 0.732490 0.933461 0.593206
O O9 0.735526 0.690584 0.764552
#
# Coordination Sequence:
#
# PCOD9163170 Si02
#       5
#     4   4   4   4   2
#     4  10  21  37  57  81 111 147 187 229 274 328
#     4  10  20  36  59  86 113 146 183 223 280 339
#     4   9  20  37  57  86 119 142 175 230 283 331
#     4  10  21  37  57  80 110 146 186 231 273 326
#     4  10  22  40  54  76 114 148 186 236 276 316
#
# _framework density 26.385567000000002
#
# number of rings (size 3 to 8) (size 9 to 14) (size 15 to 20)
#    0.000    2.222    0.000    2.000    0.000    5.333 
#    0.000   11.111    0.000    0.000    0.000    0.000 
#    0.000    0.000    0.000    0.000    0.000    0.000 
#
# Total GULP energy -100290.142645 kJ/mol
# GULP energy per Si atom -5571.674591 kJ/mol
# Density = 2.632551 g / cm^3
# Si number density = 26.385567 Si / 1000 Ang^3
#
#
#
# Elastic Constant Matrix: (Units=GPa)
#
#
# Indices 1 2 3 4 5 6 
#
# 1 107.7564 4.7503 39.6711 0.0000 27.4461 0.0000
# 2 4.7503 65.5878 44.0845 0.0000 33.1259 0.0000
# 3 39.6711 44.0845 246.4048 0.0000 77.9016 0.0000
# 4 0.0000 0.0000 0.0000 319.6077 0.0000 -123.1152
# 5 27.4461 33.1259 77.9016 0.0000 60.3113 0.0000
# 6 0.0000 0.0000 0.0000 -123.1152 0.0000 54.5688
#
#
#
# Elastic Compliance Matrix: (Units=1/GPa)
#
#
# Indices 1 2 3 4 5 6 
#
# 1 0.010767 0.002355 -0.000333 0.000000 -0.005763 0.000000
# 2 0.002355 0.021620 -0.000261 0.000000 -0.012610 0.000000
# 3 -0.000333 -0.000261 0.006871 0.000000 -0.008581 0.000000
# 4 0.000000 0.000000 0.000000 0.023899 0.000000 0.053920
# 5 -0.005763 -0.012610 -0.008581 0.000000 0.037213 0.000000
# 6 0.000000 0.000000 0.000000 0.053920 0.000000 0.139978
#
#
# Mechanical properties :
#
#
# Convention : Reuss Voigt Hill
#
# Bulk Modulus (GPa) = 23.37473 66.30675 44.84074
# Shear Modulus (GPa) = 19.91347 108.98044 64.44696
#
# Velocity S-wave (km/s) = 2.75018 6.43372 4.94754
# Velocity P-wave (km/s) = 4.35463 8.96520 7.04761
#
# Compressibility (1/GPa) = 0.04278124
#
# Stress axis : x y z
#
# Youngs Moduli (GPa) = 92.87810 46.25333 145.52919
#
# Poissons Ratio (x) = -0.10891 0.04841
# Poissons Ratio (y) = -0.21869 0.03792
# Poissons Ratio (z) = 0.03089 0.01205
#
# Static dielectric constant tensor:
#      x y z
#    x 2.171170 0.000000 -0.148990 
#    y 0.000000 2.133580 0.000000 
#    z -0.148990 0.000000 2.157910 
# 
# From -- ./inp_files/626.got.cif
#   From: 2010.05.17/outbox.cif.g08.bks.cpg/sg11_1_cif.got.tgz:626.got - 2010.06.03 12:22:45.
