data_PCOD9163130
_publ_section_title
;
Structure prediction by ZEFSAII (Michael W. Deem and Ramdas Pophale) SiO2 
 PCOD9163130
Probable space group: P 21/M
;
_chemical_formula_sum "Si O2"
_cell_formula_units_Z 32
_cell_length_a 27.914964
_cell_length_b 7.959682
_cell_length_c 21.602852
_cell_angle_alpha 90.000000
_cell_angle_beta 161.117798
_cell_angle_gamma 90.000000
_cell_volume 1553.402331
_symmetry_space_group_name_H-M "P 21/M"
_symmetry_group_IT_number 11
_symmetry_cell_setting 'monoclinic'
loop_
_space_group_symop_operation_xyz
x,y,z
-x,1/2+y,-z
-x,-y,-z
x,1/2-y,z
loop_
_atom_site_type_symbol
_atom_site_label
_atom_site_fract_x
_atom_site_fract_y
_atom_site_fract_z
Si Si1 0.517746 0.048171 0.337825
Si Si2 0.625917 0.950277 0.605815
Si Si3 0.334332 0.949842 0.814742
Si Si4 0.197300 0.456120 0.906375
Si Si5 0.219529 0.955863 0.427815
Si Si6 0.955940 0.547334 0.015819
Si Si7 0.838880 0.948952 0.278232
Si Si8 0.874525 0.455600 0.551861
O O1 0.512709 0.250000 0.326372
O O2 0.630485 0.987407 0.422568
O O3 0.583301 0.007826 0.484978
O O4 0.350231 0.986326 0.124053
O O5 0.634650 0.750000 0.615633
O O6 0.789213 0.015120 0.823602
O O7 0.500000 0.000000 0.500000
O O8 0.324527 0.750000 0.801308
O O9 0.219611 0.014534 0.622401
O O10 0.282454 0.004813 0.819096
O O11 0.500000 0.000000 0.000000
O O12 0.197969 0.250000 0.907790
O O13 0.190408 0.514797 0.826596
O O14 0.045508 0.507479 0.754165
O O15 0.220685 0.750000 0.429096
O O16 0.197395 0.009501 0.471408
O O17 0.079932 0.011676 0.215598
O O18 0.955210 0.750000 0.019120
O O19 0.000000 0.500000 0.000000
O O20 0.840001 0.750000 0.273801
O O21 0.000000 0.000000 0.500000
O O22 0.873032 0.250000 0.549419
#
# Coordination Sequence:
#
# PCOD9163130 Si02
#       8
#     4   4   4   4   4   4   4   4
#     4  10  20  36  60  86 113 148 194 239 285 342
#     4  11  24  39  58  85 119 155 193 239 291 344
#     4  11  23  39  60  88 119 156 199 250 302 355
#     4   9  19  34  57  86 114 151 196 237 283 348
#     4   9  18  32  55  84 111 143 187 237 282 336
#     4  10  20  36  59  84 109 144 186 229 282 336
#     4  11  21  38  62  88 118 156 201 248 298 357
#     4   9  18  34  56  83 114 146 192 240 281 340
#
# _framework density 20.599945000000002
#
# number of rings (size 3 to 8) (size 9 to 14) (size 15 to 20)
#    0.000    2.000    2.500    1.125    3.500    0.500 
#    0.000    1.250    0.000    1.500    0.000    0.000 
#    0.000    0.000    0.000    0.000    0.000    0.000 
#
# Total GULP energy -178746.710833 kJ/mol
# GULP energy per Si atom -5585.834714 kJ/mol
# Density = 2.055306 g / cm^3
# Si number density = 20.599945 Si / 1000 Ang^3
#
#
#
# Elastic Constant Matrix: (Units=GPa)
#
#
# Indices 1 2 3 4 5 6 
#
# 1 109.1443 0.1167 15.6458 0.0000 26.0827 0.0000
# 2 0.1167 15.4374 7.5960 0.0000 1.5032 0.0000
# 3 15.6458 7.5960 101.0573 0.0000 27.1279 0.0000
# 4 0.0000 0.0000 0.0000 19.6566 0.0000 -0.9554
# 5 26.0827 1.5032 27.1279 0.0000 39.1083 0.0000
# 6 0.0000 0.0000 0.0000 -0.9554 0.0000 24.2621
#
#
#
# Elastic Compliance Matrix: (Units=1/GPa)
#
#
# Indices 1 2 3 4 5 6 
#
# 1 0.010912 0.000507 0.000284 0.000000 -0.007494 0.000000
# 2 0.000507 0.067330 -0.005350 0.000000 0.000785 0.000000
# 3 0.000284 -0.005350 0.012594 0.000000 -0.008720 0.000000
# 4 0.000000 0.000000 0.000000 0.050971 0.000000 0.002007
# 5 -0.007494 0.000785 -0.008720 0.000000 0.036587 0.000000
# 6 0.000000 0.000000 0.000000 0.002007 0.000000 0.041296
#
#
# Mechanical properties :
#
#
# Convention : Reuss Voigt Hill
#
# Bulk Modulus (GPa) = 12.23703 30.26177 21.24940
# Shear Modulus (GPa) = 19.52772 30.09078 24.80925
#
# Velocity S-wave (km/s) = 3.08222 3.82608 3.47412
# Velocity P-wave (km/s) = 4.31509 5.85155 5.14104
#
# Compressibility (1/GPa) = 0.08171921
#
# Stress axis : x y z
#
# Youngs Moduli (GPa) = 91.64397 14.85220 79.40069
#
# Poissons Ratio (x) = -0.00754 -0.02257
# Poissons Ratio (y) = -0.04650 0.42480
# Poissons Ratio (z) = -0.02605 0.07946
#
# Static dielectric constant tensor:
#      x y z
#    x 1.698870 0.000000 0.000520 
#    y 0.000000 1.757700 0.000000 
#    z 0.000520 0.000000 1.728200 
# 
# From -- ./inp_files/67135.got.cif
#   From: 2010.05.17/outbox.cif.g08.bks.cpg/sg11_34_cif.got.tgz:67135.got - 2010.06.03 12:22:45.
