data_PCOD9163666
_publ_section_title
;
Structure prediction by ZEFSAII (Michael W. Deem and Ramdas Pophale) SiO2 
 PCOD9163666
Probable space group: P 21/M
;
_chemical_formula_sum "Si O2"
_cell_formula_units_Z 24
_cell_length_a 14.575284
_cell_length_b 14.831225
_cell_length_c 8.170074
_cell_angle_alpha 90.000000
_cell_angle_beta 46.257324
_cell_angle_gamma 90.000000
_cell_volume 1275.937049
_symmetry_space_group_name_H-M "P 21/M"
_symmetry_group_IT_number 11
_symmetry_cell_setting 'monoclinic'
loop_
_space_group_symop_operation_xyz
x,y,z
-x,1/2+y,-z
-x,-y,-z
x,1/2-y,z
loop_
_atom_site_type_symbol
_atom_site_label
_atom_site_fract_x
_atom_site_fract_y
_atom_site_fract_z
Si Si1 0.621074 0.851091 0.077369
Si Si2 0.909593 0.857361 0.068960
Si Si3 0.211876 0.979441 0.235619
Si Si4 0.989888 0.521735 0.262996
Si Si5 0.394314 0.356068 0.541591
Si Si6 0.470711 0.903604 0.958980
O O1 0.677080 0.750000 0.032801
O O2 0.559935 0.877504 0.329115
O O3 0.722151 0.929192 0.913519
O O4 0.528893 0.844694 0.033827
O O5 0.932027 0.750000 0.019191
O O6 0.973797 0.899245 0.151464
O O7 0.757382 0.871824 0.269983
O O8 0.963886 0.925630 0.865989
O O9 0.146037 0.005207 0.486683
O O10 0.096686 0.950936 0.261524
O O11 0.319872 0.903776 0.118953
O O12 0.415558 0.250000 0.492077
O O13 0.461311 0.398093 0.300795
O O14 0.500000 0.000000 0.000000
#
# Coordination Sequence:
#
# PCOD9163666 Si02
#       6
#     4   4   4   4   4   4
#     4  10  20  37  61  87 114 154 202 246 295 349
#     4  10  20  38  60  85 114 152 202 251 293 346
#     4  10  21  38  57  85 118 154 192 241 292 355
#     4  10  21  38  60  85 118 157 200 238 292 357
#     4  10  20  37  61  86 112 148 200 252 290 345
#     4  10  21  35  55  86 114 146 186 238 298 346
#
# _framework density 18.809705000000001
#
# number of rings (size 3 to 8) (size 9 to 14) (size 15 to 20)
#    0.000    2.000    1.667    2.500    0.000    4.667 
#    6.000    5.833    0.000    0.000    0.000    0.000 
#    0.000    0.000    0.000    0.000    0.000    0.000 
#
# Total GULP energy -133619.326634 kJ/mol
# GULP energy per Si atom -5567.471943 kJ/mol
# Density = 1.876689 g / cm^3
# Si number density = 18.809705 Si / 1000 Ang^3
#
#
#
# Elastic Constant Matrix: (Units=GPa)
#
#
# Indices 1 2 3 4 5 6 
#
# 1 66.7468 18.1384 38.0399 0.0000 9.3699 0.0000
# 2 18.1384 66.7235 28.5972 0.0000 6.4425 0.0000
# 3 38.0399 28.5972 121.7512 0.0000 18.1510 0.0000
# 4 0.0000 0.0000 0.0000 -38.0904 0.0000 30.2869
# 5 9.3699 6.4425 18.1510 0.0000 27.1659 0.0000
# 6 0.0000 0.0000 0.0000 30.2869 0.0000 6.4497
#
#
#
# Elastic Compliance Matrix: (Units=1/GPa)
#
#
# Indices 1 2 3 4 5 6 
#
# 1 0.018873 -0.002800 -0.004851 0.000000 -0.002604 0.000000
# 2 -0.002800 0.017134 -0.002985 0.000000 -0.001103 0.000000
# 3 -0.004851 -0.002985 0.011190 0.000000 -0.005095 0.000000
# 4 0.000000 0.000000 0.000000 -0.005546 0.000000 0.026043
# 5 -0.002604 -0.001103 -0.005095 0.000000 0.041375 0.000000
# 6 0.000000 0.000000 0.000000 0.026043 0.000000 0.032753
#
#
# Mechanical properties :
#
#
# Convention : Reuss Voigt Hill
#
# Bulk Modulus (GPa) = 38.57252 47.19694 42.88473
# Shear Modulus (GPa) = 34.31868 10.46811 22.39340
#
# Velocity S-wave (km/s) = 4.27607 2.36164 3.45414
# Velocity P-wave (km/s) = 6.70306 5.70813 6.22550
#
# Compressibility (1/GPa) = 0.02592519
#
# Stress axis : x y z
#
# Youngs Moduli (GPa) = 52.98569 58.36225 89.36662
#
# Poissons Ratio (x) = 0.16342 0.43349
# Poissons Ratio (y) = 0.14836 0.26678
# Poissons Ratio (z) = 0.25702 0.17423
#
# Static dielectric constant tensor:
#      x y z
#    x 1.733280 0.000000 0.013780 
#    y 0.000000 1.649150 0.000000 
#    z 0.013780 0.000000 1.655230 
# 
# From -- ./inp_files/17546.got.cif
#   From: 2010.05.17/outbox.cif.g08.bks.cpg/sg11_9_cif.got.tgz:17546.got - 2010.06.03 12:22:45.
