data_PCOD9163127
_publ_section_title
;
Structure prediction by ZEFSAII (Michael W. Deem and Ramdas Pophale) SiO2 
 PCOD9163127
Probable space group: P 21/M
;
_chemical_formula_sum "Si O2"
_cell_formula_units_Z 32
_cell_length_a 24.834685
_cell_length_b 8.965981
_cell_length_c 23.202091
_cell_angle_alpha 90.000000
_cell_angle_beta 19.803332
_cell_angle_gamma 90.000000
_cell_volume 1750.320413
_symmetry_space_group_name_H-M "P 21/M"
_symmetry_group_IT_number 11
_symmetry_cell_setting 'monoclinic'
loop_
_space_group_symop_operation_xyz
x,y,z
-x,1/2+y,-z
-x,-y,-z
x,1/2-y,z
loop_
_atom_site_type_symbol
_atom_site_label
_atom_site_fract_x
_atom_site_fract_y
_atom_site_fract_z
Si Si1 0.941153 0.430366 0.384504
Si Si2 0.337751 0.075475 0.673286
Si Si3 0.172886 0.070355 0.956901
Si Si4 0.935459 0.428306 0.623575
Si Si5 0.557845 0.071427 0.001485
Si Si6 0.577992 0.069328 0.746542
Si Si7 0.736118 0.931199 0.008426
Si Si8 0.940463 0.575812 0.119880
O O1 0.945741 0.250000 0.383578
O O2 0.761088 0.470038 0.545296
O O3 0.971779 0.500561 0.416220
O O4 0.097169 0.476462 0.190073
O O5 0.351551 0.250000 0.669937
O O6 0.261679 0.016627 0.809513
O O7 0.243805 0.059914 0.707991
O O8 0.500000 0.000000 0.500000
O O9 0.163596 0.250000 0.966392
O O10 0.249926 0.021831 0.938932
O O11 0.999701 0.004486 0.117358
O O12 0.956984 0.250000 0.600830
O O13 0.746378 0.458983 0.819780
O O14 0.000000 0.500000 0.500000
O O15 0.535789 0.250000 0.022419
O O16 0.500000 0.000000 0.000000
O O17 0.461813 0.999931 0.151137
O O18 0.572096 0.250000 0.756099
O O19 0.429032 0.021347 0.855724
O O20 0.734393 0.750000 0.008941
O O21 0.984140 0.750000 0.075849
O O22 0.000000 0.500000 0.000000
#
# Coordination Sequence:
#
# PCOD9163127 Si02
#       8
#     4   4   4   4   4   4   4   4
#     4  10  20  36  59  84 107 142 185 223 276 334
#     4   9  18  31  49  76 110 141 176 220 266 316
#     4   9  18  34  54  79 107 142 182 220 266 320
#     4  11  23  37  55  81 111 144 182 227 278 334
#     4  11  23  37  55  81 111 144 182 225 279 336
#     4  10  20  36  59  83 109 143 182 226 275 329
#     4   9  18  36  58  81 114 146 181 231 273 319
#     4   9  17  31  51  75 102 135 173 215 261 311
#
# _framework density 18.282366
#
# number of rings (size 3 to 8) (size 9 to 14) (size 15 to 20)
#    0.000    2.250    1.250    2.625    0.000    7.500 
#    2.250    1.250    0.000    0.000    0.000    0.000 
#    0.000    0.000    0.000    0.000    0.000    0.000 
#
# Total GULP energy -178145.588212 kJ/mol
# GULP energy per Si atom -5567.049632 kJ/mol
# Density = 1.824075 g / cm^3
# Si number density = 18.282366 Si / 1000 Ang^3
#
#
#
# Elastic Constant Matrix: (Units=GPa)
#
#
# Indices 1 2 3 4 5 6 
#
# 1 142.0594 23.8421 55.0216 0.0000 -24.0226 0.0000
# 2 23.8421 -24.7006 26.3651 0.0000 -30.6872 0.0000
# 3 55.0216 26.3651 107.1028 0.0000 -23.8386 0.0000
# 4 0.0000 0.0000 0.0000 26.0353 0.0000 -4.3603
# 5 -24.0226 -30.6872 -23.8386 0.0000 18.0784 0.0000
# 6 0.0000 0.0000 0.0000 -4.3603 0.0000 25.2931
#
#
#
# Elastic Compliance Matrix: (Units=1/GPa)
#
#
# Indices 1 2 3 4 5 6 
#
# 1 0.009530 -0.001510 -0.003222 0.000000 0.005852 0.000000
# 2 -0.001510 -0.012352 -0.001836 0.000000 -0.025395 0.000000
# 3 -0.003222 -0.001836 0.013867 0.000000 0.010889 0.000000
# 4 0.000000 0.000000 0.000000 0.039551 0.000000 0.006818
# 5 0.005852 -0.025395 0.010889 0.000000 0.034343 0.000000
# 6 0.000000 0.000000 0.000000 0.006818 0.000000 0.040712
#
#
# Mechanical properties :
#
#
# Convention : Reuss Voigt Hill
#
# Bulk Modulus (GPa) = -478.49118 48.32436 -215.08341
# Shear Modulus (GPa) = 36.20836 21.83020 29.01928
#
# Velocity S-wave (km/s) = 4.45512 3.45926 3.98839
# Velocity P-wave (km/s) = 15.35666 6.51498 9.83316
#
# Compressibility (1/GPa) = -0.00208990
#
# Stress axis : x y z
#
# Youngs Moduli (GPa) = 104.93022 -80.95700 72.11180
#
# Poissons Ratio (x) = -0.12226 0.23231
# Poissons Ratio (y) = 0.15847 0.13238
# Poissons Ratio (z) = 0.33804 -0.14862
#
# Static dielectric constant tensor:
#      x y z
#    x 1.619670 0.000000 -0.036910 
#    y 0.000000 1.621750 0.000000 
#    z -0.036910 0.000000 1.717950 
# 
# From -- ./inp_files/69946.got.cif
#   From: 2010.05.17/outbox.cif.g08.bks.cpg/sg11_35_cif.got.tgz:69946.got - 2010.06.03 12:22:45.
