data_PCOD9163417
_publ_section_title
;
Structure prediction by ZEFSAII (Michael W. Deem and Ramdas Pophale) SiO2 
 PCOD9163417
Probable space group: P 21/M
;
_chemical_formula_sum "Si O2"
_cell_formula_units_Z 24
_cell_length_a 8.498607
_cell_length_b 16.263483
_cell_length_c 11.520347
_cell_angle_alpha 90.000000
_cell_angle_beta 132.688761
_cell_angle_gamma 90.000000
_cell_volume 1170.421620
_symmetry_space_group_name_H-M "P 21/M"
_symmetry_group_IT_number 11
_symmetry_cell_setting 'monoclinic'
loop_
_space_group_symop_operation_xyz
x,y,z
-x,1/2+y,-z
-x,-y,-z
x,1/2-y,z
loop_
_atom_site_type_symbol
_atom_site_label
_atom_site_fract_x
_atom_site_fract_y
_atom_site_fract_z
Si Si1 0.687118 0.160658 0.041941
Si Si2 0.754994 0.493602 0.912106
Si Si3 0.064194 0.604666 0.613113
Si Si4 0.668385 0.500091 0.417576
Si Si5 0.155968 0.659056 0.409706
Si Si6 0.747330 0.658437 0.045739
O O1 0.733399 0.250000 0.010440
O O2 0.817751 0.153322 0.227366
O O3 0.739628 0.081174 0.993998
O O4 0.437532 0.157474 0.950142
O O5 0.574378 0.476146 0.725579
O O6 0.701246 0.582864 0.938739
O O7 0.000000 0.500000 0.000000
O O8 0.221639 0.529509 0.650865
O O9 0.045661 0.653447 0.482602
O O10 0.837279 0.568852 0.541100
O O11 0.687123 0.418786 0.506233
O O12 0.252197 0.750000 0.445178
O O13 0.975338 0.647692 0.222245
O O14 0.740210 0.750000 0.987530
#
# Coordination Sequence:
#
# PCOD9163417 Si02
#       6
#     4   4   4   4   4   4
#     4  11  22  37  61  89 115 148 200 247 288 336
#     4  12  25  39  57  81 123 163 190 233 290 355
#     4   9  17  32  58  84 111 135 185 245 288 320
#     4   9  19  33  54  80 112 149 182 231 285 339
#     4   9  16  29  53  86 112 134 177 238 295 331
#     4  10  20  36  63  91 114 148 196 247 285 340
#
# _framework density 20.50543
#
# number of rings (size 3 to 8) (size 9 to 14) (size 15 to 20)
#    1.000    1.000    1.667    3.000    0.000    1.333 
#    0.000    4.167    0.000    2.000    0.000    0.000 
#    0.000    0.000    0.000    0.000    0.000    0.000 
#
# Total GULP energy -133774.949801 kJ/mol
# GULP energy per Si atom -5573.956242 kJ/mol
# Density = 2.045876 g / cm^3
# Si number density = 20.505430 Si / 1000 Ang^3
#
#
#
# Elastic Constant Matrix: (Units=GPa)
#
#
# Indices 1 2 3 4 5 6 
#
# 1 27.9133 14.2418 8.2604 0.0000 15.0155 0.0000
# 2 14.2418 82.2092 1.5766 0.0000 -6.4941 0.0000
# 3 8.2604 1.5766 73.7338 0.0000 14.1900 0.0000
# 4 0.0000 0.0000 0.0000 -7.9712 0.0000 32.2521
# 5 15.0155 -6.4941 14.1900 0.0000 24.8376 0.0000
# 6 0.0000 0.0000 0.0000 32.2521 0.0000 -21.8274
#
#
#
# Elastic Compliance Matrix: (Units=1/GPa)
#
#
# Indices 1 2 3 4 5 6 
#
# 1 0.068022 -0.015453 0.001575 0.000000 -0.046062 0.000000
# 2 -0.015453 0.015997 -0.001364 0.000000 0.014304 0.000000
# 3 0.001575 -0.001364 0.015355 0.000000 -0.010081 0.000000
# 4 0.000000 0.000000 0.000000 0.025199 0.000000 0.037234
# 5 -0.046062 0.014304 -0.010081 0.000000 0.077608 0.000000
# 6 0.000000 0.000000 0.000000 0.037234 0.000000 0.009202
#
#
# Mechanical properties :
#
#
# Convention : Reuss Voigt Hill
#
# Bulk Modulus (GPa) = 14.51578 25.77932 20.14755
# Shear Modulus (GPa) = 18.87997 9.65962 14.26979
#
# Velocity S-wave (km/s) = 3.03765 2.17278 2.64086
# Velocity P-wave (km/s) = 4.40425 4.34671 4.37557
#
# Compressibility (1/GPa) = 0.06889056
#
# Stress axis : x y z
#
# Youngs Moduli (GPa) = 14.70110 62.51095 65.12470
#
# Poissons Ratio (x) = 0.96598 -0.10255
# Poissons Ratio (y) = 0.22718 0.08881
# Poissons Ratio (z) = -0.02315 0.08524
#
# Static dielectric constant tensor:
#      x y z
#    x 1.743930 0.000000 -0.004490 
#    y 0.000000 1.781590 0.000000 
#    z -0.004490 0.000000 1.737900 
# 
# From -- ./inp_files/47698.got.cif
#   From: 2010.05.17/outbox.cif.g08.bks.cpg/sg11_24_cif.got.tgz:47698.got - 2010.06.03 12:22:45.
