data_PCOD9163679
_publ_section_title
;
Structure prediction by ZEFSAII (Michael W. Deem and Ramdas Pophale) SiO2 
 PCOD9163679
Probable space group: P 21/M
;
_chemical_formula_sum "Si O2"
_cell_formula_units_Z 32
_cell_length_a 13.175681
_cell_length_b 9.036107
_cell_length_c 14.483904
_cell_angle_alpha 90.000000
_cell_angle_beta 94.417987
_cell_angle_gamma 90.000000
_cell_volume 1719.284304
_symmetry_space_group_name_H-M "P 21/M"
_symmetry_group_IT_number 11
_symmetry_cell_setting 'monoclinic'
loop_
_space_group_symop_operation_xyz
x,y,z
-x,1/2+y,-z
-x,-y,-z
x,1/2-y,z
loop_
_atom_site_type_symbol
_atom_site_label
_atom_site_fract_x
_atom_site_fract_y
_atom_site_fract_z
Si Si1 0.614477 0.425418 0.207318
Si Si2 0.004098 0.928575 0.206052
Si Si3 0.391168 0.071326 0.242548
Si Si4 0.596671 0.426397 0.556527
Si Si5 0.809362 0.571893 0.888296
Si Si6 0.211062 0.071875 0.899433
Si Si7 0.257712 0.923498 0.600636
Si Si8 0.044073 0.426037 0.594381
O O1 0.618222 0.250000 0.188688
O O2 0.496849 0.472896 0.200311
O O3 0.689963 0.506075 0.142782
O O4 0.658864 0.448035 0.313718
O O5 0.010036 0.750000 0.200541
O O6 0.892619 0.973129 0.160489
O O7 0.011222 0.971280 0.314338
O O8 0.092954 0.999018 0.152071
O O9 0.394771 0.250000 0.254677
O O10 0.292506 0.033686 0.175469
O O11 0.387120 0.996446 0.342282
O O12 0.500000 0.500000 0.500000
O O13 0.581078 0.250000 0.562421
O O14 0.692021 0.451540 0.495058
O O15 0.820884 0.750000 0.886642
O O16 0.797928 0.527390 0.994280
O O17 0.217256 0.250000 0.895729
O O18 0.227535 0.750000 0.602902
O O19 0.160998 0.024831 0.611368
O O20 0.036502 0.250000 0.585951
O O21 0.000000 0.500000 0.500000
#
# Coordination Sequence:
#
# PCOD9163679 Si02
#       8
#     4   4   4   4   4   4   4   4
#     4  10  20  37  61  86 118 156 194 241 292 348
#     4  10  22  40  61  85 119 153 194 247 295 350
#     4  10  22  41  58  86 124 158 197 243 295 352
#     4  11  22  37  59  86 117 155 195 239 285 343
#     4  10  23  40  62  87 118 156 196 245 299 352
#     4  10  21  40  62  89 117 149 197 250 297 350
#     4  10  21  38  58  84 117 154 197 242 287 348
#     4  11  24  40  59  87 121 157 192 241 297 351
#
# _framework density 18.612396
#
# number of rings (size 3 to 8) (size 9 to 14) (size 15 to 20)
#    0.000    1.750    2.500    1.125    1.750    4.500 
#    0.000    0.000    0.000    0.000    0.000    0.000 
#    0.000    0.000    0.000    0.000    0.000    0.000 
#
# Total GULP energy -178761.945805 kJ/mol
# GULP energy per Si atom -5586.310806 kJ/mol
# Density = 1.857003 g / cm^3
# Si number density = 18.612396 Si / 1000 Ang^3
#
#
#
# Elastic Constant Matrix: (Units=GPa)
#
#
# Indices 1 2 3 4 5 6 
#
# 1 85.8584 32.2661 58.8397 0.0000 -23.3473 0.0000
# 2 32.2661 24.4108 44.3526 0.0000 -9.6736 0.0000
# 3 58.8397 44.3526 154.0629 0.0000 -19.0297 0.0000
# 4 0.0000 0.0000 0.0000 31.4728 0.0000 -6.7575
# 5 -23.3473 -9.6736 -19.0297 0.0000 32.7393 0.0000
# 6 0.0000 0.0000 0.0000 -6.7575 0.0000 30.9915
#
#
#
# Elastic Compliance Matrix: (Units=1/GPa)
#
#
# Indices 1 2 3 4 5 6 
#
# 1 0.025413 -0.030109 0.000110 0.000000 0.009290 0.000000
# 2 -0.030109 0.126061 -0.024610 0.000000 0.001472 0.000000
# 3 0.000110 -0.024610 0.013624 0.000000 0.000725 0.000000
# 4 0.000000 0.000000 0.000000 0.033334 0.000000 0.007268
# 5 0.009290 0.001472 0.000725 0.000000 0.038026 0.000000
# 6 0.000000 0.000000 0.000000 0.007268 0.000000 0.033852
#
#
# Mechanical properties :
#
#
# Convention : Reuss Voigt Hill
#
# Bulk Modulus (GPa) = 17.89574 59.47208 38.68391
# Shear Modulus (GPa) = 12.55790 27.63229 20.09510
#
# Velocity S-wave (km/s) = 2.60033 3.85725 3.28939
# Velocity P-wave (km/s) = 4.31873 7.20140 5.93766
#
# Compressibility (1/GPa) = 0.05587922
#
# Stress axis : x y z
#
# Youngs Moduli (GPa) = 39.34946 7.93264 73.40205
#
# Poissons Ratio (x) = 0.23884 -0.00804
# Poissons Ratio (y) = 1.18476 1.80646
# Poissons Ratio (z) = -0.00431 0.19523
#
# Static dielectric constant tensor:
#      x y z
#    x 1.624550 0.000000 0.009270 
#    y 0.000000 1.624230 0.000000 
#    z 0.009270 0.000000 1.631080 
# 
# From -- ./inp_files/49339.got.cif
#   From: 2010.05.17/outbox.cif.g08.bks.cpg/sg11_25_cif.got.tgz:49339.got - 2010.06.03 12:22:45.
