data_PCOD9163454
_publ_section_title
;
Structure prediction by ZEFSAII (Michael W. Deem and Ramdas Pophale) SiO2 
 PCOD9163454
Probable space group: P 21/M
;
_chemical_formula_sum "Si O2"
_cell_formula_units_Z 28
_cell_length_a 19.624471
_cell_length_b 11.787854
_cell_length_c 12.471521
_cell_angle_alpha 90.000000
_cell_angle_beta 31.421904
_cell_angle_gamma 90.000000
_cell_volume 1504.075941
_symmetry_space_group_name_H-M "P 21/M"
_symmetry_group_IT_number 11
_symmetry_cell_setting 'monoclinic'
loop_
_space_group_symop_operation_xyz
x,y,z
-x,1/2+y,-z
-x,-y,-z
x,1/2-y,z
loop_
_atom_site_type_symbol
_atom_site_label
_atom_site_fract_x
_atom_site_fract_y
_atom_site_fract_z
Si Si1 0.134029 0.452283 0.370901
Si Si2 0.199250 0.121831 0.687096
Si Si3 0.354393 0.621327 0.164416
Si Si4 0.443284 0.490502 0.253574
Si Si5 0.660791 0.875157 0.077381
Si Si6 0.001362 0.122952 0.756572
Si Si7 0.139792 0.116018 0.013611
O O1 0.234704 0.546742 0.280315
O O2 0.000000 0.500000 0.500000
O O3 0.093842 0.379281 0.527951
O O4 0.216350 0.389098 0.168526
O O5 0.251040 0.250000 0.619176
O O6 0.149765 0.098312 0.873007
O O7 0.084371 0.117519 0.754155
O O8 0.316088 0.045265 0.488396
O O9 0.312729 0.750000 0.224156
O O10 0.399562 0.578784 0.220361
O O11 0.479526 0.604668 0.918549
O O12 0.550580 0.538386 0.190608
O O13 0.605299 0.750000 0.138088
O O14 0.720197 0.886842 0.115595
O O15 0.934455 0.250000 0.845658
O O16 0.929923 0.999138 0.848522
O O17 0.091661 0.250000 0.096253
#
# Coordination Sequence:
#
# PCOD9163454 Si02
#       7
#     4   4   4   4   4   4   4
#     4  11  21  37  57  86 117 152 189 237 294 352
#     4  10  21  39  62  83 113 154 196 238 289 345
#     4  10  21  35  56  84 116 150 189 238 288 344
#     4  10  20  37  56  82 115 147 197 233 290 339
#     4  10  21  37  57  84 118 153 189 237 292 345
#     4  11  22  39  61  89 118 153 196 243 294 347
#     4  10  22  41  61  85 118 156 195 240 291 346
#
# _framework density 18.616081000000001
#
# number of rings (size 3 to 8) (size 9 to 14) (size 15 to 20)
#    0.000    1.714    2.857    1.714    0.000    2.286 
#    0.000    2.143    0.000    0.000    0.000    0.000 
#    0.000    0.000    0.000    0.000    0.000    0.000 
#
# Total GULP energy -155938.499390 kJ/mol
# GULP energy per Si atom -5569.232121 kJ/mol
# Density = 1.857371 g / cm^3
# Si number density = 18.616081 Si / 1000 Ang^3
#
#
#
# Elastic Constant Matrix: (Units=GPa)
#
#
# Indices 1 2 3 4 5 6 
#
# 1 77.4274 9.9862 -3.7669 0.0000 11.7356 0.0000
# 2 9.9862 104.3111 21.4367 0.0000 -2.4715 0.0000
# 3 -3.7669 21.4367 16.4733 0.0000 0.6493 0.0000
# 4 0.0000 0.0000 0.0000 7.0542 0.0000 -3.5606
# 5 11.7356 -2.4715 0.6493 0.0000 26.2118 0.0000
# 6 0.0000 0.0000 0.0000 -3.5606 0.0000 12.8140
#
#
#
# Elastic Compliance Matrix: (Units=1/GPa)
#
#
# Indices 1 2 3 4 5 6 
#
# 1 0.014785 -0.003189 0.007811 0.000000 -0.007114 0.000000
# 2 -0.003189 0.013847 -0.018874 0.000000 0.003201 0.000000
# 3 0.007811 -0.018874 0.087345 0.000000 -0.007440 0.000000
# 4 0.000000 0.000000 0.000000 0.164886 0.000000 0.045817
# 5 -0.007114 0.003201 -0.007440 0.000000 0.041822 0.000000
# 6 0.000000 0.000000 0.000000 0.045817 0.000000 0.090771
#
#
# Mechanical properties :
#
#
# Convention : Reuss Voigt Hill
#
# Bulk Modulus (GPa) = 11.43219 28.16929 19.80074
# Shear Modulus (GPa) = 10.61310 20.58639 15.59974
#
# Velocity S-wave (km/s) = 2.39028 3.32902 2.89791
# Velocity P-wave (km/s) = 3.71110 5.47184 4.67511
#
# Compressibility (1/GPa) = 0.08747233
#
# Stress axis : x y z
#
# Youngs Moduli (GPa) = 67.63650 72.21969 11.44890
#
# Poissons Ratio (x) = 0.23033 -0.08943
# Poissons Ratio (y) = 0.21571 0.21609
# Poissons Ratio (z) = -0.52834 1.36308
#
# Static dielectric constant tensor:
#      x y z
#    x 1.627560 0.000000 0.010150 
#    y 0.000000 1.705490 0.000000 
#    z 0.010150 0.000000 1.640090 
# 
# From -- ./inp_files/43217.got.cif
#   From: 2010.05.17/outbox.cif.g08.bks.cpg/sg11_22_cif.got.tgz:43217.got - 2010.06.03 12:22:45.
