data_PCOD9163111
_publ_section_title
;
Structure prediction by ZEFSAII (Michael W. Deem and Ramdas Pophale) SiO2 
 PCOD9163111
Probable space group: P 21/M
;
_chemical_formula_sum "Si O2"
_cell_formula_units_Z 24
_cell_length_a 7.341003
_cell_length_b 22.593409
_cell_length_c 10.028454
_cell_angle_alpha 90.000000
_cell_angle_beta 33.492975
_cell_angle_gamma 90.000000
_cell_volume 917.867915
_symmetry_space_group_name_H-M "P 21/M"
_symmetry_group_IT_number 11
_symmetry_cell_setting 'monoclinic'
loop_
_space_group_symop_operation_xyz
x,y,z
-x,1/2+y,-z
-x,-y,-z
x,1/2-y,z
loop_
_atom_site_type_symbol
_atom_site_label
_atom_site_fract_x
_atom_site_fract_y
_atom_site_fract_z
Si Si1 0.311952 0.181748 0.813632
Si Si2 0.212765 0.681806 0.112904
Si Si3 0.503187 0.906623 0.750643
Si Si4 0.166913 0.492402 0.059227
Si Si5 0.792846 0.378401 0.329146
Si Si6 0.200543 0.927178 0.300910
O O1 0.390367 0.250000 0.792597
O O2 0.639017 0.149029 0.556429
O O3 0.068035 0.180217 0.832231
O O4 0.091417 0.156993 0.072445
O O5 0.273287 0.750000 0.107087
O O6 0.181391 0.641181 0.263393
O O7 0.492665 0.646521 0.861148
O O8 0.491241 0.880509 0.610441
O O9 0.839844 0.940155 0.577798
O O10 0.190788 0.953139 0.938412
O O11 0.225746 0.536127 0.147972
O O12 0.898611 0.446698 0.278402
O O13 0.468951 0.449737 0.831640
#
# Coordination Sequence:
#
# PCOD9163111 Si02
#       6
#     4   4   4   4   4   4
#     4  10  21  39  62  88 120 157 201 251 302 353
#     4   9  19  36  58  86 113 150 202 249 290 351
#     4  10  20  36  58  87 115 153 199 245 299 352
#     4  10  23  36  57  85 123 155 192 248 297 364
#     4  11  22  38  62  92 118 157 203 250 300 353
#     4  10  20  39  58  83 117 158 197 238 306 352
#
# _framework density 26.147554
#
# number of rings (size 3 to 8) (size 9 to 14) (size 15 to 20)
#    0.000    2.000    1.667    1.500    2.333    2.000 
#    0.000    1.667    0.000    0.000    0.000    0.000 
#    0.000    0.000    0.000    0.000    0.000    0.000 
#
# Total GULP energy -133870.821435 kJ/mol
# GULP energy per Si atom -5577.950893 kJ/mol
# Density = 2.608804 g / cm^3
# Si number density = 26.147554 Si / 1000 Ang^3
#
#
#
# Elastic Constant Matrix: (Units=GPa)
#
#
# Indices 1 2 3 4 5 6 
#
# 1 29.3129 24.5915 32.9119 0.0000 15.1357 0.0000
# 2 24.5915 186.3426 65.7651 0.0000 17.2414 0.0000
# 3 32.9119 65.7651 120.7173 0.0000 1.8317 0.0000
# 4 0.0000 0.0000 0.0000 36.1780 0.0000 -0.9545
# 5 15.1357 17.2414 1.8317 0.0000 37.4780 0.0000
# 6 0.0000 0.0000 0.0000 -0.9545 0.0000 21.9949
#
#
#
# Elastic Compliance Matrix: (Units=1/GPa)
#
#
# Indices 1 2 3 4 5 6 
#
# 1 0.068403 -0.000149 -0.018163 0.000000 -0.026669 0.000000
# 2 -0.000149 0.006970 -0.003712 0.000000 -0.002965 0.000000
# 3 -0.018163 -0.003712 0.015132 0.000000 0.008303 0.000000
# 4 0.000000 0.000000 0.000000 0.027673 0.000000 0.001201
# 5 -0.026669 -0.002965 0.008303 0.000000 0.038411 0.000000
# 6 0.000000 0.000000 0.000000 0.001201 0.000000 0.045517
#
#
# Mechanical properties :
#
#
# Convention : Reuss Voigt Hill
#
# Bulk Modulus (GPa) = 21.52519 64.76777 43.14648
# Shear Modulus (GPa) = 19.11017 33.33715 26.22366
#
# Velocity S-wave (km/s) = 2.70637 3.57454 3.17031
# Velocity P-wave (km/s) = 4.24453 6.46995 5.47158
#
# Compressibility (1/GPa) = 0.04645719
#
# Stress axis : x y z
#
# Youngs Moduli (GPa) = 14.61914 143.46245 66.08569
#
# Poissons Ratio (x) = 0.02143 1.20033
# Poissons Ratio (y) = 0.00218 0.24529
# Poissons Ratio (z) = 0.26553 0.53249
#
# Static dielectric constant tensor:
#      x y z
#    x 2.249360 0.000000 -0.057500 
#    y 0.000000 2.042420 0.000000 
#    z -0.057500 0.000000 2.095510 
# 
# From -- ./inp_files/4813.got.cif
#   From: 2010.05.17/outbox.cif.g08.bks.cpg/sg11_3_cif.got.tgz:4813.got - 2010.06.03 12:22:45.
