data_PCOD9163028
_publ_section_title
;
Structure prediction by ZEFSAII (Michael W. Deem and Ramdas Pophale) SiO2 
 PCOD9163028
Probable space group: P 21/M
;
_chemical_formula_sum "Si O2"
_cell_formula_units_Z 32
_cell_length_a 11.944352
_cell_length_b 15.196517
_cell_length_c 17.696528
_cell_angle_alpha 90.000000
_cell_angle_beta 32.428690
_cell_angle_gamma 90.000000
_cell_volume 1722.509523
_symmetry_space_group_name_H-M "P 21/M"
_symmetry_group_IT_number 11
_symmetry_cell_setting 'monoclinic'
loop_
_space_group_symop_operation_xyz
x,y,z
-x,1/2+y,-z
-x,-y,-z
x,1/2-y,z
loop_
_atom_site_type_symbol
_atom_site_label
_atom_site_fract_x
_atom_site_fract_y
_atom_site_fract_z
Si Si1 0.370041 0.644550 0.910708
Si Si2 0.411460 0.061311 0.614542
Si Si3 0.752524 0.500031 0.131810
Si Si4 0.990873 0.855901 0.235898
Si Si5 0.153540 0.142258 0.360028
Si Si6 0.221656 0.652356 0.513090
Si Si7 0.488073 0.649178 0.206112
Si Si8 0.078283 0.857506 0.355889
O O1 0.359639 0.750000 0.905936
O O2 0.312644 0.591580 0.868378
O O3 0.608726 0.620188 0.792245
O O4 0.201782 0.620068 0.070503
O O5 0.344968 0.014164 0.730099
O O6 0.209545 0.110215 0.695771
O O7 0.611425 0.118451 0.523467
O O8 0.500000 0.000000 0.500000
O O9 0.665101 0.578535 0.127040
O O10 0.000000 0.500000 0.000000
O O11 0.980368 0.750000 0.243270
O O12 0.004451 0.886603 0.315218
O O13 0.138969 0.250000 0.369010
O O14 0.994223 0.106491 0.387513
O O15 0.072325 0.113333 0.489324
O O16 0.164455 0.750000 0.570383
O O17 0.345936 0.655210 0.362659
O O18 0.561805 0.750000 0.148582
O O19 0.319104 0.619926 0.239278
O O20 0.074843 0.750000 0.358323
#
# Coordination Sequence:
#
# PCOD9163028 Si02
#       8
#     4   4   4   4   4   4   4   4
#     4  10  21  37  56  82 112 149 186 224 279 336
#     4  11  23  37  52  80 114 145 184 234 280 328
#     4  11  22  39  56  79 115 146 192 232 270 331
#     4  10  20  36  58  80 108 149 187 221 276 338
#     4   8  15  31  57  83 105 132 180 234 276 319
#     4   8  15  33  58  80 103 141 186 228 270 327
#     4   8  16  33  59  84 107 142 187 230 275 325
#     4   8  15  31  55  84 108 134 181 234 276 325
#
# _framework density 18.577546000000002
#
# number of rings (size 3 to 8) (size 9 to 14) (size 15 to 20)
#    0.000    2.750    1.250    1.875    1.750    1.000 
#    2.250    4.375    0.000    1.500    0.000    0.000 
#    0.000    0.000    0.000    0.000    0.000    0.000 
#
# Total GULP energy -178245.363143 kJ/mol
# GULP energy per Si atom -5570.167598 kJ/mol
# Density = 1.853526 g / cm^3
# Si number density = 18.577546 Si / 1000 Ang^3
#
#
#
# Elastic Constant Matrix: (Units=GPa)
#
#
# Indices 1 2 3 4 5 6 
#
# 1 156.9080 33.3839 73.7750 0.0000 -20.8821 0.0000
# 2 33.3839 28.5056 30.3021 0.0000 -4.8873 0.0000
# 3 73.7750 30.3021 105.1668 0.0000 -25.9040 0.0000
# 4 0.0000 0.0000 0.0000 14.3738 0.0000 5.2621
# 5 -20.8821 -4.8873 -25.9040 0.0000 35.3762 0.0000
# 6 0.0000 0.0000 0.0000 5.2621 0.0000 9.6073
#
#
#
# Elastic Compliance Matrix: (Units=1/GPa)
#
#
# Indices 1 2 3 4 5 6 
#
# 1 0.010301 -0.006518 -0.004968 0.000000 0.001542 0.000000
# 2 -0.006518 0.055287 -0.012718 0.000000 -0.005522 0.000000
# 3 -0.004968 -0.012718 0.018915 0.000000 0.009160 0.000000
# 4 0.000000 0.000000 0.000000 0.087020 0.000000 -0.047662
# 5 0.001542 -0.005522 0.009160 0.000000 0.035123 0.000000
# 6 0.000000 0.000000 0.000000 -0.047662 0.000000 0.130193
#
#
# Mechanical properties :
#
#
# Convention : Reuss Voigt Hill
#
# Bulk Modulus (GPa) = 27.70507 62.83361 45.26934
# Shear Modulus (GPa) = 12.58563 22.07943 17.33253
#
# Velocity S-wave (km/s) = 2.60564 3.45120 3.05779
# Velocity P-wave (km/s) = 4.89878 7.05527 6.07350
#
# Compressibility (1/GPa) = 0.03609448
#
# Stress axis : x y z
#
# Youngs Moduli (GPa) = 97.07539 18.08744 52.86861
#
# Poissons Ratio (x) = 0.11790 0.26267
# Poissons Ratio (y) = 0.63276 0.67236
# Poissons Ratio (z) = 0.48231 0.23003
#
# Static dielectric constant tensor:
#      x y z
#    x 1.814810 0.000000 -0.085490 
#    y 0.000000 1.640540 0.000000 
#    z -0.085490 0.000000 1.651550 
# 
# From -- ./inp_files/59457.got.cif
#   From: 2010.05.17/outbox.cif.g08.bks.cpg/sg11_30_cif.got.tgz:59457.got - 2010.06.03 12:22:45.
