data_PCOD9163412
_publ_section_title
;
Structure prediction by ZEFSAII (Michael W. Deem and Ramdas Pophale) SiO2 
 PCOD9163412
Probable space group: P 21/M
;
_chemical_formula_sum "Si O2"
_cell_formula_units_Z 30
_cell_length_a 12.057129
_cell_length_b 9.938220
_cell_length_c 11.794514
_cell_angle_alpha 90.000000
_cell_angle_beta 98.581383
_cell_angle_gamma 90.000000
_cell_volume 1397.472214
_symmetry_space_group_name_H-M "P 21/M"
_symmetry_group_IT_number 11
_symmetry_cell_setting 'monoclinic'
loop_
_space_group_symop_operation_xyz
x,y,z
-x,1/2+y,-z
-x,-y,-z
x,1/2-y,z
loop_
_atom_site_type_symbol
_atom_site_label
_atom_site_fract_x
_atom_site_fract_y
_atom_site_fract_z
Si Si1 0.296001 0.404060 0.677773
Si Si2 0.012282 0.750000 0.975414
Si Si3 0.603142 0.905912 0.980006
Si Si4 0.957463 0.590351 0.388571
Si Si5 0.488567 0.900558 0.734234
Si Si6 0.330834 0.097581 0.413566
Si Si7 0.850184 0.995486 0.005861
Si Si8 0.163733 0.908837 0.255311
O O1 0.304177 0.250000 0.717405
O O2 0.167466 0.449180 0.668517
O O3 0.391679 0.494791 0.746060
O O4 0.322230 0.408372 0.546918
O O5 0.931325 0.867375 0.020706
O O6 0.093192 0.629247 0.936322
O O7 0.588287 0.750000 0.012621
O O8 0.588696 0.907792 0.840637
O O9 0.726170 0.958656 0.030650
O O10 0.500000 0.000000 0.000000
O O11 0.952965 0.750000 0.420590
O O12 0.000000 0.500000 0.500000
O O13 0.044610 0.577024 0.299480
O O14 0.441208 0.750000 0.731777
O O15 0.546339 0.920737 0.621265
O O16 0.294432 0.250000 0.374351
O O17 0.251575 0.986460 0.346742
O O18 0.836405 0.031172 0.869802
O O19 0.188427 0.750000 0.249412
#
# Coordination Sequence:
#
# PCOD9163412 Si02
#       8
#     4   2   4   4   4   4   4   4
#     4  10  21  38  57  89 127 166 206 256 306 365
#     4  10  24  42  72  96 126 164 208 276 328 382
#     4  11  25  45  69  95 130 171 214 269 329 391
#     4  10  21  38  57  85 124 163 204 250 307 364
#     4  10  22  40  60  89 120 162 210 254 307 368
#     4  10  20  36  63  87 122 162 207 257 305 361
#     4  11  22  46  66  98 130 164 215 267 328 389
#     4  11  22  36  62  95 125 161 207 255 307 375
#
# _framework density 21.467331999999999
#
# number of rings (size 3 to 8) (size 9 to 14) (size 15 to 20)
#    0.000    1.600    4.000    0.400    1.867    2.133 
#    4.800    0.000    0.000    0.000    0.000    0.000 
#    0.000    0.000    0.000    0.000    0.000    0.000 
#
# Total GULP energy -167137.103814 kJ/mol
# GULP energy per Si atom -5571.236794 kJ/mol
# Density = 2.141847 g / cm^3
# Si number density = 21.467332 Si / 1000 Ang^3
#
#
#
# Elastic Constant Matrix: (Units=GPa)
#
#
# Indices 1 2 3 4 5 6 
#
# 1 137.2735 80.4616 -8.3359 0.0000 -4.1556 0.0000
# 2 80.4616 149.9607 9.5747 0.0000 -0.4631 0.0000
# 3 -8.3359 9.5747 46.3590 0.0000 -2.8153 0.0000
# 4 0.0000 0.0000 0.0000 -9.1711 0.0000 -18.7374
# 5 -4.1556 -0.4631 -2.8153 0.0000 27.1564 0.0000
# 6 0.0000 0.0000 0.0000 -18.7374 0.0000 23.9164
#
#
#
# Elastic Compliance Matrix: (Units=1/GPa)
#
#
# Indices 1 2 3 4 5 6 
#
# 1 0.011198 -0.006220 0.003417 0.000000 0.001962 0.000000
# 2 -0.006220 0.010213 -0.003296 0.000000 -0.001119 0.000000
# 3 0.003417 -0.003296 0.023039 0.000000 0.002855 0.000000
# 4 0.000000 0.000000 0.000000 -0.041927 0.000000 -0.032848
# 5 0.001962 -0.001119 0.002855 0.000000 0.037401 0.000000
# 6 0.000000 0.000000 0.000000 -0.032848 0.000000 0.016077
#
#
# Mechanical properties :
#
#
# Convention : Reuss Voigt Hill
#
# Bulk Modulus (GPa) = 31.00548 55.22154 43.11351
# Shear Modulus (GPa) = 63.33218 25.17322 44.25270
#
# Velocity S-wave (km/s) = 5.43743 3.42808 4.54519
# Velocity P-wave (km/s) = 7.34135 6.43804 6.90448
#
# Compressibility (1/GPa) = 0.03225237
#
# Stress axis : x y z
#
# Youngs Moduli (GPa) = 89.30556 97.91622 43.40407
#
# Poissons Ratio (x) = 0.60905 -0.14832
# Poissons Ratio (y) = 0.55549 0.14305
# Poissons Ratio (z) = -0.30518 0.32270
#
# Static dielectric constant tensor:
#      x y z
#    x 1.773300 0.000000 0.006330 
#    y 0.000000 1.731800 0.000000 
#    z 0.006330 0.000000 1.827240 
# 
# From -- ./inp_files/48973.got.cif
#   From: 2010.05.17/outbox.cif.g08.bks.cpg/sg11_25_cif.got.tgz:48973.got - 2010.06.03 12:22:45.
