data_PCOD9163494
_publ_section_title
;
Structure prediction by ZEFSAII (Michael W. Deem and Ramdas Pophale) SiO2 
 PCOD9163494
Probable space group: P 21/M
;
_chemical_formula_sum "Si O2"
_cell_formula_units_Z 26
_cell_length_a 14.368451
_cell_length_b 15.121760
_cell_length_c 10.043021
_cell_angle_alpha 90.000000
_cell_angle_beta 154.762486
_cell_angle_gamma 90.000000
_cell_volume 930.389846
_symmetry_space_group_name_H-M "P 21/M"
_symmetry_group_IT_number 11
_symmetry_cell_setting 'monoclinic'
loop_
_space_group_symop_operation_xyz
x,y,z
-x,1/2+y,-z
-x,-y,-z
x,1/2-y,z
loop_
_atom_site_type_symbol
_atom_site_label
_atom_site_fract_x
_atom_site_fract_y
_atom_site_fract_z
Si Si1 0.018149 0.891446 0.684697
Si Si2 0.188854 0.250000 0.059215
Si Si3 0.035869 0.096265 0.678094
Si Si4 0.696842 0.591144 0.618662
Si Si5 0.201423 0.896840 0.182958
Si Si6 0.502792 0.147103 0.191925
Si Si7 0.470216 0.149000 0.865009
O O1 0.081194 0.877887 0.612494
O O2 0.784056 0.849270 0.412775
O O3 0.982927 0.997491 0.655169
O O4 0.190134 0.861638 0.018303
O O5 0.043006 0.172510 0.795877
O O6 0.333384 0.171739 0.319953
O O7 0.291336 0.092554 0.961201
O O8 0.706289 0.496109 0.698458
O O9 0.549369 0.593276 0.295290
O O10 0.946393 0.604990 0.891485
O O11 0.325838 0.854011 0.466956
O O12 0.431008 0.250000 0.090964
O O13 0.583629 0.117938 0.150167
O O14 0.530769 0.250000 0.913038
#
# Coordination Sequence:
#
# PCOD9163494 Si02
#       7
#     4   2   4   4   4   4   4
#     4   9  19  35  57  83 109 148 189 228 272 331
#     4  12  20  36  60  84 108 152 188 236 276 346
#     4  10  20  37  58  83 114 147 185 231 282 339
#     4  10  21  36  59  83 110 150 190 234 281 331
#     4  10  21  37  57  86 114 142 193 239 277 332
#     4  10  21  36  57  83 111 147 189 234 285 332
#     4   9  18  35  58  83 112 150 192 231 275 333
#
# _framework density 27.945277000000001
#
# number of rings (size 3 to 8) (size 9 to 14) (size 15 to 20)
#    0.000    2.154    3.077    0.000    2.154    1.846 
#    0.000    0.000    0.000    1.846    0.000    0.000 
#    0.000    0.000    0.000    0.000    0.000    0.000 
#
# Total GULP energy -145230.642913 kJ/mol
# GULP energy per Si atom -5585.793958 kJ/mol
# Density = 2.788167 g / cm^3
# Si number density = 27.945277 Si / 1000 Ang^3
#
#
#
# Elastic Constant Matrix: (Units=GPa)
#
#
# Indices 1 2 3 4 5 6 
#
# 1 91.9265 -5.4443 39.7423 0.0000 -14.9101 0.0000
# 2 -5.4443 131.9551 28.0130 0.0000 -10.9535 0.0000
# 3 39.7423 28.0130 224.6968 0.0000 -59.0409 0.0000
# 4 0.0000 0.0000 0.0000 47.6326 0.0000 -11.1817
# 5 -14.9101 -10.9535 -59.0409 0.0000 54.8365 0.0000
# 6 0.0000 0.0000 0.0000 -11.1817 0.0000 12.7994
#
#
#
# Elastic Compliance Matrix: (Units=1/GPa)
#
#
# Indices 1 2 3 4 5 6 
#
# 1 0.011979 0.001010 -0.001863 0.000000 0.001453 0.000000
# 2 0.001010 0.007890 -0.000943 0.000000 0.000836 0.000000
# 3 -0.001863 -0.000943 0.006575 0.000000 0.006384 0.000000
# 4 0.000000 0.000000 0.000000 0.026410 0.000000 0.023072
# 5 0.001453 0.000836 0.006384 0.000000 0.025672 0.000000
# 6 0.000000 0.000000 0.000000 0.023072 0.000000 0.098284
#
#
# Mechanical properties :
#
#
# Convention : Reuss Voigt Hill
#
# Bulk Modulus (GPa) = 43.75756 63.68894 53.72325
# Shear Modulus (GPa) = 26.59319 48.80489 37.69904
#
# Velocity S-wave (km/s) = 3.08817 4.18358 3.67690
# Velocity P-wave (km/s) = 5.32992 6.79533 6.10674
#
# Compressibility (1/GPa) = 0.02285319
#
# Stress axis : x y z
#
# Youngs Moduli (GPa) = 83.47818 126.75046 152.09178
#
# Poissons Ratio (x) = -0.12806 0.28333
# Poissons Ratio (y) = -0.08434 0.14338
# Poissons Ratio (z) = 0.15551 0.11949
#
# Static dielectric constant tensor:
#      x y z
#    x 2.331970 0.000000 0.032250 
#    y 0.000000 2.036780 0.000000 
#    z 0.032250 0.000000 2.220540 
# 
# From -- ./inp_files/43438.got.cif
#   From: 2010.05.17/outbox.cif.g08.bks.cpg/sg11_22_cif.got.tgz:43438.got - 2010.06.03 12:22:45.
