data_PCOD9163616
_publ_section_title
;
Structure prediction by ZEFSAII (Michael W. Deem and Ramdas Pophale) SiO2 
 PCOD9163616
Probable space group: P 21/M
;
_chemical_formula_sum "Si O2"
_cell_formula_units_Z 32
_cell_length_a 15.172069
_cell_length_b 7.677550
_cell_length_c 11.376247
_cell_angle_alpha 90.000000
_cell_angle_beta 79.575823
_cell_angle_gamma 90.000000
_cell_volume 1303.282982
_symmetry_space_group_name_H-M "P 21/M"
_symmetry_group_IT_number 11
_symmetry_cell_setting 'monoclinic'
loop_
_space_group_symop_operation_xyz
x,y,z
-x,1/2+y,-z
-x,-y,-z
x,1/2-y,z
loop_
_atom_site_type_symbol
_atom_site_label
_atom_site_fract_x
_atom_site_fract_y
_atom_site_fract_z
Si Si1 0.800002 0.960263 0.597783
Si Si2 0.859817 0.044431 0.947539
Si Si3 0.037683 0.050774 0.308078
Si Si4 0.876028 0.464073 0.200642
Si Si5 0.455607 0.046675 0.721361
Si Si6 0.366410 0.454058 0.222635
Si Si7 0.292775 0.956388 0.624981
Si Si8 0.349662 0.039311 0.974126
O O1 0.805271 0.750000 0.606649
O O2 0.899077 0.027696 0.606077
O O3 0.726605 0.030251 0.708190
O O4 0.756934 0.000745 0.483452
O O5 0.877657 0.250000 0.929143
O O6 0.900127 0.951113 0.824381
O O7 0.899363 0.981618 0.063049
O O8 0.753426 0.017445 0.988247
O O9 0.017196 0.250000 0.345719
O O10 0.945412 0.971588 0.282596
O O11 0.877655 0.250000 0.200863
O O12 0.776164 0.521366 0.258523
O O13 0.469237 0.250000 0.736806
O O14 0.400253 0.971701 0.846542
O O15 0.554739 0.970978 0.702218
O O16 0.392028 0.024599 0.624564
O O17 0.349427 0.250000 0.210726
O O18 0.393674 0.520122 0.087126
O O19 0.299164 0.750000 0.632499
O O20 0.350822 0.250000 0.965033
#
# Coordination Sequence:
#
# PCOD9163616 Si02
#       8
#     4   4   4   4   4   4   4   4
#     4  10  22  40  61  84 112 153 199 242 287 342
#     4  11  20  33  57  90 123 152 190 236 285 345
#     4  10  20  39  62  84 118 157 193 236 290 348
#     4   9  20  37  59  87 118 155 192 235 292 344
#     4  11  23  38  61  91 118 149 194 239 287 347
#     4  10  21  39  61  86 118 154 191 233 292 349
#     4  11  23  41  61  83 116 155 195 243 293 341
#     4  10  20  37  60  87 118 156 191 229 288 352
#
# _framework density 24.553377999999999
#
# number of rings (size 3 to 8) (size 9 to 14) (size 15 to 20)
#    0.000    1.750    2.500    1.875    0.000    3.000 
#    0.000    1.875    0.000    0.000    0.000    0.000 
#    0.000    0.000    0.000    0.000    0.000    0.000 
#
# Total GULP energy -178892.306846 kJ/mol
# GULP energy per Si atom -5590.384589 kJ/mol
# Density = 2.449749 g / cm^3
# Si number density = 24.553378 Si / 1000 Ang^3
#
#
#
# Elastic Constant Matrix: (Units=GPa)
#
#
# Indices 1 2 3 4 5 6 
#
# 1 104.4471 -12.5401 -3.8106 0.0000 26.8668 0.0000
# 2 -12.5401 56.7478 -4.6633 0.0000 -6.1154 0.0000
# 3 -3.8106 -4.6633 65.0354 0.0000 24.3655 0.0000
# 4 0.0000 0.0000 0.0000 14.8530 0.0000 2.7593
# 5 26.8668 -6.1154 24.3655 0.0000 34.2458 0.0000
# 6 0.0000 0.0000 0.0000 2.7593 0.0000 15.3487
#
#
#
# Elastic Compliance Matrix: (Units=1/GPa)
#
#
# Indices 1 2 3 4 5 6 
#
# 1 0.014039 0.001991 0.006761 0.000000 -0.015468 0.000000
# 2 0.001991 0.018251 0.001076 0.000000 0.000931 0.000000
# 3 0.006761 0.001076 0.024221 0.000000 -0.022345 0.000000
# 4 0.000000 0.000000 0.000000 0.069653 0.000000 -0.012522
# 5 -0.015468 0.000931 -0.022345 0.000000 0.057400 0.000000
# 6 0.000000 0.000000 0.000000 -0.012522 0.000000 0.067403
#
#
# Mechanical properties :
#
#
# Convention : Reuss Voigt Hill
#
# Bulk Modulus (GPa) = 13.12920 20.46691 16.79806
# Shear Modulus (GPa) = 19.47802 29.37245 24.42523
#
# Velocity S-wave (km/s) = 2.81960 3.46246 3.15744
# Velocity P-wave (km/s) = 3.99487 4.93342 4.48875
#
# Compressibility (1/GPa) = 0.07616611
#
# Stress axis : x y z
#
# Youngs Moduli (GPa) = 71.23111 54.79275 41.28658
#
# Poissons Ratio (x) = -0.10909 -0.27912
# Poissons Ratio (y) = -0.14182 -0.04444
# Poissons Ratio (z) = -0.48156 -0.05898
#
# Static dielectric constant tensor:
#      x y z
#    x 1.970630 0.000000 0.030330 
#    y 0.000000 1.893790 0.000000 
#    z 0.030330 0.000000 1.998280 
# 
# From -- ./inp_files/38178.got.cif
#   From: 2010.05.17/outbox.cif.g08.bks.cpg/sg11_20_cif.got.tgz:38178.got - 2010.06.03 12:22:45.
