data_PCOD9163535
_publ_section_title
;
Structure prediction by ZEFSAII (Michael W. Deem and Ramdas Pophale) SiO2 
 PCOD9163535
Probable space group: P 21/M
;
_chemical_formula_sum "Si O2"
_cell_formula_units_Z 24
_cell_length_a 9.304011
_cell_length_b 8.481728
_cell_length_c 21.187010
_cell_angle_alpha 90.000000
_cell_angle_beta 48.772508
_cell_angle_gamma 90.000000
_cell_volume 1257.474260
_symmetry_space_group_name_H-M "P 21/M"
_symmetry_group_IT_number 11
_symmetry_cell_setting 'monoclinic'
loop_
_space_group_symop_operation_xyz
x,y,z
-x,1/2+y,-z
-x,-y,-z
x,1/2-y,z
loop_
_atom_site_type_symbol
_atom_site_label
_atom_site_fract_x
_atom_site_fract_y
_atom_site_fract_z
Si Si1 0.532508 0.560586 0.419955
Si Si2 0.967950 0.440200 0.909638
Si Si3 0.697998 0.559939 0.091163
Si Si4 0.792424 0.937703 0.580148
Si Si5 0.954473 0.942393 0.254870
Si Si6 0.281229 0.558720 0.257888
O O1 0.500000 0.500000 0.500000
O O2 0.530211 0.750000 0.420839
O O3 0.367081 0.500696 0.421780
O O4 0.740656 0.507891 0.334826
O O5 0.965765 0.250000 0.910048
O O6 0.152242 0.490803 0.897690
O O7 0.987552 0.494932 0.832091
O O8 0.782814 0.498787 0.000869
O O9 0.699426 0.750000 0.089186
O O10 0.484728 0.508647 0.169986
O O11 0.793893 0.750000 0.577570
O O12 0.745223 0.995217 0.664230
O O13 0.000000 0.000000 0.500000
O O14 0.954995 0.750000 0.254065
O O15 0.108079 0.991943 0.262688
O O16 0.280518 0.750000 0.261031
#
# Coordination Sequence:
#
# PCOD9163535 Si02
#       6
#     4   4   4   4   4   4
#     4  11  22  39  62  88 118 151 190 235 286 342
#     4   9  17  32  52  75 106 146 190 231 275 332
#     4   9  18  32  52  78 109 146 186 231 283 335
#     4  12  25  41  61  86 115 149 190 235 287 342
#     4   9  19  35  57  82 110 147 187 230 282 338
#     4  10  20  37  59  83 113 148 188 233 284 341
#
# _framework density 19.085877
#
# number of rings (size 3 to 8) (size 9 to 14) (size 15 to 20)
#    0.000    2.000    0.000    4.000    0.000    5.333 
#    0.000    6.667    0.000    0.000    0.000    0.000 
#    0.000    0.000    0.000    0.000    0.000    0.000 
#
# Total GULP energy -134085.911392 kJ/mol
# GULP energy per Si atom -5586.912975 kJ/mol
# Density = 1.904244 g / cm^3
# Si number density = 19.085877 Si / 1000 Ang^3
#
#
#
# Elastic Constant Matrix: (Units=GPa)
#
#
# Indices 1 2 3 4 5 6 
#
# 1 182.4953 37.9050 137.0088 0.0000 0.9822 0.0000
# 2 37.9050 37.4822 41.1417 0.0000 -1.9420 0.0000
# 3 137.0088 41.1417 220.5348 0.0000 0.5629 0.0000
# 4 0.0000 0.0000 0.0000 33.6333 0.0000 3.5618
# 5 0.9822 -1.9420 0.5629 0.0000 43.0655 0.0000
# 6 0.0000 0.0000 0.0000 3.5618 0.0000 23.7934
#
#
#
# Elastic Compliance Matrix: (Units=1/GPa)
#
#
# Indices 1 2 3 4 5 6 
#
# 1 0.010844 -0.004517 -0.005894 0.000000 -0.000374 0.000000
# 2 -0.004517 0.035541 -0.003828 0.000000 0.001756 0.000000
# 3 -0.005894 -0.003828 0.008910 0.000000 -0.000155 0.000000
# 4 0.000000 0.000000 0.000000 0.030211 0.000000 -0.004523
# 5 -0.000374 0.001756 -0.000155 0.000000 0.023310 0.000000
# 6 0.000000 0.000000 0.000000 -0.004523 0.000000 0.042706
#
#
# Mechanical properties :
#
#
# Convention : Reuss Voigt Hill
#
# Bulk Modulus (GPa) = 37.28945 96.95817 67.12381
# Shear Modulus (GPa) = 26.46344 35.06221 30.76283
#
# Velocity S-wave (km/s) = 3.72767 4.29076 4.01909
# Velocity P-wave (km/s) = 6.17313 8.68670 7.53546
#
# Compressibility (1/GPa) = 0.02681724
#
# Stress axis : x y z
#
# Youngs Moduli (GPa) = 92.21329 28.13680 112.22823
#
# Poissons Ratio (x) = 0.12710 0.66142
# Poissons Ratio (y) = 0.41655 0.42965
# Poissons Ratio (z) = 0.54346 0.10772
#
# Static dielectric constant tensor:
#      x y z
#    x 1.639910 0.000000 -0.007220 
#    y 0.000000 1.659880 0.000000 
#    z -0.007220 0.000000 1.635790 
# 
# From -- ./inp_files/20638.got.cif
#   From: 2010.05.17/outbox.cif.g08.bks.cpg/sg11_11_cif.got.tgz:20638.got - 2010.06.03 12:22:45.
