data_PCOD9163935
_publ_section_title
;
Structure prediction by ZEFSAII (Michael W. Deem and Ramdas Pophale) SiO2 
 PCOD9163935
Probable space group: P 21/M
;
_chemical_formula_sum "Si O2"
_cell_formula_units_Z 32
_cell_length_a 11.142807
_cell_length_b 11.530081
_cell_length_c 23.334712
_cell_angle_alpha 90.000000
_cell_angle_beta 150.718609
_cell_angle_gamma 90.000000
_cell_volume 1466.311881
_symmetry_space_group_name_H-M "P 21/M"
_symmetry_group_IT_number 11
_symmetry_cell_setting 'monoclinic'
loop_
_space_group_symop_operation_xyz
x,y,z
-x,1/2+y,-z
-x,-y,-z
x,1/2-y,z
loop_
_atom_site_type_symbol
_atom_site_label
_atom_site_fract_x
_atom_site_fract_y
_atom_site_fract_z
Si Si1 0.479144 0.120820 0.922713
Si Si2 0.271297 0.117564 0.158754
Si Si3 0.232964 0.483364 0.464056
Si Si4 0.292761 0.482772 0.616500
Si Si5 0.111773 0.009580 0.855747
Si Si6 0.254464 0.120706 0.714785
Si Si7 0.970287 0.881168 0.062284
Si Si8 0.312678 0.120804 0.378346
O O1 0.399752 0.250000 0.902480
O O2 0.465551 0.104019 0.849260
O O3 0.281796 0.042185 0.872770
O O4 0.748263 0.098126 0.057571
O O5 0.194811 0.250000 0.144194
O O6 0.544469 0.093980 0.297432
O O7 0.231583 0.115260 0.073089
O O8 0.127652 0.000700 0.119733
O O9 0.334263 0.446123 0.568441
O O10 0.405301 0.588662 0.514690
O O11 0.251105 0.393157 0.419952
O O12 0.958936 0.529716 0.359827
O O13 0.352009 0.393466 0.691546
O O14 0.000000 0.500000 0.500000
O O15 0.848795 0.972445 0.723359
O O16 0.118042 0.104696 0.908760
O O17 0.152147 0.250000 0.679095
O O18 0.081233 0.750000 0.102966
O O19 0.257937 0.250000 0.335989
#
# Coordination Sequence:
#
# PCOD9163935 Si02
#       8
#     4   4   4   4   4   4   4   4
#     4  10  21  36  58  86 119 157 199 249 308 376
#     4  10  22  42  65  94 132 170 213 265 325 388
#     4  10  22  41  58  87 120 158 208 259 315 377
#     4  10  22  38  62  89 124 163 215 262 317 378
#     4  11  21  37  60  86 124 156 207 254 315 375
#     4  10  20  38  61  86 119 159 203 253 311 374
#     4  10  22  40  65  96 130 168 212 265 326 389
#     4  11  23  40  63  89 122 164 212 267 322 383
#
# _framework density 21.823460000000001
#
# number of rings (size 3 to 8) (size 9 to 14) (size 15 to 20)
#    0.000    1.750    1.250    2.625    0.000    5.500 
#    0.000    7.500    0.000    0.000    0.000    0.000 
#    0.000    0.000    0.000    0.000    0.000    0.000 
#
# Total GULP energy -178358.622432 kJ/mol
# GULP energy per Si atom -5573.706951 kJ/mol
# Density = 2.177379 g / cm^3
# Si number density = 21.823460 Si / 1000 Ang^3
#
#
#
# Elastic Constant Matrix: (Units=GPa)
#
#
# Indices 1 2 3 4 5 6 
#
# 1 68.2672 5.0742 14.1858 0.0000 -27.5603 0.0000
# 2 5.0742 72.9783 10.0390 0.0000 -6.4250 0.0000
# 3 14.1858 10.0390 71.8145 0.0000 -23.8609 0.0000
# 4 0.0000 0.0000 0.0000 16.4619 0.0000 0.5972
# 5 -27.5603 -6.4250 -23.8609 0.0000 38.3463 0.0000
# 6 0.0000 0.0000 0.0000 0.5972 0.0000 15.5944
#
#
#
# Elastic Compliance Matrix: (Units=1/GPa)
#
#
# Indices 1 2 3 4 5 6 
#
# 1 0.020705 -0.000224 0.001101 0.000000 0.015529 0.000000
# 2 -0.000224 0.014035 -0.001500 0.000000 0.001257 0.000000
# 3 0.001101 -0.001500 0.017770 0.000000 0.011597 0.000000
# 4 0.000000 0.000000 0.000000 0.060831 0.000000 -0.002330
# 5 0.015529 0.001257 0.011597 0.000000 0.044666 0.000000
# 6 0.000000 0.000000 0.000000 -0.002330 0.000000 0.064215
#
#
# Mechanical properties :
#
#
# Convention : Reuss Voigt Hill
#
# Bulk Modulus (GPa) = 19.50655 30.18424 24.84540
# Shear Modulus (GPa) = 20.78508 26.33126 23.55817
#
# Velocity S-wave (km/s) = 3.08948 3.47732 3.28912
# Velocity P-wave (km/s) = 4.65663 5.47572 5.08270
#
# Compressibility (1/GPa) = 0.05126482
#
# Stress axis : x y z
#
# Youngs Moduli (GPa) = 48.29661 71.24882 56.27364
#
# Poissons Ratio (x) = 0.01595 -0.06195
# Poissons Ratio (y) = 0.01081 0.08441
# Poissons Ratio (z) = -0.05317 0.10688
#
# Static dielectric constant tensor:
#      x y z
#    x 1.835020 0.000000 -0.024880 
#    y 0.000000 1.788150 0.000000 
#    z -0.024880 0.000000 1.823940 
# 
# From -- ./inp_files/68614.got.cif
#   From: 2010.05.17/outbox.cif.g08.bks.cpg/sg11_35_cif.got.tgz:68614.got - 2010.06.03 12:22:45.
