data_PCOD9163945
_publ_section_title
;
Structure prediction by ZEFSAII (Michael W. Deem and Ramdas Pophale) SiO2 
 PCOD9163945
Probable space group: P 21/M
;
_chemical_formula_sum "Si O2"
_cell_formula_units_Z 30
_cell_length_a 14.112591
_cell_length_b 9.518044
_cell_length_c 12.088049
_cell_angle_alpha 90.000000
_cell_angle_beta 111.434282
_cell_angle_gamma 90.000000
_cell_volume 1511.417574
_symmetry_space_group_name_H-M "P 21/M"
_symmetry_group_IT_number 11
_symmetry_cell_setting 'monoclinic'
loop_
_space_group_symop_operation_xyz
x,y,z
-x,1/2+y,-z
-x,-y,-z
x,1/2-y,z
loop_
_atom_site_type_symbol
_atom_site_label
_atom_site_fract_x
_atom_site_fract_y
_atom_site_fract_z
Si Si1 0.996145 0.506250 0.155013
Si Si2 0.233471 0.088372 0.990592
Si Si3 0.036702 0.750000 0.027145
Si Si4 0.587014 0.916737 0.101263
Si Si5 0.545762 0.580375 0.330813
Si Si6 0.056169 0.083609 0.427082
Si Si7 0.275022 0.082363 0.437106
Si Si8 0.306380 0.919067 0.232697
O O1 0.064284 0.626567 0.129578
O O2 0.019625 0.467389 0.290692
O O3 0.882088 0.569260 0.096034
O O4 0.997315 0.371052 0.077436
O O5 0.246793 0.250000 0.034686
O O6 0.262257 0.981953 0.100285
O O7 0.308165 0.063511 0.919390
O O8 0.563376 0.750000 0.089400
O O9 0.587638 0.963447 0.228660
O O10 0.500000 0.000000 0.000000
O O11 0.550396 0.750000 0.336314
O O12 0.621480 0.532065 0.459225
O O13 0.427392 0.542502 0.288110
O O14 0.036333 0.250000 0.429625
O O15 0.178470 0.063258 0.476553
O O16 0.000000 0.000000 0.500000
O O17 0.281284 0.250000 0.415500
O O18 0.259739 0.996521 0.318552
O O19 0.298099 0.750000 0.230439
#
# Coordination Sequence:
#
# PCOD9163945 Si02
#       8
#     4   4   2   4   4   4   4   4
#     4  11  24  43  66  99 133 168 217 271 329 390
#     4  11  24  38  62  96 125 167 208 254 316 389
#     4  10  24  42  70  94 132 168 208 276 342 382
#     4  10  20  38  61  87 123 161 204 252 312 374
#     4   9  19  39  61  89 124 162 203 253 307 371
#     4  11  27  46  67  94 129 174 222 267 318 384
#     4  10  23  42  67  89 121 167 211 257 310 376
#     4  11  23  37  63  95 130 161 205 257 315 371
#
# _framework density 19.848915000000002
#
# number of rings (size 3 to 8) (size 9 to 14) (size 15 to 20)
#    0.000    1.600    2.667    0.800    7.467    0.533 
#    0.000    1.333    0.000    0.000    0.000    0.000 
#    0.000    0.000    0.000    0.000    0.000    0.000 
#
# Total GULP energy -167134.281913 kJ/mol
# GULP energy per Si atom -5571.142730 kJ/mol
# Density = 1.980374 g / cm^3
# Si number density = 19.848915 Si / 1000 Ang^3
#
#
#
# Elastic Constant Matrix: (Units=GPa)
#
#
# Indices 1 2 3 4 5 6 
#
# 1 84.5201 36.5822 26.5104 0.0000 -4.9612 0.0000
# 2 36.5822 94.5553 31.5095 0.0000 -21.0180 0.0000
# 3 26.5104 31.5095 95.8875 0.0000 -5.9753 0.0000
# 4 0.0000 0.0000 0.0000 29.4150 0.0000 -0.6229
# 5 -4.9612 -21.0180 -5.9753 0.0000 33.6972 0.0000
# 6 0.0000 0.0000 0.0000 -0.6229 0.0000 29.5553
#
#
#
# Elastic Compliance Matrix: (Units=1/GPa)
#
#
# Indices 1 2 3 4 5 6 
#
# 1 0.014781 -0.005238 -0.002460 0.000000 -0.001527 0.000000
# 2 -0.005238 0.015498 -0.003125 0.000000 0.008341 0.000000
# 3 -0.002460 -0.003125 0.012126 0.000000 -0.000161 0.000000
# 4 0.000000 0.000000 0.000000 0.034011 0.000000 0.000717
# 5 -0.001527 0.008341 -0.000161 0.000000 0.034625 0.000000
# 6 0.000000 0.000000 0.000000 0.000717 0.000000 0.033850
#
#
# Mechanical properties :
#
#
# Convention : Reuss Voigt Hill
#
# Bulk Modulus (GPa) = 48.17416 51.57414 49.87415
# Shear Modulus (GPa) = 28.82561 30.55753 29.69157
#
# Velocity S-wave (km/s) = 3.81498 3.92791 3.87186
# Velocity P-wave (km/s) = 6.61275 6.82723 6.72085
#
# Compressibility (1/GPa) = 0.02075801
#
# Stress axis : x y z
#
# Youngs Moduli (GPa) = 67.65560 64.52558 82.46806
#
# Poissons Ratio (x) = 0.33799 0.20290
# Poissons Ratio (y) = 0.35438 0.25769
# Poissons Ratio (z) = 0.16646 0.20162
#
# Static dielectric constant tensor:
#      x y z
#    x 1.776190 0.000000 0.019540 
#    y 0.000000 1.654660 0.000000 
#    z 0.019540 0.000000 1.676010 
# 
# From -- ./inp_files/38338.got.cif
#   From: 2010.05.17/outbox.cif.g08.bks.cpg/sg11_20_cif.got.tgz:38338.got - 2010.06.03 12:22:45.
