data_PCOD9163113
_publ_section_title
;
Structure prediction by ZEFSAII (Michael W. Deem and Ramdas Pophale) SiO2 
 PCOD9163113
Probable space group: P 21/M
;
_chemical_formula_sum "Si O2"
_cell_formula_units_Z 28
_cell_length_a 5.152818
_cell_length_b 19.257366
_cell_length_c 16.887731
_cell_angle_alpha 90.000000
_cell_angle_beta 50.879872
_cell_angle_gamma 90.000000
_cell_volume 1300.099676
_symmetry_space_group_name_H-M "P 21/M"
_symmetry_group_IT_number 11
_symmetry_cell_setting 'monoclinic'
loop_
_space_group_symop_operation_xyz
x,y,z
-x,1/2+y,-z
-x,-y,-z
x,1/2-y,z
loop_
_atom_site_type_symbol
_atom_site_label
_atom_site_fract_x
_atom_site_fract_y
_atom_site_fract_z
Si Si1 0.750464 0.000173 0.166166
Si Si2 0.250464 0.500172 0.666166
Si Si3 0.193163 0.582109 0.525181
Si Si4 0.307422 0.329906 0.974681
Si Si5 0.693164 0.417891 0.025181
Si Si6 0.250000 0.877414 0.250000
Si Si7 0.807422 0.670094 0.474681
O O1 0.750000 0.038322 0.250000
O O2 0.541584 0.929925 0.219474
O O3 0.588264 0.042374 0.125084
O O4 0.114379 0.974997 0.065961
O O5 0.088264 0.542374 0.625084
O O6 0.614379 0.474997 0.565961
O O7 0.041585 0.429924 0.719474
O O8 0.923932 0.623294 0.526006
O O9 0.478952 0.636224 0.498969
O O10 0.255340 0.250000 0.006108
O O11 0.423932 0.376706 0.026006
O O12 0.602052 0.335360 0.852046
O O13 0.978952 0.363776 0.998969
O O14 0.102052 0.835361 0.352046
O O15 0.755340 0.750000 0.506108
#
# Coordination Sequence:
#
# PCOD9163113 Si02
#       7
#     4   4   4   4   4   4   4
#     4  10  20  36  58  87 120 141 191 243 288 338
#     4  10  20  36  58  87 120 141 191 243 288 338
#     4  10  23  36  59  85 116 156 186 231 292 332
#     4  11  22  39  57  84 120 154 190 228 280 351
#     4  10  23  36  59  85 116 156 186 231 292 332
#     4  10  21  34  60  90 113 148 184 244 298 334
#     4  11  22  39  57  84 120 154 190 228 280 351
#
# _framework density 21.536809999999999
#
# number of rings (size 3 to 8) (size 9 to 14) (size 15 to 20)
#    0.000    1.714    2.857    1.286    4.000    3.429 
#    0.000    4.286    0.000    5.143    0.000    0.000 
#    0.000    0.000    0.000    0.000    0.000    0.000 
#
# Total GULP energy -156623.249290 kJ/mol
# GULP energy per Si atom -5593.687475 kJ/mol
# Density = 2.148779 g / cm^3
# Si number density = 21.536810 Si / 1000 Ang^3
#
#
#
# Elastic Constant Matrix: (Units=GPa)
#
#
# Indices 1 2 3 4 5 6 
#
# 1 80.6696 33.3904 25.2889 0.0000 16.1686 0.0000
# 2 33.3904 116.6068 28.4246 0.0000 14.8081 0.0000
# 3 25.2889 28.4246 101.1978 0.0000 33.1966 0.0000
# 4 0.0000 0.0000 0.0000 26.7775 0.0000 5.3293
# 5 16.1686 14.8081 33.1966 0.0000 36.5865 0.0000
# 6 0.0000 0.0000 0.0000 5.3293 0.0000 13.7032
#
#
#
# Elastic Compliance Matrix: (Units=1/GPa)
#
#
# Indices 1 2 3 4 5 6 
#
# 1 0.015082 -0.003454 -0.001525 0.000000 -0.003884 0.000000
# 2 -0.003454 0.010097 -0.001613 0.000000 -0.001097 0.000000
# 3 -0.001525 -0.001613 0.014637 0.000000 -0.011954 0.000000
# 4 0.000000 0.000000 0.000000 0.040478 0.000000 -0.015742
# 5 -0.003884 -0.001097 -0.011954 0.000000 0.040339 0.000000
# 6 0.000000 0.000000 0.000000 -0.015742 0.000000 0.079098
#
#
# Mechanical properties :
#
#
# Convention : Reuss Voigt Hill
#
# Bulk Modulus (GPa) = 37.54767 52.52023 45.03395
# Shear Modulus (GPa) = 22.54345 29.50478 26.02412
#
# Velocity S-wave (km/s) = 3.23885 3.70533 3.47991
# Velocity P-wave (km/s) = 5.60882 6.53798 6.09114
#
# Compressibility (1/GPa) = 0.02663281
#
# Stress axis : x y z
#
# Youngs Moduli (GPa) = 66.30275 99.03549 68.31886
#
# Poissons Ratio (x) = 0.34206 0.10417
# Poissons Ratio (y) = 0.22900 0.11022
# Poissons Ratio (z) = 0.10110 0.15978
#
# Static dielectric constant tensor:
#      x y z
#    x 1.819980 0.000000 -0.019400 
#    y 0.000000 1.738190 0.000000 
#    z -0.019400 0.000000 1.817090 
# 
# From -- ./inp_files/6654.got.cif
#   From: 2010.05.17/outbox.cif.g08.bks.cpg/sg11_4_cif.got.tgz:6654.got - 2010.06.03 12:22:45.
