data_PCOD9163143
_publ_section_title
;
Structure prediction by ZEFSAII (Michael W. Deem and Ramdas Pophale) SiO2 
 PCOD9163143
Probable space group: P 21/M
;
_chemical_formula_sum "Si O2"
_cell_formula_units_Z 24
_cell_length_a 11.915736
_cell_length_b 8.406378
_cell_length_c 12.225032
_cell_angle_alpha 90.000000
_cell_angle_beta 78.681063
_cell_angle_gamma 90.000000
_cell_volume 1200.741348
_symmetry_space_group_name_H-M "P 21/M"
_symmetry_group_IT_number 11
_symmetry_cell_setting 'monoclinic'
loop_
_space_group_symop_operation_xyz
x,y,z
-x,1/2+y,-z
-x,-y,-z
x,1/2-y,z
loop_
_atom_site_type_symbol
_atom_site_label
_atom_site_fract_x
_atom_site_fract_y
_atom_site_fract_z
Si Si1 0.398564 0.438127 0.184489
Si Si2 0.955540 0.559143 0.757410
Si Si3 0.782225 0.942551 0.602476
Si Si4 0.797140 0.942594 0.351187
Si Si5 0.226860 0.935992 0.039357
Si Si6 0.353596 0.062434 0.815886
O O1 0.380149 0.250000 0.168760
O O2 0.333079 0.482610 0.309373
O O3 0.333484 0.529882 0.100587
O O4 0.531448 0.475251 0.168945
O O5 0.952061 0.750000 0.762230
O O6 0.886337 0.505860 0.661184
O O7 0.884829 0.493647 0.873931
O O8 0.084177 0.500291 0.722970
O O9 0.787527 0.750000 0.596242
O O10 0.787692 0.001944 0.477726
O O11 0.797917 0.750000 0.352171
O O12 0.693051 0.992092 0.292839
O O13 0.218665 0.750000 0.017322
O O14 0.255070 0.029056 0.923486
O O15 0.377749 0.250000 0.807748
#
# Coordination Sequence:
#
# PCOD9163143 Si02
#       6
#     4   4   4   4   4   4
#     4  10  20  37  60  84 111 142 181 228 274 322
#     4  10  20  36  59  85 112 141 180 229 276 323
#     4   8  17  35  58  83 110 142 180 225 272 319
#     4  10  21  37  56  80 113 150 185 221 267 325
#     4  11  22  38  60  82 107 142 185 229 274 326
#     4  11  23  37  54  80 114 149 184 224 271 324
#
# _framework density 19.987652000000001
#
# number of rings (size 3 to 8) (size 9 to 14) (size 15 to 20)
#    0.000    2.000    0.000    5.000    0.000    2.667 
#    0.000    4.167    0.000    0.000    0.000    0.000 
#    0.000    0.000    0.000    0.000    0.000    0.000 
#
# Total GULP energy -134086.310498 kJ/mol
# GULP energy per Si atom -5586.929604 kJ/mol
# Density = 1.994216 g / cm^3
# Si number density = 19.987652 Si / 1000 Ang^3
#
#
#
# Elastic Constant Matrix: (Units=GPa)
#
#
# Indices 1 2 3 4 5 6 
#
# 1 9.9949 -1.3436 23.9199 0.0000 -9.4865 0.0000
# 2 -1.3436 20.1202 -11.4851 0.0000 0.8068 0.0000
# 3 23.9199 -11.4851 17.5618 0.0000 -7.1173 0.0000
# 4 0.0000 0.0000 0.0000 18.8072 0.0000 -3.7994
# 5 -9.4865 0.8068 -7.1173 0.0000 13.3521 0.0000
# 6 0.0000 0.0000 0.0000 -3.7994 0.0000 17.0474
#
#
#
# Elastic Compliance Matrix: (Units=1/GPa)
#
#
# Indices 1 2 3 4 5 6 
#
# 1 -0.024360 0.031283 0.058494 0.000000 0.011982 0.000000
# 2 0.031283 0.049155 -0.003390 0.000000 0.017449 0.000000
# 3 0.058494 -0.003390 -0.010231 0.000000 0.036310 0.000000
# 4 0.000000 0.000000 0.000000 0.055678 0.000000 0.012409
# 5 0.011982 0.017449 0.036310 0.000000 0.101708 0.000000
# 6 0.000000 0.000000 0.000000 0.012409 0.000000 0.061425
#
#
# Mechanical properties :
#
#
# Convention : Reuss Voigt Hill
#
# Bulk Modulus (GPa) = 5.33797 7.76215 6.55006
# Shear Modulus (GPa) = 40.63455 12.28039 26.45747
#
# Velocity S-wave (km/s) = 4.51375 2.48140 3.64220
# Velocity P-wave (km/s) = 5.46276 3.47875 4.57949
#
# Compressibility (1/GPa) = 0.18733725
#
# Stress axis : x y z
#
# Youngs Moduli (GPa) = -41.05069 20.34363 -97.73787
#
# Poissons Ratio (x) = -0.63641 5.71709
# Poissons Ratio (y) = 1.28418 -0.33136
# Poissons Ratio (z) = 2.40122 0.06897
#
# Static dielectric constant tensor:
#      x y z
#    x 1.681250 0.000000 0.016040 
#    y 0.000000 1.676570 0.000000 
#    z 0.016040 0.000000 1.713840 
# 
# From -- ./inp_files/33730.got.cif
#   From: 2010.05.17/outbox.cif.g08.bks.cpg/sg11_17_cif.got.tgz:33730.got - 2010.06.03 12:22:45.
