data_PCOD9163296
_publ_section_title
;
Structure prediction by ZEFSAII (Michael W. Deem and Ramdas Pophale) SiO2 
 PCOD9163296
Probable space group: P 21/M
;
_chemical_formula_sum "Si O2"
_cell_formula_units_Z 30
_cell_length_a 12.157220
_cell_length_b 9.406492
_cell_length_c 14.343868
_cell_angle_alpha 90.000000
_cell_angle_beta 71.310289
_cell_angle_gamma 90.000000
_cell_volume 1553.821184
_symmetry_space_group_name_H-M "P 21/M"
_symmetry_group_IT_number 11
_symmetry_cell_setting 'monoclinic'
loop_
_space_group_symop_operation_xyz
x,y,z
-x,1/2+y,-z
-x,-y,-z
x,1/2-y,z
loop_
_atom_site_type_symbol
_atom_site_label
_atom_site_fract_x
_atom_site_fract_y
_atom_site_fract_z
Si Si1 0.307208 0.917022 0.838925
Si Si2 0.536858 0.583615 0.897542
Si Si3 0.251491 0.077348 0.286516
Si Si4 0.031530 0.084032 0.232896
Si Si5 0.886821 0.915899 0.996647
Si Si6 0.176835 0.483457 0.498018
Si Si7 0.790454 0.581578 0.304401
Si Si8 0.014779 0.750000 0.512870
O O1 0.273643 0.750000 0.840356
O O2 0.434331 0.924258 0.849173
O O3 0.290793 0.996070 0.745093
O O4 0.221761 0.000275 0.932474
O O5 0.553782 0.750000 0.917655
O O6 0.653321 0.530812 0.814552
O O7 0.500000 0.500000 0.000000
O O8 0.255107 0.250000 0.288553
O O9 0.122130 0.037824 0.287216
O O10 0.264694 0.018590 0.386546
O O11 0.999195 0.250000 0.258989
O O12 0.103865 0.082115 0.117403
O O13 0.919854 0.984943 0.255306
O O14 0.887195 0.750000 0.026024
O O15 0.000000 0.000000 0.000000
O O16 0.235448 0.445718 0.580171
O O17 0.106793 0.628119 0.521734
O O18 0.078306 0.369235 0.500023
O O19 0.790163 0.750000 0.285116
#
# Coordination Sequence:
#
# PCOD9163296 Si02
#       8
#     4   4   4   4   4   4   4   2
#     4  11  24  41  62  87 122 167 213 256 316 377
#     4  10  23  45  71  94 120 163 212 265 318 371
#     4  10  20  39  64  90 121 163 208 258 312 371
#     4  10  21  34  58  87 121 160 197 246 316 378
#     4  11  21  36  56  87 121 156 200 252 309 377
#     4  11  22  37  59  91 129 168 212 252 310 371
#     4  12  24  36  57  89 126 167 205 251 310 372
#     4  10  20  36  60  88 128 172 202 254 308 370
#
# _framework density 19.307238999999999
#
# number of rings (size 3 to 8) (size 9 to 14) (size 15 to 20)
#    0.000    1.333    2.667    3.600    3.733    2.667 
#    1.200    0.667    0.000    0.000    0.000    0.000 
#    0.000    0.000    0.000    0.000    0.000    0.000 
#
# Total GULP energy -167056.896526 kJ/mol
# GULP energy per Si atom -5568.563218 kJ/mol
# Density = 1.926329 g / cm^3
# Si number density = 19.307239 Si / 1000 Ang^3
#
#
#
# Elastic Constant Matrix: (Units=GPa)
#
#
# Indices 1 2 3 4 5 6 
#
# 1 49.3956 32.7421 27.7878 0.0000 10.0639 0.0000
# 2 32.7421 139.8461 34.9242 0.0000 3.9900 0.0000
# 3 27.7878 34.9242 127.0212 0.0000 18.2417 0.0000
# 4 0.0000 0.0000 0.0000 -64.9054 0.0000 9.9493
# 5 10.0639 3.9900 18.2417 0.0000 21.1016 0.0000
# 6 0.0000 0.0000 0.0000 9.9493 0.0000 21.4038
#
#
#
# Elastic Compliance Matrix: (Units=1/GPa)
#
#
# Indices 1 2 3 4 5 6 
#
# 1 0.027510 -0.005376 -0.003199 0.000000 -0.009338 0.000000
# 2 -0.005376 0.008732 -0.001548 0.000000 0.002251 0.000000
# 3 -0.003199 -0.001548 0.009975 0.000000 -0.006805 0.000000
# 4 0.000000 0.000000 0.000000 -0.014382 0.000000 0.006685
# 5 -0.009338 0.002251 -0.006805 0.000000 0.057301 0.000000
# 6 0.000000 0.000000 0.000000 0.006685 0.000000 0.043613
#
#
# Mechanical properties :
#
#
# Convention : Reuss Voigt Hill
#
# Bulk Modulus (GPa) = 38.50331 56.35235 47.42783
# Shear Modulus (GPa) = 30.93070 10.24059 20.58565
#
# Velocity S-wave (km/s) = 4.00687 2.30554 3.26884
# Velocity P-wave (km/s) = 6.43370 6.02809 6.23419
#
# Compressibility (1/GPa) = 0.02597180
#
# Stress axis : x y z
#
# Youngs Moduli (GPa) = 36.35010 114.52564 100.24579
#
# Poissons Ratio (x) = 0.61564 0.32071
# Poissons Ratio (y) = 0.19540 0.15518
# Poissons Ratio (z) = 0.11629 0.17729
#
# Static dielectric constant tensor:
#      x y z
#    x 1.651940 0.000000 0.009080 
#    y 0.000000 1.654890 0.000000 
#    z 0.009080 0.000000 1.755800 
# 
# From -- ./inp_files/49235.got.cif
#   From: 2010.05.17/outbox.cif.g08.bks.cpg/sg11_25_cif.got.tgz:49235.got - 2010.06.03 12:22:45.
