data_PCOD9163524
_publ_section_title
;
Structure prediction by ZEFSAII (Michael W. Deem and Ramdas Pophale) SiO2 
 PCOD9163524
Probable space group: P 21/M
;
_chemical_formula_sum "Si O2"
_cell_formula_units_Z 28
_cell_length_a 7.528645
_cell_length_b 13.589716
_cell_length_c 17.956757
_cell_angle_alpha 90.000000
_cell_angle_beta 137.464982
_cell_angle_gamma 90.000000
_cell_volume 1242.018149
_symmetry_space_group_name_H-M "P 21/M"
_symmetry_group_IT_number 11
_symmetry_cell_setting 'monoclinic'
loop_
_space_group_symop_operation_xyz
x,y,z
-x,1/2+y,-z
-x,-y,-z
x,1/2-y,z
loop_
_atom_site_type_symbol
_atom_site_label
_atom_site_fract_x
_atom_site_fract_y
_atom_site_fract_z
Si Si1 0.514438 0.868245 0.643619
Si Si2 0.508909 0.130051 0.960409
Si Si3 0.917538 0.868795 0.890974
Si Si4 0.960664 0.632482 0.294149
Si Si5 0.548130 0.866617 0.478134
Si Si6 0.093577 0.542633 0.624283
Si Si7 0.458520 0.631169 0.858590
O O1 0.470370 0.750000 0.638642
O O2 0.783965 0.892841 0.770467
O O3 0.534647 0.887947 0.562543
O O4 0.283506 0.923268 0.616848
O O5 0.507866 0.250000 0.961442
O O6 0.256024 0.104261 0.833763
O O7 0.516061 0.098737 0.048535
O O8 0.784621 0.098062 0.009934
O O9 0.923566 0.750000 0.896689
O O10 0.714072 0.901208 0.890939
O O11 0.950664 0.750000 0.304475
O O12 0.905369 0.571613 0.352236
O O13 0.256808 0.608754 0.358979
O O14 0.587120 0.750000 0.481067
O O15 0.798406 0.920213 0.521963
O O16 0.209308 0.595060 0.734538
O O17 0.448036 0.750000 0.855089
#
# Coordination Sequence:
#
# PCOD9163524 Si02
#       7
#     4   4   4   4   4   4   4
#     4   9  18  33  57  89 112 129 170 231 285 330
#     4   9  17  33  52  71 107 149 176 213 269 320
#     4   8  14  27  49  76 103 130 164 211 268 319
#     4  10  23  39  53  75 111 154 193 222 258 324
#     4  10  20  37  59  82 110 141 177 227 282 330
#     4  11  20  35  59  83 110 142 181 231 280 321
#     4   9  17  30  53  84 107 130 175 228 274 320
#
# _framework density 22.543953999999999
#
# number of rings (size 3 to 8) (size 9 to 14) (size 15 to 20)
#    0.000    2.571    0.000    3.429    0.000    3.429 
#    0.000    5.714    0.000    9.429    0.000    0.000 
#    0.000    0.000    0.000    0.000    0.000    0.000 
#
# Total GULP energy -156628.513743 kJ/mol
# GULP energy per Si atom -5593.875491 kJ/mol
# Density = 2.249264 g / cm^3
# Si number density = 22.543954 Si / 1000 Ang^3
#
#
#
# Elastic Constant Matrix: (Units=GPa)
#
#
# Indices 1 2 3 4 5 6 
#
# 1 46.9317 15.7670 57.7454 0.0000 14.8539 0.0000
# 2 15.7670 84.3277 39.9315 0.0000 6.2411 0.0000
# 3 57.7454 39.9315 162.3442 0.0000 29.7910 0.0000
# 4 0.0000 0.0000 0.0000 21.8272 0.0000 -8.2600
# 5 14.8539 6.2411 29.7910 0.0000 35.3402 0.0000
# 6 0.0000 0.0000 0.0000 -8.2600 0.0000 25.7396
#
#
#
# Elastic Compliance Matrix: (Units=1/GPa)
#
#
# Indices 1 2 3 4 5 6 
#
# 1 0.038842 -0.000896 -0.012574 0.000000 -0.005568 0.000000
# 2 -0.000896 0.013450 -0.003103 0.000000 0.000617 0.000000
# 3 -0.012574 -0.003103 0.012214 0.000000 -0.004464 0.000000
# 4 0.000000 0.000000 0.000000 0.052147 0.000000 0.016734
# 5 -0.005568 0.000617 -0.004464 0.000000 0.034291 0.000000
# 6 0.000000 0.000000 0.000000 0.016734 0.000000 0.044221
#
#
# Mechanical properties :
#
#
# Convention : Reuss Voigt Hill
#
# Bulk Modulus (GPa) = 31.88704 57.83238 44.85971
# Shear Modulus (GPa) = 20.94126 28.59203 24.76664
#
# Velocity S-wave (km/s) = 3.05111 3.56515 3.31810
# Velocity P-wave (km/s) = 5.15630 6.53115 5.88402
#
# Compressibility (1/GPa) = 0.03136070
#
# Stress axis : x y z
#
# Youngs Moduli (GPa) = 25.74546 74.35182 81.87037
#
# Poissons Ratio (x) = 0.06664 1.02941
# Poissons Ratio (y) = 0.02308 0.25401
# Poissons Ratio (z) = 0.32372 0.23068
#
# Static dielectric constant tensor:
#      x y z
#    x 1.783850 0.000000 -0.002530 
#    y 0.000000 1.880520 0.000000 
#    z -0.002530 0.000000 1.828840 
# 
# From -- ./inp_files/47671.got.cif
#   From: 2010.05.17/outbox.cif.g08.bks.cpg/sg11_24_cif.got.tgz:47671.got - 2010.06.03 12:22:45.
