data_PCOD9163789
_publ_section_title
;
Structure prediction by ZEFSAII (Michael W. Deem and Ramdas Pophale) SiO2 
 PCOD9163789
Probable space group: P 21/M
;
_chemical_formula_sum "Si O2"
_cell_formula_units_Z 28
_cell_length_a 5.760893
_cell_length_b 20.542588
_cell_length_c 10.199871
_cell_angle_alpha 90.000000
_cell_angle_beta 72.291689
_cell_angle_gamma 90.000000
_cell_volume 1149.894880
_symmetry_space_group_name_H-M "P 21/M"
_symmetry_group_IT_number 11
_symmetry_cell_setting 'monoclinic'
loop_
_space_group_symop_operation_xyz
x,y,z
-x,1/2+y,-z
-x,-y,-z
x,1/2-y,z
loop_
_atom_site_type_symbol
_atom_site_label
_atom_site_fract_x
_atom_site_fract_y
_atom_site_fract_z
Si Si1 0.684783 0.357334 0.451893
Si Si2 0.558561 0.823362 0.066261
Si Si3 0.251195 0.441342 0.565430
Si Si4 0.671603 0.322997 0.168730
Si Si5 0.897943 0.320259 0.676352
Si Si6 0.913488 0.570308 0.966349
Si Si7 0.085348 0.448493 0.308480
O O1 0.524411 0.417344 0.531962
O O2 0.572120 0.331343 0.335006
O O3 0.734913 0.316810 0.572406
O O4 0.949812 0.381038 0.360170
O O5 0.640127 0.750000 0.090502
O O6 0.291221 0.832818 0.174093
O O7 0.524715 0.823288 0.914409
O O8 0.732593 0.882739 0.077964
O O9 0.130176 0.498408 0.669298
O O10 0.086346 0.378206 0.624076
O O11 0.226127 0.462382 0.417118
O O12 0.786687 0.250000 0.144745
O O13 0.858309 0.381750 0.104828
O O14 0.018719 0.250000 0.675471
O O15 0.779360 0.554082 0.851092
O O16 0.000000 0.500000 0.000000
#
# Coordination Sequence:
#
# PCOD9163789 Si02
#       7
#     4   4   4   4   4   4   4
#     4  10  20  37  63  88 118 153 197 246 299 350
#     4  10  23  43  62  87 124 162 197 247 304 356
#     4  10  20  38  62  83 120 158 191 240 303 352
#     4  10  22  41  63  89 119 159 204 247 299 362
#     4  10  23  38  57  89 119 151 202 248 289 354
#     4  11  24  39  62  91 120 157 204 250 300 353
#     4   9  21  38  55  91 119 150 197 242 293 359
#
# _framework density 24.350048999999999
#
# number of rings (size 3 to 8) (size 9 to 14) (size 15 to 20)
#    0.000    2.000    0.000    2.143    4.000    1.714 
#    5.143    6.429    0.000    0.000    0.000    0.000 
#    0.000    0.000    0.000    0.000    0.000    0.000 
#
# Total GULP energy -156286.567069 kJ/mol
# GULP energy per Si atom -5581.663110 kJ/mol
# Density = 2.429463 g / cm^3
# Si number density = 24.350049 Si / 1000 Ang^3
#
#
#
# Elastic Constant Matrix: (Units=GPa)
#
#
# Indices 1 2 3 4 5 6 
#
# 1 31.6459 28.9509 11.2219 0.0000 -0.9760 0.0000
# 2 28.9509 154.4850 33.0272 0.0000 -10.0121 0.0000
# 3 11.2219 33.0272 87.1825 0.0000 13.7868 0.0000
# 4 0.0000 0.0000 0.0000 14.3285 0.0000 7.8101
# 5 -0.9760 -10.0121 13.7868 0.0000 27.4496 0.0000
# 6 0.0000 0.0000 0.0000 7.8101 0.0000 1.0458
#
#
#
# Elastic Compliance Matrix: (Units=1/GPa)
#
#
# Indices 1 2 3 4 5 6 
#
# 1 0.038604 -0.006699 -0.002457 0.000000 0.000163 0.000000
# 2 -0.006699 0.008693 -0.003144 0.000000 0.004512 0.000000
# 3 -0.002457 -0.003144 0.014309 0.000000 -0.008421 0.000000
# 4 0.000000 0.000000 0.000000 -0.022727 0.000000 0.169735
# 5 0.000163 0.004512 -0.008421 0.000000 0.042312 0.000000
# 6 0.000000 0.000000 0.000000 0.169735 0.000000 -0.311398
#
#
# Mechanical properties :
#
#
# Convention : Reuss Voigt Hill
#
# Bulk Modulus (GPa) = 27.02259 46.63483 36.82871
# Shear Modulus (GPa) = -25.87050 21.90566 -1.98242
#
# Velocity S-wave (km/s) = -3.26305 3.00261 -0.90327
# Velocity P-wave (km/s) = 1.75357 5.58698 3.75095
#
# Compressibility (1/GPa) = 0.03700608
#
# Stress axis : x y z
#
# Youngs Moduli (GPa) = 25.90387 115.03327 69.88398
#
# Poissons Ratio (x) = 0.77056 0.17172
# Poissons Ratio (y) = 0.17352 0.21975
# Poissons Ratio (z) = 0.06365 0.36172
#
# Static dielectric constant tensor:
#      x y z
#    x 1.966650 0.000000 0.049100 
#    y 0.000000 2.076390 0.000000 
#    z 0.049100 0.000000 1.951840 
# 
# From -- ./inp_files/29973.got.cif
#   From: 2010.05.17/outbox.cif.g08.bks.cpg/sg11_15_cif.got.tgz:29973.got - 2010.06.03 12:22:45.
