data_PCOD9163869
_publ_section_title
;
Structure prediction by ZEFSAII (Michael W. Deem and Ramdas Pophale) SiO2 
 PCOD9163869
Probable space group: P 21/M
;
_chemical_formula_sum "Si O2"
_cell_formula_units_Z 26
_cell_length_a 8.906875
_cell_length_b 18.777272
_cell_length_c 8.486014
_cell_angle_alpha 90.000000
_cell_angle_beta 103.543138
_cell_angle_gamma 90.000000
_cell_volume 1379.794734
_symmetry_space_group_name_H-M "P 21/M"
_symmetry_group_IT_number 11
_symmetry_cell_setting 'monoclinic'
loop_
_space_group_symop_operation_xyz
x,y,z
-x,1/2+y,-z
-x,-y,-z
x,1/2-y,z
loop_
_atom_site_type_symbol
_atom_site_label
_atom_site_fract_x
_atom_site_fract_y
_atom_site_fract_z
Si Si1 0.600505 0.988644 0.367196
Si Si2 0.344953 0.605972 0.190195
Si Si3 0.662232 0.373276 0.177422
Si Si4 0.472903 0.250000 0.253028
Si Si5 0.435627 0.750000 0.376911
Si Si6 0.878650 0.018195 0.642295
Si Si7 0.220808 0.250000 0.439091
Si Si8 0.016158 0.619376 0.599358
O O1 0.516428 0.926704 0.253490
O O2 0.500000 0.000000 0.500000
O O3 0.609789 0.056351 0.257137
O O4 0.767476 0.980768 0.484266
O O5 0.357132 0.680732 0.283719
O O6 0.224041 0.552564 0.245463
O O7 0.309054 0.614826 0.999018
O O8 0.523730 0.317900 0.167284
O O9 0.821375 0.349085 0.299492
O O10 0.577914 0.250000 0.437622
O O11 0.302184 0.250000 0.285487
O O12 0.625367 0.750000 0.410507
O O13 0.955118 0.083414 0.565241
O O14 0.984493 0.950035 0.705028
O O15 0.115503 0.179640 0.431855
#
# Coordination Sequence:
#
# PCOD9163869 Si02
#       8
#     4   4   4   2   2   4   2   4
#     4   9  18  34  58  86 111 150 195 237 272 332
#     4  11  21  35  59  88 123 147 189 245 293 346
#     4  11  22  36  59  89 119 154 185 241 301 345
#     4  10  22  38  59  85 108 154 205 237 285 338
#     4  10  21  36  59  84 105 152 198 236 288 329
#     4   9  20  35  62  84 118 155 196 239 279 349
#     4  10  23  36  66  81 109 152 205 249 271 343
#     4  10  20  38  58  87 116 154 197 234 291 347
#
# _framework density 18.843384
#
# number of rings (size 3 to 8) (size 9 to 14) (size 15 to 20)
#    0.462    1.538    0.000    5.077    4.308    1.231 
#    0.000    0.000    6.769    0.000    0.000    0.000 
#    0.000    0.000    0.000    0.000    0.000    0.000 
#
# Total GULP energy -144771.200390 kJ/mol
# GULP energy per Si atom -5568.123092 kJ/mol
# Density = 1.880050 g / cm^3
# Si number density = 18.843384 Si / 1000 Ang^3
#
#
#
# Elastic Constant Matrix: (Units=GPa)
#
#
# Indices 1 2 3 4 5 6 
#
# 1 84.2503 29.5104 17.4164 0.0000 -16.7720 0.0000
# 2 29.5104 74.9649 14.0255 0.0000 -10.6369 0.0000
# 3 17.4164 14.0255 70.0295 0.0000 -19.6505 0.0000
# 4 0.0000 0.0000 0.0000 27.1626 0.0000 6.2136
# 5 -16.7720 -10.6369 -19.6505 0.0000 22.3979 0.0000
# 6 0.0000 0.0000 0.0000 6.2136 0.0000 72.4279
#
#
#
# Elastic Compliance Matrix: (Units=1/GPa)
#
#
# Indices 1 2 3 4 5 6 
#
# 1 0.015380 -0.004715 -0.000368 0.000000 0.008955 0.000000
# 2 -0.004715 0.015835 -0.001167 0.000000 0.002966 0.000000
# 3 -0.000368 -0.001167 0.019066 0.000000 0.015898 0.000000
# 4 0.000000 0.000000 0.000000 0.037552 0.000000 -0.003222
# 5 0.008955 0.002966 0.015898 0.000000 0.066709 0.000000
# 6 0.000000 0.000000 0.000000 -0.003222 0.000000 0.014083
#
#
# Mechanical properties :
#
#
# Convention : Reuss Voigt Hill
#
# Bulk Modulus (GPa) = 26.46798 39.01659 32.74228
# Shear Modulus (GPa) = 25.81089 35.61717 30.71403
#
# Velocity S-wave (km/s) = 3.70504 4.35232 4.04166
# Velocity P-wave (km/s) = 5.69033 6.78289 6.26049
#
# Compressibility (1/GPa) = 0.03778151
#
# Stress axis : x y z
#
# Youngs Moduli (GPa) = 65.02139 63.15249 52.45003
#
# Poissons Ratio (x) = 0.29775 0.01930
# Poissons Ratio (y) = 0.30656 0.06118
# Poissons Ratio (z) = 0.02392 0.07367
#
# Static dielectric constant tensor:
#      x y z
#    x 1.576510 0.000000 -0.168490 
#    y 0.000000 1.684700 0.000000 
#    z -0.168490 0.000000 1.376670 
# 
# From -- ./inp_files/13608.got.cif
#   From: 2010.05.17/outbox.cif.g08.bks.cpg/sg11_7_cif.got.tgz:13608.got - 2010.06.03 12:22:45.
