data_PCOD9163853
_publ_section_title
;
Structure prediction by ZEFSAII (Michael W. Deem and Ramdas Pophale) SiO2 
 PCOD9163853
Probable space group: P 21/M
;
_chemical_formula_sum "Si O2"
_cell_formula_units_Z 28
_cell_length_a 6.574489
_cell_length_b 29.407016
_cell_length_c 9.821866
_cell_angle_alpha 90.000000
_cell_angle_beta 48.452509
_cell_angle_gamma 90.000000
_cell_volume 1421.164539
_symmetry_space_group_name_H-M "P 21/M"
_symmetry_group_IT_number 11
_symmetry_cell_setting 'monoclinic'
loop_
_space_group_symop_operation_xyz
x,y,z
-x,1/2+y,-z
-x,-y,-z
x,1/2-y,z
loop_
_atom_site_type_symbol
_atom_site_label
_atom_site_fract_x
_atom_site_fract_y
_atom_site_fract_z
Si Si1 0.338847 0.301173 0.760028
Si Si2 0.016329 0.580055 0.991054
Si Si3 0.104251 0.645528 0.194937
Si Si4 0.878819 0.361568 0.493389
Si Si5 0.250641 0.156647 0.079168
Si Si6 0.736729 0.494868 0.222290
Si Si7 0.852454 0.469520 0.454654
O O1 0.432979 0.250000 0.691290
O O2 0.581024 0.337314 0.620941
O O3 0.075037 0.313848 0.788257
O O4 0.254964 0.306027 0.956431
O O5 0.889894 0.614424 0.939008
O O6 0.300150 0.556144 0.822481
O O7 0.843913 0.534225 0.076460
O O8 0.022966 0.603196 0.135132
O O9 0.040563 0.641706 0.383113
O O10 0.429749 0.649763 0.032792
O O11 0.877985 0.415335 0.459771
O O12 0.078841 0.338003 0.294135
O O13 0.922828 0.486523 0.272501
O O14 0.458857 0.517299 0.390507
O O15 0.000000 0.500000 0.500000
#
# Coordination Sequence:
#
# PCOD9163853 Si02
#       7
#     4   4   4   4   4   4   4
#     4  10  24  46  68  91 122 159 202 260 327 392
#     4  10  20  38  56  83 123 168 207 254 305 353
#     4  10  22  38  64  91 122 160 202 253 313 375
#     4  11  23  42  64  95 131 166 209 259 319 371
#     4  10  22  41  65  92 125 161 205 260 314 375
#     4  10  21  34  55  81 120 168 215 253 295 353
#     4  11  22  35  55  92 126 169 216 259 298 364
#
# _framework density 19.702152000000002
#
# number of rings (size 3 to 8) (size 9 to 14) (size 15 to 20)
#    0.000    1.714    1.429    3.429    2.000    6.286 
#    0.000    3.571    0.000    0.000    0.000    0.000 
#    0.000    0.000    0.000    0.000    0.000    0.000 
#
# Total GULP energy -155887.637062 kJ/mol
# GULP energy per Si atom -5567.415609 kJ/mol
# Density = 1.965731 g / cm^3
# Si number density = 19.702152 Si / 1000 Ang^3
#
#
#
# Elastic Constant Matrix: (Units=GPa)
#
#
# Indices 1 2 3 4 5 6 
#
# 1 77.4827 13.3231 48.3222 0.0000 18.9488 0.0000
# 2 13.3231 65.5358 15.7386 0.0000 4.2936 0.0000
# 3 48.3222 15.7386 142.8434 0.0000 20.4898 0.0000
# 4 0.0000 0.0000 0.0000 19.4801 0.0000 -7.1299
# 5 18.9488 4.2936 20.4898 0.0000 24.5744 0.0000
# 6 0.0000 0.0000 0.0000 -7.1299 0.0000 10.2768
#
#
#
# Elastic Compliance Matrix: (Units=1/GPa)
#
#
# Indices 1 2 3 4 5 6 
#
# 1 0.018615 -0.002010 -0.004620 0.000000 -0.010151 0.000000
# 2 -0.002010 0.015938 -0.001021 0.000000 -0.000383 0.000000
# 3 -0.004620 -0.001021 0.009245 0.000000 -0.003968 0.000000
# 4 0.000000 0.000000 0.000000 0.068807 0.000000 0.047737
# 5 -0.010151 -0.000383 -0.003968 0.000000 0.051895 0.000000
# 6 0.000000 0.000000 0.000000 0.047737 0.000000 0.130426
#
#
# Mechanical properties :
#
#
# Convention : Reuss Voigt Hill
#
# Bulk Modulus (GPa) = 35.09199 48.95887 42.02543
# Shear Modulus (GPa) = 15.63838 24.76479 20.20158
#
# Velocity S-wave (km/s) = 2.82039 3.54921 3.20558
# Velocity P-wave (km/s) = 5.33442 6.45750 5.92264
#
# Compressibility (1/GPa) = 0.02849653
#
# Stress axis : x y z
#
# Youngs Moduli (GPa) = 53.71931 62.74394 108.16469
#
# Poissons Ratio (x) = 0.12611 0.49970
# Poissons Ratio (y) = 0.10797 0.11045
# Poissons Ratio (z) = 0.24817 0.06407
#
# Static dielectric constant tensor:
#      x y z
#    x 1.977780 0.000000 -0.322260 
#    y 0.000000 1.755850 0.000000 
#    z -0.322260 0.000000 2.446020 
# 
# From -- ./inp_files/10790.got.cif
#   From: 2010.05.17/outbox.cif.g08.bks.cpg/sg11_6_cif.got.tgz:10790.got - 2010.06.03 12:22:45.
