data_PCOD9163776
_publ_section_title
;
Structure prediction by ZEFSAII (Michael W. Deem and Ramdas Pophale) SiO2 
 PCOD9163776
Probable space group: P 21/M
;
_chemical_formula_sum "Si O2"
_cell_formula_units_Z 24
_cell_length_a 12.834188
_cell_length_b 14.221634
_cell_length_c 8.348933
_cell_angle_alpha 90.000000
_cell_angle_beta 48.999706
_cell_angle_gamma 90.000000
_cell_volume 1150.076676
_symmetry_space_group_name_H-M "P 21/M"
_symmetry_group_IT_number 11
_symmetry_cell_setting 'monoclinic'
loop_
_space_group_symop_operation_xyz
x,y,z
-x,1/2+y,-z
-x,-y,-z
x,1/2-y,z
loop_
_atom_site_type_symbol
_atom_site_label
_atom_site_fract_x
_atom_site_fract_y
_atom_site_fract_z
Si Si1 0.560658 0.547505 0.282407
Si Si2 0.669675 0.956256 0.660164
Si Si3 0.823361 0.956138 0.841361
Si Si4 0.163523 0.750000 0.600464
Si Si5 0.351391 0.250000 0.245327
Si Si6 0.899495 0.750000 0.694466
Si Si7 0.082350 0.537077 0.763638
Si Si8 0.496365 0.750000 0.255111
O O1 0.500000 0.500000 0.500000
O O2 0.462748 0.520562 0.231150
O O3 0.546766 0.659020 0.300172
O O4 0.713846 0.514196 0.085460
O O5 0.751406 0.973980 0.743563
O O6 0.619998 0.848792 0.701627
O O7 0.777081 0.982465 0.413005
O O8 0.843489 0.843600 0.833716
O O9 0.976999 0.989543 0.723912
O O10 0.119499 0.649624 0.726339
O O11 0.328508 0.750000 0.409077
O O12 0.065013 0.750000 0.540485
O O13 0.183971 0.250000 0.387101
O O14 0.431575 0.250000 0.993482
O O15 0.000000 0.500000 0.000000
#
# Coordination Sequence:
#
# PCOD9163776 Si02
#       8
#     4   4   4   2   2   2   4   2
#     4  12  24  39  66  96 130 171 216 271 332 388
#     4  11  22  41  64  93 126 171 220 268 322 389
#     4  10  20  37  62  91 123 164 214 261 316 391
#     4  10  22  37  63  88 128 166 208 258 335 392
#     4  10  22  40  67  93 129 169 225 270 321 389
#     4   8  16  36  57  87 116 164 205 251 316 378
#     4  11  23  40  64  95 129 170 217 271 329 385
#     4  12  22  43  65  94 131 171 212 273 336 389
#
# _framework density 20.868172999999999
#
# number of rings (size 3 to 8) (size 9 to 14) (size 15 to 20)
#    0.000    1.333    5.000    2.000    0.000    1.333 
#    0.000    1.667    0.000    2.000    0.000    0.000 
#    0.000    0.000    0.000    0.000    0.000    0.000 
#
# Total GULP energy -133809.665449 kJ/mol
# GULP energy per Si atom -5575.402727 kJ/mol
# Density = 2.082068 g / cm^3
# Si number density = 20.868173 Si / 1000 Ang^3
#
#
#
# Elastic Constant Matrix: (Units=GPa)
#
#
# Indices 1 2 3 4 5 6 
#
# 1 61.0795 -5.4880 15.7068 0.0000 -14.3829 0.0000
# 2 -5.4880 97.1976 24.0295 0.0000 11.3257 0.0000
# 3 15.7068 24.0295 101.4402 0.0000 -8.3937 0.0000
# 4 0.0000 0.0000 0.0000 25.3486 0.0000 -0.1208
# 5 -14.3829 11.3257 -8.3937 0.0000 37.6517 0.0000
# 6 0.0000 0.0000 0.0000 -0.1208 0.0000 16.0299
#
#
#
# Elastic Compliance Matrix: (Units=1/GPa)
#
#
# Indices 1 2 3 4 5 6 
#
# 1 0.018593 0.000964 -0.002591 0.000000 0.006235 0.000000
# 2 0.000964 0.011583 -0.003210 0.000000 -0.003832 0.000000
# 3 -0.002591 -0.003210 0.011225 0.000000 0.002478 0.000000
# 4 0.000000 0.000000 0.000000 0.039451 0.000000 0.000297
# 5 0.006235 -0.003832 0.002478 0.000000 0.030646 0.000000
# 6 0.000000 0.000000 0.000000 0.000297 0.000000 0.062386
#
#
# Mechanical properties :
#
#
# Convention : Reuss Voigt Hill
#
# Bulk Modulus (GPa) = 31.52005 36.46823 33.99414
# Shear Modulus (GPa) = 25.75538 30.83730 28.29634
#
# Velocity S-wave (km/s) = 3.51692 3.84828 3.68633
# Velocity P-wave (km/s) = 5.62395 6.10403 5.86890
#
# Compressibility (1/GPa) = 0.03172583
#
# Stress axis : x y z
#
# Youngs Moduli (GPa) = 53.78278 86.33486 89.08906
#
# Poissons Ratio (x) = -0.08322 0.23086
# Poissons Ratio (y) = -0.05184 0.28598
# Poissons Ratio (z) = 0.13937 0.27714
#
# Static dielectric constant tensor:
#      x y z
#    x 1.828540 0.000000 0.016160 
#    y 0.000000 1.855270 0.000000 
#    z 0.016160 0.000000 1.727220 
# 
# From -- ./inp_files/22048.got.cif
#   From: 2010.05.17/outbox.cif.g08.bks.cpg/sg11_12_cif.got.tgz:22048.got - 2010.06.03 12:22:45.
