data_PCOD9163441
_publ_section_title
;
Structure prediction by ZEFSAII (Michael W. Deem and Ramdas Pophale) SiO2 
 PCOD9163441
Probable space group: P 21/M
;
_chemical_formula_sum "Si O2"
_cell_formula_units_Z 30
_cell_length_a 15.180994
_cell_length_b 9.187620
_cell_length_c 16.251136
_cell_angle_alpha 90.000000
_cell_angle_beta 34.202697
_cell_angle_gamma 90.000000
_cell_volume 1274.141847
_symmetry_space_group_name_H-M "P 21/M"
_symmetry_group_IT_number 11
_symmetry_cell_setting 'monoclinic'
loop_
_space_group_symop_operation_xyz
x,y,z
-x,1/2+y,-z
-x,-y,-z
x,1/2-y,z
loop_
_atom_site_type_symbol
_atom_site_label
_atom_site_fract_x
_atom_site_fract_y
_atom_site_fract_z
Si Si1 0.014997 0.250000 0.022890
Si Si2 0.362592 0.578890 0.155188
Si Si3 0.223892 0.523459 0.815879
Si Si4 0.557658 0.074558 0.574014
Si Si5 0.098535 0.923803 0.672961
Si Si6 0.009521 0.579678 0.405094
Si Si7 0.458943 0.422165 0.237229
Si Si8 0.814167 0.090814 0.964056
O O1 0.887086 0.126236 0.149989
O O2 0.136312 0.373328 0.895396
O O3 0.398089 0.750000 0.141580
O O4 0.194976 0.571642 0.240240
O O5 0.353085 0.492042 0.248589
O O6 0.500000 0.500000 0.000000
O O7 0.405300 0.503198 0.652831
O O8 0.211836 0.592797 0.917356
O O9 0.541696 0.250000 0.579224
O O10 0.735412 0.029938 0.415371
O O11 0.546631 0.022173 0.677805
O O12 0.100682 0.750000 0.661225
O O13 0.084689 0.000692 0.594341
O O14 0.940055 0.972467 0.841168
O O15 0.967031 0.750000 0.445055
O O16 0.000000 0.500000 0.500000
O O17 0.427662 0.250000 0.277354
O O18 0.639197 0.430616 0.066291
O O19 0.875506 0.250000 0.891614
#
# Coordination Sequence:
#
# PCOD9163441 Si02
#       8
#     2   4   4   4   4   4   4   4
#     4  10  20  36  66  96 120 148 192 226 288 334
#     4  11  23  37  54  78 111 145 188 241 297 345
#     4  10  20  38  64  94 119 155 186 239 274 342
#     4  10  21  38  57  84 117 148 189 234 281 327
#     4  11  24  38  58  84 116 157 197 240 288 346
#     4  11  24  41  58  81 113 153 199 246 296 347
#     4  10  21  35  57  83 109 143 192 243 287 342
#     4  10  21  38  57  86 121 152 193 237 288 337
#
# _framework density 23.545259000000001
#
# number of rings (size 3 to 8) (size 9 to 14) (size 15 to 20)
#    0.000    1.600    1.333    3.200    1.867   10.667 
#    0.000    0.000    0.000    4.800    0.000    0.000 
#    0.000    0.000    0.000    0.000    0.000    0.000 
#
# Total GULP energy -167295.255028 kJ/mol
# GULP energy per Si atom -5576.508501 kJ/mol
# Density = 2.349167 g / cm^3
# Si number density = 23.545259 Si / 1000 Ang^3
#
#
#
# Elastic Constant Matrix: (Units=GPa)
#
#
# Indices 1 2 3 4 5 6 
#
# 1 75.7460 17.5137 14.7187 0.0000 -19.8380 0.0000
# 2 17.5137 122.3523 20.1210 0.0000 -24.7227 0.0000
# 3 14.7187 20.1210 123.4567 0.0000 -21.3572 0.0000
# 4 0.0000 0.0000 0.0000 10.5318 0.0000 13.3940
# 5 -19.8380 -24.7227 -21.3572 0.0000 46.2042 0.0000
# 6 0.0000 0.0000 0.0000 13.3940 0.0000 -156.1050
#
#
#
# Elastic Compliance Matrix: (Units=1/GPa)
#
#
# Indices 1 2 3 4 5 6 
#
# 1 0.015022 -0.000897 -0.000665 0.000000 0.005662 0.000000
# 2 -0.000897 0.009274 -0.000666 0.000000 0.004269 0.000000
# 3 -0.000665 -0.000666 0.008887 0.000000 0.003466 0.000000
# 4 0.000000 0.000000 0.000000 0.085609 0.000000 0.007345
# 5 0.005662 0.004269 0.003466 0.000000 0.027961 0.000000
# 6 0.000000 0.000000 0.000000 0.007345 0.000000 -0.005776
#
#
# Mechanical properties :
#
#
# Convention : Reuss Voigt Hill
#
# Bulk Modulus (GPa) = 34.81047 47.36240 41.08644
# Shear Modulus (GPa) = 32.25645 -1.92701 15.16472
#
# Velocity S-wave (km/s) = 3.70533 -0.90565 2.54060
# Velocity P-wave (km/s) = 5.75522 4.36641 5.10823
#
# Compressibility (1/GPa) = 0.02872699
#
# Stress axis : x y z
#
# Youngs Moduli (GPa) = 66.57092 107.83246 112.51790
#
# Poissons Ratio (x) = 0.09669 0.07485
# Poissons Ratio (y) = 0.05969 0.07493
# Poissons Ratio (z) = 0.04428 0.07181
#
# Static dielectric constant tensor:
#      x y z
#    x 1.980010 0.000000 0.022110 
#    y 0.000000 1.772740 0.000000 
#    z 0.022110 0.000000 1.920820 
# 
# From -- ./inp_files/66044.got.cif
#   From: 2010.05.17/outbox.cif.g08.bks.cpg/sg11_34_cif.got.tgz:66044.got - 2010.06.03 12:22:45.
