data_PCOD9163152
_publ_section_title
;
Structure prediction by ZEFSAII (Michael W. Deem and Ramdas Pophale) SiO2 
 PCOD9163152
Probable space group: P 21/M
;
_chemical_formula_sum "Si O2"
_cell_formula_units_Z 30
_cell_length_a 7.996316
_cell_length_b 15.341073
_cell_length_c 9.426823
_cell_angle_alpha 90.000000
_cell_angle_beta 80.349214
_cell_angle_gamma 90.000000
_cell_volume 1140.042185
_symmetry_space_group_name_H-M "P 21/M"
_symmetry_group_IT_number 11
_symmetry_cell_setting 'monoclinic'
loop_
_space_group_symop_operation_xyz
x,y,z
-x,1/2+y,-z
-x,-y,-z
x,1/2-y,z
loop_
_atom_site_type_symbol
_atom_site_label
_atom_site_fract_x
_atom_site_fract_y
_atom_site_fract_z
Si Si1 0.024936 0.153085 0.368404
Si Si2 0.571668 0.006907 0.670305
Si Si3 0.500000 0.500000 0.000000
Si Si4 0.793490 0.437606 0.223290
Si Si5 0.958546 0.900223 0.326768
Si Si6 0.766043 0.649940 0.944383
Si Si7 0.868603 0.152613 0.954619
Si Si8 0.398671 0.351065 0.542175
O O1 0.051328 0.250000 0.422538
O O2 0.998826 0.096280 0.513298
O O3 0.169245 0.140754 0.227631
O O4 0.855546 0.146893 0.296808
O O5 0.377323 0.974521 0.694722
O O6 0.649202 0.925831 0.569916
O O7 0.555475 0.102031 0.600583
O O8 0.604438 0.011004 0.831187
O O9 0.617306 0.587543 0.015050
O O10 0.934114 0.507559 0.249768
O O11 0.760639 0.416652 0.062022
O O12 0.105042 0.855530 0.215285
O O13 0.776244 0.852117 0.342102
O O14 0.712602 0.750000 0.970119
O O15 0.941419 0.637509 0.007950
O O16 0.811654 0.250000 0.997979
O O17 0.431353 0.250000 0.494810
#
# Coordination Sequence:
#
# PCOD9163152 Si02
#       8
#     4   4   2   4   4   4   4   4
#     4  10  20  36  59  85 114 149 193 240 290 351
#     4  10  24  40  60  90 118 157 203 244 301 358
#     4  12  22  36  60  88 120 154 198 254 296 344
#     4  10  21  38  56  81 118 155 185 230 297 359
#     4  11  20  33  58  89 112 142 192 245 286 334
#     4   9  20  37  57  84 117 157 198 240 296 358
#     4  10  20  37  61  85 114 151 193 239 294 358
#     4  10  21  41  64  85 117 157 200 247 295 355
#
# _framework density 26.314812
#
# number of rings (size 3 to 8) (size 9 to 14) (size 15 to 20)
#    0.000    1.867    0.000    5.600    0.000    5.333 
#    0.000    4.000    0.000    1.600    0.000    3.733 
#    0.000    0.000    0.000    0.000    0.000    0.000 
#
# Total GULP energy -167138.722717 kJ/mol
# GULP energy per Si atom -5571.290757 kJ/mol
# Density = 2.625492 g / cm^3
# Si number density = 26.314812 Si / 1000 Ang^3
#
#
#
# Elastic Constant Matrix: (Units=GPa)
#
#
# Indices 1 2 3 4 5 6 
#
# 1 20.3141 11.7772 -15.6991 0.0000 -1.6027 0.0000
# 2 11.7772 159.0497 45.5466 0.0000 -19.6563 0.0000
# 3 -15.6991 45.5466 154.2644 0.0000 14.2089 0.0000
# 4 0.0000 0.0000 0.0000 36.6074 0.0000 -7.7813
# 5 -1.6027 -19.6563 14.2089 0.0000 34.9782 0.0000
# 6 0.0000 0.0000 0.0000 -7.7813 0.0000 22.4824
#
#
#
# Elastic Compliance Matrix: (Units=1/GPa)
#
#
# Indices 1 2 3 4 5 6 
#
# 1 0.060056 -0.007606 0.008828 0.000000 -0.005109 0.000000
# 2 -0.007606 0.008733 -0.003919 0.000000 0.006151 0.000000
# 3 0.008828 -0.003919 0.009042 0.000000 -0.005471 0.000000
# 4 0.000000 0.000000 0.000000 0.029486 0.000000 0.010205
# 5 -0.005109 0.006151 -0.005471 0.000000 0.034034 0.000000
# 6 0.000000 0.000000 0.000000 0.010205 0.000000 0.048011
#
#
# Mechanical properties :
#
#
# Convention : Reuss Voigt Hill
#
# Bulk Modulus (GPa) = 13.80522 46.31971 30.06247
# Shear Modulus (GPa) = 22.84116 38.28051 30.56083
#
# Velocity S-wave (km/s) = 2.94937 3.81821 3.41156
# Velocity P-wave (km/s) = 4.10560 6.08922 5.19301
#
# Compressibility (1/GPa) = 0.07243638
#
# Stress axis : x y z
#
# Youngs Moduli (GPa) = 16.65104 114.50727 110.59722
#
# Poissons Ratio (x) = 0.87100 -0.97637
# Poissons Ratio (y) = 0.12666 0.43344
# Poissons Ratio (z) = -0.14700 0.44876
#
# Static dielectric constant tensor:
#      x y z
#    x 1.824070 0.000000 0.110010 
#    y 0.000000 2.140260 0.000000 
#    z 0.110010 0.000000 2.149440 
# 
# From -- ./inp_files/18018.got.cif
#   From: 2010.05.17/outbox.cif.g08.bks.cpg/sg11_10_cif.got.tgz:18018.got - 2010.06.03 12:22:45.
