data_PCOD9163682
_publ_section_title
;
Structure prediction by ZEFSAII (Michael W. Deem and Ramdas Pophale) SiO2 
 PCOD9163682
Probable space group: P 21/M
;
_chemical_formula_sum "Si O2"
_cell_formula_units_Z 28
_cell_length_a 11.319421
_cell_length_b 22.743733
_cell_length_c 5.405907
_cell_angle_alpha 90.000000
_cell_angle_beta 80.998763
_cell_angle_gamma 90.000000
_cell_volume 1374.589345
_symmetry_space_group_name_H-M "P 21/M"
_symmetry_group_IT_number 11
_symmetry_cell_setting 'monoclinic'
loop_
_space_group_symop_operation_xyz
x,y,z
-x,1/2+y,-z
-x,-y,-z
x,1/2-y,z
loop_
_atom_site_type_symbol
_atom_site_label
_atom_site_fract_x
_atom_site_fract_y
_atom_site_fract_z
Si Si1 0.360404 0.127622 0.903665
Si Si2 0.707337 0.381459 0.132240
Si Si3 0.463935 0.428844 0.375606
Si Si4 0.364390 0.750000 0.796726
Si Si5 0.149039 0.057804 0.035528
Si Si6 0.095893 0.957252 0.712125
Si Si7 0.479609 0.250000 0.757538
Si Si8 0.308058 0.967325 0.260182
O O1 0.403883 0.089534 0.652808
O O2 0.400683 0.192334 0.818844
O O3 0.414624 0.109455 0.155261
O O4 0.217897 0.117655 0.966660
O O5 0.604884 0.412830 0.333952
O O6 0.704839 0.312308 0.181441
O O7 0.837137 0.409960 0.133267
O O8 0.666030 0.405068 0.876294
O O9 0.419513 0.494958 0.326037
O O10 0.452047 0.750000 0.528874
O O11 0.430522 0.750000 0.039159
O O12 0.041488 0.061369 0.266428
O O13 0.256252 0.013331 0.073472
O O14 0.093347 0.023521 0.821657
O O15 0.189893 0.959331 0.461652
#
# Coordination Sequence:
#
# PCOD9163682 Si02
#       8
#     4   4   4   2   4   4   2   4
#     4  11  21  39  63  91 117 162 206 257 303 363
#     4  11  24  38  57  92 122 165 207 251 312 376
#     4  11  22  38  60  93 129 154 199 257 317 365
#     4  12  26  42  63  87 126 166 206 254 301 384
#     4   9  20  38  58  90 122 160 206 253 304 365
#     4  10  20  37  61  86 124 164 202 245 313 369
#     4  12  22  42  65  85 120 164 212 252 309 364
#     4  10  21  36  60  93 125 164 202 258 310 378
#
# _framework density 20.369719
#
# number of rings (size 3 to 8) (size 9 to 14) (size 15 to 20)
#    0.000    1.429    4.286    0.857    4.000    0.571 
#    0.000    0.714    0.000    0.000    0.000    0.000 
#    0.000    0.000    0.000    0.000    0.000    0.000 
#
# Total GULP energy -156135.747845 kJ/mol
# GULP energy per Si atom -5576.276709 kJ/mol
# Density = 2.032336 g / cm^3
# Si number density = 20.369719 Si / 1000 Ang^3
#
#
#
# Elastic Constant Matrix: (Units=GPa)
#
#
# Indices 1 2 3 4 5 6 
#
# 1 93.3427 29.5434 17.4228 0.0000 -13.2681 0.0000
# 2 29.5434 136.4789 18.6204 0.0000 -1.5561 0.0000
# 3 17.4228 18.6204 96.4856 0.0000 -4.3395 0.0000
# 4 0.0000 0.0000 0.0000 28.9758 0.0000 -6.0215
# 5 -13.2681 -1.5561 -4.3395 0.0000 25.7440 0.0000
# 6 0.0000 0.0000 0.0000 -6.0215 0.0000 30.5209
#
#
#
# Elastic Compliance Matrix: (Units=1/GPa)
#
#
# Indices 1 2 3 4 5 6 
#
# 1 0.012646 -0.002459 -0.001534 0.000000 0.006110 0.000000
# 2 -0.002459 0.008004 -0.001145 0.000000 -0.000976 0.000000
# 3 -0.001534 -0.001145 0.010906 0.000000 0.000978 0.000000
# 4 0.000000 0.000000 0.000000 0.035987 0.000000 0.007100
# 5 0.006110 -0.000976 0.000978 0.000000 0.042099 0.000000
# 6 0.000000 0.000000 0.000000 0.007100 0.000000 0.034165
#
#
# Mechanical properties :
#
#
# Convention : Reuss Voigt Hill
#
# Bulk Modulus (GPa) = 46.98845 50.83116 48.90980
# Shear Modulus (GPa) = 31.02173 34.42950 32.72561
#
# Velocity S-wave (km/s) = 3.90671 4.11570 4.01257
# Velocity P-wave (km/s) = 6.59301 6.89882 6.74765
#
# Compressibility (1/GPa) = 0.02128182
#
# Stress axis : x y z
#
# Youngs Moduli (GPa) = 79.07454 124.93162 91.69085
#
# Poissons Ratio (x) = 0.30715 0.14068
# Poissons Ratio (y) = 0.19441 0.10496
# Poissons Ratio (z) = 0.12133 0.14301
#
# Static dielectric constant tensor:
#      x y z
#    x 1.819550 0.000000 0.065410 
#    y 0.000000 1.750940 0.000000 
#    z 0.065410 0.000000 1.832260 
# 
# From -- ./inp_files/5053.got.cif
#   From: 2010.05.17/outbox.cif.g08.bks.cpg/sg11_3_cif.got.tgz:5053.got - 2010.06.03 12:22:45.
