data_PCOD9163933
_publ_section_title
;
Structure prediction by ZEFSAII (Michael W. Deem and Ramdas Pophale) SiO2 
 PCOD9163933
Probable space group: P 21/M
;
_chemical_formula_sum "Si O2"
_cell_formula_units_Z 24
_cell_length_a 15.039078
_cell_length_b 14.241258
_cell_length_c 12.243969
_cell_angle_alpha 90.000000
_cell_angle_beta 152.419403
_cell_angle_gamma 90.000000
_cell_volume 1214.140460
_symmetry_space_group_name_H-M "P 21/M"
_symmetry_group_IT_number 11
_symmetry_cell_setting 'monoclinic'
loop_
_space_group_symop_operation_xyz
x,y,z
-x,1/2+y,-z
-x,-y,-z
x,1/2-y,z
loop_
_atom_site_type_symbol
_atom_site_label
_atom_site_fract_x
_atom_site_fract_y
_atom_site_fract_z
Si Si1 0.779309 0.250000 0.494006
Si Si2 0.790931 0.250000 0.242077
Si Si3 0.663272 0.750000 0.996387
Si Si4 0.973809 0.889755 0.645316
Si Si5 0.925565 0.908061 0.176788
Si Si6 0.000992 0.144025 0.077572
Si Si7 0.725551 0.984664 0.739191
Si Si8 0.649332 0.750000 0.242093
O O1 0.794520 0.250000 0.377231
O O2 0.894966 0.341829 0.657423
O O3 0.556609 0.250000 0.283184
O O4 0.899842 0.339668 0.310019
O O5 0.571122 0.250000 0.964249
O O6 0.779352 0.841185 0.082769
O O7 0.657713 0.750000 0.120533
O O8 0.764087 0.842738 0.405277
O O9 0.040382 0.857498 0.838363
O O10 0.998191 0.001595 0.673755
O O11 0.813329 0.944138 0.947684
O O12 0.013783 0.250000 0.051915
O O13 0.198117 0.087699 0.268889
O O14 0.834649 0.083062 0.840663
O O15 0.500000 0.000000 0.500000
#
# Coordination Sequence:
#
# PCOD9163933 Si02
#       8
#     2   2   2   4   4   4   4   2
#     4  10  23  41  58  83 124 157 197 246 292 350
#     4  10  21  37  58  90 120 154 200 243 291 354
#     4  10  23  39  58  90 118 158 204 241 285 358
#     4  10  20  38  61  86 119 155 191 248 296 346
#     4  10  22  40  61  84 118 158 197 241 299 350
#     4  10  21  40  61  87 120 155 190 240 298 347
#     4  10  24  41  59  91 121 150 199 246 287 355
#     4  10  21  37  58  89 124 153 199 244 294 348
#
# _framework density 19.767068999999999
#
# number of rings (size 3 to 8) (size 9 to 14) (size 15 to 20)
#    0.000    2.000    1.667    2.000    2.333   11.333 
#    0.000    3.333    0.000    0.000    0.000    0.000 
#    0.000    0.000    0.000    0.000    0.000    0.000 
#
# Total GULP energy -133996.388234 kJ/mol
# GULP energy per Si atom -5583.182843 kJ/mol
# Density = 1.972208 g / cm^3
# Si number density = 19.767069 Si / 1000 Ang^3
#
#
#
# Elastic Constant Matrix: (Units=GPa)
#
#
# Indices 1 2 3 4 5 6 
#
# 1 47.0655 20.5300 16.9480 0.0000 8.3285 0.0000
# 2 20.5300 154.8405 57.0186 0.0000 18.9301 0.0000
# 3 16.9480 57.0186 116.4016 0.0000 29.6919 0.0000
# 4 0.0000 0.0000 0.0000 17.9235 0.0000 -7.2559
# 5 8.3285 18.9301 29.6919 0.0000 39.9262 0.0000
# 6 0.0000 0.0000 0.0000 -7.2559 0.0000 15.3499
#
#
#
# Elastic Compliance Matrix: (Units=1/GPa)
#
#
# Indices 1 2 3 4 5 6 
#
# 1 0.023244 -0.002150 -0.001671 0.000000 -0.002586 0.000000
# 2 -0.002150 0.008116 -0.003450 0.000000 -0.000834 0.000000
# 3 -0.001671 -0.003450 0.012363 0.000000 -0.007210 0.000000
# 4 0.000000 0.000000 0.000000 0.068996 0.000000 0.032614
# 5 -0.002586 -0.000834 -0.007210 0.000000 0.031343 0.000000
# 6 0.000000 0.000000 0.000000 0.032614 0.000000 0.080563
#
#
# Mechanical properties :
#
#
# Convention : Reuss Voigt Hill
#
# Bulk Modulus (GPa) = 34.26910 56.36676 45.31793
# Shear Modulus (GPa) = 20.08881 29.56065 24.82473
#
# Velocity S-wave (km/s) = 3.19137 3.87130 3.54766
# Velocity P-wave (km/s) = 5.56362 6.96850 6.30531
#
# Compressibility (1/GPa) = 0.02918081
#
# Stress axis : x y z
#
# Youngs Moduli (GPa) = 43.02098 123.21971 80.88535
#
# Poissons Ratio (x) = 0.26496 0.13519
# Poissons Ratio (y) = 0.09251 0.27902
# Poissons Ratio (z) = 0.07190 0.42505
#
# Static dielectric constant tensor:
#      x y z
#    x 1.718900 0.000000 -0.020940 
#    y 0.000000 1.704050 0.000000 
#    z -0.020940 0.000000 1.696170 
# 
# From -- ./inp_files/39765.got.cif
#   From: 2010.05.17/outbox.cif.g08.bks.cpg/sg11_20_cif.got.tgz:39765.got - 2010.06.03 12:22:45.
