data_PCOD9163824
_publ_section_title
;
Structure prediction by ZEFSAII (Michael W. Deem and Ramdas Pophale) SiO2 
 PCOD9163824
Probable space group: P 21/M
;
_chemical_formula_sum "Si O2"
_cell_formula_units_Z 30
_cell_length_a 10.626521
_cell_length_b 15.723252
_cell_length_c 10.190620
_cell_angle_alpha 90.000000
_cell_angle_beta 63.118327
_cell_angle_gamma 90.000000
_cell_volume 1518.695830
_symmetry_space_group_name_H-M "P 21/M"
_symmetry_group_IT_number 11
_symmetry_cell_setting 'monoclinic'
loop_
_space_group_symop_operation_xyz
x,y,z
-x,1/2+y,-z
-x,-y,-z
x,1/2-y,z
loop_
_atom_site_type_symbol
_atom_site_label
_atom_site_fract_x
_atom_site_fract_y
_atom_site_fract_z
Si Si1 0.597868 0.501487 0.681048
Si Si2 0.509182 0.157569 0.856417
Si Si3 0.769253 0.153588 0.926374
Si Si4 0.263241 0.114179 0.161466
Si Si5 0.601072 0.347255 0.277456
Si Si6 0.956836 0.502362 0.869673
Si Si7 0.033066 0.250000 0.366695
Si Si8 0.814434 0.397864 0.401845
O O1 0.493075 0.425914 0.775821
O O2 0.670690 0.545125 0.772182
O O3 0.514932 0.578931 0.651207
O O4 0.715896 0.453040 0.542496
O O5 0.504616 0.250000 0.790435
O O6 0.659894 0.148902 0.858036
O O7 0.392703 0.157056 0.025246
O O8 0.822044 0.250000 0.911251
O O9 0.896117 0.088249 0.854964
O O10 0.681090 0.135841 0.101386
O O11 0.170039 0.068032 0.094946
O O12 0.157972 0.176684 0.286754
O O13 0.545070 0.250000 0.297981
O O14 0.714817 0.354428 0.339458
O O15 0.083489 0.537060 0.722441
O O16 0.000000 0.500000 0.000000
O O17 0.910305 0.325719 0.424364
#
# Coordination Sequence:
#
# PCOD9163824 Si02
#       8
#     4   4   4   4   4   4   2   4
#     4  12  25  40  67 100 129 166 215 278 326 378
#     4  11  22  40  66  98 128 161 212 276 323 371
#     4  10  20  37  64  95 121 160 215 267 319 371
#     4  11  22  41  65  94 123 163 223 265 317 380
#     4  11  22  41  71  91 125 170 217 270 323 385
#     4  11  22  39  64  89 124 172 212 263 315 381
#     4  10  24  42  64  84 128 170 212 256 308 406
#     4  11  25  43  62  92 131 174 218 255 328 394
#
# _framework density 19.753792000000001
#
# number of rings (size 3 to 8) (size 9 to 14) (size 15 to 20)
#    0.000    1.067    5.333    1.600    1.867    2.133 
#    0.000    0.667    0.000    0.000    0.000    0.000 
#    0.000    0.000    0.000    0.000    0.000    0.000 
#
# Total GULP energy -167017.304493 kJ/mol
# GULP energy per Si atom -5567.243483 kJ/mol
# Density = 1.970883 g / cm^3
# Si number density = 19.753792 Si / 1000 Ang^3
#
#
#
# Elastic Constant Matrix: (Units=GPa)
#
#
# Indices 1 2 3 4 5 6 
#
# 1 53.9004 23.4140 1.1469 0.0000 -14.6002 0.0000
# 2 23.4140 154.0022 42.7368 0.0000 -26.3122 0.0000
# 3 1.1469 42.7368 63.2949 0.0000 -24.9941 0.0000
# 4 0.0000 0.0000 0.0000 25.6984 0.0000 -6.4339
# 5 -14.6002 -26.3122 -24.9941 0.0000 17.9865 0.0000
# 6 0.0000 0.0000 0.0000 -6.4339 0.0000 9.4898
#
#
#
# Elastic Compliance Matrix: (Units=1/GPa)
#
#
# Indices 1 2 3 4 5 6 
#
# 1 0.034620 -0.001878 0.023606 0.000000 0.058159 0.000000
# 2 -0.001878 0.008860 -0.003173 0.000000 0.007028 0.000000
# 3 0.023606 -0.003173 0.051516 0.000000 0.086108 0.000000
# 4 0.000000 0.000000 0.000000 0.046868 0.000000 0.031776
# 5 0.058159 0.007028 0.086108 0.000000 0.232743 0.000000
# 6 0.000000 0.000000 0.000000 0.031776 0.000000 0.126920
#
#
# Mechanical properties :
#
#
# Convention : Reuss Voigt Hill
#
# Bulk Modulus (GPa) = 7.56959 45.08810 26.32885
# Shear Modulus (GPa) = 9.83375 24.22825 17.03100
#
# Velocity S-wave (km/s) = 2.23360 3.50596 2.93945
# Velocity P-wave (km/s) = 3.23917 6.26607 4.98778
#
# Compressibility (1/GPa) = 0.13210747
#
# Stress axis : x y z
#
# Youngs Moduli (GPa) = 28.88526 112.86386 19.41129
#
# Poissons Ratio (x) = 0.21192 -0.45823
# Poissons Ratio (y) = 0.05424 0.06160
# Poissons Ratio (z) = -0.68188 0.35815
#
# Static dielectric constant tensor:
#      x y z
#    x 1.688500 0.000000 0.005640 
#    y 0.000000 1.717380 0.000000 
#    z 0.005640 0.000000 1.695840 
# 
# From -- ./inp_files/35687.got.cif
#   From: 2010.05.17/outbox.cif.g08.bks.cpg/sg11_18_cif.got.tgz:35687.got - 2010.06.03 12:22:45.
