data_PCOD9163951
_publ_section_title
;
Structure prediction by ZEFSAII (Michael W. Deem and Ramdas Pophale) SiO2 
 PCOD9163951
Probable space group: P 21/M
;
_chemical_formula_sum "Si O2"
_cell_formula_units_Z 24
_cell_length_a 13.519020
_cell_length_b 10.319632
_cell_length_c 9.426290
_cell_angle_alpha 90.000000
_cell_angle_beta 99.565217
_cell_angle_gamma 90.000000
_cell_volume 1296.790732
_symmetry_space_group_name_H-M "P 21/M"
_symmetry_group_IT_number 11
_symmetry_cell_setting 'monoclinic'
loop_
_space_group_symop_operation_xyz
x,y,z
-x,1/2+y,-z
-x,-y,-z
x,1/2-y,z
loop_
_atom_site_type_symbol
_atom_site_label
_atom_site_fract_x
_atom_site_fract_y
_atom_site_fract_z
Si Si1 0.729032 0.483307 0.972294
Si Si2 0.729606 0.983640 0.636240
Si Si3 0.375953 0.750000 0.430298
Si Si4 0.624718 0.750000 0.989554
Si Si5 0.944334 0.896832 0.583687
Si Si6 0.580316 0.250000 0.893163
Si Si7 0.946288 0.103319 0.087439
Si Si8 0.418963 0.250000 0.354930
O O1 0.752910 0.500067 0.809936
O O2 0.690482 0.620506 0.020294
O O3 0.641397 0.376479 0.958797
O O4 0.829506 0.433628 0.070245
O O5 0.828912 0.935259 0.582044
O O6 0.642179 0.876288 0.608367
O O7 0.689952 0.120676 0.570228
O O8 0.416473 0.750000 0.277303
O O9 0.469643 0.750000 0.557903
O O10 0.584403 0.750000 0.817166
O O11 0.530971 0.750000 0.072329
O O12 0.950192 0.750000 0.528257
O O13 0.999218 0.898429 0.748814
O O14 0.000000 0.000000 0.500000
O O15 0.953826 0.250000 0.030837
O O16 0.000000 0.000000 0.000000
#
# Coordination Sequence:
#
# PCOD9163951 Si02
#       8
#     4   4   2   2   4   2   4   2
#     4  10  20  38  61  89 118 155 199 244 304 359
#     4  10  20  38  63  84 118 160 196 247 302 356
#     4  10  22  36  62  86 114 156 204 240 291 364
#     4  10  22  36  62  83 120 158 192 247 303 350
#     4  11  25  44  62  89 128 162 200 252 312 361
#     4  10  20  40  56  85 122 150 192 255 303 344
#     4  11  23  39  67  94 121 156 207 254 296 374
#     4  10  20  40  58  84 114 158 206 242 289 358
#
# _framework density 18.507225999999999
#
# number of rings (size 3 to 8) (size 9 to 14) (size 15 to 20)
#    0.000    1.667    3.333    1.000    2.333    0.667 
#    6.000    0.000    0.000    0.000    0.000    0.000 
#    0.000    0.000    0.000    0.000    0.000    0.000 
#
# Total GULP energy -134084.359356 kJ/mol
# GULP energy per Si atom -5586.848307 kJ/mol
# Density = 1.846510 g / cm^3
# Si number density = 18.507226 Si / 1000 Ang^3
#
#
#
# Elastic Constant Matrix: (Units=GPa)
#
#
# Indices 1 2 3 4 5 6 
#
# 1 90.7560 54.1366 25.9903 0.0000 1.7278 0.0000
# 2 54.1366 178.3687 33.1319 0.0000 -5.8978 0.0000
# 3 25.9903 33.1319 22.7460 0.0000 5.8605 0.0000
# 4 0.0000 0.0000 0.0000 14.7969 0.0000 -0.8382
# 5 1.7278 -5.8978 5.8605 0.0000 31.8807 0.0000
# 6 0.0000 0.0000 0.0000 -0.8382 0.0000 26.0328
#
#
#
# Elastic Compliance Matrix: (Units=1/GPa)
#
#
# Indices 1 2 3 4 5 6 
#
# 1 0.017043 -0.001925 -0.017154 0.000000 0.001874 0.000000
# 2 -0.001925 0.008331 -0.010875 0.000000 0.003645 0.000000
# 3 -0.017154 -0.010875 0.083645 0.000000 -0.016458 0.000000
# 4 0.000000 0.000000 0.000000 0.067705 0.000000 0.002180
# 5 0.001874 0.003645 -0.016458 0.000000 0.034965 0.000000
# 6 0.000000 0.000000 0.000000 0.002180 0.000000 0.038483
#
#
# Mechanical properties :
#
#
# Convention : Reuss Voigt Hill
#
# Bulk Modulus (GPa) = 20.36120 57.59873 38.97997
# Shear Modulus (GPa) = 15.31627 26.44952 20.88290
#
# Velocity S-wave (km/s) = 2.87990 3.78451 3.36276
# Velocity P-wave (km/s) = 4.69937 7.09130 6.01542
#
# Compressibility (1/GPa) = 0.04911301
#
# Stress axis : x y z
#
# Youngs Moduli (GPa) = 58.67415 120.03341 11.95531
#
# Poissons Ratio (x) = 0.23101 0.20508
# Poissons Ratio (y) = 0.11292 0.13001
# Poissons Ratio (z) = 1.00647 1.30535
#
# Static dielectric constant tensor:
#      x y z
#    x 1.601540 0.000000 0.005610 
#    y 0.000000 1.636980 0.000000 
#    z 0.005610 0.000000 1.623520 
# 
# From -- ./inp_files/20665.got.cif
#   From: 2010.05.17/outbox.cif.g08.bks.cpg/sg11_11_cif.got.tgz:20665.got - 2010.06.03 12:22:45.
