data_PCOD9163542
_publ_section_title
;
Structure prediction by ZEFSAII (Michael W. Deem and Ramdas Pophale) SiO2 
 PCOD9163542
Probable space group: P 21/M
;
_chemical_formula_sum "Si O2"
_cell_formula_units_Z 28
_cell_length_a 21.274083
_cell_length_b 8.244834
_cell_length_c 14.294504
_cell_angle_alpha 90.000000
_cell_angle_beta 33.781842
_cell_angle_gamma 90.000000
_cell_volume 1394.125353
_symmetry_space_group_name_H-M "P 21/M"
_symmetry_group_IT_number 11
_symmetry_cell_setting 'monoclinic'
loop_
_space_group_symop_operation_xyz
x,y,z
-x,1/2+y,-z
-x,-y,-z
x,1/2-y,z
loop_
_atom_site_type_symbol
_atom_site_label
_atom_site_fract_x
_atom_site_fract_y
_atom_site_fract_z
Si Si1 0.967954 0.445384 0.643663
Si Si2 0.717808 0.058544 0.922686
Si Si3 0.629006 0.559606 0.835863
Si Si4 0.339812 0.446149 0.641767
Si Si5 0.432901 0.056913 0.726699
Si Si6 0.118000 0.445619 0.811665
Si Si7 0.835445 0.550872 0.458112
O O1 0.970491 0.250000 0.644525
O O2 0.837661 0.497505 0.818019
O O3 0.000000 0.500000 0.500000
O O4 0.061292 0.503036 0.602480
O O5 0.726021 0.250000 0.893467
O O6 0.689461 0.973210 0.860237
O O7 0.619402 0.025608 0.118259
O O8 0.621299 0.750000 0.829273
O O9 0.715472 0.494155 0.649700
O O10 0.500000 0.500000 0.000000
O O11 0.345429 0.250000 0.632905
O O12 0.437960 0.511963 0.453379
O O13 0.367075 0.497444 0.713990
O O14 0.219330 0.500529 0.753454
O O15 0.421252 0.250000 0.750799
O O16 0.119643 0.250000 0.807619
O O17 0.141453 0.501225 0.676555
O O18 0.000000 0.500000 0.000000
O O19 0.834163 0.750000 0.460839
#
# Coordination Sequence:
#
# PCOD9163542 Si02
#       7
#     4   4   4   4   4   4   4
#     4  10  20  37  59  84 113 149 194 241 289 347
#     4  11  23  37  59  89 119 155 196 242 297 356
#     4  11  23  40  62  89 123 160 201 247 297 359
#     4   9  20  39  60  84 117 153 195 245 303 357
#     4  10  21  37  59  87 117 152 195 246 298 354
#     4  10  22  40  61  86 117 156 197 242 294 356
#     4   9  20  39  61  84 116 157 194 239 302 353
#
# _framework density 20.084277
#
# number of rings (size 3 to 8) (size 9 to 14) (size 15 to 20)
#    0.000    2.000    1.429    1.286    4.000    1.714 
#    0.000    2.143    0.000    0.000    0.000    0.000 
#    0.000    0.000    0.000    0.000    0.000    0.000 
#
# Total GULP energy -156364.457161 kJ/mol
# GULP energy per Si atom -5584.444899 kJ/mol
# Density = 2.003856 g / cm^3
# Si number density = 20.084277 Si / 1000 Ang^3
#
#
#
# Elastic Constant Matrix: (Units=GPa)
#
#
# Indices 1 2 3 4 5 6 
#
# 1 75.8124 5.6950 73.0156 0.0000 -19.5637 0.0000
# 2 5.6950 3.9775 4.9839 0.0000 -6.5608 0.0000
# 3 73.0156 4.9839 143.8824 0.0000 -5.1589 0.0000
# 4 0.0000 0.0000 0.0000 27.7220 0.0000 0.3851
# 5 -19.5637 -6.5608 -5.1589 0.0000 39.7605 0.0000
# 6 0.0000 0.0000 0.0000 0.3851 0.0000 21.4838
#
#
#
# Elastic Compliance Matrix: (Units=1/GPa)
#
#
# Indices 1 2 3 4 5 6 
#
# 1 0.031811 -0.004964 -0.015511 0.000000 0.012820 0.000000
# 2 -0.004964 0.361049 -0.007976 0.000000 0.056099 0.000000
# 3 -0.015511 -0.007976 0.014846 0.000000 -0.007022 0.000000
# 4 0.000000 0.000000 0.000000 0.036081 0.000000 -0.000647
# 5 0.012820 0.056099 -0.007022 0.000000 0.039804 0.000000
# 6 0.000000 0.000000 0.000000 -0.000647 0.000000 0.046558
#
#
# Mechanical properties :
#
#
# Convention : Reuss Voigt Hill
#
# Bulk Modulus (GPa) = 2.85060 43.45125 23.15092
# Shear Modulus (GPa) = 7.10241 27.12512 17.11377
#
# Velocity S-wave (km/s) = 1.88255 3.67899 2.92224
# Velocity P-wave (km/s) = 2.47946 6.30302 4.78935
#
# Compressibility (1/GPa) = 0.35080328
#
# Stress axis : x y z
#
# Youngs Moduli (GPa) = 31.43584 2.76971 67.35776
#
# Poissons Ratio (x) = 0.01375 1.04481
# Poissons Ratio (y) = 0.15605 0.53722
# Poissons Ratio (z) = 0.48761 0.02209
#
# Static dielectric constant tensor:
#      x y z
#    x 1.700310 0.000000 -0.023240 
#    y 0.000000 1.704130 0.000000 
#    z -0.023240 0.000000 1.702150 
# 
# From -- ./inp_files/37471.got.cif
#   From: 2010.05.17/outbox.cif.g08.bks.cpg/sg11_19_cif.got.tgz:37471.got - 2010.06.03 12:22:45.
