data_PCOD9163202
_publ_section_title
;
Structure prediction by ZEFSAII (Michael W. Deem and Ramdas Pophale) SiO2 
 PCOD9163202
Probable space group: P 21/M
;
_chemical_formula_sum "Si O2"
_cell_formula_units_Z 20
_cell_length_a 9.342455
_cell_length_b 17.766500
_cell_length_c 8.940604
_cell_angle_alpha 90.000000
_cell_angle_beta 48.421039
_cell_angle_gamma 90.000000
_cell_volume 1110.083482
_symmetry_space_group_name_H-M "P 21/M"
_symmetry_group_IT_number 11
_symmetry_cell_setting 'monoclinic'
loop_
_space_group_symop_operation_xyz
x,y,z
-x,1/2+y,-z
-x,-y,-z
x,1/2-y,z
loop_
_atom_site_type_symbol
_atom_site_label
_atom_site_fract_x
_atom_site_fract_y
_atom_site_fract_z
Si Si1 0.803691 0.530544 0.567865
Si Si2 0.201508 0.990867 0.777733
Si Si3 0.486581 0.084536 0.786857
Si Si4 0.774925 0.335828 0.373818
Si Si5 0.798054 0.837908 0.782298
O O1 0.806873 0.520131 0.387273
O O2 0.634808 0.477181 0.746859
O O3 0.783016 0.615109 0.640122
O O4 0.000000 0.500000 0.500000
O O5 0.247395 0.901919 0.732493
O O6 0.357524 0.038396 0.758741
O O7 0.000000 0.000000 0.000000
O O8 0.616965 0.145099 0.608901
O O9 0.349605 0.124009 0.000384
O O10 0.756763 0.250000 0.333382
O O11 0.986868 0.345089 0.299029
O O12 0.758175 0.750000 0.791086
#
# Coordination Sequence:
#
# PCOD9163202 Si02
#       5
#     4   4   4   4   4
#     4  11  20  38  61  87 119 155 198 246 290 352
#     4  11  21  39  62  90 118 158 205 237 292 360
#     4  11  21  39  64  86 116 161 199 238 297 361
#     4  10  20  36  59  87 119 151 195 245 292 350
#     4  11  22  38  60  90 119 155 198 246 299 351
#
# _framework density 18.016662
#
# number of rings (size 3 to 8) (size 9 to 14) (size 15 to 20)
#    0.000    1.200    6.000    3.600    0.000    0.000 
#    0.000    6.000    0.000    0.000    0.000    0.000 
#    0.000    0.000    0.000    0.000    0.000    0.000 
#
# Total GULP energy -111663.554437 kJ/mol
# GULP energy per Si atom -5583.177722 kJ/mol
# Density = 1.797566 g / cm^3
# Si number density = 18.016662 Si / 1000 Ang^3
#
#
#
# Elastic Constant Matrix: (Units=GPa)
#
#
# Indices 1 2 3 4 5 6 
#
# 1 81.6303 55.5316 40.8976 0.0000 -19.7589 0.0000
# 2 55.5316 171.7311 65.6085 0.0000 7.2991 0.0000
# 3 40.8976 65.6085 120.8878 0.0000 -16.0681 0.0000
# 4 0.0000 0.0000 0.0000 28.4845 0.0000 -0.7666
# 5 -19.7589 7.2991 -16.0681 0.0000 26.5045 0.0000
# 6 0.0000 0.0000 0.0000 -0.7666 0.0000 19.7868
#
#
#
# Elastic Compliance Matrix: (Units=1/GPa)
#
#
# Indices 1 2 3 4 5 6 
#
# 1 0.022310 -0.007594 -0.001020 0.000000 0.018105 0.000000
# 2 -0.007594 0.010547 -0.004670 0.000000 -0.011397 0.000000
# 3 -0.001020 -0.004670 0.012205 0.000000 0.007925 0.000000
# 4 0.000000 0.000000 0.000000 0.035143 0.000000 0.001362
# 5 0.018105 -0.011397 0.007925 0.000000 0.059170 0.000000
# 6 0.000000 0.000000 0.000000 0.001362 0.000000 0.050591
#
#
# Mechanical properties :
#
#
# Convention : Reuss Voigt Hill
#
# Bulk Modulus (GPa) = 54.07005 77.59162 65.83083
# Shear Modulus (GPa) = 22.45185 29.10261 25.77723
#
# Velocity S-wave (km/s) = 3.53395 4.02346 3.78662
# Velocity P-wave (km/s) = 6.83579 8.04639 7.46567
#
# Compressibility (1/GPa) = 0.01849453
#
# Stress axis : x y z
#
# Youngs Moduli (GPa) = 44.82348 94.81145 81.93409
#
# Poissons Ratio (x) = 0.72001 0.08354
# Poissons Ratio (y) = 0.34040 0.38263
# Poissons Ratio (z) = 0.04570 0.44276
#
# Static dielectric constant tensor:
#      x y z
#    x 1.603560 0.000000 -0.017440 
#    y 0.000000 1.619940 0.000000 
#    z -0.017440 0.000000 1.620030 
# 
# From -- ./inp_files/13047.got.cif
#   From: 2010.05.17/outbox.cif.g08.bks.cpg/sg11_7_cif.got.tgz:13047.got - 2010.06.03 12:22:45.
