data_PCOD9163909
_publ_section_title
;
Structure prediction by ZEFSAII (Michael W. Deem and Ramdas Pophale) SiO2 
 PCOD9163909
Probable space group: P 21/M
;
_chemical_formula_sum "Si O2"
_cell_formula_units_Z 24
_cell_length_a 15.870770
_cell_length_b 10.700967
_cell_length_c 10.161402
_cell_angle_alpha 90.000000
_cell_angle_beta 35.787919
_cell_angle_gamma 90.000000
_cell_volume 1009.188058
_symmetry_space_group_name_H-M "P 21/M"
_symmetry_group_IT_number 11
_symmetry_cell_setting 'monoclinic'
loop_
_space_group_symop_operation_xyz
x,y,z
-x,1/2+y,-z
-x,-y,-z
x,1/2-y,z
loop_
_atom_site_type_symbol
_atom_site_label
_atom_site_fract_x
_atom_site_fract_y
_atom_site_fract_z
Si Si1 0.985794 0.250000 0.355584
Si Si2 0.803950 0.105007 0.172361
Si Si3 0.612972 0.028475 0.194475
Si Si4 0.911596 0.508233 0.303527
Si Si5 0.572698 0.250000 0.827613
Si Si6 0.734912 0.250000 0.881248
Si Si7 0.685126 0.750000 0.014530
Si Si8 0.612791 0.516385 0.733362
O O1 0.961383 0.376728 0.303806
O O2 0.873791 0.250000 0.615682
O O3 0.145543 0.250000 0.209287
O O4 0.791968 0.250000 0.221824
O O5 0.655309 0.062611 0.289785
O O6 0.845575 0.019275 0.242811
O O7 0.943987 0.087768 0.899990
O O8 0.467839 0.060504 0.296291
O O9 0.720882 0.123254 0.980689
O O10 0.641089 0.881047 0.138833
O O11 0.773176 0.567367 0.555325
O O12 0.405162 0.250000 0.005709
O O13 0.603928 0.250000 0.941594
O O14 0.643219 0.369584 0.673686
O O15 0.500000 0.500000 0.000000
#
# Coordination Sequence:
#
# PCOD9163909 Si02
#       8
#     2   4   4   4   2   2   2   4
#     4  12  20  41  67  93 128 176 219 267 339 407
#     4  11  24  44  66  96 132 175 227 281 326 392
#     4  11  23  42  64  96 135 172 222 281 330 392
#     4  11  23  42  71  93 128 179 225 269 337 400
#     4  10  20  38  60  92 127 176 206 264 330 399
#     4  12  22  39  68  95 132 175 219 272 346 396
#     4  10  24  38  61  94 133 173 220 273 327 396
#     4  11  21  41  66  96 129 171 219 267 335 399
#
# _framework density 23.781495
#
# number of rings (size 3 to 8) (size 9 to 14) (size 15 to 20)
#    0.000    1.000    6.667    0.000    0.000    1.333 
#    9.000    0.000    0.000    0.000    0.000    0.000 
#    0.000    0.000    0.000    0.000    0.000    0.000 
#
# Total GULP energy -133935.368870 kJ/mol
# GULP energy per Si atom -5580.640370 kJ/mol
# Density = 2.372737 g / cm^3
# Si number density = 23.781495 Si / 1000 Ang^3
#
#
#
# Elastic Constant Matrix: (Units=GPa)
#
#
# Indices 1 2 3 4 5 6 
#
# 1 136.9723 -6.3007 24.9680 0.0000 -32.0642 0.0000
# 2 -6.3007 71.2708 4.0229 0.0000 -4.2672 0.0000
# 3 24.9680 4.0229 98.9020 0.0000 -12.9855 0.0000
# 4 0.0000 0.0000 0.0000 25.9732 0.0000 -1.6211
# 5 -32.0642 -4.2672 -12.9855 0.0000 31.6678 0.0000
# 6 0.0000 0.0000 0.0000 -1.6211 0.0000 132.1638
#
#
#
# Elastic Compliance Matrix: (Units=1/GPa)
#
#
# Indices 1 2 3 4 5 6 
#
# 1 0.009869 0.001524 -0.001284 0.000000 0.009671 0.000000
# 2 0.001524 0.014392 -0.000542 0.000000 0.003260 0.000000
# 3 -0.001284 -0.000542 0.010862 0.000000 0.003081 0.000000
# 4 0.000000 0.000000 0.000000 0.038531 0.000000 0.000473
# 5 0.009671 0.003260 0.003081 0.000000 0.043073 0.000000
# 6 0.000000 0.000000 0.000000 0.000473 0.000000 0.007572
#
#
# Mechanical properties :
#
#
# Convention : Reuss Voigt Hill
#
# Bulk Modulus (GPa) = 28.96992 39.16951 34.06971
# Shear Modulus (GPa) = 36.65489 56.92461 46.78975
#
# Velocity S-wave (km/s) = 3.93022 4.89780 4.44045
# Velocity P-wave (km/s) = 5.72745 6.96355 6.37553
#
# Compressibility (1/GPa) = 0.03451857
#
# Stress axis : x y z
#
# Youngs Moduli (GPa) = 101.32931 69.48542 92.06693
#
# Poissons Ratio (x) = -0.10589 0.11818
# Poissons Ratio (y) = -0.15442 0.04991
# Poissons Ratio (z) = 0.13006 0.03767
#
# Static dielectric constant tensor:
#      x y z
#    x 1.930990 0.000000 0.014520 
#    y 0.000000 1.906170 0.000000 
#    z 0.014520 0.000000 2.020840 
# 
# From -- ./inp_files/41304.got.cif
#   From: 2010.05.17/outbox.cif.g08.bks.cpg/sg11_21_cif.got.tgz:41304.got - 2010.06.03 12:22:45.
