data_PCOD9163276
_publ_section_title
;
Structure prediction by ZEFSAII (Michael W. Deem and Ramdas Pophale) SiO2 
 PCOD9163276
Probable space group: P 21/M
;
_chemical_formula_sum "Si O2"
_cell_formula_units_Z 28
_cell_length_a 9.677079
_cell_length_b 21.393690
_cell_length_c 14.218812
_cell_angle_alpha 90.000000
_cell_angle_beta 150.132491
_cell_angle_gamma 90.000000
_cell_volume 1465.950167
_symmetry_space_group_name_H-M "P 21/M"
_symmetry_group_IT_number 11
_symmetry_cell_setting 'monoclinic'
loop_
_space_group_symop_operation_xyz
x,y,z
-x,1/2+y,-z
-x,-y,-z
x,1/2-y,z
loop_
_atom_site_type_symbol
_atom_site_label
_atom_site_fract_x
_atom_site_fract_y
_atom_site_fract_z
Si Si1 0.543224 0.068517 0.118061
Si Si2 0.139382 0.176481 0.613148
Si Si3 0.031114 0.998256 0.765209
Si Si4 0.212186 0.676327 0.994485
Si Si5 0.715348 0.430209 0.420194
Si Si6 0.898933 0.560819 0.880103
Si Si7 0.869393 0.178084 0.264989
O O1 0.675736 0.041688 0.291976
O O2 0.606606 0.141192 0.150188
O O3 0.730484 0.043647 0.142825
O O4 0.222689 0.053311 0.920303
O O5 0.072899 0.250000 0.590994
O O6 0.458889 0.166472 0.828469
O O7 0.108900 0.164541 0.482428
O O8 0.926635 0.128311 0.536109
O O9 0.834385 0.022506 0.567254
O O10 0.884334 0.964504 0.764510
O O11 0.175693 0.750000 0.001345
O O12 0.101837 0.621213 0.996656
O O13 0.068379 0.666967 0.807572
O O14 0.400520 0.415409 0.263241
O O15 0.000000 0.500000 0.000000
O O16 0.802630 0.250000 0.231161
#
# Coordination Sequence:
#
# PCOD9163276 Si02
#       7
#     4   4   4   4   4   4   4
#     4  10  20  36  60  88 113 155 204 251 294 355
#     4   9  20  38  64  93 118 152 210 261 299 359
#     4  11  22  38  58  82 123 158 205 241 299 362
#     4  10  21  41  65  86 117 164 206 250 306 370
#     4  11  23  37  60  89 122 160 194 252 313 357
#     4  12  25  42  58  91 134 165 200 253 314 370
#     4   9  17  33  58  88 113 144 198 254 299 350
#
# _framework density 19.100238999999998
#
# number of rings (size 3 to 8) (size 9 to 14) (size 15 to 20)
#    0.000    1.714    2.857    1.714    2.000    2.857 
#    2.571    0.000    0.000    0.857    0.000    0.000 
#    0.000    0.000    0.000    0.000    0.000    0.000 
#
# Total GULP energy -155973.057365 kJ/mol
# GULP energy per Si atom -5570.466334 kJ/mol
# Density = 1.905677 g / cm^3
# Si number density = 19.100239 Si / 1000 Ang^3
#
#
#
# Elastic Constant Matrix: (Units=GPa)
#
#
# Indices 1 2 3 4 5 6 
#
# 1 74.2416 30.1535 13.8885 0.0000 -2.0984 0.0000
# 2 30.1535 69.4852 14.6465 0.0000 4.3051 0.0000
# 3 13.8885 14.6465 38.4103 0.0000 -1.3319 0.0000
# 4 0.0000 0.0000 0.0000 25.5783 0.0000 1.9175
# 5 -2.0984 4.3051 -1.3319 0.0000 34.1607 0.0000
# 6 0.0000 0.0000 0.0000 1.9175 0.0000 23.6751
#
#
#
# Elastic Compliance Matrix: (Units=1/GPa)
#
#
# Indices 1 2 3 4 5 6 
#
# 1 0.016895 -0.006704 -0.003492 0.000000 0.001746 0.000000
# 2 -0.006704 0.018477 -0.004723 0.000000 -0.002925 0.000000
# 3 -0.003492 -0.004723 0.029151 0.000000 0.001517 0.000000
# 4 0.000000 0.000000 0.000000 0.039335 0.000000 -0.003186
# 5 0.001746 -0.002925 0.001517 0.000000 0.029808 0.000000
# 6 0.000000 0.000000 0.000000 -0.003186 0.000000 0.042497
#
#
# Mechanical properties :
#
#
# Convention : Reuss Voigt Hill
#
# Bulk Modulus (GPa) = 28.83068 33.27933 31.05500
# Shear Modulus (GPa) = 22.98186 24.91271 23.94728
#
# Velocity S-wave (km/s) = 3.47251 3.61545 3.54470
# Velocity P-wave (km/s) = 5.58614 5.90677 5.74869
#
# Compressibility (1/GPa) = 0.03468528
#
# Stress axis : x y z
#
# Youngs Moduli (GPa) = 59.18931 54.11990 34.30412
#
# Poissons Ratio (x) = 0.36281 0.11979
# Poissons Ratio (y) = 0.39679 0.16203
# Poissons Ratio (z) = 0.20669 0.25562
#
# Static dielectric constant tensor:
#      x y z
#    x 1.687380 0.000000 -0.053750 
#    y 0.000000 1.736550 0.000000 
#    z -0.053750 0.000000 1.702350 
# 
# From -- ./inp_files/48336.got.cif
#   From: 2010.05.17/outbox.cif.g08.bks.cpg/sg11_25_cif.got.tgz:48336.got - 2010.06.03 12:22:45.
