data_PCOD9163119
_publ_section_title
;
Structure prediction by ZEFSAII (Michael W. Deem and Ramdas Pophale) SiO2 
 PCOD9163119
Probable space group: P 21/M
;
_chemical_formula_sum "Si O2"
_cell_formula_units_Z 32
_cell_length_a 10.942823
_cell_length_b 23.148520
_cell_length_c 6.546132
_cell_angle_alpha 90.000000
_cell_angle_beta 109.440721
_cell_angle_gamma 90.000000
_cell_volume 1563.661588
_symmetry_space_group_name_H-M "P 21/M"
_symmetry_group_IT_number 11
_symmetry_cell_setting 'monoclinic'
loop_
_space_group_symop_operation_xyz
x,y,z
-x,1/2+y,-z
-x,-y,-z
x,1/2-y,z
loop_
_atom_site_type_symbol
_atom_site_label
_atom_site_fract_x
_atom_site_fract_y
_atom_site_fract_z
Si Si1 0.135405 0.524158 0.002003
Si Si2 0.671045 0.812338 0.302142
Si Si3 0.468639 0.940715 0.870396
Si Si4 0.870462 0.357613 0.253726
Si Si5 0.745922 0.595840 0.015523
Si Si6 0.262037 0.593782 0.435230
Si Si7 0.136825 0.315019 0.224388
Si Si8 0.376283 0.656027 0.126354
O O1 0.122777 0.579283 0.849257
O O2 0.203881 0.469418 0.934360
O O3 0.203174 0.548175 0.244131
O O4 0.000000 0.500000 0.000000
O O5 0.711306 0.750000 0.233621
O O6 0.724730 0.866698 0.206818
O O7 0.737373 0.815610 0.559515
O O8 0.514698 0.812830 0.213960
O O9 0.362339 0.939870 0.635366
O O10 0.599359 0.912606 0.852232
O O11 0.413712 0.901220 0.020878
O O12 0.500000 0.000000 0.000000
O O13 0.835724 0.371960 0.469039
O O14 0.007117 0.327599 0.283290
O O15 0.750413 0.324133 0.074283
O O16 0.838710 0.634091 0.924202
O O17 0.331620 0.640444 0.328664
O O18 0.125690 0.250000 0.131087
#
# Coordination Sequence:
#
# PCOD9163119 Si02
#       8
#     4   4   4   4   4   4   4   4
#     4  11  23  38  58  92 122 160 206 240 302 374
#     4  10  23  41  62  88 118 157 204 254 308 364
#     4  10  20  36  58  90 120 152 195 237 296 360
#     4  10  22  40  60  90 123 161 205 250 302 369
#     4  11  22  39  63  86 123 157 195 251 307 362
#     4  10  21  37  59  83 125 159 191 250 299 348
#     4  11  24  40  60  88 119 157 207 252 305 365
#     4   9  20  38  59  85 115 151 203 243 293 358
#
# _framework density 20.464787000000001
#
# number of rings (size 3 to 8) (size 9 to 14) (size 15 to 20)
#    0.000    1.750    1.250    3.375    1.750    6.000 
#    0.000    0.625    0.000    0.000    0.000    0.000 
#    0.000    0.000    0.000    0.000    0.000    0.000 
#
# Total GULP energy -178465.363459 kJ/mol
# GULP energy per Si atom -5577.042608 kJ/mol
# Density = 2.041821 g / cm^3
# Si number density = 20.464787 Si / 1000 Ang^3
#
#
#
# Elastic Constant Matrix: (Units=GPa)
#
#
# Indices 1 2 3 4 5 6 
#
# 1 84.4074 14.2465 0.8778 0.0000 -15.3207 0.0000
# 2 14.2465 79.2355 28.9197 0.0000 -7.0895 0.0000
# 3 0.8778 28.9197 52.4685 0.0000 -16.1593 0.0000
# 4 0.0000 0.0000 0.0000 13.5933 0.0000 0.7789
# 5 -15.3207 -7.0895 -16.1593 0.0000 25.0628 0.0000
# 6 0.0000 0.0000 0.0000 0.7789 0.0000 18.6216
#
#
#
# Elastic Compliance Matrix: (Units=1/GPa)
#
#
# Indices 1 2 3 4 5 6 
#
# 1 0.014390 -0.003447 0.005076 0.000000 0.011094 0.000000
# 2 -0.003447 0.016666 -0.010388 0.000000 -0.004091 0.000000
# 3 0.005076 -0.010388 0.030883 0.000000 0.020077 0.000000
# 4 0.000000 0.000000 0.000000 0.073742 0.000000 -0.003085
# 5 0.011094 -0.004091 0.020077 0.000000 0.058469 0.000000
# 6 0.000000 0.000000 0.000000 -0.003085 0.000000 0.053830
#
#
# Mechanical properties :
#
#
# Convention : Reuss Voigt Hill
#
# Bulk Modulus (GPa) = 22.51213 33.79990 28.15602
# Shear Modulus (GPa) = 17.83764 22.92670 20.38217
#
# Velocity S-wave (km/s) = 2.95553 3.35072 3.15931
# Velocity P-wave (km/s) = 4.76143 5.61442 5.20543
#
# Compressibility (1/GPa) = 0.04442049
#
# Stress axis : x y z
#
# Youngs Moduli (GPa) = 69.49212 60.00251 32.38008
#
# Poissons Ratio (x) = 0.20686 -0.16437
# Poissons Ratio (y) = 0.23957 0.33637
# Poissons Ratio (z) = -0.35276 0.62332
#
# Static dielectric constant tensor:
#      x y z
#    x 1.781220 0.000000 0.020190 
#    y 0.000000 1.738440 0.000000 
#    z 0.020190 0.000000 1.739410 
# 
# From -- ./inp_files/5485.got.cif
#   From: 2010.05.17/outbox.cif.g08.bks.cpg/sg11_3_cif.got.tgz:5485.got - 2010.06.03 12:22:45.
