data_PCOD9163946
_publ_section_title
;
Structure prediction by ZEFSAII (Michael W. Deem and Ramdas Pophale) SiO2 
 PCOD9163946
Probable space group: P 21/M
;
_chemical_formula_sum "Si O2"
_cell_formula_units_Z 32
_cell_length_a 14.020573
_cell_length_b 23.908624
_cell_length_c 8.949023
_cell_angle_alpha 90.000000
_cell_angle_beta 28.511440
_cell_angle_gamma 90.000000
_cell_volume 1431.919290
_symmetry_space_group_name_H-M "P 21/M"
_symmetry_group_IT_number 11
_symmetry_cell_setting 'monoclinic'
loop_
_space_group_symop_operation_xyz
x,y,z
-x,1/2+y,-z
-x,-y,-z
x,1/2-y,z
loop_
_atom_site_type_symbol
_atom_site_label
_atom_site_fract_x
_atom_site_fract_y
_atom_site_fract_z
Si Si1 0.232976 0.488039 0.464124
Si Si2 0.502923 0.418846 0.890366
Si Si3 0.358326 0.358596 0.799635
Si Si4 0.536268 0.552746 0.560113
Si Si5 0.235137 0.811112 0.714092
Si Si6 0.632434 0.310489 0.811142
Si Si7 0.098925 0.902777 0.119373
Si Si8 0.981688 0.813715 0.521449
O O1 0.276599 0.554041 0.399916
O O2 0.357528 0.467667 0.436472
O O3 0.017824 0.459769 0.758855
O O4 0.343438 0.463195 0.166882
O O5 0.451303 0.400685 0.795560
O O6 0.491082 0.363744 0.008325
O O7 0.328243 0.398440 0.700405
O O8 0.540183 0.315512 0.527083
O O9 0.173502 0.329300 0.133617
O O10 0.500000 0.500000 0.500000
O O11 0.316975 0.580260 0.881115
O O12 0.148965 0.750000 0.869240
O O13 0.263127 0.814174 0.496674
O O14 0.124119 0.863380 0.939622
O O15 0.530452 0.250000 0.957293
O O16 0.799102 0.313224 0.707149
O O17 0.985514 0.862920 0.394027
O O18 0.941107 0.750000 0.524342
#
# Coordination Sequence:
#
# PCOD9163946 Si02
#       8
#     4   4   4   4   4   4   4   4
#     4  11  23  40  63  90 129 165 205 255 312 373
#     4  10  20  41  60  89 125 161 206 255 310 376
#     4  10  20  38  61  88 121 161 204 254 316 370
#     4  11  24  42  61  91 127 163 208 256 307 377
#     4   9  19  38  59  84 120 159 200 253 312 367
#     4   9  20  37  61  88 119 158 204 255 307 364
#     4  11  24  40  63  92 123 164 206 255 314 368
#     4  11  22  39  63  93 123 158 210 264 315 375
#
# _framework density 22.347628
#
# number of rings (size 3 to 8) (size 9 to 14) (size 15 to 20)
#    0.000    1.750    2.500    1.500    1.750    2.000 
#    0.000    2.500    0.000    2.250    0.000    0.000 
#    0.000    0.000    0.000    0.000    0.000    0.000 
#
# Total GULP energy -178676.714999 kJ/mol
# GULP energy per Si atom -5583.647344 kJ/mol
# Density = 2.229676 g / cm^3
# Si number density = 22.347628 Si / 1000 Ang^3
#
#
#
# Elastic Constant Matrix: (Units=GPa)
#
#
# Indices 1 2 3 4 5 6 
#
# 1 48.3710 6.1817 -5.0864 0.0000 -0.6031 0.0000
# 2 6.1817 94.3353 7.2480 0.0000 -2.2227 0.0000
# 3 -5.0864 7.2480 46.3103 0.0000 -6.9934 0.0000
# 4 0.0000 0.0000 0.0000 18.9236 0.0000 -3.5455
# 5 -0.6031 -2.2227 -6.9934 0.0000 18.0441 0.0000
# 6 0.0000 0.0000 0.0000 -3.5455 0.0000 25.4933
#
#
#
# Elastic Compliance Matrix: (Units=1/GPa)
#
#
# Indices 1 2 3 4 5 6 
#
# 1 0.021190 -0.001567 0.002815 0.000000 0.001606 0.000000
# 2 -0.001567 0.010854 -0.001781 0.000000 0.000594 0.000000
# 3 0.002815 -0.001781 0.023540 0.000000 0.008998 0.000000
# 4 0.000000 0.000000 0.000000 0.054258 0.000000 0.007546
# 5 0.001606 0.000594 0.008998 0.000000 0.059034 0.000000
# 6 0.000000 0.000000 0.000000 0.007546 0.000000 0.040275
#
#
# Mechanical properties :
#
#
# Convention : Reuss Voigt Hill
#
# Bulk Modulus (GPa) = 18.34246 22.85590 20.59918
# Shear Modulus (GPa) = 21.89234 24.53709 23.21471
#
# Velocity S-wave (km/s) = 3.13330 3.31716 3.22654
# Velocity P-wave (km/s) = 4.61689 4.99210 4.80816
#
# Compressibility (1/GPa) = 0.05451831
#
# Stress axis : x y z
#
# Youngs Moduli (GPa) = 47.19234 92.13174 42.48039
#
# Poissons Ratio (x) = 0.14437 -0.11959
# Poissons Ratio (y) = 0.07395 0.07566
# Poissons Ratio (z) = -0.13285 0.16410
#
# Static dielectric constant tensor:
#      x y z
#    x 1.795670 0.000000 -0.001110 
#    y 0.000000 1.900470 0.000000 
#    z -0.001110 0.000000 1.856990 
# 
# From -- ./inp_files/23371.got.cif
#   From: 2010.05.17/outbox.cif.g08.bks.cpg/sg11_12_cif.got.tgz:23371.got - 2010.06.03 12:22:45.
