data_PCOD9163812
_publ_section_title
;
Structure prediction by ZEFSAII (Michael W. Deem and Ramdas Pophale) SiO2 
 PCOD9163812
Probable space group: P 21/M
;
_chemical_formula_sum "Si O2"
_cell_formula_units_Z 28
_cell_length_a 8.556862
_cell_length_b 13.866248
_cell_length_c 11.930979
_cell_angle_alpha 90.000000
_cell_angle_beta 68.216010
_cell_angle_gamma 90.000000
_cell_volume 1314.538680
_symmetry_space_group_name_H-M "P 21/M"
_symmetry_group_IT_number 11
_symmetry_cell_setting 'monoclinic'
loop_
_space_group_symop_operation_xyz
x,y,z
-x,1/2+y,-z
-x,-y,-z
x,1/2-y,z
loop_
_atom_site_type_symbol
_atom_site_label
_atom_site_fract_x
_atom_site_fract_y
_atom_site_fract_z
Si Si1 0.303154 0.514979 0.575686
Si Si2 0.951325 0.864337 0.282087
Si Si3 0.873318 0.633571 0.049267
Si Si4 0.826385 0.358989 0.185125
Si Si5 0.758773 0.136278 0.622188
Si Si6 0.494963 0.932954 0.146167
Si Si7 0.467498 0.644140 0.915013
O O1 0.500000 0.500000 0.500000
O O2 0.209781 0.414589 0.620356
O O3 0.260006 0.575870 0.698455
O O4 0.223491 0.572867 0.492937
O O5 0.937232 0.750000 0.294003
O O6 0.955687 0.886908 0.148574
O O7 0.111776 0.893119 0.313876
O O8 0.844162 0.750000 0.051686
O O9 0.696315 0.579025 0.089155
O O10 0.996925 0.607984 0.914448
O O11 0.848033 0.250000 0.223758
O O12 0.700383 0.352898 0.113577
O O13 0.776965 0.250000 0.594271
O O14 0.576442 0.114056 0.723273
O O15 0.443226 0.045300 0.148595
O O16 0.430286 0.874704 0.055208
O O17 0.551247 0.750000 0.880525
#
# Coordination Sequence:
#
# PCOD9163812 Si02
#       7
#     4   4   4   4   4   4   4
#     4  12  25  41  63  91 124 165 214 260 309 368
#     4  10  23  42  65  91 122 162 208 258 312 374
#     4  10  20  37  63  94 123 154 200 255 311 373
#     4  10  22  40  61  88 124 162 198 248 316 378
#     4  11  23  42  65  90 124 165 208 254 308 374
#     4  11  22  37  63  94 122 159 204 255 312 369
#     4  10  21  37  56  84 122 158 198 248 306 368
#
# _framework density 21.300249000000001
#
# number of rings (size 3 to 8) (size 9 to 14) (size 15 to 20)
#    0.000    1.429    0.000    5.571    0.000    9.143 
#    0.000    2.143    0.000    2.571    0.000    0.000 
#    0.000    0.000    0.000    0.000    0.000    0.000 
#
# Total GULP energy -156517.434750 kJ/mol
# GULP energy per Si atom -5589.908384 kJ/mol
# Density = 2.125177 g / cm^3
# Si number density = 21.300249 Si / 1000 Ang^3
#
#
#
# Elastic Constant Matrix: (Units=GPa)
#
#
# Indices 1 2 3 4 5 6 
#
# 1 78.6582 29.3906 54.9237 0.0000 1.5234 0.0000
# 2 29.3906 106.5507 33.6463 0.0000 3.0052 0.0000
# 3 54.9237 33.6463 118.5692 0.0000 -1.7626 0.0000
# 4 0.0000 0.0000 0.0000 33.1775 0.0000 6.8288
# 5 1.5234 3.0052 -1.7626 0.0000 38.0663 0.0000
# 6 0.0000 0.0000 0.0000 6.8288 0.0000 20.2080
#
#
#
# Elastic Compliance Matrix: (Units=1/GPa)
#
#
# Indices 1 2 3 4 5 6 
#
# 1 0.019546 -0.002747 -0.008288 0.000000 -0.000949 0.000000
# 2 -0.002747 0.010730 -0.001784 0.000000 -0.000820 0.000000
# 3 -0.008288 -0.001784 0.012795 0.000000 0.001065 0.000000
# 4 0.000000 0.000000 0.000000 0.032394 0.000000 -0.010947
# 5 -0.000949 -0.000820 0.001065 0.000000 0.026422 0.000000
# 6 0.000000 0.000000 0.000000 -0.010947 0.000000 0.053185
#
#
# Mechanical properties :
#
#
# Convention : Reuss Voigt Hill
#
# Bulk Modulus (GPa) = 57.37067 59.96659 58.66863
# Shear Modulus (GPa) = 26.80655 30.67819 28.74237
#
# Velocity S-wave (km/s) = 3.55140 3.79921 3.67739
# Velocity P-wave (km/s) = 6.61886 6.88908 6.75532
#
# Compressibility (1/GPa) = 0.01743051
#
# Stress axis : x y z
#
# Youngs Moduli (GPa) = 51.16236 93.20032 78.15299
#
# Poissons Ratio (x) = 0.25605 0.64777
# Poissons Ratio (y) = 0.14056 0.13945
# Poissons Ratio (z) = 0.42406 0.16630
#
# Static dielectric constant tensor:
#      x y z
#    x 1.786920 0.000000 0.008660 
#    y 0.000000 1.810510 0.000000 
#    z 0.008660 0.000000 1.736620 
# 
# From -- ./inp_files/31665.got.cif
#   From: 2010.05.17/outbox.cif.g08.bks.cpg/sg11_16_cif.got.tgz:31665.got - 2010.06.03 12:22:45.
