data_PCOD9163210
_publ_section_title
;
Structure prediction by ZEFSAII (Michael W. Deem and Ramdas Pophale) SiO2 
 PCOD9163210
Probable space group: P 21/M
;
_chemical_formula_sum "Si O2"
_cell_formula_units_Z 32
_cell_length_a 26.585303
_cell_length_b 7.960304
_cell_length_c 20.647518
_cell_angle_alpha 90.000000
_cell_angle_beta 20.566737
_cell_angle_gamma 90.000000
_cell_volume 1535.023390
_symmetry_space_group_name_H-M "P 21/M"
_symmetry_group_IT_number 11
_symmetry_cell_setting 'monoclinic'
loop_
_space_group_symop_operation_xyz
x,y,z
-x,1/2+y,-z
-x,-y,-z
x,1/2-y,z
loop_
_atom_site_type_symbol
_atom_site_label
_atom_site_fract_x
_atom_site_fract_y
_atom_site_fract_z
Si Si1 0.127146 0.453917 0.239580
Si Si2 0.655782 0.546883 0.285163
Si Si3 0.629709 0.553314 0.551318
Si Si4 0.648543 0.544833 0.920351
Si Si5 0.316675 0.448089 0.893546
Si Si6 0.341122 0.947136 0.343268
Si Si7 0.805771 0.948933 0.605321
Si Si8 0.836526 0.547665 0.187811
O O1 0.125179 0.250000 0.241762
O O2 0.228837 0.505841 0.176422
O O3 0.965349 0.515860 0.437921
O O4 0.202101 0.515791 0.082899
O O5 0.500000 0.500000 0.500000
O O6 0.661167 0.750000 0.276086
O O7 0.680742 0.481211 0.182380
O O8 0.771279 0.487402 0.198445
O O9 0.605702 0.750000 0.567849
O O10 0.474992 0.467869 0.732383
O O11 0.690540 0.530845 0.549924
O O12 0.736598 0.486799 0.367337
O O13 0.646154 0.750000 0.922151
O O14 0.694037 0.486954 0.794132
O O15 0.493091 0.487991 0.131864
O O16 0.286419 0.250000 0.924402
O O17 0.357736 0.750000 0.336403
O O18 0.225018 0.972215 0.427270
O O19 0.786494 0.750000 0.621970
O O20 0.828072 0.750000 0.198092
O O21 0.000000 0.500000 0.000000
#
# Coordination Sequence:
#
# PCOD9163210 Si02
#       8
#     4   4   4   4   4   4   4   4
#     4  10  20  38  59  85 118 157 200 242 288 351
#     4  10  20  36  59  88 116 149 192 237 284 337
#     4  11  22  38  60  88 121 152 191 246 297 345
#     4   9  19  37  61  85 116 153 199 246 290 350
#     4  10  20  36  62  88 115 153 201 243 285 347
#     4  11  22  40  63  86 114 157 201 241 292 356
#     4  11  23  38  56  87 123 154 192 248 302 347
#     4  10  23  40  58  87 125 158 193 238 288 345
#
# _framework density 20.846589000000002
#
# number of rings (size 3 to 8) (size 9 to 14) (size 15 to 20)
#    0.000    1.750    2.500    1.875    0.000    3.000 
#    0.000    3.750    0.000    0.000    0.000    0.000 
#    0.000    0.000    0.000    0.000    0.000    0.000 
#
# Total GULP energy -178824.410792 kJ/mol
# GULP energy per Si atom -5588.262837 kJ/mol
# Density = 2.079914 g / cm^3
# Si number density = 20.846589 Si / 1000 Ang^3
#
#
#
# Elastic Constant Matrix: (Units=GPa)
#
#
# Indices 1 2 3 4 5 6 
#
# 1 95.0850 -0.1145 -10.7645 0.0000 6.9877 0.0000
# 2 -0.1145 19.0425 -1.6867 0.0000 5.8914 0.0000
# 3 -10.7645 -1.6867 32.7119 0.0000 2.2923 0.0000
# 4 0.0000 0.0000 0.0000 22.4815 0.0000 -4.9507
# 5 6.9877 5.8914 2.2923 0.0000 41.9375 0.0000
# 6 0.0000 0.0000 0.0000 -4.9507 0.0000 19.3108
#
#
#
# Elastic Compliance Matrix: (Units=1/GPa)
#
#
# Indices 1 2 3 4 5 6 
#
# 1 0.011119 0.001096 0.003871 0.000000 -0.002218 0.000000
# 2 0.001096 0.055384 0.003789 0.000000 -0.008170 0.000000
# 3 0.003871 0.003789 0.032245 0.000000 -0.002940 0.000000
# 4 0.000000 0.000000 0.000000 0.047142 0.000000 0.012086
# 5 -0.002218 -0.008170 -0.002940 0.000000 0.025523 0.000000
# 6 0.000000 0.000000 0.000000 0.012086 0.000000 0.054883
#
#
# Mechanical properties :
#
#
# Convention : Reuss Voigt Hill
#
# Bulk Modulus (GPa) = 8.60136 13.52311 11.06224
# Shear Modulus (GPa) = 20.19888 27.37298 23.78593
#
# Velocity S-wave (km/s) = 3.11614 3.62756 3.38153
# Velocity P-wave (km/s) = 4.13305 4.90374 4.53479
#
# Compressibility (1/GPa) = 0.11626063
#
# Stress axis : x y z
#
# Youngs Moduli (GPa) = 89.93219 18.05577 31.01247
#
# Poissons Ratio (x) = -0.01979 -0.12005
# Poissons Ratio (y) = -0.09857 -0.11750
# Poissons Ratio (z) = -0.34813 -0.06841
#
# Static dielectric constant tensor:
#      x y z
#    x 1.754080 0.000000 0.024090 
#    y 0.000000 1.746660 0.000000 
#    z 0.024090 0.000000 1.710940 
# 
# From -- ./inp_files/66988.got.cif
#   From: 2010.05.17/outbox.cif.g08.bks.cpg/sg11_34_cif.got.tgz:66988.got - 2010.06.03 12:22:45.
