data_PCOD9163456
_publ_section_title
;
Structure prediction by ZEFSAII (Michael W. Deem and Ramdas Pophale) SiO2 
 PCOD9163456
Probable space group: P 21/M
;
_chemical_formula_sum "Si O2"
_cell_formula_units_Z 28
_cell_length_a 8.572227
_cell_length_b 25.861956
_cell_length_c 7.549889
_cell_angle_alpha 90.000000
_cell_angle_beta 130.774312
_cell_angle_gamma 90.000000
_cell_volume 1267.525296
_symmetry_space_group_name_H-M "P 21/M"
_symmetry_group_IT_number 11
_symmetry_cell_setting 'monoclinic'
loop_
_space_group_symop_operation_xyz
x,y,z
-x,1/2+y,-z
-x,-y,-z
x,1/2-y,z
loop_
_atom_site_type_symbol
_atom_site_label
_atom_site_fract_x
_atom_site_fract_y
_atom_site_fract_z
Si Si1 0.577618 0.308757 0.818337
Si Si2 0.163884 0.992239 0.840419
Si Si3 0.887238 0.090989 0.647265
Si Si4 0.310080 0.189926 0.295117
Si Si5 0.944438 0.116061 0.100662
Si Si6 0.509518 0.447966 0.182739
Si Si7 0.273032 0.149299 0.868364
O O1 0.648677 0.250000 0.895052
O O2 0.516070 0.315495 0.566023
O O3 0.376130 0.318857 0.788117
O O4 0.750474 0.348741 0.007387
O O5 0.323974 0.014660 0.109233
O O6 0.057421 0.938009 0.800283
O O7 0.323075 0.980999 0.800692
O O8 0.999295 0.036649 0.689609
O O9 0.649571 0.084569 0.420768
O O10 0.031587 0.134971 0.664300
O O11 0.913356 0.101429 0.872920
O O12 0.246257 0.250000 0.267051
O O13 0.312067 0.176732 0.087513
O O14 0.148424 0.150064 0.260100
O O15 0.392180 0.405684 0.975027
#
# Coordination Sequence:
#
# PCOD9163456 Si02
#       7
#     4   4   4   4   4   4   4
#     4  11  23  39  62  87 113 153 196 240 297 346
#     4  10  21  35  56  85 120 151 192 237 283 344
#     4  10  22  36  59  85 116 157 190 233 291 345
#     4  10  23  41  60  86 118 150 193 247 293 342
#     4  11  22  39  58  85 117 150 196 242 286 345
#     4  10  20  37  56  86 119 150 193 237 282 344
#     4  10  21  39  61  87 117 152 194 238 290 349
#
# _framework density 22.090288999999999
#
# number of rings (size 3 to 8) (size 9 to 14) (size 15 to 20)
#    0.000    1.714    1.429    2.571    2.000    1.714 
#    0.000    0.000    0.000    6.857    0.000    0.000 
#    0.000    0.000    0.000    0.000    0.000    0.000 
#
# Total GULP energy -156317.288235 kJ/mol
# GULP energy per Si atom -5582.760294 kJ/mol
# Density = 2.204001 g / cm^3
# Si number density = 22.090289 Si / 1000 Ang^3
#
#
#
# Elastic Constant Matrix: (Units=GPa)
#
#
# Indices 1 2 3 4 5 6 
#
# 1 38.3994 3.4755 -11.5397 0.0000 -3.2997 0.0000
# 2 3.4755 78.4642 -5.2758 0.0000 7.0867 0.0000
# 3 -11.5397 -5.2758 54.1474 0.0000 9.3055 0.0000
# 4 0.0000 0.0000 0.0000 24.1693 0.0000 -3.3848
# 5 -3.2997 7.0867 9.3055 0.0000 16.5516 0.0000
# 6 0.0000 0.0000 0.0000 -3.3848 0.0000 24.2059
#
#
#
# Elastic Compliance Matrix: (Units=1/GPa)
#
#
# Indices 1 2 3 4 5 6 
#
# 1 0.028013 -0.001162 0.005326 0.000000 0.003087 0.000000
# 2 -0.001162 0.013621 0.002349 0.000000 -0.007384 0.000000
# 3 0.005326 0.002349 0.021942 0.000000 -0.012280 0.000000
# 4 0.000000 0.000000 0.000000 0.042201 0.000000 0.005901
# 5 0.003087 -0.007384 -0.012280 0.000000 0.071098 0.000000
# 6 0.000000 0.000000 0.000000 0.005901 0.000000 0.042137
#
#
# Mechanical properties :
#
#
# Convention : Reuss Voigt Hill
#
# Bulk Modulus (GPa) = 13.05428 16.03677 14.54553
# Shear Modulus (GPa) = 21.59633 25.27544 23.43588
#
# Velocity S-wave (km/s) = 3.13011 3.38625 3.26070
# Velocity P-wave (km/s) = 4.35727 4.75020 4.55797
#
# Compressibility (1/GPa) = 0.07660321
#
# Stress axis : x y z
#
# Youngs Moduli (GPa) = 35.69752 73.41648 45.57374
#
# Poissons Ratio (x) = 0.08527 -0.24274
# Poissons Ratio (y) = 0.04146 -0.10703
# Poissons Ratio (z) = -0.19014 -0.17242
#
# Static dielectric constant tensor:
#      x y z
#    x 1.825180 0.000000 -0.010230 
#    y 0.000000 1.816770 0.000000 
#    z -0.010230 0.000000 1.866790 
# 
# From -- ./inp_files/15293.got.cif
#   From: 2010.05.17/outbox.cif.g08.bks.cpg/sg11_8_cif.got.tgz:15293.got - 2010.06.03 12:22:45.
