data_PCOD9163686
_publ_section_title
;
Structure prediction by ZEFSAII (Michael W. Deem and Ramdas Pophale) SiO2 
 PCOD9163686
Probable space group: P 21/M
;
_chemical_formula_sum "Si O2"
_cell_formula_units_Z 28
_cell_length_a 5.004712
_cell_length_b 17.795593
_cell_length_c 16.843806
_cell_angle_alpha 90.000000
_cell_angle_beta 70.830558
_cell_angle_gamma 90.000000
_cell_volume 1416.959669
_symmetry_space_group_name_H-M "P 21/M"
_symmetry_group_IT_number 11
_symmetry_cell_setting 'monoclinic'
loop_
_space_group_symop_operation_xyz
x,y,z
-x,1/2+y,-z
-x,-y,-z
x,1/2-y,z
loop_
_atom_site_type_symbol
_atom_site_label
_atom_site_fract_x
_atom_site_fract_y
_atom_site_fract_z
Si Si1 0.389042 0.961041 0.686485
Si Si2 0.186222 0.664025 0.309573
Si Si3 0.263541 0.446658 0.946321
Si Si4 0.554457 0.905564 0.902118
Si Si5 0.997961 0.515266 0.407145
Si Si6 0.844121 0.161268 0.185647
Si Si7 0.808071 0.891231 0.212894
O O1 0.329874 0.880076 0.728403
O O2 0.718967 0.978851 0.657055
O O3 0.220450 0.022081 0.756315
O O4 0.268316 0.977898 0.610829
O O5 0.135183 0.750000 0.337220
O O6 0.030665 0.603352 0.381321
O O7 0.519606 0.647067 0.272149
O O8 0.063092 0.647263 0.234047
O O9 0.497035 0.506218 0.891888
O O10 0.172923 0.393544 0.883557
O O11 0.401007 0.404054 0.007307
O O12 0.000000 0.500000 0.000000
O O13 0.298839 0.862405 0.884353
O O14 0.842331 0.872496 0.840050
O O15 0.000000 0.500000 0.500000
O O16 0.847957 0.250000 0.192680
#
# Coordination Sequence:
#
# PCOD9163686 Si02
#       7
#     4   4   4   4   4   4   4
#     4  10  20  37  61  87 115 151 199 240 286 354
#     4  10  22  39  58  87 120 156 190 240 307 356
#     4  11  22  37  64  88 113 152 212 265 306 353
#     4  11  23  37  59  85 117 156 207 258 311 355
#     4  10  21  38  64  92 118 151 195 242 290 360
#     4  12  24  41  59  85 124 164 205 256 310 357
#     4  10  21  35  63  82 112 155 202 245 283 357
#
# _framework density 19.760617
#
# number of rings (size 3 to 8) (size 9 to 14) (size 15 to 20)
#    0.000    1.429    2.857    2.143    8.000    0.000 
#    0.000    5.714    0.000    0.000    0.000    0.000 
#    0.000    0.000    0.000    0.000    0.000    0.000 
#
# Total GULP energy -156427.167938 kJ/mol
# GULP energy per Si atom -5586.684569 kJ/mol
# Density = 1.971564 g / cm^3
# Si number density = 19.760617 Si / 1000 Ang^3
#
#
#
# Elastic Constant Matrix: (Units=GPa)
#
#
# Indices 1 2 3 4 5 6 
#
# 1 76.1390 16.1479 -2.8406 0.0000 10.1631 0.0000
# 2 16.1479 114.4479 38.4571 0.0000 -2.2610 0.0000
# 3 -2.8406 38.4571 66.9532 0.0000 26.0568 0.0000
# 4 0.0000 0.0000 0.0000 14.7120 0.0000 -0.3549
# 5 10.1631 -2.2610 26.0568 0.0000 35.8447 0.0000
# 6 0.0000 0.0000 0.0000 -0.3549 0.0000 17.3632
#
#
#
# Elastic Compliance Matrix: (Units=1/GPa)
#
#
# Indices 1 2 3 4 5 6 
#
# 1 0.015838 -0.004965 0.007521 0.000000 -0.010271 0.000000
# 2 -0.004965 0.013931 -0.012693 0.000000 0.011514 0.000000
# 3 0.007521 -0.012693 0.033032 0.000000 -0.026946 0.000000
# 4 0.000000 0.000000 0.000000 0.068005 0.000000 0.001390
# 5 -0.010271 0.011514 -0.026946 0.000000 0.051124 0.000000
# 6 0.000000 0.000000 0.000000 0.001390 0.000000 0.057621
#
#
# Mechanical properties :
#
#
# Convention : Reuss Voigt Hill
#
# Bulk Modulus (GPa) = 23.51407 40.11877 31.81642
# Shear Modulus (GPa) = 18.24803 27.30236 22.77519
#
# Velocity S-wave (km/s) = 3.04214 3.72109 3.39861
# Velocity P-wave (km/s) = 4.92593 6.22965 5.61575
#
# Compressibility (1/GPa) = 0.04252772
#
# Stress axis : x y z
#
# Youngs Moduli (GPa) = 63.13743 71.78359 30.27338
#
# Poissons Ratio (x) = 0.35640 -0.22769
# Poissons Ratio (y) = 0.31347 0.38426
# Poissons Ratio (z) = -0.47486 0.91116
#
# Static dielectric constant tensor:
#      x y z
#    x 1.719120 0.000000 0.007760 
#    y 0.000000 1.678790 0.000000 
#    z 0.007760 0.000000 1.721210 
# 
# From -- ./inp_files/45895.got.cif
#   From: 2010.05.17/outbox.cif.g08.bks.cpg/sg11_23_cif.got.tgz:45895.got - 2010.06.03 12:22:45.
