data_PCOD9163275
_publ_section_title
;
Structure prediction by ZEFSAII (Michael W. Deem and Ramdas Pophale) SiO2 
 PCOD9163275
Probable space group: P 21/M
;
_chemical_formula_sum "Si O2"
_cell_formula_units_Z 32
_cell_length_a 9.841916
_cell_length_b 11.640351
_cell_length_c 13.880732
_cell_angle_alpha 90.000000
_cell_angle_beta 88.081927
_cell_angle_gamma 90.000000
_cell_volume 1589.332263
_symmetry_space_group_name_H-M "P 21/M"
_symmetry_group_IT_number 11
_symmetry_cell_setting 'monoclinic'
loop_
_space_group_symop_operation_xyz
x,y,z
-x,1/2+y,-z
-x,-y,-z
x,1/2-y,z
loop_
_atom_site_type_symbol
_atom_site_label
_atom_site_fract_x
_atom_site_fract_y
_atom_site_fract_z
Si Si1 0.179281 0.533945 0.729719
Si Si2 0.380378 0.880795 0.574683
Si Si3 0.967549 0.609876 0.573496
Si Si4 0.026559 0.869012 0.889696
Si Si5 0.593216 0.383609 0.800329
Si Si6 0.668478 0.526582 0.609288
Si Si7 0.817214 0.042314 0.943380
Si Si8 0.287608 0.383762 0.879654
O O1 0.311120 0.547209 0.661227
O O2 0.193440 0.416276 0.789577
O O3 0.058030 0.570977 0.662229
O O4 0.157597 0.620446 0.818828
O O5 0.337872 0.750000 0.587110
O O6 0.330313 0.929327 0.474035
O O7 0.541335 0.894788 0.581461
O O8 0.991844 0.750000 0.549693
O O9 0.808935 0.594965 0.602139
O O10 0.000000 0.500000 0.500000
O O11 0.954444 0.750000 0.873974
O O12 0.920324 0.969878 0.874882
O O13 0.083407 0.878017 0.996201
O O14 0.592449 0.250000 0.768736
O O15 0.636723 0.465853 0.711558
O O16 0.701496 0.399475 0.883742
O O17 0.442412 0.410547 0.843905
O O18 0.754617 0.956469 0.025537
O O19 0.277067 0.250000 0.901853
#
# Coordination Sequence:
#
# PCOD9163275 Si02
#       8
#     4   4   4   4   4   4   4   4
#     4  11  22  41  64  92 124 168 217 263 319 390
#     4  11  22  41  65  92 128 171 218 268 322 386
#     4  12  26  44  66  96 136 175 221 276 331 391
#     4  10  20  36  60  87 119 162 204 255 314 375
#     4  11  22  39  63  92 128 167 215 274 332 395
#     4  11  24  42  64  96 129 171 218 267 324 392
#     4  10  21  37  60  89 126 160 211 260 319 398
#     4  10  22  41  64  92 127 168 215 272 334 396
#
# _framework density 20.134240999999999
#
# number of rings (size 3 to 8) (size 9 to 14) (size 15 to 20)
#    0.000    1.250    2.500    3.750    0.000    1.000 
#    0.000    6.250    0.000    0.000    0.000    0.000 
#    0.000    0.000    0.000    0.000    0.000    0.000 
#
# Total GULP energy -178315.412667 kJ/mol
# GULP energy per Si atom -5572.356646 kJ/mol
# Density = 2.008841 g / cm^3
# Si number density = 20.134241 Si / 1000 Ang^3
#
#
#
# Elastic Constant Matrix: (Units=GPa)
#
#
# Indices 1 2 3 4 5 6 
#
# 1 97.3925 9.4853 0.8307 0.0000 3.6618 0.0000
# 2 9.4853 59.2847 14.1725 0.0000 -7.3678 0.0000
# 3 0.8307 14.1725 58.9805 0.0000 -6.8582 0.0000
# 4 0.0000 0.0000 0.0000 12.1532 0.0000 1.6101
# 5 3.6618 -7.3678 -6.8582 0.0000 35.5087 0.0000
# 6 0.0000 0.0000 0.0000 1.6101 0.0000 16.7627
#
#
#
# Elastic Compliance Matrix: (Units=1/GPa)
#
#
# Indices 1 2 3 4 5 6 
#
# 1 0.010506 -0.001894 0.000139 0.000000 -0.001450 0.000000
# 2 -0.001894 0.018544 -0.004050 0.000000 0.003261 0.000000
# 3 0.000139 -0.004050 0.018236 0.000000 0.002667 0.000000
# 4 0.000000 0.000000 0.000000 0.083343 0.000000 -0.008005
# 5 -0.001450 0.003261 0.002667 0.000000 0.029503 0.000000
# 6 0.000000 0.000000 0.000000 -0.008005 0.000000 0.060425
#
#
# Mechanical properties :
#
#
# Convention : Reuss Voigt Hill
#
# Bulk Modulus (GPa) = 28.03111 29.40385 28.71748
# Shear Modulus (GPa) = 20.48669 25.62953 23.05811
#
# Velocity S-wave (km/s) = 3.19330 3.57169 3.38778
# Velocity P-wave (km/s) = 5.24867 5.62538 5.44029
#
# Compressibility (1/GPa) = 0.03567465
#
# Stress axis : x y z
#
# Youngs Moduli (GPa) = 95.18802 53.92494 54.83597
#
# Poissons Ratio (x) = 0.10214 -0.00760
# Poissons Ratio (y) = 0.18030 0.22209
# Poissons Ratio (z) = -0.01319 0.21840
#
# Static dielectric constant tensor:
#      x y z
#    x 1.717990 0.000000 -0.024240 
#    y 0.000000 1.833500 0.000000 
#    z -0.024240 0.000000 1.720680 
# 
# From -- ./inp_files/47190.got.cif
#   From: 2010.05.17/outbox.cif.g08.bks.cpg/sg11_24_cif.got.tgz:47190.got - 2010.06.03 12:22:45.
