data_PCOD9163277
_publ_section_title
;
Structure prediction by ZEFSAII (Michael W. Deem and Ramdas Pophale) SiO2 
 PCOD9163277
Probable space group: P 21/M
;
_chemical_formula_sum "Si O2"
_cell_formula_units_Z 32
_cell_length_a 12.735610
_cell_length_b 8.429955
_cell_length_c 28.945397
_cell_angle_alpha 90.000000
_cell_angle_beta 148.975540
_cell_angle_gamma 90.000000
_cell_volume 1601.667150
_symmetry_space_group_name_H-M "P 21/M"
_symmetry_group_IT_number 11
_symmetry_cell_setting 'monoclinic'
loop_
_space_group_symop_operation_xyz
x,y,z
-x,1/2+y,-z
-x,-y,-z
x,1/2-y,z
loop_
_atom_site_type_symbol
_atom_site_label
_atom_site_fract_x
_atom_site_fract_y
_atom_site_fract_z
Si Si1 0.086821 0.062817 0.920535
Si Si2 0.539641 0.443120 0.112418
Si Si3 0.857614 0.436275 0.159413
Si Si4 0.347500 0.558915 0.507469
Si Si5 0.783320 0.436881 0.645601
Si Si6 0.996097 0.060331 0.550880
Si Si7 0.826955 0.562884 0.900073
Si Si8 0.627549 0.442324 0.246779
O O1 0.068517 0.250000 0.922175
O O2 0.096470 0.028072 0.870092
O O3 0.304523 0.007440 0.023093
O O4 0.904955 0.977463 0.878420
O O5 0.540922 0.250000 0.111978
O O6 0.658452 0.496362 0.111665
O O7 0.647714 0.491707 0.200683
O O8 0.833691 0.250000 0.139763
O O9 0.042649 0.462101 0.264510
O O10 0.377659 0.750000 0.521220
O O11 0.566411 0.476190 0.587310
O O12 0.240011 0.525785 0.417592
O O13 0.202455 0.507231 0.494656
O O14 0.828440 0.250000 0.667400
O O15 0.990939 0.250000 0.548238
O O16 0.195383 0.006296 0.654072
O O17 0.000000 0.000000 0.500000
O O18 0.818624 0.750000 0.903978
O O19 0.598562 0.503045 0.823211
O O20 0.000000 0.500000 0.000000
O O21 0.633555 0.250000 0.250888
#
# Coordination Sequence:
#
# PCOD9163277 Si02
#       8
#     4   4   4   4   4   4   4   4
#     4  11  22  39  59  83 119 157 198 247 296 348
#     4   9  19  37  60  85 116 154 195 241 294 352
#     4  11  22  36  56  85 120 156 196 238 294 357
#     4   9  20  39  61  85 116 149 190 241 294 350
#     4  10  20  36  60  88 115 149 192 239 294 352
#     4  11  24  41  61  88 120 155 195 244 296 353
#     4  11  22  39  63  89 120 157 200 248 297 350
#     4  10  21  40  64  89 118 155 196 244 299 353
#
# _framework density 19.979182000000002
#
# number of rings (size 3 to 8) (size 9 to 14) (size 15 to 20)
#    0.000    1.750    1.250    3.000    0.000    3.500 
#    0.000    3.750    0.000    0.000    0.000    0.000 
#    0.000    0.000    0.000    0.000    0.000    0.000 
#
# Total GULP energy -178812.667503 kJ/mol
# GULP energy per Si atom -5587.895859 kJ/mol
# Density = 1.993371 g / cm^3
# Si number density = 19.979182 Si / 1000 Ang^3
#
#
#
# Elastic Constant Matrix: (Units=GPa)
#
#
# Indices 1 2 3 4 5 6 
#
# 1 128.2161 3.8511 6.9635 0.0000 10.3469 0.0000
# 2 3.8511 19.0960 -1.8135 0.0000 1.0397 0.0000
# 3 6.9635 -1.8135 17.8095 0.0000 3.4027 0.0000
# 4 0.0000 0.0000 0.0000 29.8407 0.0000 -2.5118
# 5 10.3469 1.0397 3.4027 0.0000 25.0719 0.0000
# 6 0.0000 0.0000 0.0000 -2.5118 0.0000 22.2606
#
#
#
# Elastic Compliance Matrix: (Units=1/GPa)
#
#
# Indices 1 2 3 4 5 6 
#
# 1 0.008244 -0.001772 -0.002842 0.000000 -0.002943 0.000000
# 2 -0.001772 0.053480 0.006594 0.000000 -0.002381 0.000000
# 3 -0.002842 0.006594 0.059298 0.000000 -0.007148 0.000000
# 4 0.000000 0.000000 0.000000 0.033833 0.000000 0.003818
# 5 -0.002943 -0.002381 -0.007148 0.000000 0.042169 0.000000
# 6 0.000000 0.000000 0.000000 0.003818 0.000000 0.045353
#
#
# Mechanical properties :
#
#
# Convention : Reuss Voigt Hill
#
# Bulk Modulus (GPa) = 8.00112 20.34708 14.17410
# Shear Modulus (GPa) = 17.85212 25.84267 21.84740
#
# Velocity S-wave (km/s) = 2.99245 3.60040 3.31041
# Velocity P-wave (km/s) = 3.99413 5.24310 4.66064
#
# Compressibility (1/GPa) = 0.12498253
#
# Stress axis : x y z
#
# Youngs Moduli (GPa) = 121.29415 18.69850 16.86389
#
# Poissons Ratio (x) = 0.03314 0.04792
# Poissons Ratio (y) = 0.21497 -0.11120
# Poissons Ratio (z) = 0.34468 -0.12329
#
# Static dielectric constant tensor:
#      x y z
#    x 1.716090 0.000000 0.008430 
#    y 0.000000 1.690590 0.000000 
#    z 0.008430 0.000000 1.683180 
# 
# From -- ./inp_files/49312.got.cif
#   From: 2010.05.17/outbox.cif.g08.bks.cpg/sg11_25_cif.got.tgz:49312.got - 2010.06.03 12:22:45.
