data_PCOD9163718
_publ_section_title
;
Structure prediction by ZEFSAII (Michael W. Deem and Ramdas Pophale) SiO2 
 PCOD9163718
Probable space group: P 21/M
;
_chemical_formula_sum "Si O2"
_cell_formula_units_Z 28
_cell_length_a 15.268306
_cell_length_b 15.269592
_cell_length_c 9.158989
_cell_angle_alpha 90.000000
_cell_angle_beta 142.248689
_cell_angle_gamma 90.000000
_cell_volume 1307.327037
_symmetry_space_group_name_H-M "P 21/M"
_symmetry_group_IT_number 11
_symmetry_cell_setting 'monoclinic'
loop_
_space_group_symop_operation_xyz
x,y,z
-x,1/2+y,-z
-x,-y,-z
x,1/2-y,z
loop_
_atom_site_type_symbol
_atom_site_label
_atom_site_fract_x
_atom_site_fract_y
_atom_site_fract_z
Si Si1 0.132578 0.346464 0.509537
Si Si2 0.472243 0.979555 0.792472
Si Si3 0.219193 0.468411 0.871501
Si Si4 0.355665 0.343152 0.539881
Si Si5 0.806258 0.151994 0.027355
Si Si6 0.888328 0.903258 0.966873
Si Si7 0.198148 0.911963 0.289499
O O1 0.140146 0.250000 0.594209
O O2 0.147305 0.429369 0.633187
O O3 0.256823 0.348617 0.554273
O O4 0.978429 0.350877 0.231234
O O5 0.450108 0.070314 0.673894
O O6 0.328275 0.924212 0.573680
O O7 0.500000 0.000000 0.000000
O O8 0.616263 0.936936 0.919779
O O9 0.223307 0.573153 0.899706
O O10 0.135264 0.429859 0.897939
O O11 0.433599 0.250000 0.643242
O O12 0.241894 0.344013 0.258830
O O13 0.770548 0.250000 0.029383
O O14 0.746185 0.131979 0.786764
O O15 0.852760 0.990866 0.825925
O O16 0.049964 0.871115 0.153019
#
# Coordination Sequence:
#
# PCOD9163718 Si02
#       7
#     4   4   4   4   4   4   4
#     4  10  20  37  61  90 120 160 212 263 316 371
#     4  11  23  39  58  85 126 166 202 242 313 386
#     4  11  23  37  61  94 128 163 201 262 317 370
#     4  10  20  37  64  86 114 163 215 256 306 379
#     4  10  21  38  63  92 123 161 212 265 317 368
#     4   9  19  35  61  89 111 146 206 258 306 359
#     4   9  19  36  58  84 116 152 199 249 302 370
#
# _framework density 21.417746999999999
#
# number of rings (size 3 to 8) (size 9 to 14) (size 15 to 20)
#    0.000    2.000    2.857    0.429    2.000    7.429 
#    0.000    1.429    0.000    0.000    0.000    0.000 
#    0.000    0.000    0.000    0.000    0.000    0.000 
#
# Total GULP energy -156194.279564 kJ/mol
# GULP energy per Si atom -5578.367127 kJ/mol
# Density = 2.136900 g / cm^3
# Si number density = 21.417747 Si / 1000 Ang^3
#
#
#
# Elastic Constant Matrix: (Units=GPa)
#
#
# Indices 1 2 3 4 5 6 
#
# 1 33.6756 7.5502 16.8227 0.0000 7.9455 0.0000
# 2 7.5502 81.6437 18.0202 0.0000 -19.2814 0.0000
# 3 16.8227 18.0202 99.4413 0.0000 -0.7394 0.0000
# 4 0.0000 0.0000 0.0000 12.9135 0.0000 -0.1092
# 5 7.9455 -19.2814 -0.7394 0.0000 29.3703 0.0000
# 6 0.0000 0.0000 0.0000 -0.1092 0.0000 13.4856
#
#
#
# Elastic Compliance Matrix: (Units=1/GPa)
#
#
# Indices 1 2 3 4 5 6 
#
# 1 0.036813 -0.005455 -0.005341 0.000000 -0.013674 0.000000
# 2 -0.005455 0.015984 -0.001885 0.000000 0.011922 0.000000
# 3 -0.005341 -0.001885 0.011305 0.000000 0.000492 0.000000
# 4 0.000000 0.000000 0.000000 0.077444 0.000000 0.000627
# 5 -0.013674 0.011922 0.000492 0.000000 0.045586 0.000000
# 6 0.000000 0.000000 0.000000 0.000627 0.000000 0.074158
#
#
# Mechanical properties :
#
#
# Convention : Reuss Voigt Hill
#
# Bulk Modulus (GPa) = 25.81303 33.28299 29.54801
# Shear Modulus (GPa) = 16.69084 22.64503 19.66793
#
# Velocity S-wave (km/s) = 2.79462 3.25515 3.03364
# Velocity P-wave (km/s) = 4.74253 5.44992 5.10848
#
# Compressibility (1/GPa) = 0.03874013
#
# Stress axis : x y z
#
# Youngs Moduli (GPa) = 27.16467 62.56088 88.45661
#
# Poissons Ratio (x) = 0.34127 0.47243
# Poissons Ratio (y) = 0.14818 0.16675
# Poissons Ratio (z) = 0.14508 0.11794
#
# Static dielectric constant tensor:
#      x y z
#    x 1.771550 0.000000 0.016810 
#    y 0.000000 1.923810 0.000000 
#    z 0.016810 0.000000 1.779220 
# 
# From -- ./inp_files/22766.got.cif
#   From: 2010.05.17/outbox.cif.g08.bks.cpg/sg11_12_cif.got.tgz:22766.got - 2010.06.03 12:22:45.
