data_PCOD9163952
_publ_section_title
;
Structure prediction by ZEFSAII (Michael W. Deem and Ramdas Pophale) SiO2 
 PCOD9163952
Probable space group: P 21/M
;
_chemical_formula_sum "Si O2"
_cell_formula_units_Z 28
_cell_length_a 9.522380
_cell_length_b 8.525585
_cell_length_c 23.513919
_cell_angle_alpha 90.000000
_cell_angle_beta 133.388086
_cell_angle_gamma 90.000000
_cell_volume 1387.267940
_symmetry_space_group_name_H-M "P 21/M"
_symmetry_group_IT_number 11
_symmetry_cell_setting 'monoclinic'
loop_
_space_group_symop_operation_xyz
x,y,z
-x,1/2+y,-z
-x,-y,-z
x,1/2-y,z
loop_
_atom_site_type_symbol
_atom_site_label
_atom_site_fract_x
_atom_site_fract_y
_atom_site_fract_z
Si Si1 0.572794 0.563451 0.340938
Si Si2 0.910218 0.058969 0.237570
Si Si3 0.050387 0.939158 0.620224
Si Si4 0.621583 0.437188 0.479578
Si Si5 0.093702 0.437553 0.969434
Si Si6 0.477691 0.561944 0.930583
Si Si7 0.167543 0.062014 0.205076
O O1 0.588852 0.750000 0.346468
O O2 0.766677 0.494796 0.365940
O O3 0.548916 0.500037 0.398582
O O4 0.377899 0.511773 0.254096
O O5 0.909406 0.250000 0.237369
O O6 0.925714 0.011265 0.307172
O O7 0.709846 0.002130 0.154251
O O8 0.081470 0.011699 0.242532
O O9 0.040732 0.750000 0.614526
O O10 0.844853 0.008611 0.544408
O O11 0.500000 0.500000 0.500000
O O12 0.608580 0.250000 0.476393
O O13 0.078636 0.250000 0.959643
O O14 0.988761 0.512709 0.885744
O O15 0.000000 0.500000 0.000000
O O16 0.318123 0.479335 0.039313
O O17 0.460194 0.750000 0.927674
O O18 0.500000 0.500000 0.000000
O O19 0.186235 0.250000 0.209777
#
# Coordination Sequence:
#
# PCOD9163952 Si02
#       7
#     4   4   4   4   4   4   4
#     4  12  26  44  65  96 134 170 214 266 320 382
#     4   9  20  38  63  91 122 161 210 260 315 379
#     4  11  23  42  68  98 131 171 216 264 319 380
#     4  12  25  45  71 100 132 171 214 261 319 381
#     4  11  24  39  60  90 126 166 213 265 322 384
#     4  10  20  38  61  89 120 162 210 261 316 374
#     4  11  22  41  66  91 124 167 213 265 325 386
#
# _framework density 20.183554999999998
#
# number of rings (size 3 to 8) (size 9 to 14) (size 15 to 20)
#    0.000    1.143    1.429    5.143    2.000    1.714 
#    0.000    3.571    0.000    0.000    0.000    0.000 
#    0.000    0.000    0.000    0.000    0.000    0.000 
#
# Total GULP energy -156520.984375 kJ/mol
# GULP energy per Si atom -5590.035156 kJ/mol
# Density = 2.013762 g / cm^3
# Si number density = 20.183555 Si / 1000 Ang^3
#
#
#
# Elastic Constant Matrix: (Units=GPa)
#
#
# Indices 1 2 3 4 5 6 
#
# 1 114.4997 29.2637 11.0619 0.0000 8.4877 0.0000
# 2 29.2637 75.7638 11.2876 0.0000 6.4715 0.0000
# 3 11.0619 11.2876 80.7179 0.0000 11.7253 0.0000
# 4 0.0000 0.0000 0.0000 32.8053 0.0000 0.0844
# 5 8.4877 6.4715 11.7253 0.0000 41.9542 0.0000
# 6 0.0000 0.0000 0.0000 0.0844 0.0000 31.4680
#
#
#
# Elastic Compliance Matrix: (Units=1/GPa)
#
#
# Indices 1 2 3 4 5 6 
#
# 1 0.009806 -0.003582 -0.000662 0.000000 -0.001246 0.000000
# 2 -0.003582 0.014895 -0.001421 0.000000 -0.001176 0.000000
# 3 -0.000662 -0.001421 0.013161 0.000000 -0.003325 0.000000
# 4 0.000000 0.000000 0.000000 0.030483 0.000000 -0.000082
# 5 -0.001246 -0.001176 -0.003325 0.000000 0.025198 0.000000
# 6 0.000000 0.000000 0.000000 -0.000082 0.000000 0.031779
#
#
# Mechanical properties :
#
#
# Convention : Reuss Voigt Hill
#
# Bulk Modulus (GPa) = 37.69185 41.57864 39.63524
# Shear Modulus (GPa) = 34.36524 35.87003 35.11763
#
# Velocity S-wave (km/s) = 4.13078 4.22025 4.17575
# Velocity P-wave (km/s) = 6.43942 6.66275 6.55204
#
# Compressibility (1/GPa) = 0.02653094
#
# Stress axis : x y z
#
# Youngs Moduli (GPa) = 101.98319 67.13773 75.98043
#
# Poissons Ratio (x) = 0.24051 0.05028
# Poissons Ratio (y) = 0.36534 0.10798
# Poissons Ratio (z) = 0.06749 0.09541
#
# Static dielectric constant tensor:
#      x y z
#    x 1.753690 0.000000 0.019240 
#    y 0.000000 1.689780 0.000000 
#    z 0.019240 0.000000 1.696790 
# 
# From -- ./inp_files/63394.got.cif
#   From: 2010.05.17/outbox.cif.g08.bks.cpg/sg11_32_cif.got.tgz:63394.got - 2010.06.03 12:22:45.
