data_PCOD9163519
_publ_section_title
;
Structure prediction by ZEFSAII (Michael W. Deem and Ramdas Pophale) SiO2 
 PCOD9163519
Probable space group: P 21/M
;
_chemical_formula_sum "Si O2"
_cell_formula_units_Z 28
_cell_length_a 13.394255
_cell_length_b 17.712205
_cell_length_c 6.682702
_cell_angle_alpha 90.000000
_cell_angle_beta 118.066153
_cell_angle_gamma 90.000000
_cell_volume 1398.979105
_symmetry_space_group_name_H-M "P 21/M"
_symmetry_group_IT_number 11
_symmetry_cell_setting 'monoclinic'
loop_
_space_group_symop_operation_xyz
x,y,z
-x,1/2+y,-z
-x,-y,-z
x,1/2-y,z
loop_
_atom_site_type_symbol
_atom_site_label
_atom_site_fract_x
_atom_site_fract_y
_atom_site_fract_z
Si Si1 0.233079 0.161187 0.429513
Si Si2 0.954843 0.896949 0.041550
Si Si3 0.484167 0.557017 0.673155
Si Si4 0.046332 0.332868 0.553546
Si Si5 0.897773 0.441071 0.156672
Si Si6 0.503508 0.839397 0.345279
Si Si7 0.358373 0.543302 0.947752
O O1 0.227217 0.250000 0.367297
O O2 0.171722 0.153087 0.585327
O O3 0.363922 0.140621 0.557519
O O4 0.153758 0.114416 0.203982
O O5 0.955103 0.834931 0.211439
O O6 0.943248 0.975896 0.147287
O O7 0.067369 0.896536 0.012778
O O8 0.500000 0.500000 0.500000
O O9 0.477438 0.635862 0.550048
O O10 0.380609 0.545800 0.730183
O O11 0.590064 0.534757 0.914576
O O12 0.011080 0.250000 0.444418
O O13 0.966137 0.397111 0.390729
O O14 0.769054 0.447059 0.101037
O O15 0.488027 0.750000 0.300365
O O16 0.430173 0.889320 0.121885
#
# Coordination Sequence:
#
# PCOD9163519 Si02
#       7
#     4   4   4   4   4   4   4
#     4   9  19  35  55  82 112 142 185 232 271 322
#     4  10  20  37  59  81 106 144 186 230 278 322
#     4   9  20  37  56  79 108 146 190 227 269 326
#     4  10  21  36  56  82 111 144 180 225 281 332
#     4  10  22  37  56  83 111 140 183 229 272 331
#     4  10  21  36  56  84 115 148 187 229 276 334
#     4  10  21  38  57  81 114 150 183 229 284 332
#
# _framework density 20.014595
#
# number of rings (size 3 to 8) (size 9 to 14) (size 15 to 20)
#    0.000    2.286    0.000    1.714    0.000    8.571 
#    0.000    4.286    0.000    0.000    0.000    0.000 
#    0.000    0.000    0.000    0.000    0.000    0.000 
#
# Total GULP energy -156112.795832 kJ/mol
# GULP energy per Si atom -5575.456994 kJ/mol
# Density = 1.996904 g / cm^3
# Si number density = 20.014595 Si / 1000 Ang^3
#
#
#
# Elastic Constant Matrix: (Units=GPa)
#
#
# Indices 1 2 3 4 5 6 
#
# 1 144.1680 15.2478 52.9070 0.0000 -22.4394 0.0000
# 2 15.2478 56.6596 23.4951 0.0000 -11.4216 0.0000
# 3 52.9070 23.4951 67.4444 0.0000 -31.8373 0.0000
# 4 0.0000 0.0000 0.0000 28.3642 0.0000 -2.5009
# 5 -22.4394 -11.4216 -31.8373 0.0000 23.7919 0.0000
# 6 0.0000 0.0000 0.0000 -2.5009 0.0000 24.3123
#
#
#
# Elastic Compliance Matrix: (Units=1/GPa)
#
#
# Indices 1 2 3 4 5 6 
#
# 1 0.009829 0.000626 -0.009260 0.000000 -0.002820 0.000000
# 2 0.000626 0.020675 -0.007411 0.000000 0.000599 0.000000
# 3 -0.009260 -0.007411 0.051234 0.000000 0.056268 0.000000
# 4 0.000000 0.000000 0.000000 0.035578 0.000000 0.003660
# 5 -0.002820 0.000599 0.056268 0.000000 0.114954 0.000000
# 6 0.000000 0.000000 0.000000 0.003660 0.000000 0.041508
#
#
# Mechanical properties :
#
#
# Convention : Reuss Voigt Hill
#
# Bulk Modulus (GPa) = 20.14143 50.17467 35.15805
# Shear Modulus (GPa) = 15.50781 27.06849 21.28815
#
# Velocity S-wave (km/s) = 2.78659 3.68154 3.26487
# Velocity P-wave (km/s) = 4.52091 6.57230 5.64065
#
# Compressibility (1/GPa) = 0.04964890
#
# Stress axis : x y z
#
# Youngs Moduli (GPa) = 101.73460 48.36875 19.51811
#
# Poissons Ratio (x) = -0.03029 0.18074
# Poissons Ratio (y) = -0.06371 0.14464
# Poissons Ratio (z) = 0.94209 0.35845
#
# Static dielectric constant tensor:
#      x y z
#    x 1.709210 0.000000 -0.027770 
#    y 0.000000 1.761980 0.000000 
#    z -0.027770 0.000000 1.715740 
# 
# From -- ./inp_files/5089.got.cif
#   From: 2010.05.17/outbox.cif.g08.bks.cpg/sg11_3_cif.got.tgz:5089.got - 2010.06.03 12:22:45.
