data_PCOD9163695
_publ_section_title
;
Structure prediction by ZEFSAII (Michael W. Deem and Ramdas Pophale) SiO2 
 PCOD9163695
Probable space group: P 21/M
;
_chemical_formula_sum "Si O2"
_cell_formula_units_Z 32
_cell_length_a 21.033975
_cell_length_b 11.380774
_cell_length_c 9.915181
_cell_angle_alpha 90.000000
_cell_angle_beta 133.948989
_cell_angle_gamma 90.000000
_cell_volume 1708.838212
_symmetry_space_group_name_H-M "P 21/M"
_symmetry_group_IT_number 11
_symmetry_cell_setting 'monoclinic'
loop_
_space_group_symop_operation_xyz
x,y,z
-x,1/2+y,-z
-x,-y,-z
x,1/2-y,z
loop_
_atom_site_type_symbol
_atom_site_label
_atom_site_fract_x
_atom_site_fract_y
_atom_site_fract_z
Si Si1 0.932585 0.110976 0.865552
Si Si2 0.894050 0.460292 0.507632
Si Si3 0.938860 0.120369 0.290774
Si Si4 0.212159 0.611032 0.119999
Si Si5 0.442084 0.384646 0.880341
Si Si6 0.364104 0.459258 0.227097
Si Si7 0.520883 0.623189 0.367633
Si Si8 0.270613 0.383011 0.816783
O O1 0.963332 0.250000 0.930817
O O2 0.845040 0.095494 0.828700
O O3 0.903377 0.096919 0.667271
O O4 0.000000 0.000000 0.000000
O O5 0.918040 0.377553 0.417626
O O6 0.801981 0.523395 0.337910
O O7 0.971686 0.555851 0.610807
O O8 0.945913 0.250000 0.244015
O O9 0.855300 0.064589 0.093845
O O10 0.229200 0.750000 0.127747
O O11 0.302225 0.543158 0.226574
O O12 0.478871 0.250000 0.959922
O O13 0.428782 0.391997 0.699574
O O14 0.353552 0.391216 0.837599
O O15 0.500000 0.500000 0.000000
O O16 0.444365 0.528522 0.274046
O O17 0.413257 0.379861 0.409307
O O18 0.307127 0.404163 0.022120
O O19 0.475737 0.750000 0.296212
O O20 0.234225 0.250000 0.755735
#
# Coordination Sequence:
#
# PCOD9163695 Si02
#       8
#     4   4   4   4   4   4   4   4
#     4  11  24  43  64  90 126 165 210 256 308 366
#     4  11  22  38  60  90 123 163 207 248 307 365
#     4  10  20  37  61  87 119 157 202 254 300 357
#     4  10  21  39  60  87 120 159 203 254 306 361
#     4  10  21  41  62  90 122 159 203 254 312 371
#     4  11  21  39  62  87 122 155 208 251 319 367
#     4  10  22  39  62  87 120 159 204 256 313 377
#     4  11  23  38  61  90 126 162 205 258 311 368
#
# _framework density 18.726172999999999
#
# number of rings (size 3 to 8) (size 9 to 14) (size 15 to 20)
#    0.000    1.500    3.750    1.500    1.750    0.500 
#    0.000    4.375    0.000    0.000    0.000    0.000 
#    0.000    0.000    0.000    0.000    0.000    0.000 
#
# Total GULP energy -178203.750316 kJ/mol
# GULP energy per Si atom -5568.867197 kJ/mol
# Density = 1.868355 g / cm^3
# Si number density = 18.726173 Si / 1000 Ang^3
#
#
#
# Elastic Constant Matrix: (Units=GPa)
#
#
# Indices 1 2 3 4 5 6 
#
# 1 91.7392 34.1394 19.5209 0.0000 -14.2914 0.0000
# 2 34.1394 95.9070 23.2826 0.0000 5.3999 0.0000
# 3 19.5209 23.2826 71.5937 0.0000 -16.1746 0.0000
# 4 0.0000 0.0000 0.0000 16.7416 0.0000 4.1677
# 5 -14.2914 5.3999 -16.1746 0.0000 38.6069 0.0000
# 6 0.0000 0.0000 0.0000 4.1677 0.0000 119.6120
#
#
#
# Elastic Compliance Matrix: (Units=1/GPa)
#
#
# Indices 1 2 3 4 5 6 
#
# 1 0.013799 -0.004996 -0.000912 0.000000 0.005425 0.000000
# 2 -0.004996 0.013562 -0.004302 0.000000 -0.005548 0.000000
# 3 -0.000912 -0.004302 0.017314 0.000000 0.007518 0.000000
# 4 0.000000 0.000000 0.000000 0.060254 0.000000 -0.002099
# 5 0.005425 -0.005548 0.007518 0.000000 0.031836 0.000000
# 6 0.000000 0.000000 0.000000 -0.002099 0.000000 0.008434
#
#
# Mechanical properties :
#
#
# Convention : Reuss Voigt Hill
#
# Bulk Modulus (GPa) = 41.22882 45.90285 43.56584
# Shear Modulus (GPa) = 28.78489 47.14523 37.96506
#
# Velocity S-wave (km/s) = 3.92490 5.02302 4.50753
# Velocity P-wave (km/s) = 6.52719 7.62935 7.09969
#
# Compressibility (1/GPa) = 0.02425488
#
# Stress axis : x y z
#
# Youngs Moduli (GPa) = 72.47039 73.73657 57.75740
#
# Poissons Ratio (x) = 0.36837 0.05269
# Poissons Ratio (y) = 0.36205 0.24846
# Poissons Ratio (z) = 0.06611 0.31719
#
# Static dielectric constant tensor:
#      x y z
#    x 1.623950 0.000000 -0.016080 
#    y 0.000000 1.753650 0.000000 
#    z -0.016080 0.000000 1.659970 
# 
# From -- ./inp_files/26616.got.cif
#   From: 2010.05.17/outbox.cif.g08.bks.cpg/sg11_14_cif.got.tgz:26616.got - 2010.06.03 12:22:45.
