data_PCOD9163151
_publ_section_title
;
Structure prediction by ZEFSAII (Michael W. Deem and Ramdas Pophale) SiO2 
 PCOD9163151
Probable space group: P 21/M
;
_chemical_formula_sum "Si O2"
_cell_formula_units_Z 20
_cell_length_a 11.927695
_cell_length_b 14.075397
_cell_length_c 8.017341
_cell_angle_alpha 90.000000
_cell_angle_beta 131.209570
_cell_angle_gamma 90.000000
_cell_volume 1012.608136
_symmetry_space_group_name_H-M "P 21/M"
_symmetry_group_IT_number 11
_symmetry_cell_setting 'monoclinic'
loop_
_space_group_symop_operation_xyz
x,y,z
-x,1/2+y,-z
-x,-y,-z
x,1/2-y,z
loop_
_atom_site_type_symbol
_atom_site_label
_atom_site_fract_x
_atom_site_fract_y
_atom_site_fract_z
Si Si1 0.389039 0.894470 0.070947
Si Si2 0.449785 0.589290 0.774354
Si Si3 0.076786 0.638090 0.935120
Si Si4 0.183071 0.996562 0.327438
Si Si5 0.401685 0.148316 0.411566
O O1 0.221326 0.873087 0.959540
O O2 0.493348 0.859074 0.323519
O O3 0.426328 0.006398 0.090140
O O4 0.435041 0.857233 0.934090
O O5 0.497614 0.643035 0.654171
O O6 0.289875 0.541690 0.576860
O O7 0.041691 0.750000 0.914362
O O8 0.118051 0.589962 0.154502
O O9 0.943326 0.570588 0.740372
O O10 0.290969 0.059483 0.313949
O O11 0.322026 0.250000 0.336009
#
# Coordination Sequence:
#
# PCOD9163151 Si02
#       5
#     4   4   4   4   4
#     4  10  20  36  59  85 114 147 195 241 282 339
#     4  10  20  37  59  85 113 153 189 237 293 338
#     4  11  21  36  59  85 115 154 195 238 283 339
#     4  10  21  38  57  84 119 153 193 233 292 340
#     4  11  20  36  59  87 119 151 190 237 287 342
#
# _framework density 19.750976999999999
#
# number of rings (size 3 to 8) (size 9 to 14) (size 15 to 20)
#    0.000    1.600    4.000    2.400    0.000    2.400 
#    0.000    0.000    0.000    0.000    0.000    0.000 
#    0.000    0.000    0.000    0.000    0.000    0.000 
#
# Total GULP energy -111567.364651 kJ/mol
# GULP energy per Si atom -5578.368233 kJ/mol
# Density = 1.970602 g / cm^3
# Si number density = 19.750977 Si / 1000 Ang^3
#
#
#
# Elastic Constant Matrix: (Units=GPa)
#
#
# Indices 1 2 3 4 5 6 
#
# 1 76.0824 29.6795 30.9797 0.0000 -11.1278 0.0000
# 2 29.6795 114.1456 19.8189 0.0000 -3.6843 0.0000
# 3 30.9797 19.8189 58.8119 0.0000 -9.8200 0.0000
# 4 0.0000 0.0000 0.0000 -6.1874 0.0000 10.8147
# 5 -11.1278 -3.6843 -9.8200 0.0000 41.7365 0.0000
# 6 0.0000 0.0000 0.0000 10.8147 0.0000 -20.3293
#
#
#
# Elastic Compliance Matrix: (Units=1/GPa)
#
#
# Indices 1 2 3 4 5 6 
#
# 1 0.018033 -0.003219 -0.007972 0.000000 0.002648 0.000000
# 2 -0.003219 0.009880 -0.001698 0.000000 -0.000386 0.000000
# 3 -0.007972 -0.001698 0.022270 0.000000 0.002964 0.000000
# 4 0.000000 0.000000 0.000000 -2.303074 0.000000 -1.225184
# 5 0.002648 -0.000386 0.002964 0.000000 0.025329 0.000000
# 6 0.000000 0.000000 0.000000 -1.225184 0.000000 -0.700960
#
#
# Mechanical properties :
#
#
# Convention : Reuss Voigt Hill
#
# Bulk Modulus (GPa) = 40.97644 45.55514 43.26579
# Shear Modulus (GPa) = -1.72735 14.28142 6.27703
#
# Velocity S-wave (km/s) = -0.93620 2.69192 1.78465
# Velocity P-wave (km/s) = 4.42978 5.72510 5.11858
#
# Compressibility (1/GPa) = 0.02440427
#
# Stress axis : x y z
#
# Youngs Moduli (GPa) = 55.45452 101.21283 44.90369
#
# Poissons Ratio (x) = 0.32582 0.35797
# Poissons Ratio (y) = 0.17852 0.07625
# Poissons Ratio (z) = 0.44208 0.17188
#
# Static dielectric constant tensor:
#      x y z
#    x 1.700280 0.000000 -0.003740 
#    y 0.000000 1.732750 0.000000 
#    z -0.003740 0.000000 1.697280 
# 
# From -- ./inp_files/17576.got.cif
#   From: 2010.05.17/outbox.cif.g08.bks.cpg/sg11_9_cif.got.tgz:17576.got - 2010.06.03 12:22:45.
