data_PCOD9163327
_publ_section_title
;
Structure prediction by ZEFSAII (Michael W. Deem and Ramdas Pophale) SiO2 
 PCOD9163327
Probable space group: P 21/M
;
_chemical_formula_sum "Si O2"
_cell_formula_units_Z 28
_cell_length_a 28.657038
_cell_length_b 8.756914
_cell_length_c 10.030361
_cell_angle_alpha 90.000000
_cell_angle_beta 142.462629
_cell_angle_gamma 90.000000
_cell_volume 1533.610198
_symmetry_space_group_name_H-M "P 21/M"
_symmetry_group_IT_number 11
_symmetry_cell_setting 'monoclinic'
loop_
_space_group_symop_operation_xyz
x,y,z
-x,1/2+y,-z
-x,-y,-z
x,1/2-y,z
loop_
_atom_site_type_symbol
_atom_site_label
_atom_site_fract_x
_atom_site_fract_y
_atom_site_fract_z
Si Si1 0.136359 0.066084 0.460437
Si Si2 0.129815 0.066759 0.137661
Si Si3 0.458593 0.068111 0.278788
Si Si4 0.696594 0.070047 0.159354
Si Si5 0.297577 0.569032 0.511040
Si Si6 0.001029 0.933635 0.652193
Si Si7 0.547540 0.932410 0.230293
O O1 0.144393 0.250000 0.478959
O O2 0.112991 0.022621 0.254970
O O3 0.073947 0.023463 0.429976
O O4 0.218485 0.991843 0.675814
O O5 0.126073 0.250000 0.120517
O O6 0.215687 0.009063 0.303112
O O7 0.071838 0.993985 0.900857
O O8 0.463776 0.250000 0.286744
O O9 0.500000 0.000000 0.500000
O O10 0.503833 0.994421 0.258889
O O11 0.370184 0.017667 0.068259
O O12 0.692067 0.250000 0.120836
O O13 0.683868 0.048534 0.289550
O O14 0.292947 0.750000 0.474692
O O15 0.365963 0.493522 0.583915
O O16 0.004044 0.750000 0.651165
O O17 0.000000 0.000000 0.500000
O O18 0.546688 0.750000 0.224178
O O19 0.500000 0.000000 0.000000
#
# Coordination Sequence:
#
# PCOD9163327 Si02
#       7
#     4   4   4   4   4   4   4
#     4   9  20  38  62  89 117 152 196 244 297 353
#     4  10  20  37  62  90 119 152 195 245 297 355
#     4  12  25  42  62  86 122 162 204 252 303 361
#     4  10  20  36  61  90 121 154 198 247 299 357
#     4  10  20  36  60  91 123 155 197 249 299 350
#     4  11  23  40  60  86 121 158 196 240 296 358
#     4  12  23  38  62  91 122 160 204 249 301 356
#
# _framework density 18.257573000000001
#
# number of rings (size 3 to 8) (size 9 to 14) (size 15 to 20)
#    0.000    1.429    1.429    4.714    0.000    2.857 
#    2.571    0.000    0.000    0.000    0.000    0.000 
#    0.000    0.000    0.000    0.000    0.000    0.000 
#
# Total GULP energy -156468.637064 kJ/mol
# GULP energy per Si atom -5588.165609 kJ/mol
# Density = 1.821602 g / cm^3
# Si number density = 18.257573 Si / 1000 Ang^3
#
#
#
# Elastic Constant Matrix: (Units=GPa)
#
#
# Indices 1 2 3 4 5 6 
#
# 1 125.2232 52.3010 94.1612 0.0000 1.8738 0.0000
# 2 52.3010 97.8716 65.2795 0.0000 1.9990 0.0000
# 3 94.1612 65.2795 136.9063 0.0000 1.2151 0.0000
# 4 0.0000 0.0000 0.0000 35.6074 0.0000 3.8948
# 5 1.8738 1.9990 1.2151 0.0000 26.2261 0.0000
# 6 0.0000 0.0000 0.0000 3.8948 0.0000 31.3887
#
#
#
# Elastic Compliance Matrix: (Units=1/GPa)
#
#
# Indices 1 2 3 4 5 6 
#
# 1 0.016776 -0.001849 -0.010651 0.000000 -0.000564 0.000000
# 2 -0.001849 0.015203 -0.005971 0.000000 -0.000750 0.000000
# 3 -0.010651 -0.005971 0.017474 0.000000 0.000407 0.000000
# 4 0.000000 0.000000 0.000000 0.028470 0.000000 -0.003533
# 5 -0.000564 -0.000750 0.000407 0.000000 0.038209 0.000000
# 6 0.000000 0.000000 0.000000 -0.003533 0.000000 0.032297
#
#
# Mechanical properties :
#
#
# Convention : Reuss Voigt Hill
#
# Bulk Modulus (GPa) = 79.93496 87.05385 83.49440
# Shear Modulus (GPa) = 26.37949 28.52838 27.45394
#
# Velocity S-wave (km/s) = 3.80524 3.95720 3.88197
# Velocity P-wave (km/s) = 7.94880 8.28636 8.11933
#
# Compressibility (1/GPa) = 0.01251017
#
# Stress axis : x y z
#
# Youngs Moduli (GPa) = 59.61035 65.77485 57.22913
#
# Poissons Ratio (x) = 0.12160 0.60957
# Poissons Ratio (y) = 0.11020 0.34172
# Poissons Ratio (z) = 0.63493 0.39275
#
# Static dielectric constant tensor:
#      x y z
#    x 1.611830 0.000000 0.006710 
#    y 0.000000 1.599960 0.000000 
#    z 0.006710 0.000000 1.596240 
# 
# From -- ./inp_files/28134.got.cif
#   From: 2010.05.17/outbox.cif.g08.bks.cpg/sg11_15_cif.got.tgz:28134.got - 2010.06.03 12:22:45.
