data_PCOD9163497
_publ_section_title
;
Structure prediction by ZEFSAII (Michael W. Deem and Ramdas Pophale) SiO2 
 PCOD9163497
Probable space group: P 21/M
;
_chemical_formula_sum "Si O2"
_cell_formula_units_Z 32
_cell_length_a 11.863715
_cell_length_b 11.891595
_cell_length_c 11.493962
_cell_angle_alpha 90.000000
_cell_angle_beta 91.153688
_cell_angle_gamma 90.000000
_cell_volume 1621.222135
_symmetry_space_group_name_H-M "P 21/M"
_symmetry_group_IT_number 11
_symmetry_cell_setting 'monoclinic'
loop_
_space_group_symop_operation_xyz
x,y,z
-x,1/2+y,-z
-x,-y,-z
x,1/2-y,z
loop_
_atom_site_type_symbol
_atom_site_label
_atom_site_fract_x
_atom_site_fract_y
_atom_site_fract_z
Si Si1 0.181422 0.919888 0.474871
Si Si2 0.471843 0.465798 0.198358
Si Si3 0.724236 0.371851 0.764996
Si Si4 0.819893 0.464888 0.995621
Si Si5 0.012850 0.381683 0.146800
Si Si6 0.053004 0.374822 0.408609
Si Si7 0.561019 0.114750 0.441407
Si Si8 0.612303 0.878525 0.044277
O O1 0.192201 0.879295 0.342021
O O2 0.304320 0.896253 0.531529
O O3 0.069122 0.871567 0.532511
O O4 0.146550 0.050492 0.472670
O O5 0.356584 0.520033 0.244736
O O6 0.533422 0.403243 0.304407
O O7 0.535548 0.573766 0.145863
O O8 0.448308 0.391021 0.083180
O O9 0.665914 0.250000 0.755504
O O10 0.781171 0.382357 0.892043
O O11 0.902849 0.552785 0.934869
O O12 0.887544 0.404699 0.098774
O O13 0.715402 0.535335 0.039647
O O14 0.036283 0.250000 0.141373
O O15 0.030429 0.420648 0.278808
O O16 0.097514 0.250000 0.398942
O O17 0.531909 0.250000 0.470971
O O18 0.500000 0.000000 0.500000
O O19 0.645169 0.750000 0.062736
#
# Coordination Sequence:
#
# PCOD9163497 Si02
#       8
#     4   4   4   4   4   4   4   4
#     4  11  23  41  63  91 124 164 210 259 317 375
#     4  10  23  40  62  92 122 164 208 254 311 384
#     4  11  20  37  60  87 122 163 204 251 309 376
#     4  10  21  35  57  89 116 155 199 250 308 370
#     4  10  20  37  58  83 116 152 196 250 307 369
#     4  10  22  41  65  89 120 163 210 263 316 378
#     4  12  26  44  68  98 133 173 218 269 323 386
#     4  10  21  40  63  88 123 160 203 258 314 374
#
# _framework density 19.738195000000001
#
# number of rings (size 3 to 8) (size 9 to 14) (size 15 to 20)
#    0.000    1.500    2.500    2.625    1.750    1.000 
#    0.000    1.250    0.000    0.000    0.000    0.000 
#    0.000    0.000    0.000    0.000    0.000    0.000 
#
# Total GULP energy -178290.570360 kJ/mol
# GULP energy per Si atom -5571.580324 kJ/mol
# Density = 1.969327 g / cm^3
# Si number density = 19.738195 Si / 1000 Ang^3
#
#
#
# Elastic Constant Matrix: (Units=GPa)
#
#
# Indices 1 2 3 4 5 6 
#
# 1 50.2358 19.8916 7.5061 0.0000 1.5930 0.0000
# 2 19.8916 99.9696 19.3902 0.0000 9.6904 0.0000
# 3 7.5061 19.3902 44.3110 0.0000 0.8278 0.0000
# 4 0.0000 0.0000 0.0000 16.2522 0.0000 2.5344
# 5 1.5930 9.6904 0.8278 0.0000 24.7777 0.0000
# 6 0.0000 0.0000 0.0000 2.5344 0.0000 3.2186
#
#
#
# Elastic Compliance Matrix: (Units=1/GPa)
#
#
# Indices 1 2 3 4 5 6 
#
# 1 0.021764 -0.003973 -0.001952 0.000000 0.000220 0.000000
# 2 -0.003973 0.012093 -0.004538 0.000000 -0.004322 0.000000
# 3 -0.001952 -0.004538 0.024864 0.000000 0.001070 0.000000
# 4 0.000000 0.000000 0.000000 0.070144 0.000000 -0.055234
# 5 0.000220 -0.004322 0.001070 0.000000 0.041999 0.000000
# 6 0.000000 0.000000 0.000000 -0.055234 0.000000 0.354188
#
#
# Mechanical properties :
#
#
# Convention : Reuss Voigt Hill
#
# Bulk Modulus (GPa) = 26.45893 32.01025 29.23459
# Shear Modulus (GPa) = 8.95131 18.69827 13.82479
#
# Velocity S-wave (km/s) = 2.13187 3.08119 2.64939
# Velocity P-wave (km/s) = 4.41519 5.37689 4.91959
#
# Compressibility (1/GPa) = 0.03779442
#
# Stress axis : x y z
#
# Youngs Moduli (GPa) = 45.94726 82.69404 40.21843
#
# Poissons Ratio (x) = 0.32856 0.07852
# Poissons Ratio (y) = 0.18256 0.18251
# Poissons Ratio (z) = 0.08970 0.37526
#
# Static dielectric constant tensor:
#      x y z
#    x 1.716510 0.000000 0.005110 
#    y 0.000000 1.717860 0.000000 
#    z 0.005110 0.000000 1.693020 
# 
# From -- ./inp_files/34811.got.cif
#   From: 2010.05.17/outbox.cif.g08.bks.cpg/sg11_18_cif.got.tgz:34811.got - 2010.06.03 12:22:45.
