data_PCOD9163564
_publ_section_title
;
Structure prediction by ZEFSAII (Michael W. Deem and Ramdas Pophale) SiO2 
 PCOD9163564
Probable space group: P 21/M
;
_chemical_formula_sum "Si O2"
_cell_formula_units_Z 28
_cell_length_a 14.496428
_cell_length_b 20.729058
_cell_length_c 8.948216
_cell_angle_alpha 90.000000
_cell_angle_beta 149.938314
_cell_angle_gamma 90.000000
_cell_volume 1346.963680
_symmetry_space_group_name_H-M "P 21/M"
_symmetry_group_IT_number 11
_symmetry_cell_setting 'monoclinic'
loop_
_space_group_symop_operation_xyz
x,y,z
-x,1/2+y,-z
-x,-y,-z
x,1/2-y,z
loop_
_atom_site_type_symbol
_atom_site_label
_atom_site_fract_x
_atom_site_fract_y
_atom_site_fract_z
Si Si1 0.209428 0.990981 0.743521
Si Si2 0.207675 0.323255 0.919173
Si Si3 0.617633 0.677200 0.167356
Si Si4 0.434257 0.061212 0.311251
Si Si5 0.805197 0.563598 0.585905
Si Si6 0.799353 0.138839 0.411358
Si Si7 0.185142 0.570191 0.252244
O O1 0.244233 0.915909 0.772058
O O2 0.232183 0.024048 0.616358
O O3 0.000000 0.000000 0.500000
O O4 0.345196 0.025321 0.045577
O O5 0.265521 0.250000 0.039094
O O6 0.281981 0.336114 0.853003
O O7 0.985500 0.326434 0.618908
O O8 0.289871 0.380706 0.139023
O O9 0.668087 0.750000 0.280095
O O10 0.684301 0.626929 0.388037
O O11 0.396079 0.673302 0.837558
O O12 0.623466 0.097002 0.537969
O O13 0.500000 0.000000 0.500000
O O14 0.785572 0.507599 0.684187
O O15 0.018292 0.582114 0.906176
O O16 0.851953 0.102542 0.639913
#
# Coordination Sequence:
#
# PCOD9163564 Si02
#       7
#     4   4   4   4   4   4   4
#     4  11  19  35  61  93 127 159 203 269 322 366
#     4  11  24  42  63  91 127 166 211 263 320 385
#     4  11  22  41  65  89 125 171 214 255 314 390
#     4  12  23  38  63  97 128 167 214 267 321 381
#     4  10  20  37  59  92 128 157 208 261 318 367
#     4  11  21  40  66  92 122 167 215 255 315 384
#     4  10  22  36  64  94 126 164 207 268 317 372
#
# _framework density 20.787496000000001
#
# number of rings (size 3 to 8) (size 9 to 14) (size 15 to 20)
#    0.000    1.143    4.286    2.143    4.000    2.286 
#    0.000    2.143    0.000    0.857    0.000    0.000 
#    0.000    0.000    0.000    0.000    0.000    0.000 
#
# Total GULP energy -156098.934009 kJ/mol
# GULP energy per Si atom -5574.961929 kJ/mol
# Density = 2.074018 g / cm^3
# Si number density = 20.787496 Si / 1000 Ang^3
#
#
#
# Elastic Constant Matrix: (Units=GPa)
#
#
# Indices 1 2 3 4 5 6 
#
# 1 60.2638 16.3250 27.1990 0.0000 28.9192 0.0000
# 2 16.3250 121.2420 36.4537 0.0000 -3.2777 0.0000
# 3 27.1990 36.4537 140.6487 0.0000 12.6976 0.0000
# 4 0.0000 0.0000 0.0000 19.5293 0.0000 -1.9369
# 5 28.9192 -3.2777 12.6976 0.0000 36.7435 0.0000
# 6 0.0000 0.0000 0.0000 -1.9369 0.0000 14.3006
#
#
#
# Elastic Compliance Matrix: (Units=1/GPa)
#
#
# Indices 1 2 3 4 5 6 
#
# 1 0.029835 -0.003820 -0.002713 0.000000 -0.022885 0.000000
# 2 -0.003820 0.009532 -0.002147 0.000000 0.004599 0.000000
# 3 -0.002713 -0.002147 0.008274 0.000000 -0.000915 0.000000
# 4 0.000000 0.000000 0.000000 0.051902 0.000000 0.007030
# 5 -0.022885 0.004599 -0.000915 0.000000 0.045954 0.000000
# 6 0.000000 0.000000 0.000000 0.007030 0.000000 0.070879
#
#
# Mechanical properties :
#
#
# Convention : Reuss Voigt Hill
#
# Bulk Modulus (GPa) = 33.02505 53.56777 43.29641
# Shear Modulus (GPa) = 20.50596 30.25980 25.38288
#
# Velocity S-wave (km/s) = 3.14420 3.81947 3.49816
# Velocity P-wave (km/s) = 5.39470 6.72877 6.09832
#
# Compressibility (1/GPa) = 0.03028004
#
# Stress axis : x y z
#
# Youngs Moduli (GPa) = 33.51733 104.90747 120.86441
#
# Poissons Ratio (x) = 0.40076 0.32796
# Poissons Ratio (y) = 0.12804 0.25950
# Poissons Ratio (z) = 0.09095 0.22524
#
# Static dielectric constant tensor:
#      x y z
#    x 1.863880 0.000000 0.086550 
#    y 0.000000 1.760680 0.000000 
#    z 0.086550 0.000000 1.768740 
# 
# From -- ./inp_files/23229.got.cif
#   From: 2010.05.17/outbox.cif.g08.bks.cpg/sg11_12_cif.got.tgz:23229.got - 2010.06.03 12:22:45.
