data_PCOD9163543
_publ_section_title
;
Structure prediction by ZEFSAII (Michael W. Deem and Ramdas Pophale) SiO2 
 PCOD9163543
Probable space group: P 21/M
;
_chemical_formula_sum "Si O2"
_cell_formula_units_Z 28
_cell_length_a 11.980884
_cell_length_b 9.293013
_cell_length_c 15.872004
_cell_angle_alpha 90.000000
_cell_angle_beta 122.382766
_cell_angle_gamma 90.000000
_cell_volume 1492.351751
_symmetry_space_group_name_H-M "P 21/M"
_symmetry_group_IT_number 11
_symmetry_cell_setting 'monoclinic'
loop_
_space_group_symop_operation_xyz
x,y,z
-x,1/2+y,-z
-x,-y,-z
x,1/2-y,z
loop_
_atom_site_type_symbol
_atom_site_label
_atom_site_fract_x
_atom_site_fract_y
_atom_site_fract_z
Si Si1 0.578183 0.077586 0.605913
Si Si2 0.085120 0.078929 0.461676
Si Si3 0.323656 0.081314 0.975003
Si Si4 0.887233 0.076546 0.703016
Si Si5 0.386328 0.579617 0.838321
Si Si6 0.370048 0.419007 0.659137
Si Si7 0.044501 0.080196 0.935027
O O1 0.563845 0.250000 0.591306
O O2 0.733341 0.044373 0.661635
O O3 0.501824 0.037919 0.661157
O O4 0.500000 0.000000 0.500000
O O5 0.054483 0.250000 0.446915
O O6 0.240205 0.063489 0.548877
O O7 0.068241 0.004899 0.363686
O O8 0.000000 0.000000 0.500000
O O9 0.328204 0.250000 0.953053
O O10 0.199869 0.058345 0.984528
O O11 0.308387 0.989394 0.884464
O O12 0.460444 0.046629 0.076865
O O13 0.899839 0.250000 0.695307
O O14 0.971603 0.035252 0.819301
O O15 0.368631 0.750000 0.828399
O O16 0.352166 0.509328 0.736099
O O17 0.380499 0.250000 0.684929
O O18 0.018139 0.250000 0.933881
O O19 0.000000 0.000000 0.000000
#
# Coordination Sequence:
#
# PCOD9163543 Si02
#       7
#     4   4   4   4   4   4   4
#     4  10  20  37  59  84 114 148 190 235 282 338
#     4  11  24  41  61  87 121 158 197 240 292 353
#     4   9  20  40  59  81 117 153 188 237 296 347
#     4  10  22  40  62  88 118 155 197 243 292 348
#     4  10  21  36  59  88 113 147 194 242 286 339
#     4  10  22  38  58  85 118 154 187 232 293 347
#     4  10  23  41  61  86 117 154 195 238 291 348
#
# _framework density 18.762332000000001
#
# number of rings (size 3 to 8) (size 9 to 14) (size 15 to 20)
#    0.000    2.000    1.429    0.857    4.000    3.429 
#    0.000    0.000    0.000    0.000    0.000    0.000 
#    0.000    0.000    0.000    0.000    0.000    0.000 
#
# Total GULP energy -156355.612806 kJ/mol
# GULP energy per Si atom -5584.129029 kJ/mol
# Density = 1.871963 g / cm^3
# Si number density = 18.762332 Si / 1000 Ang^3
#
#
#
# Elastic Constant Matrix: (Units=GPa)
#
#
# Indices 1 2 3 4 5 6 
#
# 1 73.6285 46.8595 37.6715 0.0000 -17.8297 0.0000
# 2 46.8595 45.7583 47.8476 0.0000 -19.2265 0.0000
# 3 37.6715 47.8476 90.1969 0.0000 -31.2922 0.0000
# 4 0.0000 0.0000 0.0000 35.6107 0.0000 -8.4269
# 5 -17.8297 -19.2265 -31.2922 0.0000 29.6954 0.0000
# 6 0.0000 0.0000 0.0000 -8.4269 0.0000 30.0095
#
#
#
# Elastic Compliance Matrix: (Units=1/GPa)
#
#
# Indices 1 2 3 4 5 6 
#
# 1 0.044731 -0.058595 0.013488 0.000000 0.003133 0.000000
# 2 -0.058595 0.126732 -0.041762 0.000000 0.002864 0.000000
# 3 0.013488 -0.041762 0.033159 0.000000 0.016001 0.000000
# 4 0.000000 0.000000 0.000000 0.030080 0.000000 0.008447
# 5 0.003133 0.002864 0.016001 0.000000 0.054272 0.000000
# 6 0.000000 0.000000 0.000000 0.008447 0.000000 0.035695
#
#
# Mechanical properties :
#
#
# Convention : Reuss Voigt Hill
#
# Bulk Modulus (GPa) = 32.38044 52.70455 42.54249
# Shear Modulus (GPa) = 9.82892 24.21012 17.01952
#
# Velocity S-wave (km/s) = 2.29129 3.59605 3.01510
# Velocity P-wave (km/s) = 4.92907 6.73749 5.90294
#
# Compressibility (1/GPa) = 0.03088284
#
# Stress axis : x y z
#
# Youngs Moduli (GPa) = 22.35574 7.89066 30.15787
#
# Poissons Ratio (x) = 0.46236 -0.40678
# Poissons Ratio (y) = 1.30995 1.25947
# Poissons Ratio (z) = -0.30154 0.32953
#
# Static dielectric constant tensor:
#      x y z
#    x 1.652920 0.000000 0.017600 
#    y 0.000000 1.628580 0.000000 
#    z 0.017600 0.000000 1.636820 
# 
# From -- ./inp_files/37470.got.cif
#   From: 2010.05.17/outbox.cif.g08.bks.cpg/sg11_19_cif.got.tgz:37470.got - 2010.06.03 12:22:45.
