data_PCOD9163749
_publ_section_title
;
Structure prediction by ZEFSAII (Michael W. Deem and Ramdas Pophale) SiO2 
 PCOD9163749
Probable space group: P 21/M
;
_chemical_formula_sum "Si O2"
_cell_formula_units_Z 30
_cell_length_a 10.182346
_cell_length_b 9.340913
_cell_length_c 16.628963
_cell_angle_alpha 90.000000
_cell_angle_beta 73.549056
_cell_angle_gamma 90.000000
_cell_volume 1516.873203
_symmetry_space_group_name_H-M "P 21/M"
_symmetry_group_IT_number 11
_symmetry_cell_setting 'monoclinic'
loop_
_space_group_symop_operation_xyz
x,y,z
-x,1/2+y,-z
-x,-y,-z
x,1/2-y,z
loop_
_atom_site_type_symbol
_atom_site_label
_atom_site_fract_x
_atom_site_fract_y
_atom_site_fract_z
Si Si1 0.354733 0.077768 0.013387
Si Si2 0.179844 0.423182 0.201042
Si Si3 0.686374 0.416872 0.139359
Si Si4 0.053558 0.250000 0.470256
Si Si5 0.568817 0.087983 0.559907
Si Si6 0.854862 0.479754 0.441067
Si Si7 0.864456 0.076395 0.263556
Si Si8 0.405826 0.082889 0.282667
O O1 0.371285 0.250000 0.008684
O O2 0.295515 0.017437 0.940293
O O3 0.257840 0.039449 0.105329
O O4 0.500000 0.000000 0.000000
O O5 0.181993 0.250000 0.205271
O O6 0.269686 0.472451 0.261698
O O7 0.022737 0.467619 0.227371
O O8 0.716129 0.250000 0.114080
O O9 0.778809 0.460330 0.199242
O O10 0.529198 0.421305 0.197305
O O11 0.984911 0.374950 0.424228
O O12 0.109928 0.374012 0.521761
O O13 0.516664 0.250000 0.572161
O O14 0.730456 0.089826 0.511895
O O15 0.500000 0.000000 0.500000
O O16 0.554228 0.006488 0.646550
O O17 0.811493 0.490225 0.355662
O O18 0.854777 0.250000 0.272816
O O19 0.383692 0.250000 0.310473
#
# Coordination Sequence:
#
# PCOD9163749 Si02
#       8
#     4   4   4   2   4   4   4   4
#     4  11  21  39  64  91 121 156 201 249 305 366
#     4   9  20  35  60  93 118 154 198 248 299 364
#     4  10  21  40  63  89 120 165 201 243 305 374
#     4  10  24  38  64  90 118 160 212 258 312 366
#     4  12  26  41  60  90 126 164 212 259 310 370
#     4  11  23  42  64  91 121 167 210 259 311 372
#     4  10  20  37  62  88 124 161 202 245 303 368
#     4  10  21  38  62  86 119 160 210 253 307 365
#
# _framework density 19.777525000000001
#
# number of rings (size 3 to 8) (size 9 to 14) (size 15 to 20)
#    0.000    1.600    2.667    1.600    5.600    2.133 
#    1.200    0.000    2.933    0.000    0.000    0.000 
#    0.000    0.000    0.000    0.000    0.000    0.000 
#
# Total GULP energy -167110.777509 kJ/mol
# GULP energy per Si atom -5570.359250 kJ/mol
# Density = 1.973251 g / cm^3
# Si number density = 19.777525 Si / 1000 Ang^3
#
#
#
# Elastic Constant Matrix: (Units=GPa)
#
#
# Indices 1 2 3 4 5 6 
#
# 1 64.4591 15.5013 5.9852 0.0000 22.1709 0.0000
# 2 15.5013 86.4714 28.8268 0.0000 18.6416 0.0000
# 3 5.9852 28.8268 76.8717 0.0000 21.2122 0.0000
# 4 0.0000 0.0000 0.0000 26.4210 0.0000 13.2183
# 5 22.1709 18.6416 21.2122 0.0000 41.0220 0.0000
# 6 0.0000 0.0000 0.0000 13.2183 0.0000 22.1255
#
#
#
# Elastic Compliance Matrix: (Units=1/GPa)
#
#
# Indices 1 2 3 4 5 6 
#
# 1 0.019478 -0.001889 0.002169 0.000000 -0.010791 0.000000
# 2 -0.001889 0.013993 -0.004231 0.000000 -0.003150 0.000000
# 3 0.002169 -0.004231 0.016586 0.000000 -0.007826 0.000000
# 4 0.000000 0.000000 0.000000 0.053984 0.000000 -0.032251
# 5 -0.010791 -0.003150 -0.007826 0.000000 0.035688 0.000000
# 6 0.000000 0.000000 0.000000 -0.032251 0.000000 0.064465
#
#
# Mechanical properties :
#
#
# Convention : Reuss Voigt Hill
#
# Bulk Modulus (GPa) = 23.72140 36.49209 30.10675
# Shear Modulus (GPa) = 22.10967 29.74628 25.92797
#
# Velocity S-wave (km/s) = 3.34716 3.88241 3.62468
# Velocity P-wave (km/s) = 5.19212 6.21199 5.72481
#
# Compressibility (1/GPa) = 0.04215603
#
# Stress axis : x y z
#
# Youngs Moduli (GPa) = 51.34017 71.46605 60.29186
#
# Poissons Ratio (x) = 0.13497 -0.13079
# Poissons Ratio (y) = 0.09696 0.25509
# Poissons Ratio (z) = -0.11137 0.30237
#
# Static dielectric constant tensor:
#      x y z
#    x 1.740270 0.000000 -0.015740 
#    y 0.000000 1.653130 0.000000 
#    z -0.015740 0.000000 1.689290 
# 
# From -- ./inp_files/49278.got.cif
#   From: 2010.05.17/outbox.cif.g08.bks.cpg/sg11_25_cif.got.tgz:49278.got - 2010.06.03 12:22:45.
