data_PCOD9163750
_publ_section_title
;
Structure prediction by ZEFSAII (Michael W. Deem and Ramdas Pophale) SiO2 
 PCOD9163750
Probable space group: P 21/M
;
_chemical_formula_sum "Si O2"
_cell_formula_units_Z 32
_cell_length_a 17.074319
_cell_length_b 18.211094
_cell_length_c 12.733293
_cell_angle_alpha 90.000000
_cell_angle_beta 25.572696
_cell_angle_gamma 90.000000
_cell_volume 1709.062234
_symmetry_space_group_name_H-M "P 21/M"
_symmetry_group_IT_number 11
_symmetry_cell_setting 'monoclinic'
loop_
_space_group_symop_operation_xyz
x,y,z
-x,1/2+y,-z
-x,-y,-z
x,1/2-y,z
loop_
_atom_site_type_symbol
_atom_site_label
_atom_site_fract_x
_atom_site_fract_y
_atom_site_fract_z
Si Si1 0.806151 0.591319 0.868267
Si Si2 0.185405 0.837754 0.347061
Si Si3 0.296848 0.585940 0.770251
Si Si4 0.179017 0.917527 0.146061
Si Si5 0.706643 0.910581 0.228572
Si Si6 0.534576 0.663141 0.038717
Si Si7 0.925224 0.662617 0.152785
Si Si8 0.181411 0.336395 0.485973
O O1 0.827788 0.504228 0.826218
O O2 0.636427 0.619134 0.005690
O O3 0.985743 0.632777 0.612694
O O4 0.776910 0.605376 0.026821
O O5 0.183965 0.750000 0.337032
O O6 0.250312 0.874872 0.160755
O O7 0.326849 0.857112 0.267924
O O8 0.279200 0.498625 0.771378
O O9 0.494093 0.610002 0.492355
O O10 0.288082 0.596365 0.906844
O O11 0.124092 0.627207 0.930066
O O12 0.978475 0.886145 0.366646
O O13 0.822818 0.870953 0.177321
O O14 0.545025 0.750000 0.050153
O O15 0.642831 0.651962 0.798068
O O16 0.943492 0.750000 0.119190
O O17 0.811909 0.648367 0.397731
O O18 0.130824 0.250000 0.535945
#
# Coordination Sequence:
#
# PCOD9163750 Si02
#       8
#     4   4   4   4   4   4   4   4
#     4  11  23  40  57  86 121 152 192 238 286 344
#     4  11  23  38  59  84 114 156 193 232 292 350
#     4   9  21  41  61  86 118 154 195 244 292 338
#     4  10  20  37  62  89 114 149 195 244 289 339
#     4  10  22  40  62  84 116 162 198 231 290 355
#     4  10  22  38  57  82 115 156 192 233 291 346
#     4  10  21  36  59  90 118 149 194 246 291 340
#     4   9  18  36  58  84 119 150 185 242 295 335
#
# _framework density 18.723718999999999
#
# number of rings (size 3 to 8) (size 9 to 14) (size 15 to 20)
#    0.000    2.000    1.250    1.500    1.750    3.500 
#    0.000    3.750    0.000    0.000    0.000    0.000 
#    0.000    0.000    0.000    0.000    0.000    0.000 
#
# Total GULP energy -178681.047729 kJ/mol
# GULP energy per Si atom -5583.782742 kJ/mol
# Density = 1.868110 g / cm^3
# Si number density = 18.723719 Si / 1000 Ang^3
#
#
#
# Elastic Constant Matrix: (Units=GPa)
#
#
# Indices 1 2 3 4 5 6 
#
# 1 147.4565 66.9709 33.7208 0.0000 -5.5496 0.0000
# 2 66.9709 56.6480 27.7057 0.0000 2.6957 0.0000
# 3 33.7208 27.7057 48.9337 0.0000 8.4748 0.0000
# 4 0.0000 0.0000 0.0000 22.6213 0.0000 -9.3484
# 5 -5.5496 2.6957 8.4748 0.0000 22.0530 0.0000
# 6 0.0000 0.0000 0.0000 -9.3484 0.0000 44.7952
#
#
#
# Elastic Compliance Matrix: (Units=1/GPa)
#
#
# Indices 1 2 3 4 5 6 
#
# 1 0.015538 -0.017814 -0.001795 0.000000 0.006777 0.000000
# 2 -0.017814 0.044965 -0.012272 0.000000 -0.005263 0.000000
# 3 -0.001795 -0.012272 0.030467 0.000000 -0.010660 0.000000
# 4 0.000000 0.000000 0.000000 0.048378 0.000000 0.010096
# 5 0.006777 -0.005263 -0.010660 0.000000 0.051791 0.000000
# 6 0.000000 0.000000 0.000000 0.010096 0.000000 0.024431
#
#
# Mechanical properties :
#
#
# Convention : Reuss Voigt Hill
#
# Bulk Modulus (GPa) = 36.75227 56.64813 46.70020
# Shear Modulus (GPa) = 17.33698 26.20328 21.77013
#
# Velocity S-wave (km/s) = 3.04622 3.74501 3.41354
# Velocity P-wave (km/s) = 5.66074 7.00147 6.36649
#
# Compressibility (1/GPa) = 0.02720920
#
# Stress axis : x y z
#
# Youngs Moduli (GPa) = 64.35910 22.23941 32.82230
#
# Poissons Ratio (x) = 0.39617 0.05892
# Poissons Ratio (y) = 1.14648 0.40278
# Poissons Ratio (z) = 0.11553 0.27291
#
# Static dielectric constant tensor:
#      x y z
#    x 1.631940 0.000000 0.013020 
#    y 0.000000 1.622170 0.000000 
#    z 0.013020 0.000000 1.647560 
# 
# From -- ./inp_files/39951.got.cif
#   From: 2010.05.17/outbox.cif.g08.bks.cpg/sg11_20_cif.got.tgz:39951.got - 2010.06.03 12:22:45.
