data_PCOD9163231
_publ_section_title
;
Structure prediction by ZEFSAII (Michael W. Deem and Ramdas Pophale) SiO2 
 PCOD9163231
Probable space group: P 21/M
;
_chemical_formula_sum "Si O2"
_cell_formula_units_Z 30
_cell_length_a 11.479716
_cell_length_b 14.795728
_cell_length_c 9.048680
_cell_angle_alpha 90.000000
_cell_angle_beta 106.748016
_cell_angle_gamma 90.000000
_cell_volume 1471.730829
_symmetry_space_group_name_H-M "P 21/M"
_symmetry_group_IT_number 11
_symmetry_cell_setting 'monoclinic'
loop_
_space_group_symop_operation_xyz
x,y,z
-x,1/2+y,-z
-x,-y,-z
x,1/2-y,z
loop_
_atom_site_type_symbol
_atom_site_label
_atom_site_fract_x
_atom_site_fract_y
_atom_site_fract_z
Si Si1 0.516725 0.925026 0.377363
Si Si2 0.889634 0.435706 0.510857
Si Si3 0.669217 0.750000 0.535407
Si Si4 0.709059 0.043685 0.895233
Si Si5 0.962516 0.145498 0.028209
Si Si6 0.181006 0.419022 0.284660
Si Si7 0.284696 0.505017 0.772178
Si Si8 0.911581 0.651726 0.242381
O O1 0.572474 0.831605 0.456183
O O2 0.390819 0.910253 0.244120
O O3 0.608824 0.969049 0.292194
O O4 0.500000 0.000000 0.500000
O O5 0.818222 0.495713 0.605461
O O6 0.795390 0.419637 0.344069
O O7 0.000000 0.500000 0.500000
O O8 0.965448 0.357141 0.615987
O O9 0.767559 0.829874 0.621412
O O10 0.738681 0.947720 0.827513
O O11 0.836951 0.095911 0.949975
O O12 0.669498 0.033353 0.050352
O O13 0.942811 0.250000 0.060273
O O14 0.042694 0.096146 0.181290
O O15 0.043430 0.143147 0.909094
O O16 0.187427 0.423906 0.759175
O O17 0.855353 0.750000 0.248762
#
# Coordination Sequence:
#
# PCOD9163231 Si02
#       8
#     4   4   2   4   4   4   4   4
#     4  12  27  48  73  98 133 183 236 281 343 411
#     4  10  20  36  59  94 131 177 214 275 337 390
#     4  12  26  46  74  98 126 180 234 284 326 416
#     4  12  24  44  69  98 139 181 219 280 352 405
#     4  11  22  37  66 107 139 175 220 280 342 407
#     4  12  21  43  70  96 132 174 229 275 334 407
#     4  11  23  42  67  95 132 179 233 281 337 402
#     4  10  21  36  63 104 139 173 226 282 339 400
#
# _framework density 20.384163000000001
#
# number of rings (size 3 to 8) (size 9 to 14) (size 15 to 20)
#    0.000    0.800    6.000    2.400    1.867    0.000 
#    0.000    0.667    1.467    0.000    0.000    0.000 
#    0.000    0.000    0.000    0.000    0.000    0.000 
#
# Total GULP energy -167091.142561 kJ/mol
# GULP energy per Si atom -5569.704752 kJ/mol
# Density = 2.033777 g / cm^3
# Si number density = 20.384163 Si / 1000 Ang^3
#
#
#
# Elastic Constant Matrix: (Units=GPa)
#
#
# Indices 1 2 3 4 5 6 
#
# 1 76.1710 9.5475 35.1961 0.0000 14.9481 0.0000
# 2 9.5475 36.8343 16.5481 0.0000 3.5072 0.0000
# 3 35.1961 16.5481 109.5029 0.0000 21.7669 0.0000
# 4 0.0000 0.0000 0.0000 23.7344 0.0000 13.3772
# 5 14.9481 3.5072 21.7669 0.0000 52.3822 0.0000
# 6 0.0000 0.0000 0.0000 13.3772 0.0000 26.4103
#
#
#
# Elastic Compliance Matrix: (Units=1/GPa)
#
#
# Indices 1 2 3 4 5 6 
#
# 1 0.015865 -0.001937 -0.004286 0.000000 -0.002617 0.000000
# 2 -0.001937 0.029363 -0.003852 0.000000 0.000188 0.000000
# 3 -0.004286 -0.003852 0.011770 0.000000 -0.003410 0.000000
# 4 0.000000 0.000000 0.000000 0.058967 0.000000 -0.029868
# 5 -0.002617 0.000188 -0.003410 0.000000 0.021241 0.000000
# 6 0.000000 0.000000 0.000000 -0.029868 0.000000 0.052992
#
#
# Mechanical properties :
#
#
# Convention : Reuss Voigt Hill
#
# Bulk Modulus (GPa) = 27.13940 38.34352 32.74146
# Shear Modulus (GPa) = 22.45847 31.25315 26.85581
#
# Velocity S-wave (km/s) = 3.32288 3.91987 3.63365
# Velocity P-wave (km/s) = 5.29763 6.27204 5.80531
#
# Compressibility (1/GPa) = 0.03684679
#
# Stress axis : x y z
#
# Youngs Moduli (GPa) = 63.03053 34.05596 84.96315
#
# Poissons Ratio (x) = 0.06598 0.36419
# Poissons Ratio (y) = 0.12212 0.32727
# Poissons Ratio (z) = 0.27018 0.13118
#
# Static dielectric constant tensor:
#      x y z
#    x 1.741840 0.000000 -0.020730 
#    y 0.000000 1.706520 0.000000 
#    z -0.020730 0.000000 1.802910 
# 
# From -- ./inp_files/18104.got.cif
#   From: 2010.05.17/outbox.cif.g08.bks.cpg/sg11_10_cif.got.tgz:18104.got - 2010.06.03 12:22:45.
