data_PCOD9163677
_publ_section_title
;
Structure prediction by ZEFSAII (Michael W. Deem and Ramdas Pophale) SiO2 
 PCOD9163677
Probable space group: P 21/M
;
_chemical_formula_sum "Si O2"
_cell_formula_units_Z 20
_cell_length_a 9.407183
_cell_length_b 14.585065
_cell_length_c 7.524076
_cell_angle_alpha 90.000000
_cell_angle_beta 48.604447
_cell_angle_gamma 90.000000
_cell_volume 774.419758
_symmetry_space_group_name_H-M "P 21/M"
_symmetry_group_IT_number 11
_symmetry_cell_setting 'monoclinic'
loop_
_space_group_symop_operation_xyz
x,y,z
-x,1/2+y,-z
-x,-y,-z
x,1/2-y,z
loop_
_atom_site_type_symbol
_atom_site_label
_atom_site_fract_x
_atom_site_fract_y
_atom_site_fract_z
Si Si1 0.119037 0.404857 0.421884
Si Si2 0.728866 0.149542 0.875246
Si Si3 0.160777 0.858205 0.828856
Si Si4 0.745448 0.643599 0.085342
Si Si5 0.614261 0.469001 0.645090
O O1 0.189792 0.368535 0.173973
O O2 0.301000 0.429944 0.392298
O O3 0.000000 0.500000 0.500000
O O4 0.952036 0.344832 0.641490
O O5 0.642652 0.250000 0.921888
O O6 0.630781 0.078386 0.826265
O O7 0.182064 0.750000 0.769595
O O8 0.238589 0.917293 0.604314
O O9 0.270098 0.877245 0.920376
O O10 0.937214 0.874752 0.035531
O O11 0.684283 0.750000 0.164475
O O12 0.587127 0.567774 0.257159
#
# Coordination Sequence:
#
# PCOD9163677 Si02
#       5
#     4   4   4   4   4
#     4  10  20  37  61  86 117 157 192 237 293 349
#     4  10  20  38  62  86 117 158 197 238 289 345
#     4  10  21  38  60  86 117 155 197 239 288 344
#     4  11  21  38  64  86 115 157 195 239 291 345
#     4  11  22  40  60  88 119 153 193 244 293 341
#
# _framework density 25.825786000000001
#
# number of rings (size 3 to 8) (size 9 to 14) (size 15 to 20)
#    0.000    1.600    4.000    3.000    0.000    0.800 
#    3.600    1.000    0.000    0.000    0.000    0.000 
#    0.000    0.000    0.000    0.000    0.000    0.000 
#
# Total GULP energy -112009.213587 kJ/mol
# GULP energy per Si atom -5600.460679 kJ/mol
# Density = 2.576701 g / cm^3
# Si number density = 25.825786 Si / 1000 Ang^3
#
#
#
# Elastic Constant Matrix: (Units=GPa)
#
#
# Indices 1 2 3 4 5 6 
#
# 1 87.7433 8.6859 0.7363 0.0000 -5.0426 0.0000
# 2 8.6859 102.1387 7.2511 0.0000 -11.8841 0.0000
# 3 0.7363 7.2511 55.9414 0.0000 -13.9535 0.0000
# 4 0.0000 0.0000 0.0000 29.4779 0.0000 -3.1436
# 5 -5.0426 -11.8841 -13.9535 0.0000 42.0754 0.0000
# 6 0.0000 0.0000 0.0000 -3.1436 0.0000 30.5686
#
#
#
# Elastic Compliance Matrix: (Units=1/GPa)
#
#
# Indices 1 2 3 4 5 6 
#
# 1 0.011550 -0.000858 0.000266 0.000000 0.001230 0.000000
# 2 -0.000858 0.010209 -0.000674 0.000000 0.002557 0.000000
# 3 0.000266 -0.000674 0.019536 0.000000 0.006320 0.000000
# 4 0.000000 0.000000 0.000000 0.034300 0.000000 0.003527
# 5 0.001230 0.002557 0.006320 0.000000 0.026733 0.000000
# 6 0.000000 0.000000 0.000000 0.003527 0.000000 0.033076
#
#
# Mechanical properties :
#
#
# Convention : Reuss Voigt Hill
#
# Bulk Modulus (GPa) = 25.79770 31.01890 28.40830
# Shear Modulus (GPa) = 33.14391 35.70104 34.42247
#
# Velocity S-wave (km/s) = 3.58629 3.72207 3.65481
# Velocity P-wave (km/s) = 5.21148 5.52346 5.36974
#
# Compressibility (1/GPa) = 0.03876315
#
# Stress axis : x y z
#
# Youngs Moduli (GPa) = 86.57798 97.95314 51.18699
#
# Poissons Ratio (x) = 0.08404 -0.01362
# Poissons Ratio (y) = 0.07428 0.03451
# Poissons Ratio (z) = -0.02303 0.06604
#
# Static dielectric constant tensor:
#      x y z
#    x 2.068150 0.000000 -0.091650 
#    y 0.000000 1.953900 0.000000 
#    z -0.091650 0.000000 2.061490 
# 
# From -- ./inp_files/34589.got.cif
#   From: 2010.05.17/outbox.cif.g08.bks.cpg/sg11_18_cif.got.tgz:34589.got - 2010.06.03 12:22:45.
