data_PCOD9163598
_publ_section_title
;
Structure prediction by ZEFSAII (Michael W. Deem and Ramdas Pophale) SiO2 
 PCOD9163598
Probable space group: P 21/M
;
_chemical_formula_sum "Si O2"
_cell_formula_units_Z 32
_cell_length_a 9.389133
_cell_length_b 13.918689
_cell_length_c 12.299959
_cell_angle_alpha 90.000000
_cell_angle_beta 83.408113
_cell_angle_gamma 90.000000
_cell_volume 1596.786477
_symmetry_space_group_name_H-M "P 21/M"
_symmetry_group_IT_number 11
_symmetry_cell_setting 'monoclinic'
loop_
_space_group_symop_operation_xyz
x,y,z
-x,1/2+y,-z
-x,-y,-z
x,1/2-y,z
loop_
_atom_site_type_symbol
_atom_site_label
_atom_site_fract_x
_atom_site_fract_y
_atom_site_fract_z
Si Si1 0.426663 0.640142 0.008073
Si Si2 0.858588 0.484945 0.262963
Si Si3 0.186160 0.638377 0.528510
Si Si4 0.107970 0.359893 0.135628
Si Si5 0.118443 0.362572 0.556183
Si Si6 0.409727 0.354884 0.233317
Si Si7 0.712412 0.957765 0.056866
Si Si8 0.371477 0.016073 0.428720
O O1 0.386452 0.750000 0.040583
O O2 0.487006 0.642031 0.879271
O O3 0.309489 0.555694 0.012345
O O4 0.562845 0.600810 0.063957
O O5 0.790971 0.411889 0.357126
O O6 0.903144 0.575981 0.332509
O O7 0.756083 0.516781 0.174658
O O8 0.990575 0.429770 0.196020
O O9 0.218561 0.750000 0.530197
O O10 0.282424 0.582398 0.432871
O O11 0.020141 0.625064 0.508977
O O12 0.054695 0.250000 0.134669
O O13 0.248781 0.359979 0.199729
O O14 0.165740 0.395954 0.014289
O O15 0.135659 0.250000 0.576227
O O16 0.257344 0.406394 0.484821
O O17 0.427997 0.250000 0.285571
O O18 0.429595 0.442340 0.311993
O O19 0.500000 0.000000 0.500000
#
# Coordination Sequence:
#
# PCOD9163598 Si02
#       8
#     4   4   4   4   4   4   4   4
#     4   9  20  38  59  80 111 154 193 232 285 350
#     4  11  21  35  60  88 112 149 190 242 287 340
#     4  10  22  40  60  84 117 157 201 242 286 349
#     4  10  20  37  60  86 113 145 189 239 286 341
#     4  10  22  40  59  83 120 165 200 234 292 355
#     4   9  18  34  59  81 107 150 191 225 277 344
#     4  10  21  36  56  85 115 143 189 244 292 341
#     4  11  22  34  56  87 120 148 188 250 296 337
#
# _framework density 20.04025
#
# number of rings (size 3 to 8) (size 9 to 14) (size 15 to 20)
#    0.000    2.000    0.000    5.250    3.500    5.000 
#    0.000    0.625    0.000    4.500    0.000    0.000 
#    0.000    0.000    0.000    0.000    0.000    0.000 
#
# Total GULP energy -178751.173586 kJ/mol
# GULP energy per Si atom -5585.974175 kJ/mol
# Density = 1.999464 g / cm^3
# Si number density = 20.040250 Si / 1000 Ang^3
#
#
#
# Elastic Constant Matrix: (Units=GPa)
#
#
# Indices 1 2 3 4 5 6 
#
# 1 33.9118 16.0466 9.6264 0.0000 -4.7751 0.0000
# 2 16.0466 128.9237 34.3595 0.0000 8.3414 0.0000
# 3 9.6264 34.3595 63.2898 0.0000 10.4961 0.0000
# 4 0.0000 0.0000 0.0000 26.5133 0.0000 -2.9836
# 5 -4.7751 8.3414 10.4961 0.0000 15.5387 0.0000
# 6 0.0000 0.0000 0.0000 -2.9836 0.0000 -5.5916
#
#
#
# Elastic Compliance Matrix: (Units=1/GPa)
#
#
# Indices 1 2 3 4 5 6 
#
# 1 0.035480 -0.003892 -0.006124 0.000000 0.017130 0.000000
# 2 -0.003892 0.009537 -0.003985 0.000000 -0.003624 0.000000
# 3 -0.006124 -0.003985 0.021231 0.000000 -0.014084 0.000000
# 4 0.000000 0.000000 0.000000 0.035580 0.000000 -0.018985
# 5 0.017130 -0.003624 -0.014084 0.000000 0.081078 0.000000
# 6 0.000000 0.000000 0.000000 -0.018985 0.000000 -0.168709
#
#
# Mechanical properties :
#
#
# Convention : Reuss Voigt Hill
#
# Bulk Modulus (GPa) = 26.14637 38.46560 32.30599
# Shear Modulus (GPa) = 90.99309 18.36494 54.67902
#
# Velocity S-wave (km/s) = 6.74565 3.03050 5.22913
# Velocity P-wave (km/s) = 8.58760 5.61080 7.25355
#
# Compressibility (1/GPa) = 0.03824623
#
# Stress axis : x y z
#
# Youngs Moduli (GPa) = 28.18451 104.84999 47.10136
#
# Poissons Ratio (x) = 0.40810 0.28846
# Poissons Ratio (y) = 0.10970 0.18769
# Poissons Ratio (z) = 0.17261 0.41780
#
# Static dielectric constant tensor:
#      x y z
#    x 1.713910 0.000000 -0.003740 
#    y 0.000000 1.731440 0.000000 
#    z -0.003740 0.000000 1.702070 
# 
# From -- ./inp_files/31860.got.cif
#   From: 2010.05.17/outbox.cif.g08.bks.cpg/sg11_16_cif.got.tgz:31860.got - 2010.06.03 12:22:45.
