data_PCOD9163209
_publ_section_title
;
Structure prediction by ZEFSAII (Michael W. Deem and Ramdas Pophale) SiO2 
 PCOD9163209
Probable space group: P 21/M
;
_chemical_formula_sum "Si O2"
_cell_formula_units_Z 28
_cell_length_a 15.262086
_cell_length_b 8.214236
_cell_length_c 11.447986
_cell_angle_alpha 90.000000
_cell_angle_beta 113.338642
_cell_angle_gamma 90.000000
_cell_volume 1317.764214
_symmetry_space_group_name_H-M "P 21/M"
_symmetry_group_IT_number 11
_symmetry_cell_setting 'monoclinic'
loop_
_space_group_symop_operation_xyz
x,y,z
-x,1/2+y,-z
-x,-y,-z
x,1/2-y,z
loop_
_atom_site_type_symbol
_atom_site_label
_atom_site_fract_x
_atom_site_fract_y
_atom_site_fract_z
Si Si1 0.225559 0.936033 0.961773
Si Si2 0.880866 0.447812 0.543714
Si Si3 0.091055 0.059542 0.701854
Si Si4 0.101593 0.434547 0.093983
Si Si5 0.558649 0.946489 0.915869
Si Si6 0.745525 0.436886 0.662856
Si Si7 0.549238 0.561027 0.646144
O O1 0.219650 0.750000 0.001905
O O2 0.166328 0.953540 0.811950
O O3 0.170921 0.055871 0.019658
O O4 0.334710 0.986716 0.009941
O O5 0.881109 0.250000 0.531614
O O6 0.889299 0.532499 0.424035
O O7 0.783052 0.494519 0.556926
O O8 0.980286 0.488908 0.662467
O O9 0.101485 0.250000 0.737165
O O10 0.094191 0.250000 0.133979
O O11 0.156905 0.548511 0.213275
O O12 0.000000 0.500000 0.000000
O O13 0.559704 0.750000 0.913451
O O14 0.527359 0.003920 0.766880
O O15 0.500000 0.000000 0.000000
O O16 0.713812 0.250000 0.639193
O O17 0.661958 0.534585 0.681281
O O18 0.500000 0.500000 0.500000
O O19 0.525925 0.750000 0.639389
#
# Coordination Sequence:
#
# PCOD9163209 Si02
#       7
#     4   4   4   4   4   4   4
#     4  12  24  40  64  92 126 168 213 264 325 389
#     4   9  20  37  57  86 125 168 214 261 315 386
#     4  10  20  36  59  87 125 170 215 265 318 380
#     4  12  24  39  61  93 131 170 214 261 317 386
#     4  11  25  46  71  99 132 172 221 281 343 408
#     4  11  22  39  64  92 126 167 211 263 326 391
#     4  11  25  45  70  98 131 171 220 281 343 410
#
# _framework density 21.24811
#
# number of rings (size 3 to 8) (size 9 to 14) (size 15 to 20)
#    0.000    1.143    1.429    5.143    0.000    5.714 
#    0.000    1.429    0.000    0.000    0.000    0.000 
#    0.000    0.000    0.000    0.000    0.000    0.000 
#
# Total GULP energy -156327.631611 kJ/mol
# GULP energy per Si atom -5583.129700 kJ/mol
# Density = 2.119975 g / cm^3
# Si number density = 21.248110 Si / 1000 Ang^3
#
#
#
# Elastic Constant Matrix: (Units=GPa)
#
#
# Indices 1 2 3 4 5 6 
#
# 1 102.5741 4.9870 40.8775 0.0000 -20.3116 0.0000
# 2 4.9870 56.6468 7.8496 0.0000 -6.1241 0.0000
# 3 40.8775 7.8496 99.1117 0.0000 -13.4954 0.0000
# 4 0.0000 0.0000 0.0000 31.0769 0.0000 -3.3289
# 5 -20.3116 -6.1241 -13.4954 0.0000 23.1200 0.0000
# 6 0.0000 0.0000 0.0000 -3.3289 0.0000 20.4261
#
#
#
# Elastic Compliance Matrix: (Units=1/GPa)
#
#
# Indices 1 2 3 4 5 6 
#
# 1 0.013255 0.000424 -0.004236 0.000000 0.009285 0.000000
# 2 0.000424 0.018254 -0.000990 0.000000 0.004629 0.000000
# 3 -0.004236 -0.000990 0.012355 0.000000 0.003228 0.000000
# 4 0.000000 0.000000 0.000000 0.032750 0.000000 0.005337
# 5 0.009285 0.004629 0.003228 0.000000 0.054519 0.000000
# 6 0.000000 0.000000 0.000000 0.005337 0.000000 0.049827
#
#
# Mechanical properties :
#
#
# Convention : Reuss Voigt Hill
#
# Bulk Modulus (GPa) = 29.18995 40.64009 34.91502
# Shear Modulus (GPa) = 24.75439 28.56584 26.66012
#
# Velocity S-wave (km/s) = 3.41694 3.67058 3.54602
# Velocity P-wave (km/s) = 5.41616 6.09362 5.76485
#
# Compressibility (1/GPa) = 0.03425837
#
# Stress axis : x y z
#
# Youngs Moduli (GPa) = 75.44222 54.78366 80.94060
#
# Poissons Ratio (x) = -0.02322 0.34289
# Poissons Ratio (y) = -0.03198 0.08014
# Poissons Ratio (z) = 0.31960 0.05424
#
# Static dielectric constant tensor:
#      x y z
#    x 1.758890 0.000000 -0.054030 
#    y 0.000000 1.735820 0.000000 
#    z -0.054030 0.000000 1.721190 
# 
# From -- ./inp_files/38476.got.cif
#   From: 2010.05.17/outbox.cif.g08.bks.cpg/sg11_20_cif.got.tgz:38476.got - 2010.06.03 12:22:45.
