data_PCOD9163483
_publ_section_title
;
Structure prediction by ZEFSAII (Michael W. Deem and Ramdas Pophale) SiO2 
 PCOD9163483
Probable space group: P 21/M
;
_chemical_formula_sum "Si O2"
_cell_formula_units_Z 32
_cell_length_a 12.128257
_cell_length_b 17.304143
_cell_length_c 14.136778
_cell_angle_alpha 90.000000
_cell_angle_beta 33.837132
_cell_angle_gamma 90.000000
_cell_volume 1652.055757
_symmetry_space_group_name_H-M "P 21/M"
_symmetry_group_IT_number 11
_symmetry_cell_setting 'monoclinic'
loop_
_space_group_symop_operation_xyz
x,y,z
-x,1/2+y,-z
-x,-y,-z
x,1/2-y,z
loop_
_atom_site_type_symbol
_atom_site_label
_atom_site_fract_x
_atom_site_fract_y
_atom_site_fract_z
Si Si1 0.000184 0.343094 0.089758
Si Si2 0.555498 0.155926 0.406973
Si Si3 0.705947 0.912438 0.967066
Si Si4 0.855358 0.843451 0.222604
Si Si5 0.186373 0.594324 0.116415
Si Si6 0.846450 0.596845 0.661762
Si Si7 0.464032 0.158697 0.260945
Si Si8 0.241999 0.913639 0.290859
O O1 0.003472 0.250000 0.091683
O O2 0.777303 0.370530 0.272078
O O3 0.160869 0.375156 0.047227
O O4 0.053778 0.364418 0.943649
O O5 0.563927 0.250000 0.398450
O O6 0.376095 0.135912 0.604308
O O7 0.496377 0.127882 0.343866
O O8 0.762406 0.878632 0.823453
O O9 0.759287 0.003585 0.926278
O O10 0.471765 0.902475 0.150839
O O11 0.874845 0.750000 0.220648
O O12 0.977550 0.885169 0.218165
O O13 0.200550 0.619295 0.215559
O O14 0.350184 0.636336 0.936177
O O15 0.728650 0.631220 0.657294
O O16 0.800995 0.505324 0.687826
O O17 0.078320 0.614159 0.482248
O O18 0.454698 0.250000 0.276256
#
# Coordination Sequence:
#
# PCOD9163483 Si02
#       8
#     4   4   4   4   4   4   4   4
#     4  10  22  39  57  77 107 150 188 223 273 327
#     4   9  19  36  57  79 108 143 180 229 283 325
#     4  11  22  38  55  81 115 150 185 223 267 333
#     4  10  20  37  59  82 109 142 183 232 280 323
#     4  11  19  36  58  85 112 142 182 229 282 329
#     4  10  20  37  58  81 110 149 182 222 278 330
#     4  11  19  33  59  86 111 140 180 232 283 327
#     4  10  20  37  59  80 112 148 183 222 275 333
#
# _framework density 19.369806000000001
#
# number of rings (size 3 to 8) (size 9 to 14) (size 15 to 20)
#    0.000    1.750    3.750    1.875    0.000    2.000 
#    0.000    1.875    0.000    0.000    0.000    0.000 
#    0.000    0.000    0.000    0.000    0.000    0.000 
#
# Total GULP energy -178591.119176 kJ/mol
# GULP energy per Si atom -5580.972474 kJ/mol
# Density = 1.932572 g / cm^3
# Si number density = 19.369806 Si / 1000 Ang^3
#
#
#
# Elastic Constant Matrix: (Units=GPa)
#
#
# Indices 1 2 3 4 5 6 
#
# 1 91.5631 6.3229 41.9191 0.0000 -38.6833 0.0000
# 2 6.3229 10.5396 8.5571 0.0000 -4.0372 0.0000
# 3 41.9191 8.5571 154.9240 0.0000 -41.8124 0.0000
# 4 0.0000 0.0000 0.0000 1.7542 0.0000 -19.0634
# 5 -38.6833 -4.0372 -41.8124 0.0000 25.2385 0.0000
# 6 0.0000 0.0000 0.0000 -19.0634 0.0000 19.4560
#
#
#
# Elastic Compliance Matrix: (Units=1/GPa)
#
#
# Indices 1 2 3 4 5 6 
#
# 1 0.037740 -0.002369 0.009819 0.000000 0.073732 0.000000
# 2 -0.002369 0.101640 -0.002831 0.000000 0.007938 0.000000
# 3 0.009819 -0.002831 0.014278 0.000000 0.038250 0.000000
# 4 0.000000 0.000000 0.000000 -0.059085 0.000000 -0.057893
# 5 0.073732 0.007938 0.038250 0.000000 0.217271 0.000000
# 6 0.000000 0.000000 0.000000 -0.057893 0.000000 -0.005327
#
#
# Mechanical properties :
#
#
# Convention : Reuss Voigt Hill
#
# Bulk Modulus (GPa) = 6.13889 41.18054 23.65971
# Shear Modulus (GPa) = 14.22164 22.63824 18.42994
#
# Velocity S-wave (km/s) = 2.71258 3.42239 3.08795
# Velocity P-wave (km/s) = 3.60375 6.07646 4.99551
#
# Compressibility (1/GPa) = 0.16289586
#
# Stress axis : x y z
#
# Youngs Moduli (GPa) = 26.49717 9.83861 70.03905
#
# Poissons Ratio (x) = 0.02331 -0.68770
# Poissons Ratio (y) = 0.06278 0.19825
# Poissons Ratio (z) = -0.26017 0.02785
#
# Static dielectric constant tensor:
#      x y z
#    x 1.665340 0.000000 -0.001620 
#    y 0.000000 1.672180 0.000000 
#    z -0.001620 0.000000 1.702300 
# 
# From -- ./inp_files/39939.got.cif
#   From: 2010.05.17/outbox.cif.g08.bks.cpg/sg11_20_cif.got.tgz:39939.got - 2010.06.03 12:22:45.
