data_PCOD9163814
_publ_section_title
;
Structure prediction by ZEFSAII (Michael W. Deem and Ramdas Pophale) SiO2 
 PCOD9163814
Probable space group: P 21/M
;
_chemical_formula_sum "Si O2"
_cell_formula_units_Z 32
_cell_length_a 12.596419
_cell_length_b 8.226866
_cell_length_c 31.669194
_cell_angle_alpha 90.000000
_cell_angle_beta 28.607971
_cell_angle_gamma 90.000000
_cell_volume 1571.395015
_symmetry_space_group_name_H-M "P 21/M"
_symmetry_group_IT_number 11
_symmetry_cell_setting 'monoclinic'
loop_
_space_group_symop_operation_xyz
x,y,z
-x,1/2+y,-z
-x,-y,-z
x,1/2-y,z
loop_
_atom_site_type_symbol
_atom_site_label
_atom_site_fract_x
_atom_site_fract_y
_atom_site_fract_z
Si Si1 0.887307 0.440515 0.169446
Si Si2 0.761722 0.562626 0.302321
Si Si3 0.885441 0.553160 0.672803
Si Si4 0.506510 0.063290 0.241232
Si Si5 0.607885 0.556474 0.506399
Si Si6 0.363746 0.063623 0.977676
Si Si7 0.823385 0.942538 0.791243
Si Si8 0.228905 0.935388 0.937810
O O1 0.910562 0.250000 0.149052
O O2 0.804111 0.457758 0.245901
O O3 0.695126 0.510791 0.205840
O O4 0.139564 0.506414 0.077383
O O5 0.755607 0.750000 0.291657
O O6 0.539808 0.516303 0.404534
O O7 0.967985 0.532332 0.261500
O O8 0.873479 0.750000 0.675446
O O9 0.732244 0.489684 0.687637
O O10 0.803919 0.506804 0.748690
O O11 0.138544 0.499826 0.580348
O O12 0.472111 0.250000 0.268515
O O13 0.612869 0.069568 0.157601
O O14 0.500000 0.500000 0.500000
O O15 0.596264 0.750000 0.512393
O O16 0.395835 0.250000 0.980121
O O17 0.600812 0.975398 0.895925
O O18 0.303958 0.050959 0.949032
O O19 0.867562 0.750000 0.776157
O O20 0.213671 0.750000 0.959710
O O21 0.000000 0.000000 0.000000
#
# Coordination Sequence:
#
# PCOD9163814 Si02
#       8
#     4   4   4   4   4   4   4   4
#     4  10  22  42  63  85 122 172 214 251 303 364
#     4  12  26  44  65  90 121 159 209 260 308 370
#     4  10  20  37  63  96 128 159 198 251 312 367
#     4   9  18  36  60  87 123 164 203 249 304 359
#     4  12  24  41  67  97 126 157 197 250 313 374
#     4  11  22  36  58  90 127 166 210 258 307 366
#     4  11  22  38  63  92 127 164 202 253 313 369
#     4  11  19  32  53  84 120 161 208 257 307 358
#
# _framework density 20.364073000000001
#
# number of rings (size 3 to 8) (size 9 to 14) (size 15 to 20)
#    0.000    1.250    3.750    3.375    0.000    2.000 
#    0.000    1.250    0.000    0.000    0.000    0.000 
#    0.000    0.000    0.000    0.000    0.000    0.000 
#
# Total GULP energy -178609.646930 kJ/mol
# GULP energy per Si atom -5581.551467 kJ/mol
# Density = 2.031772 g / cm^3
# Si number density = 20.364073 Si / 1000 Ang^3
#
#
#
# Elastic Constant Matrix: (Units=GPa)
#
#
# Indices 1 2 3 4 5 6 
#
# 1 41.2326 -1.5819 31.0474 0.0000 -8.1682 0.0000
# 2 -1.5819 31.9692 -0.1454 0.0000 -8.2690 0.0000
# 3 31.0474 -0.1454 123.4077 0.0000 -19.7140 0.0000
# 4 0.0000 0.0000 0.0000 12.4744 0.0000 2.6205
# 5 -8.1682 -8.2690 -19.7140 0.0000 36.4236 0.0000
# 6 0.0000 0.0000 0.0000 2.6205 0.0000 18.5043
#
#
#
# Elastic Compliance Matrix: (Units=1/GPa)
#
#
# Indices 1 2 3 4 5 6 
#
# 1 0.030369 0.002382 -0.007075 0.000000 0.003522 0.000000
# 2 0.002382 0.033629 0.000816 0.000000 0.008610 0.000000
# 3 -0.007075 0.000816 0.010575 0.000000 0.004322 0.000000
# 4 0.000000 0.000000 0.000000 0.082622 0.000000 -0.011701
# 5 0.003522 0.008610 0.004322 0.000000 0.032539 0.000000
# 6 0.000000 0.000000 0.000000 -0.011701 0.000000 0.055698
#
#
# Mechanical properties :
#
#
# Convention : Reuss Voigt Hill
#
# Bulk Modulus (GPa) = 14.96616 28.36106 21.66361
# Shear Modulus (GPa) = 18.15152 24.63309 21.39230
#
# Velocity S-wave (km/s) = 2.98879 3.48175 3.24465
# Velocity P-wave (km/s) = 4.39041 5.48823 4.96973
#
# Compressibility (1/GPa) = 0.06681739
#
# Stress axis : x y z
#
# Youngs Moduli (GPa) = 32.92827 29.73643 94.56658
#
# Poissons Ratio (x) = -0.07082 0.66905
# Poissons Ratio (y) = -0.07842 -0.07716
# Poissons Ratio (z) = 0.23297 -0.02426
#
# Static dielectric constant tensor:
#      x y z
#    x 1.723260 0.000000 -0.049720 
#    y 0.000000 1.717000 0.000000 
#    z -0.049720 0.000000 1.710020 
# 
# From -- ./inp_files/73092.got.cif
#   From: 2010.05.17/outbox.cif.g08.bks.cpg/sg11_37_cif.got.tgz:73092.got - 2010.06.03 12:22:45.
