data_PCOD9163876
_publ_section_title
;
Structure prediction by ZEFSAII (Michael W. Deem and Ramdas Pophale) SiO2 
 PCOD9163876
Probable space group: P 21/M
;
_chemical_formula_sum "Si O2"
_cell_formula_units_Z 32
_cell_length_a 13.005206
_cell_length_b 15.577161
_cell_length_c 18.059902
_cell_angle_alpha 90.000000
_cell_angle_beta 152.362934
_cell_angle_gamma 90.000000
_cell_volume 1697.135478
_symmetry_space_group_name_H-M "P 21/M"
_symmetry_group_IT_number 11
_symmetry_cell_setting 'monoclinic'
loop_
_space_group_symop_operation_xyz
x,y,z
-x,1/2+y,-z
-x,-y,-z
x,1/2-y,z
loop_
_atom_site_type_symbol
_atom_site_label
_atom_site_fract_x
_atom_site_fract_y
_atom_site_fract_z
Si Si1 0.423523 0.852368 0.909351
Si Si2 0.935260 0.405309 0.432244
Si Si3 0.365395 0.009173 0.237973
Si Si4 0.593314 0.653278 0.321944
Si Si5 0.734031 0.153917 0.455485
Si Si6 0.264005 0.849425 0.973162
Si Si7 0.998491 0.500413 0.874483
Si Si8 0.933585 0.850034 0.195564
O O1 0.385744 0.750000 0.872461
O O2 0.265335 0.904386 0.753756
O O3 0.361317 0.870061 0.954600
O O4 0.679810 0.869588 0.055726
O O5 0.855060 0.355813 0.454013
O O6 0.000000 0.500000 0.500000
O O7 0.150119 0.363804 0.531506
O O8 0.543175 0.083856 0.340905
O O9 0.492399 0.918764 0.310734
O O10 0.187141 0.013679 0.057543
O O11 0.229034 0.015395 0.226819
O O12 0.561447 0.750000 0.329462
O O13 0.458631 0.645222 0.158630
O O14 0.641457 0.250000 0.402569
O O15 0.913009 0.141374 0.634449
O O16 0.186395 0.750000 0.923140
O O17 0.077188 0.917036 0.877780
O O18 0.991341 0.416966 0.818425
O O19 0.943475 0.750000 0.177620
#
# Coordination Sequence:
#
# PCOD9163876 Si02
#       8
#     4   4   4   4   4   4   4   4
#     4  10  21  38  59  87 119 153 197 239 288 354
#     4  12  23  35  58  91 120 149 191 239 292 358
#     4  10  22  40  59  91 115 155 203 241 296 344
#     4  10  20  38  59  83 119 154 190 240 294 350
#     4  11  23  41  61  85 121 158 196 243 296 350
#     4   9  20  37  59  86 117 155 194 237 292 350
#     4  10  22  38  62  86 121 153 199 250 286 348
#     4  10  23  40  61  88 118 158 198 241 296 349
#
# _framework density 18.855301000000001
#
# number of rings (size 3 to 8) (size 9 to 14) (size 15 to 20)
#    0.000    1.750    1.250    2.625    3.500    5.500 
#    0.000    2.500    0.000    1.500    0.000    0.000 
#    0.000    0.000    0.000    0.000    0.000    0.000 
#
# Total GULP energy -178841.025509 kJ/mol
# GULP energy per Si atom -5588.782047 kJ/mol
# Density = 1.881239 g / cm^3
# Si number density = 18.855301 Si / 1000 Ang^3
#
#
#
# Elastic Constant Matrix: (Units=GPa)
#
#
# Indices 1 2 3 4 5 6 
#
# 1 39.2023 -0.9167 -4.6319 0.0000 6.9379 0.0000
# 2 -0.9167 66.5393 22.4350 0.0000 1.9893 0.0000
# 3 -4.6319 22.4350 41.1308 0.0000 16.5920 0.0000
# 4 0.0000 0.0000 0.0000 9.3814 0.0000 -23.2717
# 5 6.9379 1.9893 16.5920 0.0000 21.2240 0.0000
# 6 0.0000 0.0000 0.0000 -23.2717 0.0000 9.2094
#
#
#
# Elastic Compliance Matrix: (Units=1/GPa)
#
#
# Indices 1 2 3 4 5 6 
#
# 1 0.030617 -0.003544 0.013561 0.000000 -0.020277 0.000000
# 2 -0.003544 0.020068 -0.016145 0.000000 0.011899 0.000000
# 3 0.013561 -0.016145 0.052325 0.000000 -0.043825 0.000000
# 4 0.000000 0.000000 0.000000 -0.020233 0.000000 -0.051127
# 5 -0.020277 0.011899 -0.043825 0.000000 0.086890 0.000000
# 6 0.000000 0.000000 0.000000 -0.051127 0.000000 -0.020611
#
#
# Mechanical properties :
#
#
# Convention : Reuss Voigt Hill
#
# Bulk Modulus (GPa) = 11.01903 20.07169 15.54536
# Shear Modulus (GPa) = 26.10085 16.62871 21.36478
#
# Velocity S-wave (km/s) = 3.72462 2.97292 3.36979
# Velocity P-wave (km/s) = 4.93495 4.73842 4.83768
#
# Compressibility (1/GPa) = 0.09075211
#
# Stress axis : x y z
#
# Youngs Moduli (GPa) = 32.66198 49.83096 19.11123
#
# Poissons Ratio (x) = 0.17661 -0.25916
# Poissons Ratio (y) = 0.11576 0.30856
# Poissons Ratio (z) = -0.44292 0.80454
#
# Static dielectric constant tensor:
#      x y z
#    x 1.617950 0.000000 -0.008210 
#    y 0.000000 1.660750 0.000000 
#    z -0.008210 0.000000 1.632280 
# 
# From -- ./inp_files/59477.got.cif
#   From: 2010.05.17/outbox.cif.g08.bks.cpg/sg11_30_cif.got.tgz:59477.got - 2010.06.03 12:22:45.
