data_PCOD9163623
_publ_section_title
;
Structure prediction by ZEFSAII (Michael W. Deem and Ramdas Pophale) SiO2 
 PCOD9163623
Probable space group: P 21/M
;
_chemical_formula_sum "Si O2"
_cell_formula_units_Z 30
_cell_length_a 11.908773
_cell_length_b 9.369220
_cell_length_c 17.394541
_cell_angle_alpha 90.000000
_cell_angle_beta 125.650311
_cell_angle_gamma 90.000000
_cell_volume 1577.082893
_symmetry_space_group_name_H-M "P 21/M"
_symmetry_group_IT_number 11
_symmetry_cell_setting 'monoclinic'
loop_
_space_group_symop_operation_xyz
x,y,z
-x,1/2+y,-z
-x,-y,-z
x,1/2-y,z
loop_
_atom_site_type_symbol
_atom_site_label
_atom_site_fract_x
_atom_site_fract_y
_atom_site_fract_z
Si Si1 0.137991 0.418263 0.534104
Si Si2 0.399893 0.583172 0.352707
Si Si3 0.369203 0.084436 0.757663
Si Si4 0.319924 0.582780 0.492496
Si Si5 0.049498 0.750000 0.038484
Si Si6 0.855814 0.977179 0.020403
Si Si7 0.646677 0.920487 0.071263
Si Si8 0.631983 0.911707 0.804684
O O1 0.116248 0.250000 0.513677
O O2 0.249355 0.434857 0.647319
O O3 0.200206 0.494287 0.484351
O O4 0.000000 0.500000 0.500000
O O5 0.432498 0.750000 0.351457
O O6 0.317293 0.574104 0.399215
O O7 0.539257 0.492788 0.422662
O O8 0.329013 0.512819 0.251049
O O9 0.417707 0.250000 0.771902
O O10 0.319568 0.061441 0.824954
O O11 0.495682 0.981125 0.787668
O O12 0.318431 0.750000 0.513422
O O13 0.100466 0.626902 0.997402
O O14 0.987583 0.874511 0.072166
O O15 0.751587 0.910802 0.915201
O O16 0.766149 0.978811 0.062712
O O17 0.631344 0.750000 0.049950
O O18 0.500000 0.000000 0.000000
O O19 0.605823 0.750000 0.768146
#
# Coordination Sequence:
#
# PCOD9163623 Si02
#       8
#     4   4   4   4   2   4   4   4
#     4  11  23  41  64  86 120 166 209 253 317 385
#     4  10  21  35  58  90 122 154 195 249 305 363
#     4  10  23  39  61  93 123 160 206 259 315 378
#     4  10  20  37  60  88 117 154 199 248 305 360
#     4  10  24  44  64  84 124 172 214 248 310 386
#     4  11  23  43  66  92 123 173 214 258 312 377
#     4  11  22  38  63  97 130 163 211 267 318 368
#     4  12  22  35  60  96 126 153 207 261 308 365
#
# _framework density 19.022462999999998
#
# number of rings (size 3 to 8) (size 9 to 14) (size 15 to 20)
#    0.000    1.333    4.000    1.600    2.800    2.133 
#    0.000    2.667    2.933    0.000    0.000    0.000 
#    0.000    0.000    0.000    0.000    0.000    0.000 
#
# Total GULP energy -167019.752605 kJ/mol
# GULP energy per Si atom -5567.325087 kJ/mol
# Density = 1.897917 g / cm^3
# Si number density = 19.022463 Si / 1000 Ang^3
#
#
#
# Elastic Constant Matrix: (Units=GPa)
#
#
# Indices 1 2 3 4 5 6 
#
# 1 120.5152 61.9285 10.3298 0.0000 -23.6533 0.0000
# 2 61.9285 142.3226 16.9767 0.0000 -11.0423 0.0000
# 3 10.3298 16.9767 43.1684 0.0000 -21.1547 0.0000
# 4 0.0000 0.0000 0.0000 14.9327 0.0000 -7.8056
# 5 -23.6533 -11.0423 -21.1547 0.0000 24.6054 0.0000
# 6 0.0000 0.0000 0.0000 -7.8056 0.0000 31.5566
#
#
#
# Elastic Compliance Matrix: (Units=1/GPa)
#
#
# Indices 1 2 3 4 5 6 
#
# 1 0.013901 -0.005587 0.007242 0.000000 0.017081 0.000000
# 2 -0.005587 0.009646 -0.005127 0.000000 -0.005450 0.000000
# 3 0.007242 -0.005127 0.044468 0.000000 0.042892 0.000000
# 4 0.000000 0.000000 0.000000 0.076911 0.000000 0.019024
# 5 0.017081 -0.005450 0.042892 0.000000 0.091493 0.000000
# 6 0.000000 0.000000 0.000000 0.019024 0.000000 0.036395
#
#
# Mechanical properties :
#
#
# Convention : Reuss Voigt Hill
#
# Bulk Modulus (GPa) = 16.37492 53.83071 35.10281
# Shear Modulus (GPa) = 16.66023 28.67034 22.66529
#
# Velocity S-wave (km/s) = 2.96263 3.88646 3.45556
# Velocity P-wave (km/s) = 4.50886 6.96415 5.86639
#
# Compressibility (1/GPa) = 0.06106899
#
# Stress axis : x y z
#
# Youngs Moduli (GPa) = 71.93983 103.66871 22.48806
#
# Poissons Ratio (x) = 0.57920 -0.16285
# Poissons Ratio (y) = 0.40193 0.11531
# Poissons Ratio (z) = -0.52096 0.53156
#
# Static dielectric constant tensor:
#      x y z
#    x 1.680600 0.000000 0.011730 
#    y 0.000000 1.639130 0.000000 
#    z 0.011730 0.000000 1.677390 
# 
# From -- ./inp_files/58914.got.cif
#   From: 2010.05.17/outbox.cif.g08.bks.cpg/sg11_30_cif.got.tgz:58914.got - 2010.06.03 12:22:45.
