data_PCOD9163905
_publ_section_title
;
Structure prediction by ZEFSAII (Michael W. Deem and Ramdas Pophale) SiO2 
 PCOD9163905
Probable space group: P 21/M
;
_chemical_formula_sum "Si O2"
_cell_formula_units_Z 30
_cell_length_a 11.804240
_cell_length_b 9.200124
_cell_length_c 29.451596
_cell_angle_alpha 90.000000
_cell_angle_beta 29.166716
_cell_angle_gamma 90.000000
_cell_volume 1558.776067
_symmetry_space_group_name_H-M "P 21/M"
_symmetry_group_IT_number 11
_symmetry_cell_setting 'monoclinic'
loop_
_space_group_symop_operation_xyz
x,y,z
-x,1/2+y,-z
-x,-y,-z
x,1/2-y,z
loop_
_atom_site_type_symbol
_atom_site_label
_atom_site_fract_x
_atom_site_fract_y
_atom_site_fract_z
Si Si1 0.912826 0.077325 0.751358
Si Si2 0.500053 0.575955 0.951441
Si Si3 0.667877 0.082750 0.141184
Si Si4 0.764701 0.090357 0.698430
Si Si5 0.054611 0.250000 0.463280
Si Si6 0.405975 0.925360 0.579259
Si Si7 0.164009 0.418796 0.006668
Si Si8 0.799616 0.969342 0.516557
O O1 0.920530 0.250000 0.759755
O O2 0.857002 0.066601 0.717138
O O3 0.708630 0.994871 0.849329
O O4 0.155276 0.997125 0.675789
O O5 0.519497 0.750000 0.946887
O O6 0.264806 0.524297 0.009138
O O7 0.500000 0.500000 0.000000
O O8 0.653488 0.250000 0.130261
O O9 0.423813 0.031958 0.246798
O O10 0.726259 0.976403 0.078900
O O11 0.886726 0.073171 0.098059
O O12 0.651603 0.250000 0.735953
O O13 0.981737 0.090548 0.589115
O O14 0.213150 0.375066 0.433599
O O15 0.882477 0.373756 0.502084
O O16 0.391827 0.750000 0.578449
O O17 0.579806 0.958443 0.560155
O O18 0.500000 0.000000 0.500000
O O19 0.230362 0.250000 0.991061
#
# Coordination Sequence:
#
# PCOD9163905 Si02
#       8
#     4   4   4   4   2   4   4   4
#     4  11  24  41  65 100 133 167 214 277 338 393
#     4  12  25  44  69  93 126 172 217 264 332 403
#     4  10  21  34  59  94 125 157 204 261 313 371
#     4  11  21  37  62  95 130 162 210 267 326 382
#     4  10  24  44  66  88 126 178 216 258 318 402
#     4  12  24  40  66 102 138 174 225 287 339 388
#     4  10  20  38  60  89 125 162 203 256 318 372
#     4  11  23  44  68  95 129 176 223 265 329 392
#
# _framework density 19.245868999999999
#
# number of rings (size 3 to 8) (size 9 to 14) (size 15 to 20)
#    0.000    1.067    4.000    2.800    2.800    2.133 
#    0.000    2.667    2.933    0.000    0.000    0.000 
#    0.000    0.000    0.000    0.000    0.000    0.000 
#
# Total GULP energy -167040.388315 kJ/mol
# GULP energy per Si atom -5568.012944 kJ/mol
# Density = 1.920206 g / cm^3
# Si number density = 19.245869 Si / 1000 Ang^3
#
#
#
# Elastic Constant Matrix: (Units=GPa)
#
#
# Indices 1 2 3 4 5 6 
#
# 1 84.3502 67.2302 14.7378 0.0000 -14.2834 0.0000
# 2 67.2302 174.5894 15.9526 0.0000 -14.1126 0.0000
# 3 14.7378 15.9526 37.1553 0.0000 -18.3742 0.0000
# 4 0.0000 0.0000 0.0000 15.1699 0.0000 -7.0088
# 5 -14.2834 -14.1126 -18.3742 0.0000 26.7184 0.0000
# 6 0.0000 0.0000 0.0000 -7.0088 0.0000 22.6921
#
#
#
# Elastic Compliance Matrix: (Units=1/GPa)
#
#
# Indices 1 2 3 4 5 6 
#
# 1 0.018148 -0.006406 -0.002006 0.000000 0.004939 0.000000
# 2 -0.006406 0.008302 -0.000831 0.000000 0.000389 0.000000
# 3 -0.002006 -0.000831 0.041398 0.000000 0.026958 0.000000
# 4 0.000000 0.000000 0.000000 0.076893 0.000000 0.023750
# 5 0.004939 0.000389 0.026958 0.000000 0.058812 0.000000
# 6 0.000000 0.000000 0.000000 0.023750 0.000000 0.051404
#
#
# Mechanical properties :
#
#
# Convention : Reuss Voigt Hill
#
# Bulk Modulus (GPa) = 20.25844 54.65957 37.45900
# Shear Modulus (GPa) = 17.24761 26.12771 21.68766
#
# Velocity S-wave (km/s) = 2.99686 3.68853 3.36054
# Velocity P-wave (km/s) = 4.74593 6.82661 5.87905
#
# Compressibility (1/GPa) = 0.04936214
#
# Stress axis : x y z
#
# Youngs Moduli (GPa) = 55.10331 120.45549 24.15581
#
# Poissons Ratio (x) = 0.77161 0.04845
# Poissons Ratio (y) = 0.35298 0.02008
# Poissons Ratio (z) = 0.11052 0.10011
#
# Static dielectric constant tensor:
#      x y z
#    x 1.675710 0.000000 0.019740 
#    y 0.000000 1.654240 0.000000 
#    z 0.019740 0.000000 1.704090 
# 
# From -- ./inp_files/72975.got.cif
#   From: 2010.05.17/outbox.cif.g08.bks.cpg/sg11_37_cif.got.tgz:72975.got - 2010.06.03 12:22:45.
