data_PCOD9163739
_publ_section_title
;
Structure prediction by ZEFSAII (Michael W. Deem and Ramdas Pophale) SiO2 
 PCOD9163739
Probable space group: P 21/M
;
_chemical_formula_sum "Si O2"
_cell_formula_units_Z 24
_cell_length_a 14.550282
_cell_length_b 8.887365
_cell_length_c 18.043098
_cell_angle_alpha 90.000000
_cell_angle_beta 26.666981
_cell_angle_gamma 90.000000
_cell_volume 1047.158288
_symmetry_space_group_name_H-M "P 21/M"
_symmetry_group_IT_number 11
_symmetry_cell_setting 'monoclinic'
loop_
_space_group_symop_operation_xyz
x,y,z
-x,1/2+y,-z
-x,-y,-z
x,1/2-y,z
loop_
_atom_site_type_symbol
_atom_site_label
_atom_site_fract_x
_atom_site_fract_y
_atom_site_fract_z
Si Si1 0.766822 0.425218 0.878026
Si Si2 0.835811 0.425861 0.366536
Si Si3 0.330587 0.574231 0.215998
Si Si4 0.313454 0.073975 0.375104
Si Si5 0.734007 0.424960 0.139808
Si Si6 0.795465 0.925779 0.245427
O O1 0.799200 0.250000 0.875082
O O2 0.799675 0.441628 0.765351
O O3 0.923156 0.532066 0.807751
O O4 0.532911 0.472922 0.059061
O O5 0.802942 0.250000 0.401071
O O6 0.759705 0.518804 0.492197
O O7 0.741179 0.480253 0.357226
O O8 0.387402 0.750000 0.179729
O O9 0.235181 0.520313 0.361807
O O10 0.268545 0.250000 0.397310
O O11 0.559908 0.052713 0.204252
O O12 0.724214 0.250000 0.170153
O O13 0.694996 0.524257 0.240663
O O14 0.961513 0.451684 0.945511
O O15 0.762365 0.750000 0.283448
#
# Coordination Sequence:
#
# PCOD9163739 Si02
#       6
#     4   4   4   4   4   4
#     4  10  21  39  62  87 116 151 192 236 284 340
#     4  12  25  39  57  83 117 154 194 240 289 343
#     4  10  21  38  62  90 117 148 190 238 285 337
#     4  11  23  39  59  83 117 157 194 236 287 343
#     4   9  20  38  60  86 113 146 189 234 282 339
#     4  10  20  37  62  88 114 146 187 236 289 344
#
# _framework density 22.919170999999999
#
# number of rings (size 3 to 8) (size 9 to 14) (size 15 to 20)
#    0.000    1.667    0.000    4.500    0.000    6.667 
#    0.000    0.000    0.000    0.000    0.000    0.000 
#    0.000    0.000    0.000    0.000    0.000    0.000 
#
# Total GULP energy -134326.016191 kJ/mol
# GULP energy per Si atom -5596.917341 kJ/mol
# Density = 2.286701 g / cm^3
# Si number density = 22.919171 Si / 1000 Ang^3
#
#
#
# Elastic Constant Matrix: (Units=GPa)
#
#
# Indices 1 2 3 4 5 6 
#
# 1 92.9267 32.8854 -1.9689 0.0000 19.5791 0.0000
# 2 32.8854 69.3259 2.1330 0.0000 15.2988 0.0000
# 3 -1.9689 2.1330 29.2989 0.0000 4.6221 0.0000
# 4 0.0000 0.0000 0.0000 30.4801 0.0000 8.7018
# 5 19.5791 15.2988 4.6221 0.0000 37.2107 0.0000
# 6 0.0000 0.0000 0.0000 8.7018 0.0000 38.0260
#
#
#
# Elastic Compliance Matrix: (Units=1/GPa)
#
#
# Indices 1 2 3 4 5 6 
#
# 1 0.013863 -0.005470 0.002168 0.000000 -0.005315 0.000000
# 2 -0.005470 0.018023 -0.000984 0.000000 -0.004410 0.000000
# 3 0.002168 -0.000984 0.035153 0.000000 -0.005103 0.000000
# 4 0.000000 0.000000 0.000000 0.035102 0.000000 -0.008033
# 5 -0.005315 -0.004410 -0.005103 0.000000 0.032117 0.000000
# 6 0.000000 0.000000 0.000000 -0.008033 0.000000 0.028136
#
#
# Mechanical properties :
#
#
# Convention : Reuss Voigt Hill
#
# Bulk Modulus (GPa) = 17.10355 28.62783 22.86569
# Shear Modulus (GPa) = 26.25316 31.71015 28.98165
#
# Velocity S-wave (km/s) = 3.38815 3.72366 3.55986
# Velocity P-wave (km/s) = 4.77334 5.56826 5.18605
#
# Compressibility (1/GPa) = 0.05846739
#
# Stress axis : x y z
#
# Youngs Moduli (GPa) = 72.13703 55.48588 28.44679
#
# Poissons Ratio (x) = 0.30349 -0.06168
# Poissons Ratio (y) = 0.39457 0.02799
# Poissons Ratio (z) = -0.15641 0.05460
#
# Static dielectric constant tensor:
#      x y z
#    x 1.851010 0.000000 -0.025880 
#    y 0.000000 1.748440 0.000000 
#    z -0.025880 0.000000 1.934660 
# 
# From -- ./inp_files/53155.got.cif
#   From: 2010.05.17/outbox.cif.g08.bks.cpg/sg11_27_cif.got.tgz:53155.got - 2010.06.03 12:22:45.
