data_PCOD9163195
_publ_section_title
;
Structure prediction by ZEFSAII (Michael W. Deem and Ramdas Pophale) SiO2 
 PCOD9163195
Probable space group: P 21/M
;
_chemical_formula_sum "Si O2"
_cell_formula_units_Z 32
_cell_length_a 11.099852
_cell_length_b 25.726663
_cell_length_c 7.692367
_cell_angle_alpha 90.000000
_cell_angle_beta 141.166202
_cell_angle_gamma 90.000000
_cell_volume 1377.438162
_symmetry_space_group_name_H-M "P 21/M"
_symmetry_group_IT_number 11
_symmetry_cell_setting 'monoclinic'
loop_
_space_group_symop_operation_xyz
x,y,z
-x,1/2+y,-z
-x,-y,-z
x,1/2-y,z
loop_
_atom_site_type_symbol
_atom_site_label
_atom_site_fract_x
_atom_site_fract_y
_atom_site_fract_z
Si Si1 0.012820 0.312699 0.892154
Si Si2 0.381230 0.456700 0.116299
Si Si3 0.044475 0.516443 0.245302
Si Si4 0.361455 0.851959 0.989675
Si Si5 0.318656 0.618079 0.546451
Si Si6 0.297078 0.190760 0.502238
Si Si7 0.959139 0.687062 0.480349
Si Si8 0.386474 0.450368 0.707482
O O1 0.988880 0.250000 0.869893
O O2 0.812378 0.341728 0.706444
O O3 0.063201 0.326042 0.747841
O O4 0.179764 0.332366 0.209193
O O5 0.485527 0.405901 0.310585
O O6 0.510625 0.507011 0.299336
O O7 0.160358 0.468590 0.902990
O O8 0.415638 0.452333 0.947729
O O9 0.181382 0.567196 0.421798
O O10 0.162407 0.466001 0.444648
O O11 0.000000 0.500000 0.000000
O O12 0.367282 0.853983 0.784896
O O13 0.136797 0.844018 0.763237
O O14 0.475789 0.808398 0.222478
O O15 0.490626 0.899784 0.201748
O O16 0.232443 0.250000 0.421885
O O17 0.219899 0.171423 0.602280
O O18 0.992263 0.750000 0.523469
#
# Coordination Sequence:
#
# PCOD9163195 Si02
#       8
#     4   4   4   4   4   4   4   4
#     4   9  19  38  62  88 124 154 193 250 293 354
#     4   9  19  40  60  79 117 153 196 247 287 359
#     4  11  23  37  58  85 121 157 195 248 305 353
#     4  10  20  36  59  87 116 151 199 249 297 355
#     4   9  21  38  58  87 117 155 201 236 303 360
#     4  10  21  37  60  89 118 158 202 242 300 363
#     4   9  19  38  60  85 120 160 197 244 303 357
#     4   9  20  35  57  87 109 153 202 241 297 354
#
# _framework density 23.231534
#
# number of rings (size 3 to 8) (size 9 to 14) (size 15 to 20)
#    0.000    2.500    0.000    1.500    1.750    7.500 
#    2.250    2.500    0.000   11.250    0.000    0.000 
#    0.000    0.000    0.000    0.000    0.000    0.000 
#
# Total GULP energy -178157.165862 kJ/mol
# GULP energy per Si atom -5567.411433 kJ/mol
# Density = 2.317866 g / cm^3
# Si number density = 23.231534 Si / 1000 Ang^3
#
#
#
# Elastic Constant Matrix: (Units=GPa)
#
#
# Indices 1 2 3 4 5 6 
#
# 1 37.2406 20.2490 33.2192 0.0000 3.3533 0.0000
# 2 20.2490 36.8372 11.9711 0.0000 -2.4519 0.0000
# 3 33.2192 11.9711 130.8122 0.0000 -1.3382 0.0000
# 4 0.0000 0.0000 0.0000 30.4996 0.0000 0.5880
# 5 3.3533 -2.4519 -1.3382 0.0000 39.0669 0.0000
# 6 0.0000 0.0000 0.0000 0.5880 0.0000 6.7486
#
#
#
# Elastic Compliance Matrix: (Units=1/GPa)
#
#
# Indices 1 2 3 4 5 6 
#
# 1 0.050193 -0.024572 -0.010561 0.000000 -0.006212 0.000000
# 2 -0.024572 0.040117 0.002617 0.000000 0.004717 0.000000
# 3 -0.010561 0.002617 0.010102 0.000000 0.001417 0.000000
# 4 0.000000 0.000000 0.000000 0.032843 0.000000 -0.002862
# 5 -0.006212 0.004717 0.001417 0.000000 0.026475 0.000000
# 6 0.000000 0.000000 0.000000 -0.002862 0.000000 0.148429
#
#
# Mechanical properties :
#
#
# Convention : Reuss Voigt Hill
#
# Bulk Modulus (GPa) = 28.26526 37.30761 32.78644
# Shear Modulus (GPa) = 12.98754 24.55971 18.77362
#
# Velocity S-wave (km/s) = 2.36698 3.25494 2.84581
# Velocity P-wave (km/s) = 4.43434 5.49728 4.99417
#
# Compressibility (1/GPa) = 0.03537912
#
# Stress axis : x y z
#
# Youngs Moduli (GPa) = 19.92297 24.92706 98.99479
#
# Poissons Ratio (x) = 0.61251 1.04551
# Poissons Ratio (y) = 0.48955 -0.25907
# Poissons Ratio (z) = 0.21041 -0.06523
#
# Static dielectric constant tensor:
#      x y z
#    x 1.866450 0.000000 -0.014150 
#    y 0.000000 2.069390 0.000000 
#    z -0.014150 0.000000 1.900470 
# 
# From -- ./inp_files/19882.got.cif
#   From: 2010.05.17/outbox.cif.g08.bks.cpg/sg11_10_cif.got.tgz:19882.got - 2010.06.03 12:22:45.
