data_PCOD9163433
_publ_section_title
;
Structure prediction by ZEFSAII (Michael W. Deem and Ramdas Pophale) SiO2 
 PCOD9163433
Probable space group: P 21/M
;
_chemical_formula_sum "Si O2"
_cell_formula_units_Z 26
_cell_length_a 17.473727
_cell_length_b 9.462024
_cell_length_c 7.301035
_cell_angle_alpha 90.000000
_cell_angle_beta 108.545074
_cell_angle_gamma 90.000000
_cell_volume 1144.448199
_symmetry_space_group_name_H-M "P 21/M"
_symmetry_group_IT_number 11
_symmetry_cell_setting 'monoclinic'
loop_
_space_group_symop_operation_xyz
x,y,z
-x,1/2+y,-z
-x,-y,-z
x,1/2-y,z
loop_
_atom_site_type_symbol
_atom_site_label
_atom_site_fract_x
_atom_site_fract_y
_atom_site_fract_z
Si Si1 0.269092 0.916420 0.694399
Si Si2 0.984788 0.583310 0.302653
Si Si3 0.618166 0.910917 0.491131
Si Si4 0.150825 0.914108 0.275672
Si Si5 0.552005 0.485902 0.802943
Si Si6 0.465080 0.750000 0.936313
Si Si7 0.801427 0.916940 0.025707
O O1 0.287602 0.750000 0.725827
O O2 0.188379 0.924634 0.506826
O O3 0.334910 0.992016 0.616304
O O4 0.252237 0.000384 0.867354
O O5 0.994982 0.750000 0.346835
O O6 0.894737 0.562792 0.160665
O O7 0.000000 0.500000 0.500000
O O8 0.057030 0.544822 0.218967
O O9 0.648354 0.750000 0.511776
O O10 0.525171 0.911120 0.352486
O O11 0.614463 0.974960 0.691435
O O12 0.157902 0.750000 0.221152
O O13 0.199020 0.014103 0.174921
O O14 0.517846 0.627238 0.868410
O O15 0.578703 0.375386 0.974999
O O16 0.782909 0.750000 0.010228
#
# Coordination Sequence:
#
# PCOD9163433 Si02
#       7
#     4   4   4   4   4   2   4
#     4  11  25  43  64  88 124 170 211 255 311 369
#     4  10  20  36  64  92 122 161 205 259 315 367
#     4  11  23  42  63  90 123 170 200 250 306 371
#     4  10  22  42  62  90 124 164 212 257 308 373
#     4  10  22  40  66  92 128 158 206 249 308 356
#     4  10  20  40  64 102 124 152 198 266 294 362
#     4  11  23  40  63  94 124 161 208 260 318 375
#
# _framework density 22.718374000000001
#
# number of rings (size 3 to 8) (size 9 to 14) (size 15 to 20)
#    0.000    1.538    3.077    1.385    2.154    2.462 
#    5.538    0.000    0.000    0.000    0.000    0.000 
#    0.000    0.000    0.000    0.000    0.000    0.000 
#
# Total GULP energy -145041.382550 kJ/mol
# GULP energy per Si atom -5578.514713 kJ/mol
# Density = 2.266667 g / cm^3
# Si number density = 22.718374 Si / 1000 Ang^3
#
#
#
# Elastic Constant Matrix: (Units=GPa)
#
#
# Indices 1 2 3 4 5 6 
#
# 1 109.4167 53.0785 36.2717 0.0000 -33.0040 0.0000
# 2 53.0785 155.2659 73.7765 0.0000 -46.7200 0.0000
# 3 36.2717 73.7765 109.6808 0.0000 -34.2949 0.0000
# 4 0.0000 0.0000 0.0000 31.3681 0.0000 -2.9798
# 5 -33.0040 -46.7200 -34.2949 0.0000 49.5949 0.0000
# 6 0.0000 0.0000 0.0000 -2.9798 0.0000 35.5610
#
#
#
# Elastic Compliance Matrix: (Units=1/GPa)
#
#
# Indices 1 2 3 4 5 6 
#
# 1 0.012089 -0.002054 -0.000901 0.000000 0.005488 0.000000
# 2 -0.002054 0.011308 -0.005134 0.000000 0.005736 0.000000
# 3 -0.000901 -0.005134 0.014250 0.000000 0.004418 0.000000
# 4 0.000000 0.000000 0.000000 0.032135 0.000000 0.002693
# 5 0.005488 0.005736 0.004418 0.000000 0.032274 0.000000
# 6 0.000000 0.000000 0.000000 0.002693 0.000000 0.028346
#
#
# Mechanical properties :
#
#
# Convention : Reuss Voigt Hill
#
# Bulk Modulus (GPa) = 46.57361 77.84631 62.20996
# Shear Modulus (GPa) = 32.52333 37.38723 34.95528
#
# Velocity S-wave (km/s) = 3.78774 4.06110 3.92680
# Velocity P-wave (km/s) = 6.29874 7.50535 6.92836
#
# Compressibility (1/GPa) = 0.02147139
#
# Stress axis : x y z
#
# Youngs Moduli (GPa) = 82.71643 88.43464 70.17608
#
# Poissons Ratio (x) = 0.18160 0.06321
# Poissons Ratio (y) = 0.16986 0.36025
# Poissons Ratio (z) = 0.07451 0.45398
#
# Static dielectric constant tensor:
#      x y z
#    x 1.906300 0.000000 0.095360 
#    y 0.000000 1.765180 0.000000 
#    z 0.095360 0.000000 1.882550 
# 
# From -- ./inp_files/24089.got.cif
#   From: 2010.05.17/outbox.cif.g08.bks.cpg/sg11_13_cif.got.tgz:24089.got - 2010.06.03 12:22:45.
