data_PCOD9163703
_publ_section_title
;
Structure prediction by ZEFSAII (Michael W. Deem and Ramdas Pophale) SiO2 
 PCOD9163703
Probable space group: P 21/M
;
_chemical_formula_sum "Si O2"
_cell_formula_units_Z 24
_cell_length_a 15.056909
_cell_length_b 10.149016
_cell_length_c 21.461271
_cell_angle_alpha 90.000000
_cell_angle_beta 20.965036
_cell_angle_gamma 90.000000
_cell_volume 1173.419566
_symmetry_space_group_name_H-M "P 21/M"
_symmetry_group_IT_number 11
_symmetry_cell_setting 'monoclinic'
loop_
_space_group_symop_operation_xyz
x,y,z
-x,1/2+y,-z
-x,-y,-z
x,1/2-y,z
loop_
_atom_site_type_symbol
_atom_site_label
_atom_site_fract_x
_atom_site_fract_y
_atom_site_fract_z
Si Si1 0.002305 0.402767 0.167949
Si Si2 0.647801 0.608666 0.831266
Si Si3 0.181280 0.904303 0.844093
Si Si4 0.684682 0.894991 0.591048
Si Si5 0.403194 0.595121 0.242117
Si Si6 0.105091 0.532568 0.224959
O O1 0.955375 0.250000 0.213639
O O2 0.969706 0.488286 0.250888
O O3 0.838337 0.440291 0.215852
O O4 0.294713 0.413198 0.957371
O O5 0.709364 0.750000 0.762264
O O6 0.687894 0.485733 0.758800
O O7 0.795811 0.589213 0.798385
O O8 0.357060 0.604809 0.039844
O O9 0.102144 0.750000 0.900190
O O10 0.448568 0.914565 0.700641
O O11 0.000000 0.000000 0.000000
O O12 0.657729 0.750000 0.638978
O O13 0.689191 0.012864 0.637854
O O14 0.922320 0.894849 0.391076
O O15 0.336188 0.750000 0.285627
#
# Coordination Sequence:
#
# PCOD9163703 Si02
#       6
#     4   4   4   4   4   4
#     4   9  18  36  59  85 118 156 197 236 285 350
#     4  10  21  40  63  85 115 158 202 244 295 353
#     4  10  20  37  61  88 119 156 195 238 289 347
#     4  11  23  38  59  90 124 154 193 247 297 343
#     4  10  21  37  61  88 117 157 201 244 292 349
#     4  10  22  37  59  88 121 156 194 242 296 352
#
# _framework density 20.453042
#
# number of rings (size 3 to 8) (size 9 to 14) (size 15 to 20)
#    0.000    2.000    1.667    1.500    0.000    7.333 
#    0.000    0.833    0.000    0.000    0.000    0.000 
#    0.000    0.000    0.000    0.000    0.000    0.000 
#
# Total GULP energy -133988.748608 kJ/mol
# GULP energy per Si atom -5582.864525 kJ/mol
# Density = 2.040649 g / cm^3
# Si number density = 20.453042 Si / 1000 Ang^3
#
#
#
# Elastic Constant Matrix: (Units=GPa)
#
#
# Indices 1 2 3 4 5 6 
#
# 1 124.8184 68.1217 25.5860 0.0000 16.2087 0.0000
# 2 68.1217 139.0240 31.8390 0.0000 13.7702 0.0000
# 3 25.5860 31.8390 48.4056 0.0000 6.4260 0.0000
# 4 0.0000 0.0000 0.0000 -5.7732 0.0000 22.4614
# 5 16.2087 13.7702 6.4260 0.0000 25.1372 0.0000
# 6 0.0000 0.0000 0.0000 22.4614 0.0000 -17.1829
#
#
#
# Elastic Compliance Matrix: (Units=1/GPa)
#
#
# Indices 1 2 3 4 5 6 
#
# 1 0.011652 -0.004714 -0.002488 0.000000 -0.004295 0.000000
# 2 -0.004714 0.010654 -0.004290 0.000000 -0.001700 0.000000
# 3 -0.002488 -0.004290 0.025123 0.000000 -0.002468 0.000000
# 4 0.000000 0.000000 0.000000 0.042394 0.000000 0.055417
# 5 -0.004295 -0.001700 -0.002468 0.000000 0.044113 0.000000
# 6 0.000000 0.000000 0.000000 0.055417 0.000000 0.014244
#
#
# Mechanical properties :
#
#
# Convention : Reuss Voigt Hill
#
# Bulk Modulus (GPa) = 40.90905 62.59350 51.75128
# Shear Modulus (GPa) = 27.88409 12.88297 20.38353
#
# Velocity S-wave (km/s) = 3.69633 2.51246 3.16032
# Velocity P-wave (km/s) = 6.18563 6.25193 6.21887
#
# Compressibility (1/GPa) = 0.02444447
#
# Stress axis : x y z
#
# Youngs Moduli (GPa) = 85.81943 93.86210 39.80361
#
# Poissons Ratio (x) = 0.44251 0.09903
# Poissons Ratio (y) = 0.40459 0.17076
# Poissons Ratio (z) = 0.21352 0.40268
#
# Static dielectric constant tensor:
#      x y z
#    x 1.718490 0.000000 -0.008890 
#    y 0.000000 1.737760 0.000000 
#    z -0.008890 0.000000 1.717630 
# 
# From -- ./inp_files/59124.got.cif
#   From: 2010.05.17/outbox.cif.g08.bks.cpg/sg11_30_cif.got.tgz:59124.got - 2010.06.03 12:22:45.
