data_PCOD9163784
_publ_section_title
;
Structure prediction by ZEFSAII (Michael W. Deem and Ramdas Pophale) SiO2 
 PCOD9163784
Probable space group: P 21/M
;
_chemical_formula_sum "Si O2"
_cell_formula_units_Z 24
_cell_length_a 13.902492
_cell_length_b 10.993569
_cell_length_c 14.492569
_cell_angle_alpha 90.000000
_cell_angle_beta 32.233268
_cell_angle_gamma 90.000000
_cell_volume 1181.417228
_symmetry_space_group_name_H-M "P 21/M"
_symmetry_group_IT_number 11
_symmetry_cell_setting 'monoclinic'
loop_
_space_group_symop_operation_xyz
x,y,z
-x,1/2+y,-z
-x,-y,-z
x,1/2-y,z
loop_
_atom_site_type_symbol
_atom_site_label
_atom_site_fract_x
_atom_site_fract_y
_atom_site_fract_z
Si Si1 0.352212 0.463932 0.357195
Si Si2 0.629087 0.887307 0.862844
Si Si3 0.583704 0.885500 0.488591
Si Si4 0.985019 0.893183 0.697183
Si Si5 0.707475 0.886753 0.066912
Si Si6 0.891244 0.880132 0.106996
O O1 0.340714 0.389842 0.271853
O O2 0.411618 0.401382 0.405171
O O3 0.519563 0.552257 0.200345
O O4 0.163795 0.532485 0.528308
O O5 0.560677 0.750000 0.942267
O O6 0.824389 0.903497 0.752627
O O7 0.500000 0.000000 0.000000
O O8 0.506567 0.750000 0.528256
O O9 0.788917 0.883640 0.286133
O O10 0.500000 0.000000 0.500000
O O11 0.034876 0.750000 0.666335
O O12 0.883774 0.938779 0.872582
O O13 0.698261 0.750000 0.038746
O O14 0.741499 0.882076 0.148018
O O15 0.990258 0.750000 0.017277
O O16 0.000000 0.000000 0.000000
#
# Coordination Sequence:
#
# PCOD9163784 Si02
#       6
#     4   4   4   4   4   4
#     4  12  22  40  68  94 132 172 215 271 339 371
#     4  11  24  44  68  98 134 171 219 271 327 395
#     4  11  24  41  63  93 131 170 217 266 320 385
#     4  10  22  39  65 100 131 170 221 266 323 400
#     4  10  20  37  62  94 131 168 218 267 314 388
#     4  10  21  39  60  89 124 167 215 268 316 379
#
# _framework density 20.314584
#
# number of rings (size 3 to 8) (size 9 to 14) (size 15 to 20)
#    0.000    1.333    3.333    2.500    0.000    2.000 
#    0.000    1.667    0.000    0.000    0.000    0.000 
#    0.000    0.000    0.000    0.000    0.000    0.000 
#
# Total GULP energy -133750.108039 kJ/mol
# GULP energy per Si atom -5572.921168 kJ/mol
# Density = 2.026835 g / cm^3
# Si number density = 20.314584 Si / 1000 Ang^3
#
#
#
# Elastic Constant Matrix: (Units=GPa)
#
#
# Indices 1 2 3 4 5 6 
#
# 1 75.5741 28.3923 14.5547 0.0000 20.4168 0.0000
# 2 28.3923 146.7613 56.1256 0.0000 -13.4178 0.0000
# 3 14.5547 56.1256 102.5878 0.0000 5.0418 0.0000
# 4 0.0000 0.0000 0.0000 29.4740 0.0000 4.9284
# 5 20.4168 -13.4178 5.0418 0.0000 42.1223 0.0000
# 6 0.0000 0.0000 0.0000 4.9284 0.0000 4.6582
#
#
#
# Elastic Compliance Matrix: (Units=1/GPa)
#
#
# Indices 1 2 3 4 5 6 
#
# 1 0.017519 -0.004474 0.000452 0.000000 -0.009971 0.000000
# 2 -0.004474 0.010249 -0.005271 0.000000 0.006064 0.000000
# 3 0.000452 -0.005271 0.012735 0.000000 -0.003422 0.000000
# 4 0.000000 0.000000 0.000000 0.041221 0.000000 -0.043612
# 5 -0.009971 0.006064 -0.003422 0.000000 0.030915 0.000000
# 6 0.000000 0.000000 0.000000 -0.043612 0.000000 0.260815
#
#
# Mechanical properties :
#
#
# Convention : Reuss Voigt Hill
#
# Bulk Modulus (GPa) = 45.62187 58.11869 51.87028
# Shear Modulus (GPa) = 12.52047 30.30762 21.41405
#
# Velocity S-wave (km/s) = 2.48529 3.86672 3.25025
# Velocity P-wave (km/s) = 5.54455 6.97186 6.29876
#
# Compressibility (1/GPa) = 0.02191931
#
# Stress axis : x y z
#
# Youngs Moduli (GPa) = 57.07959 97.56707 78.52118
#
# Poissons Ratio (x) = 0.43649 -0.03549
# Poissons Ratio (y) = 0.25536 0.41386
# Poissons Ratio (z) = -0.02580 0.51425
#
# Static dielectric constant tensor:
#      x y z
#    x 1.738190 0.000000 0.027510 
#    y 0.000000 1.662990 0.000000 
#    z 0.027510 0.000000 1.716740 
# 
# From -- ./inp_files/21022.got.cif
#   From: 2010.05.17/outbox.cif.g08.bks.cpg/sg11_11_cif.got.tgz:21022.got - 2010.06.03 12:22:45.
