data_PCOD9163225
_publ_section_title
;
Structure prediction by ZEFSAII (Michael W. Deem and Ramdas Pophale) SiO2 
 PCOD9163225
Probable space group: P 21/M
;
_chemical_formula_sum "Si O2"
_cell_formula_units_Z 32
_cell_length_a 8.199027
_cell_length_b 14.937190
_cell_length_c 12.025483
_cell_angle_alpha 90.000000
_cell_angle_beta 98.980822
_cell_angle_gamma 90.000000
_cell_volume 1454.710845
_symmetry_space_group_name_H-M "P 21/M"
_symmetry_group_IT_number 11
_symmetry_cell_setting 'monoclinic'
loop_
_space_group_symop_operation_xyz
x,y,z
-x,1/2+y,-z
-x,-y,-z
x,1/2-y,z
loop_
_atom_site_type_symbol
_atom_site_label
_atom_site_fract_x
_atom_site_fract_y
_atom_site_fract_z
Si Si1 0.350139 0.066601 0.499062
Si Si2 0.244915 0.145905 0.084194
Si Si3 0.935814 0.151306 0.668956
Si Si4 0.665471 0.653561 0.284448
Si Si5 0.346255 0.023609 0.906726
Si Si6 0.630954 0.349465 0.199059
Si Si7 0.831010 0.093978 0.416869
Si Si8 0.126564 0.051748 0.283415
O O1 0.387722 0.141556 0.593394
O O2 0.280554 0.089382 0.371828
O O3 0.500000 0.000000 0.500000
O O4 0.211639 0.005304 0.544924
O O5 0.199737 0.250000 0.066415
O O6 0.436314 0.144115 0.148784
O O7 0.138315 0.093856 0.163912
O O8 0.238018 0.091782 0.967445
O O9 0.880738 0.250000 0.705786
O O10 0.884547 0.145546 0.533268
O O11 0.134952 0.149936 0.698690
O O12 0.872141 0.057503 0.715274
O O13 0.611270 0.750000 0.235251
O O14 0.600716 0.574475 0.200008
O O15 0.279329 0.928250 0.860049
O O16 0.500000 0.000000 0.000000
O O17 0.686816 0.250000 0.174704
O O18 0.676226 0.366045 0.332961
O O19 0.973896 0.085404 0.341212
#
# Coordination Sequence:
#
# PCOD9163225 Si02
#       8
#     4   4   4   4   4   4   4   4
#     4  11  21  36  62  90 129 162 200 255 314 368
#     4  10  23  40  61  91 122 163 214 262 307 371
#     4  10  20  36  59  89 126 165 204 244 307 378
#     4  11  21  39  65  94 122 161 208 256 311 373
#     4  10  21  40  65  84 120 162 209 260 312 358
#     4  10  20  37  63  90 118 159 210 257 313 366
#     4  11  19  38  60  89 127 169 205 247 311 378
#     4  11  21  37  60  91 128 165 207 252 310 373
#
# _framework density 21.997498
#
# number of rings (size 3 to 8) (size 9 to 14) (size 15 to 20)
#    0.000    1.500    3.750    2.250    1.750    2.000 
#    0.000    6.250    0.000    1.500    0.000    0.000 
#    0.000    0.000    0.000    0.000    0.000    0.000 
#
# Total GULP energy -178656.633702 kJ/mol
# GULP energy per Si atom -5583.019803 kJ/mol
# Density = 2.194743 g / cm^3
# Si number density = 21.997498 Si / 1000 Ang^3
#
#
#
# Elastic Constant Matrix: (Units=GPa)
#
#
# Indices 1 2 3 4 5 6 
#
# 1 34.3766 0.9694 5.6345 0.0000 1.2314 0.0000
# 2 0.9694 175.5818 48.5593 0.0000 -14.9196 0.0000
# 3 5.6345 48.5593 64.1166 0.0000 -1.9024 0.0000
# 4 0.0000 0.0000 0.0000 22.4589 0.0000 1.4299
# 5 1.2314 -14.9196 -1.9024 0.0000 37.3850 0.0000
# 6 0.0000 0.0000 0.0000 1.4299 0.0000 15.4922
#
#
#
# Elastic Compliance Matrix: (Units=1/GPa)
#
#
# Indices 1 2 3 4 5 6 
#
# 1 0.029611 0.000617 -0.003096 0.000000 -0.000887 0.000000
# 2 0.000617 0.007479 -0.005639 0.000000 0.002677 0.000000
# 3 -0.003096 -0.005639 0.020106 0.000000 -0.001125 0.000000
# 4 0.000000 0.000000 0.000000 0.044789 0.000000 -0.004134
# 5 -0.000887 0.002677 -0.001125 0.000000 0.027789 0.000000
# 6 0.000000 0.000000 0.000000 -0.004134 0.000000 0.064930
#
#
# Mechanical properties :
#
#
# Convention : Reuss Voigt Hill
#
# Bulk Modulus (GPa) = 24.41352 42.71126 33.56239
# Shear Modulus (GPa) = 22.26239 29.66135 25.96187
#
# Velocity S-wave (km/s) = 3.18471 3.67604 3.43916
# Velocity P-wave (km/s) = 4.96443 6.12178 5.57323
#
# Compressibility (1/GPa) = 0.04096091
#
# Stress axis : x y z
#
# Youngs Moduli (GPa) = 33.77081 133.70738 49.73611
#
# Poissons Ratio (x) = -0.08256 0.15399
# Poissons Ratio (y) = -0.02085 0.28047
# Poissons Ratio (z) = 0.10456 0.75399
#
# Static dielectric constant tensor:
#      x y z
#    x 1.906020 0.000000 0.050220 
#    y 0.000000 1.798050 0.000000 
#    z 0.050220 0.000000 1.818240 
# 
# From -- ./inp_files/31864.got.cif
#   From: 2010.05.17/outbox.cif.g08.bks.cpg/sg11_16_cif.got.tgz:31864.got - 2010.06.03 12:22:45.
