data_PCOD9163917
_publ_section_title
;
Structure prediction by ZEFSAII (Michael W. Deem and Ramdas Pophale) SiO2 
 PCOD9163917
Probable space group: P 21/M
;
_chemical_formula_sum "Si O2"
_cell_formula_units_Z 32
_cell_length_a 24.683165
_cell_length_b 8.392257
_cell_length_c 14.692194
_cell_angle_alpha 90.000000
_cell_angle_beta 146.916539
_cell_angle_gamma 90.000000
_cell_volume 1661.298389
_symmetry_space_group_name_H-M "P 21/M"
_symmetry_group_IT_number 11
_symmetry_cell_setting 'monoclinic'
loop_
_space_group_symop_operation_xyz
x,y,z
-x,1/2+y,-z
-x,-y,-z
x,1/2-y,z
loop_
_atom_site_type_symbol
_atom_site_label
_atom_site_fract_x
_atom_site_fract_y
_atom_site_fract_z
Si Si1 0.514982 0.057310 0.808903
Si Si2 0.910014 0.940048 0.997928
Si Si3 0.705985 0.557217 0.186611
Si Si4 0.874966 0.557248 0.741307
Si Si5 0.889429 0.560024 0.326316
Si Si6 0.209913 0.939711 0.998467
Si Si7 0.679563 0.944611 0.356984
Si Si8 0.561135 0.442328 0.672705
O O1 0.514879 0.250000 0.809922
O O2 0.420678 0.001322 0.734435
O O3 0.512719 0.006425 0.700374
O O4 0.616298 0.999512 0.997156
O O5 0.900370 0.750000 0.991586
O O6 0.873379 0.989584 0.845459
O O7 0.848226 0.018363 0.991475
O O8 0.025605 0.987714 0.163131
O O9 0.706529 0.750000 0.188049
O O10 0.810064 0.502000 0.290075
O O11 0.688307 0.502201 0.264993
O O12 0.881836 0.750000 0.747730
O O13 0.776350 0.507096 0.549995
O O14 0.891571 0.750000 0.333912
O O15 0.846582 0.510825 0.167929
O O16 0.000000 0.500000 0.500000
O O17 0.212305 0.750000 0.989742
O O18 0.324023 0.997079 0.165558
O O19 0.677991 0.750000 0.354427
O O20 0.500000 0.500000 0.500000
O O21 0.561793 0.250000 0.671925
#
# Coordination Sequence:
#
# PCOD9163917 Si02
#       8
#     4   4   4   4   4   4   4   4
#     4  10  20  38  61  84 114 151 193 237 287 348
#     4  10  21  36  58  87 117 152 196 242 292 348
#     4  10  21  38  59  85 116 150 190 236 293 349
#     4   9  19  37  59  83 116 156 192 237 292 351
#     4  11  24  40  61  90 122 158 200 249 301 359
#     4  11  23  41  62  87 120 161 201 245 301 359
#     4   9  19  35  59  86 111 148 193 234 286 348
#     4  10  23  39  60  88 118 156 199 246 299 353
#
# _framework density 19.262041
#
# number of rings (size 3 to 8) (size 9 to 14) (size 15 to 20)
#    0.000    2.000    1.250    1.500    3.500    2.500 
#    0.000    1.250    0.000    0.000    0.000    0.000 
#    0.000    0.000    0.000    0.000    0.000    0.000 
#
# Total GULP energy -178747.869475 kJ/mol
# GULP energy per Si atom -5585.870921 kJ/mol
# Density = 1.921820 g / cm^3
# Si number density = 19.262041 Si / 1000 Ang^3
#
#
#
# Elastic Constant Matrix: (Units=GPa)
#
#
# Indices 1 2 3 4 5 6 
#
# 1 177.1741 18.0950 90.5860 0.0000 -5.6600 0.0000
# 2 18.0950 13.0169 17.3455 0.0000 -1.4736 0.0000
# 3 90.5860 17.3455 162.4762 0.0000 -10.5422 0.0000
# 4 0.0000 0.0000 0.0000 31.0980 0.0000 -1.5315
# 5 -5.6600 -1.4736 -10.5422 0.0000 11.9979 0.0000
# 6 0.0000 0.0000 0.0000 -1.5315 0.0000 5.1486
#
#
#
# Elastic Compliance Matrix: (Units=1/GPa)
#
#
# Indices 1 2 3 4 5 6 
#
# 1 0.008313 -0.006283 -0.003987 0.000000 -0.000353 0.000000
# 2 -0.006283 0.094400 -0.006378 0.000000 0.003026 0.000000
# 3 -0.003987 -0.006378 0.009423 0.000000 0.005615 0.000000
# 4 0.000000 0.000000 0.000000 0.032634 0.000000 0.009707
# 5 -0.000353 0.003026 0.005615 0.000000 0.088487 0.000000
# 6 0.000000 0.000000 0.000000 0.009707 0.000000 0.197115
#
#
# Mechanical properties :
#
#
# Convention : Reuss Voigt Hill
#
# Bulk Modulus (GPa) = 12.68416 67.19113 39.93764
# Shear Modulus (GPa) = 10.20513 24.75827 17.48170
#
# Velocity S-wave (km/s) = 2.30425 3.58905 3.01586
# Velocity P-wave (km/s) = 3.69848 7.22035 5.73638
#
# Compressibility (1/GPa) = 0.07883846
#
# Stress axis : x y z
#
# Youngs Moduli (GPa) = 120.29275 10.59324 106.12460
#
# Poissons Ratio (x) = 0.06656 0.42311
# Poissons Ratio (y) = 0.75584 0.67690
# Poissons Ratio (z) = 0.47960 0.06757
#
# Static dielectric constant tensor:
#      x y z
#    x 1.664820 0.000000 0.007080 
#    y 0.000000 1.661530 0.000000 
#    z 0.007080 0.000000 1.636370 
# 
# From -- ./inp_files/55585.got.cif
#   From: 2010.05.17/outbox.cif.g08.bks.cpg/sg11_28_cif.got.tgz:55585.got - 2010.06.03 12:22:45.
