data_PCOD9163975
_publ_section_title
;
Structure prediction by ZEFSAII (Michael W. Deem and Ramdas Pophale) SiO2 
 PCOD9163975
Probable space group: P 21/M
;
_chemical_formula_sum "Si O2"
_cell_formula_units_Z 32
_cell_length_a 11.137633
_cell_length_b 11.201296
_cell_length_c 14.482674
_cell_angle_alpha 90.000000
_cell_angle_beta 66.492328
_cell_angle_gamma 90.000000
_cell_volume 1656.847085
_symmetry_space_group_name_H-M "P 21/M"
_symmetry_group_IT_number 11
_symmetry_cell_setting 'monoclinic'
loop_
_space_group_symop_operation_xyz
x,y,z
-x,1/2+y,-z
-x,-y,-z
x,1/2-y,z
loop_
_atom_site_type_symbol
_atom_site_label
_atom_site_fract_x
_atom_site_fract_y
_atom_site_fract_z
Si Si1 0.408066 0.614194 0.558856
Si Si2 0.418582 0.616770 0.052513
Si Si3 0.572235 0.385632 0.733763
Si Si4 0.976306 0.891718 0.194116
Si Si5 0.703323 0.508801 0.228919
Si Si6 0.824839 0.386458 0.011562
Si Si7 0.219480 0.549629 0.457495
Si Si8 0.992981 0.614960 0.389409
O O1 0.500000 0.500000 0.500000
O O2 0.465971 0.750000 0.539162
O O3 0.351448 0.582664 0.677323
O O4 0.287980 0.613383 0.522862
O O5 0.480368 0.750000 0.018713
O O6 0.393441 0.607777 0.169354
O O7 0.288071 0.615744 0.031857
O O8 0.500000 0.500000 0.000000
O O9 0.601577 0.250000 0.692886
O O10 0.420322 0.412396 0.764057
O O11 0.659210 0.476119 0.647551
O O12 0.002650 0.750000 0.181170
O O13 0.025432 0.938831 0.278554
O O14 0.052280 0.942187 0.081470
O O15 0.822288 0.916975 0.236389
O O16 0.765130 0.449820 0.118885
O O17 0.855514 0.250000 0.029866
O O18 0.132576 0.445476 0.526838
O O19 0.114134 0.612055 0.422564
O O20 0.957246 0.750000 0.381735
#
# Coordination Sequence:
#
# PCOD9163975 Si02
#       8
#     4   4   4   4   4   4   4   4
#     4  12  26  42  63  92 128 168 207 253 310 375
#     4  10  20  38  62  88 117 155 200 251 303 360
#     4  11  22  37  61  90 120 159 205 251 308 372
#     4  10  21  38  61  89 116 155 208 256 302 366
#     4  12  22  38  58  89 121 162 200 255 308 369
#     4  10  21  38  60  84 119 159 201 251 308 364
#     4  11  22  40  62  90 123 160 206 253 307 360
#     4  10  21  39  64  90 119 158 207 256 306 363
#
# _framework density 19.313791999999999
#
# number of rings (size 3 to 8) (size 9 to 14) (size 15 to 20)
#    0.000    1.250    3.750    3.000    0.000    3.000 
#    0.000    0.625    0.000    0.750    0.000    0.000 
#    0.000    0.000    0.000    0.000    0.000    0.000 
#
# Total GULP energy -178323.690424 kJ/mol
# GULP energy per Si atom -5572.615326 kJ/mol
# Density = 1.926983 g / cm^3
# Si number density = 19.313792 Si / 1000 Ang^3
#
#
#
# Elastic Constant Matrix: (Units=GPa)
#
#
# Indices 1 2 3 4 5 6 
#
# 1 76.0730 20.7892 40.4860 0.0000 2.1911 0.0000
# 2 20.7892 63.5453 41.6795 0.0000 -10.2416 0.0000
# 3 40.4860 41.6795 139.1054 0.0000 3.3004 0.0000
# 4 0.0000 0.0000 0.0000 -140.3523 0.0000 -81.4824
# 5 2.1911 -10.2416 3.3004 0.0000 41.6984 0.0000
# 6 0.0000 0.0000 0.0000 -81.4824 0.0000 -27.8192
#
#
#
# Elastic Compliance Matrix: (Units=1/GPa)
#
#
# Indices 1 2 3 4 5 6 
#
# 1 0.015982 -0.002992 -0.003725 0.000000 -0.001280 0.000000
# 2 -0.002992 0.021382 -0.005675 0.000000 0.005858 0.000000
# 3 -0.003725 -0.005675 0.010020 0.000000 -0.001991 0.000000
# 4 0.000000 0.000000 0.000000 0.010172 0.000000 -0.029794
# 5 -0.001280 0.005858 -0.001991 0.000000 0.025645 0.000000
# 6 0.000000 0.000000 0.000000 -0.029794 0.000000 0.051319
#
#
# Mechanical properties :
#
#
# Convention : Reuss Voigt Hill
#
# Bulk Modulus (GPa) = 44.24457 53.84812 49.04634
# Shear Modulus (GPa) = 29.96934 -13.57667 8.19633
#
# Velocity S-wave (km/s) = 3.94344 -2.65420 2.06228
# Velocity P-wave (km/s) = 6.61002 4.30675 5.57855
#
# Compressibility (1/GPa) = 0.02260164
#
# Stress axis : x y z
#
# Youngs Moduli (GPa) = 62.57031 46.76864 99.79644
#
# Poissons Ratio (x) = 0.13992 0.37171
# Poissons Ratio (y) = 0.18720 0.56632
# Poissons Ratio (z) = 0.23306 0.26540
#
# Static dielectric constant tensor:
#      x y z
#    x 1.675990 0.000000 0.012650 
#    y 0.000000 1.692500 0.000000 
#    z 0.012650 0.000000 1.703040 
# 
# From -- ./inp_files/49835.got.cif
#   From: 2010.05.17/outbox.cif.g08.bks.cpg/sg11_25_cif.got.tgz:49835.got - 2010.06.03 12:22:45.
