data_PCOD9163659
_publ_section_title
;
Structure prediction by ZEFSAII (Michael W. Deem and Ramdas Pophale) SiO2 
 PCOD9163659
Probable space group: P 21/M
;
_chemical_formula_sum "Si O2"
_cell_formula_units_Z 24
_cell_length_a 18.082552
_cell_length_b 16.123323
_cell_length_c 12.176007
_cell_angle_alpha 90.000000
_cell_angle_beta 161.038699
_cell_angle_gamma 90.000000
_cell_volume 1153.475159
_symmetry_space_group_name_H-M "P 21/M"
_symmetry_group_IT_number 11
_symmetry_cell_setting 'monoclinic'
loop_
_space_group_symop_operation_xyz
x,y,z
-x,1/2+y,-z
-x,-y,-z
x,1/2-y,z
loop_
_atom_site_type_symbol
_atom_site_label
_atom_site_fract_x
_atom_site_fract_y
_atom_site_fract_z
Si Si1 0.961520 0.151386 0.478302
Si Si2 0.468556 0.553823 0.177824
Si Si3 0.890213 0.848127 0.681953
Si Si4 0.804468 0.155129 0.493146
Si Si5 0.802030 0.067228 0.725106
Si Si6 0.324292 0.408644 0.827085
O O1 0.920587 0.250000 0.415828
O O2 0.941373 0.125530 0.578118
O O3 0.200565 0.129473 0.759676
O O4 0.765828 0.102349 0.136821
O O5 0.670586 0.620238 0.443145
O O6 0.567915 0.485283 0.401828
O O7 0.419236 0.497272 0.999949
O O8 0.879615 0.750000 0.644963
O O9 0.857699 0.902131 0.525964
O O10 0.121021 0.870854 0.071084
O O11 0.868680 0.250000 0.601281
O O12 0.818701 0.109491 0.629068
O O13 0.537169 0.147004 0.088845
O O14 0.000000 0.000000 0.000000
#
# Coordination Sequence:
#
# PCOD9163659 Si02
#       6
#     4   4   4   4   4   4
#     4  11  22  36  61  93 117 151 203 247 293 351
#     4  10  21  38  57  87 118 156 195 241 293 348
#     4  11  20  36  62  88 117 158 198 242 296 353
#     4  10  20  37  61  85 115 155 194 244 296 345
#     4   9  21  35  58  83 115 156 195 235 291 351
#     4  11  22  37  62  89 119 150 195 247 299 348
#
# _framework density 20.806691000000001
#
# number of rings (size 3 to 8) (size 9 to 14) (size 15 to 20)
#    0.000    1.667    1.667    3.500    4.667    0.000 
#    0.000    0.833   11.000    0.000    0.000    0.000 
#    0.000    0.000    0.000    0.000    0.000    0.000 
#
# Total GULP energy -133801.319288 kJ/mol
# GULP energy per Si atom -5575.054970 kJ/mol
# Density = 2.075933 g / cm^3
# Si number density = 20.806691 Si / 1000 Ang^3
#
#
#
# Elastic Constant Matrix: (Units=GPa)
#
#
# Indices 1 2 3 4 5 6 
#
# 1 56.5361 -8.8246 17.5836 0.0000 -2.1523 0.0000
# 2 -8.8246 78.0508 28.2768 0.0000 -11.2668 0.0000
# 3 17.5836 28.2768 63.6601 0.0000 -28.9060 0.0000
# 4 0.0000 0.0000 0.0000 34.6371 0.0000 -4.8039
# 5 -2.1523 -11.2668 -28.9060 0.0000 32.1075 0.0000
# 6 0.0000 0.0000 0.0000 -4.8039 0.0000 17.0344
#
#
#
# Elastic Compliance Matrix: (Units=1/GPa)
#
#
# Indices 1 2 3 4 5 6 
#
# 1 0.022024 0.005768 -0.011935 0.000000 -0.007244 0.000000
# 2 0.005768 0.016811 -0.010497 0.000000 -0.003165 0.000000
# 3 -0.011935 -0.010497 0.036589 0.000000 0.028457 0.000000
# 4 0.000000 0.000000 0.000000 0.030046 0.000000 0.008473
# 5 -0.007244 -0.003165 0.028457 0.000000 0.055169 0.000000
# 6 0.000000 0.000000 0.000000 0.008473 0.000000 0.061094
#
#
# Mechanical properties :
#
#
# Convention : Reuss Voigt Hill
#
# Bulk Modulus (GPa) = 23.75521 30.25762 27.00641
# Shear Modulus (GPa) = 18.58094 27.50322 23.04208
#
# Velocity S-wave (km/s) = 2.99160 3.63966 3.33143
# Velocity P-wave (km/s) = 4.83475 5.67774 5.27311
#
# Compressibility (1/GPa) = 0.04209604
#
# Stress axis : x y z
#
# Youngs Moduli (GPa) = 45.40440 59.48657 27.33048
#
# Poissons Ratio (x) = -0.34313 0.32619
# Poissons Ratio (y) = -0.26190 0.28690
# Poissons Ratio (z) = 0.54190 0.62445
#
# Static dielectric constant tensor:
#      x y z
#    x 1.797040 0.000000 -0.054770 
#    y 0.000000 1.770900 0.000000 
#    z -0.054770 0.000000 1.818170 
# 
# From -- ./inp_files/32282.got.cif
#   From: 2010.05.17/outbox.cif.g08.bks.cpg/sg11_17_cif.got.tgz:32282.got - 2010.06.03 12:22:45.
