data_PCOD9163110
_publ_section_title
;
Structure prediction by ZEFSAII (Michael W. Deem and Ramdas Pophale) SiO2 
 PCOD9163110
Probable space group: P 21/M
;
_chemical_formula_sum "Si O2"
_cell_formula_units_Z 32
_cell_length_a 13.208486
_cell_length_b 24.764077
_cell_length_c 9.189311
_cell_angle_alpha 90.000000
_cell_angle_beta 31.760534
_cell_angle_gamma 90.000000
_cell_volume 1582.156628
_symmetry_space_group_name_H-M "P 21/M"
_symmetry_group_IT_number 11
_symmetry_cell_setting 'monoclinic'
loop_
_space_group_symop_operation_xyz
x,y,z
-x,1/2+y,-z
-x,-y,-z
x,1/2-y,z
loop_
_atom_site_type_symbol
_atom_site_label
_atom_site_fract_x
_atom_site_fract_y
_atom_site_fract_z
Si Si1 0.281965 0.812510 0.346948
Si Si2 0.784054 0.014145 0.526479
Si Si3 0.663282 0.980210 0.958045
Si Si4 0.753893 0.111440 0.350583
Si Si5 0.874864 0.908400 0.271648
Si Si6 0.647400 0.635216 0.810746
Si Si7 0.670232 0.914925 0.219669
Si Si8 0.831706 0.688587 0.855648
O O1 0.336553 0.750000 0.276179
O O2 0.296324 0.835976 0.493347
O O3 0.061344 0.817349 0.570396
O O4 0.426561 0.847018 0.071760
O O5 0.786002 0.017751 0.699716
O O6 0.907411 0.964688 0.315992
O O7 0.821284 0.068118 0.391083
O O8 0.557863 0.000210 0.768099
O O9 0.655634 0.922444 0.883333
O O10 0.730485 0.963250 0.035966
O O11 0.560474 0.089491 0.512563
O O12 0.927276 0.116992 0.026790
O O13 0.757675 0.870798 0.525449
O O14 0.747372 0.922099 0.286324
O O15 0.745670 0.676664 0.802164
O O16 0.752060 0.858105 0.058448
O O17 0.786882 0.750000 0.956922
#
# Coordination Sequence:
#
# PCOD9163110 Si02
#       8
#     4   4   4   4   4   4   4   4
#     4  11  21  37  64  87 106 148 200 242 289 350
#     4   9  17  34  57  82 122 158 194 239 283 339
#     4   8  16  32  57  83 111 155 197 230 276 338
#     4  11  21  37  59  88 121 156 198 238 287 350
#     4  11  23  36  58  87 126 156 184 241 300 345
#     4  10  20  38  59  84 117 148 188 242 289 337
#     4  10  20  36  58  86 122 152 194 240 288 350
#     4  10  20  37  63  85 106 147 199 242 286 349
#
# _framework density 20.225556999999998
#
# number of rings (size 3 to 8) (size 9 to 14) (size 15 to 20)
#    0.000    2.000    5.000    0.750    0.000    3.000 
#    0.000    3.125    2.750    0.000    0.000    0.000 
#    0.000    0.000    0.000    0.000    0.000    0.000 
#
# Total GULP energy -178719.786014 kJ/mol
# GULP energy per Si atom -5584.993313 kJ/mol
# Density = 2.017952 g / cm^3
# Si number density = 20.225557 Si / 1000 Ang^3
#
#
#
# Elastic Constant Matrix: (Units=GPa)
#
#
# Indices 1 2 3 4 5 6 
#
# 1 62.1360 -3.9681 23.1254 0.0000 -0.0120 0.0000
# 2 -3.9681 44.9140 27.0768 0.0000 0.0099 0.0000
# 3 23.1254 27.0768 135.9977 0.0000 9.8661 0.0000
# 4 0.0000 0.0000 0.0000 23.9053 0.0000 -3.8592
# 5 -0.0120 0.0099 9.8661 0.0000 26.6242 0.0000
# 6 0.0000 0.0000 0.0000 -3.8592 0.0000 20.7246
#
#
#
# Elastic Compliance Matrix: (Units=1/GPa)
#
#
# Indices 1 2 3 4 5 6 
#
# 1 0.017803 0.003933 -0.003916 0.000000 0.001458 0.000000
# 2 0.003933 0.026265 -0.006061 0.000000 0.002238 0.000000
# 3 -0.003916 -0.006061 0.009480 0.000000 -0.003513 0.000000
# 4 0.000000 0.000000 0.000000 0.043128 0.000000 0.008031
# 5 0.001458 0.002238 -0.003513 0.000000 0.038861 0.000000
# 6 0.000000 0.000000 0.000000 0.008031 0.000000 0.049747
#
#
# Mechanical properties :
#
#
# Convention : Reuss Voigt Hill
#
# Bulk Modulus (GPa) = 24.11847 37.27954 30.69901
# Shear Modulus (GPa) = 23.67510 27.37175 25.52342
#
# Velocity S-wave (km/s) = 3.42505 3.68275 3.55623
# Velocity P-wave (km/s) = 5.25280 6.04611 5.66336
#
# Compressibility (1/GPa) = 0.04146199
#
# Stress axis : x y z
#
# Youngs Moduli (GPa) = 56.17131 38.07287 105.48029
#
# Poissons Ratio (x) = -0.14976 0.41307
# Poissons Ratio (y) = -0.22094 0.63927
# Poissons Ratio (z) = 0.21997 0.23074
#
# Static dielectric constant tensor:
#      x y z
#    x 1.743410 0.000000 -0.028190 
#    y 0.000000 1.723940 0.000000 
#    z -0.028190 0.000000 1.743830 
# 
# From -- ./inp_files/23443.got.cif
#   From: 2010.05.17/outbox.cif.g08.bks.cpg/sg11_12_cif.got.tgz:23443.got - 2010.06.03 12:22:45.
