data_PCOD9163929
_publ_section_title
;
Structure prediction by ZEFSAII (Michael W. Deem and Ramdas Pophale) SiO2 
 PCOD9163929
Probable space group: P 21/M
;
_chemical_formula_sum "Si O2"
_cell_formula_units_Z 32
_cell_length_a 22.013015
_cell_length_b 8.598452
_cell_length_c 28.334805
_cell_angle_alpha 90.000000
_cell_angle_beta 18.695900
_cell_angle_gamma 90.000000
_cell_volume 1719.132374
_symmetry_space_group_name_H-M "P 21/M"
_symmetry_group_IT_number 11
_symmetry_cell_setting 'monoclinic'
loop_
_space_group_symop_operation_xyz
x,y,z
-x,1/2+y,-z
-x,-y,-z
x,1/2-y,z
loop_
_atom_site_type_symbol
_atom_site_label
_atom_site_fract_x
_atom_site_fract_y
_atom_site_fract_z
Si Si1 0.620294 0.934387 0.805722
Si Si2 0.787433 0.062770 0.155192
Si Si3 0.492756 0.436766 0.452730
Si Si4 0.141278 0.565345 0.283832
Si Si5 0.777963 0.567146 0.877658
Si Si6 0.716153 0.936887 0.629187
Si Si7 0.523966 0.065074 0.683033
Si Si8 0.177085 0.436489 0.611740
O O1 0.651373 0.750000 0.788768
O O2 0.696045 0.981844 0.698544
O O3 0.726052 0.022961 0.769914
O O4 0.398816 0.973244 0.971754
O O5 0.787304 0.250000 0.153405
O O6 0.666460 0.014118 0.290741
O O7 0.669533 0.998075 0.197417
O O8 0.000000 0.000000 0.000000
O O9 0.500000 0.500000 0.500000
O O10 0.497585 0.250000 0.450911
O O11 0.299679 0.480979 0.567466
O O12 0.149638 0.750000 0.268083
O O13 0.202936 0.475249 0.191674
O O14 0.925842 0.524099 0.456172
O O15 0.745966 0.750000 0.906831
O O16 0.974637 0.516287 0.756781
O O17 0.693561 0.750000 0.642752
O O18 0.562901 0.015926 0.708008
O O19 0.532517 0.250000 0.671682
O O20 0.692423 0.987596 0.528322
O O21 0.155249 0.250000 0.626352
#
# Coordination Sequence:
#
# PCOD9163929 Si02
#       8
#     4   4   4   4   4   4   4   4
#     4  11  24  41  59  85 120 156 194 244 298 351
#     4  10  21  39  61  88 121 157 197 243 290 346
#     4   9  20  37  60  88 119 152 191 237 286 343
#     4  11  22  39  64  88 115 153 195 245 295 352
#     4  12  24  39  60  88 117 154 199 245 294 349
#     4  10  22  40  62  86 117 157 197 240 295 350
#     4  11  21  35  61  91 118 154 198 243 289 347
#     4  10  20  38  61  86 117 155 198 243 288 345
#
# _framework density 18.614041
#
# number of rings (size 3 to 8) (size 9 to 14) (size 15 to 20)
#    0.000    1.500    1.250    5.250    0.000    4.500 
#    2.250    0.000    0.000    0.000    0.000    0.000 
#    0.000    0.000    0.000    0.000    0.000    0.000 
#
# Total GULP energy -178857.680699 kJ/mol
# GULP energy per Si atom -5589.302522 kJ/mol
# Density = 1.857167 g / cm^3
# Si number density = 18.614041 Si / 1000 Ang^3
#
#
#
# Elastic Constant Matrix: (Units=GPa)
#
#
# Indices 1 2 3 4 5 6 
#
# 1 72.5263 4.9576 -4.5605 0.0000 -12.6277 0.0000
# 2 4.9576 25.3324 -7.2813 0.0000 1.3546 0.0000
# 3 -4.5605 -7.2813 29.5750 0.0000 -18.3142 0.0000
# 4 0.0000 0.0000 0.0000 19.7564 0.0000 -2.3106
# 5 -12.6277 1.3546 -18.3142 0.0000 29.5396 0.0000
# 6 0.0000 0.0000 0.0000 -2.3106 0.0000 33.8923
#
#
#
# Elastic Compliance Matrix: (Units=1/GPa)
#
#
# Indices 1 2 3 4 5 6 
#
# 1 0.017052 -0.000858 0.011292 0.000000 0.014329 0.000000
# 2 -0.000858 0.043535 0.014807 0.000000 0.006817 0.000000
# 3 0.011292 0.014807 0.067796 0.000000 0.046181 0.000000
# 4 0.000000 0.000000 0.000000 0.051023 0.000000 0.003478
# 5 0.014329 0.006817 0.046181 0.000000 0.068297 0.000000
# 6 0.000000 0.000000 0.000000 0.003478 0.000000 0.029742
#
#
# Mechanical properties :
#
#
# Convention : Reuss Voigt Hill
#
# Bulk Modulus (GPa) = 5.59080 12.62950 9.11015
# Shear Modulus (GPa) = 17.44683 25.59219 21.51951
#
# Velocity S-wave (km/s) = 3.06485 3.71197 3.40382
# Velocity P-wave (km/s) = 3.94138 5.01710 4.51141
#
# Compressibility (1/GPa) = 0.17886538
#
# Stress axis : x y z
#
# Youngs Moduli (GPa) = 58.64531 22.97028 14.75002
#
# Poissons Ratio (x) = 0.01970 -0.16655
# Poissons Ratio (y) = 0.05030 -0.21841
# Poissons Ratio (z) = -0.66220 -0.34013
#
# Static dielectric constant tensor:
#      x y z
#    x 1.636210 0.000000 -0.003010 
#    y 0.000000 1.623850 0.000000 
#    z -0.003010 0.000000 1.622370 
# 
# From -- ./inp_files/72107.got.cif
#   From: 2010.05.17/outbox.cif.g08.bks.cpg/sg11_37_cif.got.tgz:72107.got - 2010.06.03 12:22:45.
