data_PCOD9163395
_publ_section_title
;
Structure prediction by ZEFSAII (Michael W. Deem and Ramdas Pophale) SiO2 
 PCOD9163395
Probable space group: P 21/M
;
_chemical_formula_sum "Si O2"
_cell_formula_units_Z 32
_cell_length_a 7.133580
_cell_length_b 21.189920
_cell_length_c 10.363780
_cell_angle_alpha 90.000000
_cell_angle_beta 71.668407
_cell_angle_gamma 90.000000
_cell_volume 1487.087933
_symmetry_space_group_name_H-M "P 21/M"
_symmetry_group_IT_number 11
_symmetry_cell_setting 'monoclinic'
loop_
_space_group_symop_operation_xyz
x,y,z
-x,1/2+y,-z
-x,-y,-z
x,1/2-y,z
loop_
_atom_site_type_symbol
_atom_site_label
_atom_site_fract_x
_atom_site_fract_y
_atom_site_fract_z
Si Si1 0.433678 0.875233 0.672635
Si Si2 0.067447 0.319915 0.005065
Si Si3 0.649261 0.178475 0.046382
Si Si4 0.607335 0.820176 0.279977
Si Si5 0.753686 0.109372 0.568931
Si Si6 0.676483 0.578037 0.973788
Si Si7 0.831424 0.825924 0.480784
Si Si8 0.441160 0.995145 0.230458
O O1 0.327165 0.834127 0.805082
O O2 0.325960 0.879141 0.558718
O O3 0.649879 0.843280 0.613400
O O4 0.461087 0.945963 0.718542
O O5 0.049289 0.250000 0.071028
O O6 0.261662 0.317548 0.874272
O O7 0.121117 0.381949 0.074281
O O8 0.876544 0.328175 0.955064
O O9 0.581831 0.250000 0.035065
O O10 0.499170 0.126325 0.028554
O O11 0.568282 0.750000 0.337618
O O12 0.394104 0.849560 0.310170
O O13 0.744091 0.848894 0.361877
O O14 0.973690 0.134692 0.530977
O O15 0.700985 0.040831 0.638225
O O16 0.611501 0.547571 0.124939
O O17 0.677454 0.523306 0.866270
O O18 0.870637 0.750000 0.472724
#
# Coordination Sequence:
#
# PCOD9163395 Si02
#       8
#     4   4   4   4   4   4   4   4
#     4  10  23  42  59  85 124 162 200 246 292 348
#     4  10  20  36  62  92 118 153 195 243 308 364
#     4  10  22  39  63  92 121 154 196 246 301 361
#     4   9  19  35  56  88 123 147 187 249 304 356
#     4  11  21  39  64  86 116 161 201 243 295 352
#     4  10  21  41  60  87 124 159 196 248 301 349
#     4  10  22  38  61  91 119 153 197 247 304 358
#     4  10  22  40  61  85 121 159 206 248 287 352
#
# _framework density 21.518564000000001
#
# number of rings (size 3 to 8) (size 9 to 14) (size 15 to 20)
#    0.000    2.000    1.250    1.500    1.750    4.000 
#    0.000   14.375    0.000    0.000    0.000    0.000 
#    0.000    0.000    0.000    0.000    0.000    0.000 
#
# Total GULP energy -178458.655230 kJ/mol
# GULP energy per Si atom -5576.832976 kJ/mol
# Density = 2.146959 g / cm^3
# Si number density = 21.518564 Si / 1000 Ang^3
#
#
#
# Elastic Constant Matrix: (Units=GPa)
#
#
# Indices 1 2 3 4 5 6 
#
# 1 81.3209 17.0097 -2.9796 0.0000 -6.5324 0.0000
# 2 17.0097 68.4556 -11.1802 0.0000 -6.9513 0.0000
# 3 -2.9796 -11.1802 33.1663 0.0000 -1.4294 0.0000
# 4 0.0000 0.0000 0.0000 24.7831 0.0000 8.6247
# 5 -6.5324 -6.9513 -1.4294 0.0000 14.0102 0.0000
# 6 0.0000 0.0000 0.0000 8.6247 0.0000 17.5396
#
#
#
# Elastic Compliance Matrix: (Units=1/GPa)
#
#
# Indices 1 2 3 4 5 6 
#
# 1 0.013277 -0.002723 0.000485 0.000000 0.004889 0.000000
# 2 -0.002723 0.017026 0.005830 0.000000 0.007773 0.000000
# 3 0.000485 0.005830 0.032437 0.000000 0.006428 0.000000
# 4 0.000000 0.000000 0.000000 0.048680 0.000000 -0.023937
# 5 0.004889 0.007773 0.006428 0.000000 0.078168 0.000000
# 6 0.000000 0.000000 0.000000 -0.023937 0.000000 0.068784
#
#
# Mechanical properties :
#
#
# Convention : Reuss Voigt Hill
#
# Bulk Modulus (GPa) = 14.30127 20.96031 17.63079
# Shear Modulus (GPa) = 18.21508 23.27277 20.74393
#
# Velocity S-wave (km/s) = 2.91259 3.29222 3.10821
# Velocity P-wave (km/s) = 4.23927 4.92070 4.59264
#
# Compressibility (1/GPa) = 0.06992387
#
# Stress axis : x y z
#
# Youngs Moduli (GPa) = 75.31767 58.73342 30.82902
#
# Poissons Ratio (x) = 0.15995 -0.01497
# Poissons Ratio (y) = 0.20512 -0.17973
# Poissons Ratio (z) = -0.03656 -0.34240
#
# Static dielectric constant tensor:
#      x y z
#    x 1.772430 0.000000 0.022580 
#    y 0.000000 1.858940 0.000000 
#    z 0.022580 0.000000 1.864970 
# 
# From -- ./inp_files/30237.got.cif
#   From: 2010.05.17/outbox.cif.g08.bks.cpg/sg11_16_cif.got.tgz:30237.got - 2010.06.03 12:22:45.
