data_PCOD9163781
_publ_section_title
;
Structure prediction by ZEFSAII (Michael W. Deem and Ramdas Pophale) SiO2 
 PCOD9163781
Probable space group: P 21/M
;
_chemical_formula_sum "Si O2"
_cell_formula_units_Z 32
_cell_length_a 12.671300
_cell_length_b 14.116825
_cell_length_c 18.918391
_cell_angle_alpha 90.000000
_cell_angle_beta 26.809771
_cell_angle_gamma 90.000000
_cell_volume 1526.327020
_symmetry_space_group_name_H-M "P 21/M"
_symmetry_group_IT_number 11
_symmetry_cell_setting 'monoclinic'
loop_
_space_group_symop_operation_xyz
x,y,z
-x,1/2+y,-z
-x,-y,-z
x,1/2-y,z
loop_
_atom_site_type_symbol
_atom_site_label
_atom_site_fract_x
_atom_site_fract_y
_atom_site_fract_z
Si Si1 0.633815 0.137025 0.550129
Si Si2 0.914151 0.861982 0.479999
Si Si3 0.362121 0.638394 0.291821
Si Si4 0.634148 0.639310 0.425813
Si Si5 0.834954 0.138453 0.199545
Si Si6 0.999383 0.016135 0.707085
Si Si7 0.368544 0.636874 0.831482
Si Si8 0.261336 0.017049 0.006813
O O1 0.670428 0.250000 0.522675
O O2 0.569386 0.114158 0.668998
O O3 0.434689 0.111380 0.612622
O O4 0.867177 0.080968 0.390658
O O5 0.919905 0.750000 0.458089
O O6 0.013353 0.923120 0.356299
O O7 0.644238 0.885813 0.655775
O O8 0.086127 0.876508 0.443446
O O9 0.408185 0.750000 0.253608
O O10 0.510720 0.576779 0.149430
O O11 0.702314 0.750000 0.386265
O O12 0.398543 0.630129 0.613331
O O13 0.829309 0.575163 0.343614
O O14 0.901139 0.250000 0.160185
O O15 0.766599 0.112071 0.160180
O O16 0.040907 0.076885 0.109213
O O17 0.772643 0.998850 0.889795
O O18 0.349294 0.750000 0.852792
O O19 0.275051 0.579575 0.954028
#
# Coordination Sequence:
#
# PCOD9163781 Si02
#       8
#     4   4   4   4   4   4   4   4
#     4  10  22  39  61  88 122 164 210 253 292 355
#     4  10  22  45  71  88 114 161 215 258 295 356
#     4  10  24  45  66  90 119 160 210 255 304 361
#     4  10  20  37  62  92 125 161 208 254 299 359
#     4  10  20  38  62  89 126 166 204 248 306 365
#     4  12  23  36  64  94 124 160 204 251 310 366
#     4  10  22  40  62  90 124 166 209 254 302 356
#     4  12  25  36  59  93 134 163 191 250 316 376
#
# _framework density 20.965364000000001
#
# number of rings (size 3 to 8) (size 9 to 14) (size 15 to 20)
#    0.000    1.500    2.500    2.250    0.000    5.000 
#    0.000    2.500    0.000    3.000    0.000    0.000 
#    0.000    0.000    0.000    0.000    0.000    0.000 
#
# Total GULP energy -179056.345208 kJ/mol
# GULP energy per Si atom -5595.510788 kJ/mol
# Density = 2.091765 g / cm^3
# Si number density = 20.965364 Si / 1000 Ang^3
#
#
#
# Elastic Constant Matrix: (Units=GPa)
#
#
# Indices 1 2 3 4 5 6 
#
# 1 45.9097 8.5896 4.3566 0.0000 3.3754 0.0000
# 2 8.5896 58.1293 16.3802 0.0000 3.0016 0.0000
# 3 4.3566 16.3802 53.4046 0.0000 12.8700 0.0000
# 4 0.0000 0.0000 0.0000 30.5001 0.0000 2.2006
# 5 3.3754 3.0016 12.8700 0.0000 26.0114 0.0000
# 6 0.0000 0.0000 0.0000 2.2006 0.0000 3.8001
#
#
#
# Elastic Compliance Matrix: (Units=1/GPa)
#
#
# Indices 1 2 3 4 5 6 
#
# 1 0.022573 -0.003126 -0.000299 0.000000 -0.002420 0.000000
# 2 -0.003126 0.019277 -0.005926 0.000000 0.001113 0.000000
# 3 -0.000299 -0.005926 0.023154 0.000000 -0.010733 0.000000
# 4 0.000000 0.000000 0.000000 0.034216 0.000000 -0.019814
# 5 -0.002420 0.001113 -0.010733 0.000000 0.043941 0.000000
# 6 0.000000 0.000000 0.000000 -0.019814 0.000000 0.274627
#
#
# Mechanical properties :
#
#
# Convention : Reuss Voigt Hill
#
# Bulk Modulus (GPa) = 21.59775 24.01071 22.80423
# Shear Modulus (GPa) = 11.06378 20.60348 15.83363
#
# Velocity S-wave (km/s) = 2.29970 3.13827 2.75112
# Velocity P-wave (km/s) = 4.16839 4.96075 4.58173
#
# Compressibility (1/GPa) = 0.04630112
#
# Stress axis : x y z
#
# Youngs Moduli (GPa) = 44.30040 51.87431 43.18978
#
# Poissons Ratio (x) = 0.16217 0.01293
# Poissons Ratio (y) = 0.13849 0.25594
# Poissons Ratio (z) = 0.01326 0.30741
#
# Static dielectric constant tensor:
#      x y z
#    x 1.737230 0.000000 0.009000 
#    y 0.000000 1.761700 0.000000 
#    z 0.009000 0.000000 1.734910 
# 
# From -- ./inp_files/59443.got.cif
#   From: 2010.05.17/outbox.cif.g08.bks.cpg/sg11_30_cif.got.tgz:59443.got - 2010.06.03 12:22:45.
