data_PCOD9163073
_publ_section_title
;
Structure prediction by ZEFSAII (Michael W. Deem and Ramdas Pophale) SiO2 
 PCOD9163073
Probable space group: P 21/M
;
_chemical_formula_sum "Si O2"
_cell_formula_units_Z 28
_cell_length_a 9.742339
_cell_length_b 8.671563
_cell_length_c 27.636578
_cell_angle_alpha 90.000000
_cell_angle_beta 39.893620
_cell_angle_gamma 90.000000
_cell_volume 1497.440601
_symmetry_space_group_name_H-M "P 21/M"
_symmetry_group_IT_number 11
_symmetry_cell_setting 'monoclinic'
loop_
_space_group_symop_operation_xyz
x,y,z
-x,1/2+y,-z
-x,-y,-z
x,1/2-y,z
loop_
_atom_site_type_symbol
_atom_site_label
_atom_site_fract_x
_atom_site_fract_y
_atom_site_fract_z
Si Si1 0.863417 0.934927 0.719550
Si Si2 0.722524 0.424186 0.953272
Si Si3 0.935053 0.432570 0.069792
Si Si4 0.366909 0.935723 0.580527
Si Si5 0.481539 0.066074 0.761048
Si Si6 0.401123 0.929903 0.677826
Si Si7 0.956797 0.076526 0.788219
O O1 0.849572 0.750000 0.726625
O O2 0.114526 0.977889 0.643800
O O3 0.698248 0.996166 0.724769
O O4 0.807770 0.015943 0.785569
O O5 0.698072 0.250000 0.979596
O O6 0.844821 0.414001 0.869544
O O7 0.864992 0.525853 0.950171
O O8 0.500000 0.500000 0.000000
O O9 0.903255 0.250000 0.074701
O O10 0.723293 0.503478 0.153011
O O11 0.000000 0.500000 0.000000
O O12 0.374059 0.750000 0.578656
O O13 0.464233 0.985232 0.606570
O O14 0.500000 0.000000 0.500000
O O15 0.481262 0.250000 0.764818
O O16 0.467648 0.018352 0.708262
O O17 0.455825 0.750000 0.668510
O O18 0.146136 0.953978 0.742900
O O19 0.038036 0.250000 0.754432
#
# Coordination Sequence:
#
# PCOD9163073 Si02
#       7
#     4   4   4   4   4   4   4
#     4  10  22  39  60  88 121 159 201 244 296 356
#     4  11  24  40  59  85 118 153 199 250 302 357
#     4  12  26  44  64  86 120 162 203 253 309 362
#     4   9  20  38  63  93 124 156 196 243 294 356
#     4  12  24  40  62  90 122 158 204 252 302 361
#     4  10  20  37  61  88 118 157 199 240 293 354
#     4  10  20  36  58  84 114 150 197 248 293 351
#
# _framework density 18.698571000000001
#
# number of rings (size 3 to 8) (size 9 to 14) (size 15 to 20)
#    0.000    1.429    1.429    5.143    2.000    5.143 
#    0.000    0.714    0.000    0.000    0.000    0.000 
#    0.000    0.000    0.000    0.000    0.000    0.000 
#
# Total GULP energy -156227.935802 kJ/mol
# GULP energy per Si atom -5579.569136 kJ/mol
# Density = 1.865601 g / cm^3
# Si number density = 18.698571 Si / 1000 Ang^3
#
#
#
# Elastic Constant Matrix: (Units=GPa)
#
#
# Indices 1 2 3 4 5 6 
#
# 1 149.4305 36.4114 54.8891 0.0000 17.0219 0.0000
# 2 36.4114 99.0186 35.0950 0.0000 11.1788 0.0000
# 3 54.8891 35.0950 78.3938 0.0000 23.0799 0.0000
# 4 0.0000 0.0000 0.0000 25.1229 0.0000 6.2295
# 5 17.0219 11.1788 23.0799 0.0000 29.8671 0.0000
# 6 0.0000 0.0000 0.0000 6.2295 0.0000 33.2064
#
#
#
# Elastic Compliance Matrix: (Units=1/GPa)
#
#
# Indices 1 2 3 4 5 6 
#
# 1 0.009150 -0.001297 -0.005739 0.000000 -0.000294 0.000000
# 2 -0.001297 0.012192 -0.004432 0.000000 -0.000399 0.000000
# 3 -0.005739 -0.004432 0.022404 0.000000 -0.012383 0.000000
# 4 0.000000 0.000000 0.000000 0.041746 0.000000 -0.007832
# 5 -0.000294 -0.000399 -0.012383 0.000000 0.043368 0.000000
# 6 0.000000 0.000000 0.000000 -0.007832 0.000000 0.031584
#
#
# Mechanical properties :
#
#
# Convention : Reuss Voigt Hill
#
# Bulk Modulus (GPa) = 48.05606 64.40375 56.22990
# Shear Modulus (GPa) = 26.27181 31.00243 28.63712
#
# Velocity S-wave (km/s) = 3.75242 4.07629 3.91770
# Velocity P-wave (km/s) = 6.67311 7.52813 7.11348
#
# Compressibility (1/GPa) = 0.02080903
#
# Stress axis : x y z
#
# Youngs Moduli (GPa) = 109.29238 82.02005 44.63398
#
# Poissons Ratio (x) = 0.10640 0.25615
# Poissons Ratio (y) = 0.14178 0.19783
# Poissons Ratio (z) = 0.62723 0.36354
#
# Static dielectric constant tensor:
#      x y z
#    x 1.631250 0.000000 0.036960 
#    y 0.000000 1.652330 0.000000 
#    z 0.036960 0.000000 1.649760 
# 
# From -- ./inp_files/70809.got.cif
#   From: 2010.05.17/outbox.cif.g08.bks.cpg/sg11_36_cif.got.tgz:70809.got - 2010.06.03 12:22:45.
