data_PCOD9163665
_publ_section_title
;
Structure prediction by ZEFSAII (Michael W. Deem and Ramdas Pophale) SiO2 
 PCOD9163665
Probable space group: P 21/M
;
_chemical_formula_sum "Si O2"
_cell_formula_units_Z 28
_cell_length_a 29.695892
_cell_length_b 8.873131
_cell_length_c 9.357225
_cell_angle_alpha 90.000000
_cell_angle_beta 38.130063
_cell_angle_gamma 90.000000
_cell_volume 1522.373505
_symmetry_space_group_name_H-M "P 21/M"
_symmetry_group_IT_number 11
_symmetry_cell_setting 'monoclinic'
loop_
_space_group_symop_operation_xyz
x,y,z
-x,1/2+y,-z
-x,-y,-z
x,1/2-y,z
loop_
_atom_site_type_symbol
_atom_site_label
_atom_site_fract_x
_atom_site_fract_y
_atom_site_fract_z
Si Si1 0.206027 0.930473 0.404456
Si Si2 0.930897 0.568993 0.090941
Si Si3 0.362745 0.429869 0.014013
Si Si4 0.068460 0.069803 0.246332
Si Si5 0.358873 0.070411 0.687065
Si Si6 0.502830 0.431160 0.150130
Si Si7 0.796082 0.429207 0.927988
O O1 0.207099 0.750000 0.418574
O O2 0.193303 0.963656 0.267495
O O3 0.142017 0.002680 0.656666
O O4 0.284444 0.999692 0.247890
O O5 0.931559 0.750000 0.102951
O O6 0.934428 0.530648 0.914197
O O7 0.000000 0.500000 0.000000
O O8 0.361512 0.250000 0.038886
O O9 0.373941 0.459574 0.816900
O O10 0.427667 0.503831 0.940224
O O11 0.065675 0.250000 0.265465
O O12 0.142283 0.009293 0.133383
O O13 0.000000 0.000000 0.500000
O O14 0.346644 0.250000 0.702592
O O15 0.428823 0.027806 0.419510
O O16 0.284834 0.985414 0.831146
O O17 0.507164 0.250000 0.133638
O O18 0.500000 0.500000 0.000000
O O19 0.801483 0.250000 0.932264
#
# Coordination Sequence:
#
# PCOD9163665 Si02
#       7
#     4   4   4   4   4   4   4
#     4  10  21  38  60  87 116 147 186 232 280 335
#     4  11  24  40  59  85 115 150 190 233 280 334
#     4  10  20  37  61  86 112 147 189 233 283 338
#     4  11  24  40  59  84 115 149 188 231 278 332
#     4   9  20  38  60  84 112 148 189 232 281 336
#     4  11  23  38  56  82 116 152 190 235 284 335
#     4  10  21  37  60  88 115 145 186 232 280 334
#
# _framework density 18.392333000000001
#
# number of rings (size 3 to 8) (size 9 to 14) (size 15 to 20)
#    0.000    1.714    0.000    3.857    0.000   10.286 
#    0.000    1.429    0.000    0.000    0.000    0.000 
#    0.000    0.000    0.000    0.000    0.000    0.000 
#
# Total GULP energy -156531.069232 kJ/mol
# GULP energy per Si atom -5590.395330 kJ/mol
# Density = 1.835047 g / cm^3
# Si number density = 18.392333 Si / 1000 Ang^3
#
#
#
# Elastic Constant Matrix: (Units=GPa)
#
#
# Indices 1 2 3 4 5 6 
#
# 1 170.3884 84.7003 112.3935 0.0000 -21.7272 0.0000
# 2 84.7003 76.9823 84.3317 0.0000 -3.7742 0.0000
# 3 112.3935 84.3317 200.5855 0.0000 -12.2351 0.0000
# 4 0.0000 0.0000 0.0000 36.6899 0.0000 -5.5042
# 5 -21.7272 -3.7742 -12.2351 0.0000 19.2187 0.0000
# 6 0.0000 0.0000 0.0000 -5.5042 0.0000 37.5217
#
#
#
# Elastic Compliance Matrix: (Units=1/GPa)
#
#
# Indices 1 2 3 4 5 6 
#
# 1 0.016788 -0.015623 -0.001944 0.000000 0.014674 0.000000
# 2 -0.015623 0.038678 -0.008450 0.000000 -0.015446 0.000000
# 3 -0.001944 -0.008450 0.009771 0.000000 0.002364 0.000000
# 4 0.000000 0.000000 0.000000 0.027869 0.000000 0.004088
# 5 0.014674 -0.015446 0.002364 0.000000 0.067094 0.000000
# 6 0.000000 0.000000 0.000000 0.004088 0.000000 0.027251
#
#
# Mechanical properties :
#
#
# Convention : Reuss Voigt Hill
#
# Bulk Modulus (GPa) = 75.72614 112.31189 94.01902
# Shear Modulus (GPa) = 20.50140 29.78809 25.14474
#
# Velocity S-wave (km/s) = 3.34229 4.02878 3.70149
# Velocity P-wave (km/s) = 7.49377 9.10157 8.33652
#
# Compressibility (1/GPa) = 0.01320548
#
# Stress axis : x y z
#
# Youngs Moduli (GPa) = 59.56488 25.85431 102.34307
#
# Poissons Ratio (x) = 0.40392 0.19891
# Poissons Ratio (y) = 0.93058 0.86475
# Poissons Ratio (z) = 0.11577 0.21846
#
# Static dielectric constant tensor:
#      x y z
#    x 1.602580 0.000000 0.011010 
#    y 0.000000 1.611340 0.000000 
#    z 0.011010 0.000000 1.607000 
# 
# From -- ./inp_files/28389.got.cif
#   From: 2010.05.17/outbox.cif.g08.bks.cpg/sg11_15_cif.got.tgz:28389.got - 2010.06.03 12:22:45.
