data_PCOD9163753
_publ_section_title
;
Structure prediction by ZEFSAII (Michael W. Deem and Ramdas Pophale) SiO2 
 PCOD9163753
Probable space group: P 21/M
;
_chemical_formula_sum "Si O2"
_cell_formula_units_Z 32
_cell_length_a 16.012244
_cell_length_b 14.931256
_cell_length_c 22.571380
_cell_angle_alpha 90.000000
_cell_angle_beta 15.592988
_cell_angle_gamma 90.000000
_cell_volume 1450.571229
_symmetry_space_group_name_H-M "P 21/M"
_symmetry_group_IT_number 11
_symmetry_cell_setting 'monoclinic'
loop_
_space_group_symop_operation_xyz
x,y,z
-x,1/2+y,-z
-x,-y,-z
x,1/2-y,z
loop_
_atom_site_type_symbol
_atom_site_label
_atom_site_fract_x
_atom_site_fract_y
_atom_site_fract_z
Si Si1 0.675053 0.846956 0.598433
Si Si2 0.980393 0.645706 0.905280
Si Si3 0.818671 0.647855 0.750172
Si Si4 0.657542 0.980912 0.211131
Si Si5 0.280964 0.352570 0.044679
Si Si6 0.882811 0.466175 0.641611
Si Si7 0.593732 0.962286 0.499401
Si Si8 0.886682 0.151914 0.816664
O O1 0.535205 0.750000 0.704279
O O2 0.444343 0.929008 0.752195
O O3 0.877921 0.845330 0.399836
O O4 0.925063 0.877012 0.475283
O O5 0.959131 0.750000 0.931411
O O6 0.321714 0.612862 0.692685
O O7 0.708268 0.597182 0.128784
O O8 0.930398 0.631108 0.868776
O O9 0.916478 0.750000 0.662951
O O10 0.947300 0.551195 0.640650
O O11 0.855238 0.648985 0.795978
O O12 0.456622 0.638926 0.975783
O O13 0.452350 0.973809 0.411489
O O14 0.000000 0.000000 0.000000
O O15 0.408088 0.250000 0.949415
O O16 0.533538 0.431250 0.876318
O O17 0.000000 0.500000 0.500000
O O18 0.941365 0.921950 0.261315
O O19 0.500000 0.000000 0.500000
O O20 0.887546 0.250000 0.845364
#
# Coordination Sequence:
#
# PCOD9163753 Si02
#       8
#     4   4   4   4   4   4   4   4
#     4  10  20  37  62  89 116 155 205 253 303 363
#     4  10  21  39  61  87 125 169 207 251 316 381
#     4  10  22  40  62  90 120 161 210 260 309 367
#     4   9  20  39  61  89 122 162 207 252 310 369
#     4  10  21  38  61  87 119 159 208 253 306 373
#     4  12  24  36  58  88 125 162 198 249 310 375
#     4  10  21  35  61  91 123 160 209 268 310 368
#     4   9  18  36  61  86 116 155 205 257 308 360
#
# _framework density 22.060276000000002
#
# number of rings (size 3 to 8) (size 9 to 14) (size 15 to 20)
#    0.000    2.000    1.250    1.875    1.750    5.000 
#    0.000    1.875    0.000    0.750    0.000    0.000 
#    0.000    0.000    0.000    0.000    0.000    0.000 
#
# Total GULP energy -178395.210321 kJ/mol
# GULP energy per Si atom -5574.850323 kJ/mol
# Density = 2.201007 g / cm^3
# Si number density = 22.060276 Si / 1000 Ang^3
#
#
#
# Elastic Constant Matrix: (Units=GPa)
#
#
# Indices 1 2 3 4 5 6 
#
# 1 103.1593 35.2720 9.9125 0.0000 1.9322 0.0000
# 2 35.2720 120.1814 28.0477 0.0000 8.8696 0.0000
# 3 9.9125 28.0477 21.0724 0.0000 -7.4416 0.0000
# 4 0.0000 0.0000 0.0000 27.6106 0.0000 -8.7665
# 5 1.9322 8.8696 -7.4416 0.0000 30.1396 0.0000
# 6 0.0000 0.0000 0.0000 -8.7665 0.0000 32.6224
#
#
#
# Elastic Compliance Matrix: (Units=1/GPa)
#
#
# Indices 1 2 3 4 5 6 
#
# 1 0.010799 -0.002832 -0.001380 0.000000 -0.000199 0.000000
# 2 -0.002832 0.015021 -0.022083 0.000000 -0.009691 0.000000
# 3 -0.001380 -0.022083 0.087449 0.000000 0.028179 0.000000
# 4 0.000000 0.000000 0.000000 0.039596 0.000000 0.010641
# 5 -0.000199 -0.009691 0.028179 0.000000 0.043001 0.000000
# 6 0.000000 0.000000 0.000000 0.010641 0.000000 0.033513
#
#
# Mechanical properties :
#
#
# Convention : Reuss Voigt Hill
#
# Bulk Modulus (GPa) = 16.48067 43.43084 29.95576
# Shear Modulus (GPa) = 16.54548 29.48658 23.01603
#
# Velocity S-wave (km/s) = 2.74161 3.65997 3.23356
# Velocity P-wave (km/s) = 4.18436 6.13112 5.24878
#
# Compressibility (1/GPa) = 0.06067714
#
# Stress axis : x y z
#
# Youngs Moduli (GPa) = 92.60493 66.57304 11.43520
#
# Poissons Ratio (x) = 0.18857 0.01578
# Poissons Ratio (y) = 0.26230 0.25253
# Poissons Ratio (z) = 0.12779 1.47016
#
# Static dielectric constant tensor:
#      x y z
#    x 0.476020 0.000000 0.958700 
#    y 0.000000 1.885920 0.000000 
#    z 0.958700 0.000000 1.152600 
# 
# From -- ./inp_files/65741.got.cif
#   From: 2010.05.17/outbox.cif.g08.bks.cpg/sg11_33_cif.got.tgz:65741.got - 2010.06.03 12:22:45.
