data_PCOD9163205
_publ_section_title
;
Structure prediction by ZEFSAII (Michael W. Deem and Ramdas Pophale) SiO2 
 PCOD9163205
Probable space group: P 21/M
;
_chemical_formula_sum "Si O2"
_cell_formula_units_Z 32
_cell_length_a 8.286399
_cell_length_b 11.827284
_cell_length_c 18.554472
_cell_angle_alpha 90.000000
_cell_angle_beta 122.018734
_cell_angle_gamma 90.000000
_cell_volume 1541.811163
_symmetry_space_group_name_H-M "P 21/M"
_symmetry_group_IT_number 11
_symmetry_cell_setting 'monoclinic'
loop_
_space_group_symop_operation_xyz
x,y,z
-x,1/2+y,-z
-x,-y,-z
x,1/2-y,z
loop_
_atom_site_type_symbol
_atom_site_label
_atom_site_fract_x
_atom_site_fract_y
_atom_site_fract_z
Si Si1 0.294976 0.626227 0.889735
Si Si2 0.281494 0.481679 0.609785
Si Si3 0.082887 0.118855 0.431288
Si Si4 0.144109 0.414686 0.201165
Si Si5 0.594876 0.624652 0.604879
Si Si6 0.411054 0.960520 0.068992
Si Si7 0.885434 0.621901 0.970183
Si Si8 0.367582 0.880152 0.219401
O O1 0.352221 0.750000 0.874676
O O2 0.379795 0.512178 0.876473
O O3 0.069077 0.616537 0.830635
O O4 0.355144 0.616129 0.988379
O O5 0.172533 0.393674 0.532383
O O6 0.406769 0.556795 0.583131
O O7 0.437684 0.428725 0.700211
O O8 0.116588 0.551225 0.612437
O O9 0.045904 0.250000 0.404902
O O10 0.247077 0.077865 0.414035
O O11 0.289553 0.367917 0.293204
O O12 0.175276 0.371809 0.127513
O O13 0.191706 0.547831 0.208729
O O14 0.541828 0.750000 0.566054
O O15 0.366249 0.900763 0.133254
O O16 0.296660 0.079399 0.029054
O O17 0.953544 0.750000 0.006340
O O18 0.000000 0.500000 0.000000
O O19 0.350960 0.750000 0.232636
#
# Coordination Sequence:
#
# PCOD9163205 Si02
#       8
#     4   4   4   4   4   4   4   4
#     4  11  21  38  57  81 118 153 195 251 298 349
#     4  10  21  38  60  88 123 152 197 243 295 365
#     4  10  21  37  62  90 117 156 195 240 300 359
#     4  10  22  37  58  85 113 151 198 246 300 352
#     4  10  20  36  59  87 120 155 194 247 299 354
#     4  10  23  37  56  84 112 155 199 242 298 360
#     4  11  21  36  56  82 111 153 201 248 299 357
#     4  10  22  41  61  83 117 157 196 246 300 358
#
# _framework density 20.754809999999999
#
# number of rings (size 3 to 8) (size 9 to 14) (size 15 to 20)
#    0.000    1.750    1.250    3.000    1.750    2.000 
#    0.000    2.500    0.000    3.750    0.000    0.000 
#    0.000    0.000    0.000    0.000    0.000    0.000 
#
# Total GULP energy -178230.921819 kJ/mol
# GULP energy per Si atom -5569.716307 kJ/mol
# Density = 2.070757 g / cm^3
# Si number density = 20.754810 Si / 1000 Ang^3
#
#
#
# Elastic Constant Matrix: (Units=GPa)
#
#
# Indices 1 2 3 4 5 6 
#
# 1 64.7219 32.4305 -7.6957 0.0000 8.0542 0.0000
# 2 32.4305 122.5763 15.5302 0.0000 9.9403 0.0000
# 3 -7.6957 15.5302 52.0463 0.0000 4.5321 0.0000
# 4 0.0000 0.0000 0.0000 52.4696 0.0000 14.8739
# 5 8.0542 9.9403 4.5321 0.0000 27.5230 0.0000
# 6 0.0000 0.0000 0.0000 14.8739 0.0000 16.5817
#
#
#
# Elastic Compliance Matrix: (Units=1/GPa)
#
#
# Indices 1 2 3 4 5 6 
#
# 1 0.019264 -0.005344 0.004835 0.000000 -0.004503 0.000000
# 2 -0.005344 0.010161 -0.003692 0.000000 -0.001498 0.000000
# 3 0.004835 -0.003692 0.021343 0.000000 -0.003596 0.000000
# 4 0.000000 0.000000 0.000000 0.025557 0.000000 -0.022925
# 5 -0.004503 -0.001498 -0.003596 0.000000 0.038784 0.000000
# 6 0.000000 0.000000 0.000000 -0.022925 0.000000 0.080871
#
#
# Mechanical properties :
#
#
# Convention : Reuss Voigt Hill
#
# Bulk Modulus (GPa) = 23.60322 35.54161 29.57241
# Shear Modulus (GPa) = 22.88276 32.58683 27.73480
#
# Velocity S-wave (km/s) = 3.32404 3.96673 3.65952
# Velocity P-wave (km/s) = 5.11169 6.17589 5.66882
#
# Compressibility (1/GPa) = 0.04236711
#
# Stress axis : x y z
#
# Youngs Moduli (GPa) = 51.91062 98.41221 46.85299
#
# Poissons Ratio (x) = 0.52593 -0.22654
# Poissons Ratio (y) = 0.27742 0.17297
# Poissons Ratio (z) = -0.25100 0.36332
#
# Static dielectric constant tensor:
#      x y z
#    x 1.866010 0.000000 0.052020 
#    y 0.000000 1.785160 0.000000 
#    z 0.052020 0.000000 1.771690 
# 
# From -- ./inp_files/63682.got.cif
#   From: 2010.05.17/outbox.cif.g08.bks.cpg/sg11_32_cif.got.tgz:63682.got - 2010.06.03 12:22:45.
