data_PCOD9163964
_publ_section_title
;
Structure prediction by ZEFSAII (Michael W. Deem and Ramdas Pophale) SiO2 
 PCOD9163964
Probable space group: P 21/M
;
_chemical_formula_sum "Si O2"
_cell_formula_units_Z 20
_cell_length_a 18.422756
_cell_length_b 7.981770
_cell_length_c 12.206797
_cell_angle_alpha 90.000000
_cell_angle_beta 149.468800
_cell_angle_gamma 90.000000
_cell_volume 911.854698
_symmetry_space_group_name_H-M "P 21/M"
_symmetry_group_IT_number 11
_symmetry_cell_setting 'monoclinic'
loop_
_space_group_symop_operation_xyz
x,y,z
-x,1/2+y,-z
-x,-y,-z
x,1/2-y,z
loop_
_atom_site_type_symbol
_atom_site_label
_atom_site_fract_x
_atom_site_fract_y
_atom_site_fract_z
Si Si1 0.358003 0.952290 0.882430
Si Si2 0.240915 0.445771 0.363259
Si Si3 0.900877 0.055887 0.600723
Si Si4 0.187984 0.554590 0.063216
Si Si5 0.431253 0.954490 0.221392
O O1 0.351549 0.750000 0.874152
O O2 0.215347 0.013394 0.635976
O O3 0.374015 0.009084 0.028297
O O4 0.500000 0.000000 0.000000
O O5 0.242878 0.250000 0.397128
O O6 0.172204 0.541868 0.374849
O O7 0.162332 0.465843 0.145498
O O8 0.403759 0.503729 0.554949
O O9 0.928486 0.250000 0.611050
O O10 0.051988 0.965106 0.807702
O O11 0.208220 0.750000 0.114094
O O12 0.328074 0.486319 0.183909
O O13 0.426903 0.750000 0.218124
#
# Coordination Sequence:
#
# PCOD9163964 Si02
#       5
#     4   4   4   4   4
#     4  10  20  38  62  87 115 147 190 238 285 342
#     4  11  21  38  63  86 115 153 195 240 286 342
#     4  11  23  38  59  88 119 152 192 238 284 341
#     4  11  23  39  58  84 120 156 192 236 288 343
#     4   9  20  38  61  87 116 151 189 237 292 341
#
# _framework density 21.933319000000001
#
# number of rings (size 3 to 8) (size 9 to 14) (size 15 to 20)
#    0.000    1.600    2.000    3.000    0.000    1.600 
#    0.000    5.000    0.000    0.000    0.000    0.000 
#    0.000    0.000    0.000    0.000    0.000    0.000 
#
# Total GULP energy -111837.767498 kJ/mol
# GULP energy per Si atom -5591.888375 kJ/mol
# Density = 2.188340 g / cm^3
# Si number density = 21.933319 Si / 1000 Ang^3
#
#
#
# Elastic Constant Matrix: (Units=GPa)
#
#
# Indices 1 2 3 4 5 6 
#
# 1 41.7153 -5.2266 -8.5159 0.0000 -1.3102 0.0000
# 2 -5.2266 29.4385 -4.1339 0.0000 0.0745 0.0000
# 3 -8.5159 -4.1339 98.8532 0.0000 -5.1772 0.0000
# 4 0.0000 0.0000 0.0000 22.4588 0.0000 0.1275
# 5 -1.3102 0.0745 -5.1772 0.0000 38.7640 0.0000
# 6 0.0000 0.0000 0.0000 0.1275 0.0000 7.9133
#
#
#
# Elastic Compliance Matrix: (Units=1/GPa)
#
#
# Indices 1 2 3 4 5 6 
#
# 1 0.025104 0.004795 0.002424 0.000000 0.001163 0.000000
# 2 0.004795 0.035086 0.001899 0.000000 0.000348 0.000000
# 3 0.002424 0.001899 0.010482 0.000000 0.001478 0.000000
# 4 0.000000 0.000000 0.000000 0.044530 0.000000 -0.000718
# 5 0.001163 0.000348 0.001478 0.000000 0.026033 0.000000
# 6 0.000000 0.000000 0.000000 -0.000718 0.000000 0.126382
#
#
# Mechanical properties :
#
#
# Convention : Reuss Voigt Hill
#
# Bulk Modulus (GPa) = 11.24784 14.91714 13.08249
# Shear Modulus (GPa) = 17.91999 26.35277 22.13638
#
# Velocity S-wave (km/s) = 2.86146 3.47002 3.18033
# Velocity P-wave (km/s) = 4.00707 4.78232 4.41176
#
# Compressibility (1/GPa) = 0.08890598
#
# Stress axis : x y z
#
# Youngs Moduli (GPa) = 39.83408 28.50138 95.40490
#
# Poissons Ratio (x) = -0.13665 -0.23127
# Poissons Ratio (y) = -0.19099 -0.18113
# Poissons Ratio (z) = -0.09656 -0.05411
#
# Static dielectric constant tensor:
#      x y z
#    x 1.760810 0.000000 0.007370 
#    y 0.000000 1.785310 0.000000 
#    z 0.007370 0.000000 1.807500 
# 
# From -- ./inp_files/15915.got.cif
#   From: 2010.05.17/outbox.cif.g08.bks.cpg/sg11_8_cif.got.tgz:15915.got - 2010.06.03 12:22:45.
