data_PCOD9163414
_publ_section_title
;
Structure prediction by ZEFSAII (Michael W. Deem and Ramdas Pophale) SiO2 
 PCOD9163414
Probable space group: P 21/M
;
_chemical_formula_sum "Si O2"
_cell_formula_units_Z 26
_cell_length_a 17.284859
_cell_length_b 14.767547
_cell_length_c 8.366832
_cell_angle_alpha 90.000000
_cell_angle_beta 146.511531
_cell_angle_gamma 90.000000
_cell_volume 1178.399820
_symmetry_space_group_name_H-M "P 21/M"
_symmetry_group_IT_number 11
_symmetry_cell_setting 'monoclinic'
loop_
_space_group_symop_operation_xyz
x,y,z
-x,1/2+y,-z
-x,-y,-z
x,1/2-y,z
loop_
_atom_site_type_symbol
_atom_site_label
_atom_site_fract_x
_atom_site_fract_y
_atom_site_fract_z
Si Si1 0.071105 0.750000 0.077136
Si Si2 0.910883 0.250000 0.498037
Si Si3 0.638475 0.975299 0.397906
Si Si4 0.130789 0.933218 0.606040
Si Si5 0.649611 0.047767 0.740742
Si Si6 0.924188 0.564578 0.742393
Si Si7 0.400330 0.858654 0.883668
Si Si8 0.705747 0.250000 0.823863
O O1 0.088830 0.750000 0.302005
O O2 0.205588 0.750000 0.189939
O O3 0.987302 0.661836 0.879017
O O4 0.974120 0.348076 0.560168
O O5 0.789503 0.250000 0.141051
O O6 0.757740 0.936844 0.488418
O O7 0.709700 0.003367 0.684270
O O8 0.579972 0.071966 0.230857
O O9 0.517358 0.900100 0.203659
O O10 0.247003 0.885404 0.686402
O O11 0.059441 0.018455 0.401452
O O12 0.232020 0.962617 0.921999
O O13 0.625961 0.155352 0.684852
O O14 0.500000 0.000000 0.500000
O O15 0.000000 0.500000 0.000000
O O16 0.411648 0.750000 0.880543
#
# Coordination Sequence:
#
# PCOD9163414 Si02
#       8
#     2   2   4   4   4   4   4   2
#     4  12  24  46  69  91 129 179 226 273 326 387
#     4  10  20  40  67  94 125 162 222 269 317 381
#     4  10  23  38  58  96 124 170 219 261 341 391
#     4  10  20  38  62  93 125 161 208 267 323 382
#     4  11  22  41  63  97 135 168 209 274 331 398
#     4  11  23  41  64  91 123 168 221 273 318 381
#     4  10  20  36  63  88 125 163 215 267 322 399
#     4  10  26  42  68 101 124 175 228 260 329 400
#
# _framework density 22.063817
#
# number of rings (size 3 to 8) (size 9 to 14) (size 15 to 20)
#    0.000    1.538    3.846    0.923    4.308    0.000 
#    2.769    3.077    0.000    0.000    0.000    0.000 
#    0.000    0.000    0.000    0.000    0.000    0.000 
#
# Total GULP energy -144868.032128 kJ/mol
# GULP energy per Si atom -5571.847390 kJ/mol
# Density = 2.201360 g / cm^3
# Si number density = 22.063817 Si / 1000 Ang^3
#
#
#
# Elastic Constant Matrix: (Units=GPa)
#
#
# Indices 1 2 3 4 5 6 
#
# 1 41.5037 34.6579 20.0436 0.0000 -1.7615 0.0000
# 2 34.6579 202.8557 74.5356 0.0000 -3.7870 0.0000
# 3 20.0436 74.5356 112.0112 0.0000 -24.8111 0.0000
# 4 0.0000 0.0000 0.0000 53.4299 0.0000 0.6328
# 5 -1.7615 -3.7870 -24.8111 0.0000 39.5614 0.0000
# 6 0.0000 0.0000 0.0000 0.6328 0.0000 23.4885
#
#
#
# Elastic Compliance Matrix: (Units=1/GPa)
#
#
# Indices 1 2 3 4 5 6 
#
# 1 0.028632 -0.003918 -0.002691 0.000000 -0.000788 0.000000
# 2 -0.003918 0.007270 -0.004670 0.000000 -0.002407 0.000000
# 3 -0.002691 -0.004670 0.014390 0.000000 0.008458 0.000000
# 4 0.000000 0.000000 0.000000 0.018722 0.000000 -0.000504
# 5 -0.000788 -0.002407 0.008458 0.000000 0.030316 0.000000
# 6 0.000000 0.000000 0.000000 -0.000504 0.000000 0.042588
#
#
# Mechanical properties :
#
#
# Convention : Reuss Voigt Hill
#
# Bulk Modulus (GPa) = 36.05569 68.31609 52.18589
# Shear Modulus (GPa) = 28.78204 38.43818 33.61011
#
# Velocity S-wave (km/s) = 3.61569 4.17842 3.90720
# Velocity P-wave (km/s) = 5.81446 7.36947 6.63766
#
# Compressibility (1/GPa) = 0.02773487
#
# Stress axis : x y z
#
# Youngs Moduli (GPa) = 34.92610 137.55526 69.49231
#
# Poissons Ratio (x) = 0.53890 0.18701
# Poissons Ratio (y) = 0.13683 0.32451
# Poissons Ratio (z) = 0.09399 0.64234
#
# Static dielectric constant tensor:
#      x y z
#    x 1.984170 0.000000 -0.038260 
#    y 0.000000 1.861030 0.000000 
#    z -0.038260 0.000000 1.814610 
# 
# From -- ./inp_files/26898.got.cif
#   From: 2010.05.17/outbox.cif.g08.bks.cpg/sg11_14_cif.got.tgz:26898.got - 2010.06.03 12:22:45.
