data_PCOD9163771
_publ_section_title
;
Structure prediction by ZEFSAII (Michael W. Deem and Ramdas Pophale) SiO2 
 PCOD9163771
Probable space group: P 21/M
;
_chemical_formula_sum "Si O2"
_cell_formula_units_Z 28
_cell_length_a 13.355649
_cell_length_b 17.712521
_cell_length_c 5.705909
_cell_angle_alpha 90.000000
_cell_angle_beta 74.233523
_cell_angle_gamma 90.000000
_cell_volume 1299.019028
_symmetry_space_group_name_H-M "P 21/M"
_symmetry_group_IT_number 11
_symmetry_cell_setting 'monoclinic'
loop_
_space_group_symop_operation_xyz
x,y,z
-x,1/2+y,-z
-x,-y,-z
x,1/2-y,z
loop_
_atom_site_type_symbol
_atom_site_label
_atom_site_fract_x
_atom_site_fract_y
_atom_site_fract_z
Si Si1 0.285444 0.886670 0.774655
Si Si2 0.717463 0.834970 0.787936
Si Si3 0.918995 0.163705 0.343551
Si Si4 0.737746 0.538924 0.446642
Si Si5 0.444107 0.750000 0.724347
Si Si6 0.563407 0.750000 0.151842
Si Si7 0.866178 0.443566 0.743137
Si Si8 0.102112 0.407822 0.032721
O O1 0.200299 0.851368 0.650848
O O2 0.375483 0.826192 0.749580
O O3 0.315772 0.971758 0.670283
O O4 0.217954 0.898371 0.051898
O O5 0.727720 0.750000 0.680031
O O6 0.677204 0.896329 0.627481
O O7 0.826233 0.863266 0.824209
O O8 0.638310 0.822145 0.055317
O O9 0.935704 0.250000 0.386830
O O10 0.940901 0.110865 0.552020
O O11 0.994938 0.137012 0.087622
O O12 0.800693 0.491772 0.598938
O O13 0.823545 0.581324 0.235321
O O14 0.513906 0.750000 0.440564
O O15 0.493416 0.750000 0.956270
O O16 0.920060 0.507347 0.863998
#
# Coordination Sequence:
#
# PCOD9163771 Si02
#       8
#     4   4   4   4   2   2   4   4
#     4  10  23  39  64  91 134 173 226 274 328 396
#     4   9  21  40  65  96 127 171 213 278 333 409
#     4  11  22  34  56  95 130 175 219 266 323 398
#     4   9  20  39  66  91 131 171 218 271 336 391
#     4  12  26  48  71 101 129 185 222 290 340 413
#     4  10  28  44  75  99 133 173 230 278 366 397
#     4   9  21  38  58  87 129 176 218 267 324 393
#     4  10  20  37  62  90 131 172 218 268 333 394
#
# _framework density 21.554727
#
# number of rings (size 3 to 8) (size 9 to 14) (size 15 to 20)
#    0.429    1.714    0.714    0.857    7.000    8.571 
#    0.000    1.429    0.000    0.000    0.000    0.000 
#    0.000    0.000    0.000    0.000    0.000    0.000 
#
# Total GULP energy -156153.295370 kJ/mol
# GULP energy per Si atom -5576.903406 kJ/mol
# Density = 2.150567 g / cm^3
# Si number density = 21.554727 Si / 1000 Ang^3
#
#
#
# Elastic Constant Matrix: (Units=GPa)
#
#
# Indices 1 2 3 4 5 6 
#
# 1 58.3116 28.0706 7.9842 0.0000 5.6646 0.0000
# 2 28.0706 112.6532 44.2983 0.0000 -27.2421 0.0000
# 3 7.9842 44.2983 84.9100 0.0000 -7.9641 0.0000
# 4 0.0000 0.0000 0.0000 34.4700 0.0000 -21.2232
# 5 5.6646 -27.2421 -7.9641 0.0000 20.3405 0.0000
# 6 0.0000 0.0000 0.0000 -21.2232 0.0000 7.8725
#
#
#
# Elastic Compliance Matrix: (Units=1/GPa)
#
#
# Indices 1 2 3 4 5 6 
#
# 1 0.025264 -0.012751 0.002092 0.000000 -0.023294 0.000000
# 2 -0.012751 0.022477 -0.007652 0.000000 0.030658 0.000000
# 3 0.002092 -0.007652 0.015112 0.000000 -0.004914 0.000000
# 4 0.000000 0.000000 0.000000 -0.043967 0.000000 -0.118527
# 5 -0.023294 0.030658 -0.004914 0.000000 0.094786 0.000000
# 6 0.000000 0.000000 0.000000 -0.118527 0.000000 -0.192508
#
#
# Mechanical properties :
#
#
# Convention : Reuss Voigt Hill
#
# Bulk Modulus (GPa) = 38.12333 46.28677 42.20505
# Shear Modulus (GPa) = -149.38084 24.23807 -62.57139
#
# Velocity S-wave (km/s) = -8.33388 3.35698 -5.39371
# Velocity P-wave (km/s) = 8.65330 6.04536 4.37796
#
# Compressibility (1/GPa) = 0.02623066
#
# Stress axis : x y z
#
# Youngs Moduli (GPa) = 39.58252 44.49062 66.17435
#
# Poissons Ratio (x) = 0.56728 -0.13842
# Poissons Ratio (y) = 0.50470 0.50635
# Poissons Ratio (z) = -0.08280 0.34043
#
# Static dielectric constant tensor:
#      x y z
#    x 1.807370 0.000000 0.044350 
#    y 0.000000 1.786740 0.000000 
#    z 0.044350 0.000000 1.824890 
# 
# From -- ./inp_files/6673.got.cif
#   From: 2010.05.17/outbox.cif.g08.bks.cpg/sg11_4_cif.got.tgz:6673.got - 2010.06.03 12:22:45.
