data_PCOD9163584
_publ_section_title
;
Structure prediction by ZEFSAII (Michael W. Deem and Ramdas Pophale) SiO2 
 PCOD9163584
Probable space group: P 21/M
;
_chemical_formula_sum "Si O2"
_cell_formula_units_Z 24
_cell_length_a 10.321706
_cell_length_b 8.783932
_cell_length_c 15.163286
_cell_angle_alpha 90.000000
_cell_angle_beta 80.264041
_cell_angle_gamma 90.000000
_cell_volume 1354.981553
_symmetry_space_group_name_H-M "P 21/M"
_symmetry_group_IT_number 11
_symmetry_cell_setting 'monoclinic'
loop_
_space_group_symop_operation_xyz
x,y,z
-x,1/2+y,-z
-x,-y,-z
x,1/2-y,z
loop_
_atom_site_type_symbol
_atom_site_label
_atom_site_fract_x
_atom_site_fract_y
_atom_site_fract_z
Si Si1 0.464638 0.431914 0.733144
Si Si2 0.881141 0.067642 0.069180
Si Si3 0.603627 0.931207 0.557014
Si Si4 0.180869 0.932761 0.725890
Si Si5 0.580625 0.433377 0.072119
Si Si6 0.106551 0.068823 0.553427
O O1 0.464319 0.250000 0.736240
O O2 0.575334 0.492688 0.654341
O O3 0.325074 0.491287 0.711042
O O4 0.474438 0.501364 0.829594
O O5 0.888072 0.250000 0.062952
O O6 0.884811 0.026682 0.172642
O O7 0.735544 0.022520 0.051864
O O8 0.000000 0.000000 0.000000
O O9 0.583488 0.750000 0.565779
O O10 0.749308 0.959737 0.504242
O O11 0.500000 0.000000 0.500000
O O12 0.196271 0.750000 0.720940
O O13 0.104157 0.991894 0.649783
O O14 0.573606 0.250000 0.074124
O O15 0.500000 0.500000 0.000000
O O16 0.089296 0.250000 0.564170
O O17 0.000000 0.000000 0.500000
#
# Coordination Sequence:
#
# PCOD9163584 Si02
#       6
#     4   4   4   4   4   4
#     4  11  21  35  59  89 116 151 195 237 287 343
#     4   9  20  37  59  86 113 147 190 233 281 338
#     4  11  22  37  60  88 116 150 194 238 282 342
#     4  10  20  37  60  84 115 152 193 240 286 341
#     4  10  21  39  60  86 118 152 189 238 292 344
#     4  11  24  40  59  85 117 154 193 236 291 346
#
# _framework density 17.712418
#
# number of rings (size 3 to 8) (size 9 to 14) (size 15 to 20)
#    0.000    1.667    1.667    4.500    0.000    6.000 
#    3.000    0.000    0.000    0.000    0.000    0.000 
#    0.000    0.000    0.000    0.000    0.000    0.000 
#
# Total GULP energy -134067.569699 kJ/mol
# GULP energy per Si atom -5586.148737 kJ/mol
# Density = 1.767210 g / cm^3
# Si number density = 17.712418 Si / 1000 Ang^3
#
#
#
# Elastic Constant Matrix: (Units=GPa)
#
#
# Indices 1 2 3 4 5 6 
#
# 1 96.8008 66.9507 86.9020 0.0000 15.0045 0.0000
# 2 66.9507 96.2542 69.6271 0.0000 -0.9103 0.0000
# 3 86.9020 69.6271 160.5217 0.0000 10.8937 0.0000
# 4 0.0000 0.0000 0.0000 38.2565 0.0000 1.0310
# 5 15.0045 -0.9103 10.8937 0.0000 37.2856 0.0000
# 6 0.0000 0.0000 0.0000 1.0310 0.0000 30.5429
#
#
#
# Elastic Compliance Matrix: (Units=1/GPa)
#
#
# Indices 1 2 3 4 5 6 
#
# 1 0.030245 -0.014227 -0.009543 0.000000 -0.009731 0.000000
# 2 -0.014227 0.022033 -0.002326 0.000000 0.006943 0.000000
# 3 -0.009543 -0.002326 0.012394 0.000000 0.000162 0.000000
# 4 0.000000 0.000000 0.000000 0.026163 0.000000 -0.000883
# 5 -0.009731 0.006943 0.000162 0.000000 0.030858 0.000000
# 6 0.000000 0.000000 0.000000 -0.000883 0.000000 0.032771
#
#
# Mechanical properties :
#
#
# Convention : Reuss Voigt Hill
#
# Bulk Modulus (GPa) = 80.12139 88.94850 84.53495
# Shear Modulus (GPa) = 23.71744 29.89010 26.80377
#
# Velocity S-wave (km/s) = 3.66324 4.11240 3.89430
# Velocity P-wave (km/s) = 7.95143 8.53676 8.24929
#
# Compressibility (1/GPa) = 0.01248106
#
# Stress axis : x y z
#
# Youngs Moduli (GPa) = 33.06300 45.38649 80.68512
#
# Poissons Ratio (x) = 0.64569 0.76996
# Poissons Ratio (y) = 0.47037 0.18769
# Poissons Ratio (z) = 0.31551 0.10558
#
# Static dielectric constant tensor:
#      x y z
#    x 1.584230 0.000000 -0.004870 
#    y 0.000000 1.599880 0.000000 
#    z -0.004870 0.000000 1.605570 
# 
# From -- ./inp_files/46494.got.cif
#   From: 2010.05.17/outbox.cif.g08.bks.cpg/sg11_24_cif.got.tgz:46494.got - 2010.06.03 12:22:45.
