data_PCOD9163552
_publ_section_title
;
Structure prediction by ZEFSAII (Michael W. Deem and Ramdas Pophale) SiO2 
 PCOD9163552
Probable space group: P 21/M
;
_chemical_formula_sum "Si O2"
_cell_formula_units_Z 28
_cell_length_a 9.528995
_cell_length_b 8.083192
_cell_length_c 27.948297
_cell_angle_alpha 90.000000
_cell_angle_beta 142.334390
_cell_angle_gamma 90.000000
_cell_volume 1315.417241
_symmetry_space_group_name_H-M "P 21/M"
_symmetry_group_IT_number 11
_symmetry_cell_setting 'monoclinic'
loop_
_space_group_symop_operation_xyz
x,y,z
-x,1/2+y,-z
-x,-y,-z
x,1/2-y,z
loop_
_atom_site_type_symbol
_atom_site_label
_atom_site_fract_x
_atom_site_fract_y
_atom_site_fract_z
Si Si1 0.846677 0.449233 0.295466
Si Si2 0.217798 0.558610 0.027140
Si Si3 0.263831 0.050669 0.571997
Si Si4 0.537617 0.050255 0.738053
Si Si5 0.286615 0.050840 0.473413
Si Si6 0.932489 0.553893 0.116313
Si Si7 0.272100 0.556330 0.838857
O O1 0.861867 0.250000 0.297715
O O2 0.604761 0.494204 0.254298
O O3 0.857860 0.509785 0.243652
O O4 0.050710 0.511237 0.385275
O O5 0.257302 0.750000 0.049335
O O6 0.166187 0.536524 0.956815
O O7 0.457727 0.464745 0.099489
O O8 0.000000 0.500000 0.000000
O O9 0.279484 0.250000 0.578023
O O10 0.401629 0.986410 0.654710
O O11 0.343620 0.990019 0.541952
O O12 0.000000 0.000000 0.500000
O O13 0.534788 0.250000 0.736814
O O14 0.802207 0.999732 0.807453
O O15 0.265772 0.250000 0.470179
O O16 0.500000 0.000000 0.500000
O O17 0.926217 0.750000 0.104189
O O18 0.799818 0.524569 0.130311
O O19 0.220663 0.750000 0.830224
#
# Coordination Sequence:
#
# PCOD9163552 Si02
#       7
#     4   4   4   4   4   4   4
#     4  10  22  40  60  86 120 159 202 250 301 358
#     4  12  25  44  69  96 126 161 202 247 300 361
#     4  10  20  37  59  85 117 155 201 251 302 356
#     4  10  22  38  60  89 119 156 203 250 301 361
#     4  10  22  38  57  84 119 157 201 250 302 359
#     4  11  24  42  64  93 127 162 203 250 304 361
#     4  11  24  42  64  92 126 163 205 250 304 362
#
# _framework density 21.286021000000002
#
# number of rings (size 3 to 8) (size 9 to 14) (size 15 to 20)
#    0.000    1.429    1.429    3.429    2.000    5.714 
#    0.000    0.000    0.000    0.000    0.000    0.000 
#    0.000    0.000    0.000    0.000    0.000    0.000 
#
# Total GULP energy -156453.514644 kJ/mol
# GULP energy per Si atom -5587.625523 kJ/mol
# Density = 2.123757 g / cm^3
# Si number density = 21.286021 Si / 1000 Ang^3
#
#
#
# Elastic Constant Matrix: (Units=GPa)
#
#
# Indices 1 2 3 4 5 6 
#
# 1 112.7171 -9.0942 7.8932 0.0000 -13.5597 0.0000
# 2 -9.0942 17.1854 -5.5757 0.0000 -4.1134 0.0000
# 3 7.8932 -5.5757 76.1019 0.0000 -13.2711 0.0000
# 4 0.0000 0.0000 0.0000 18.9648 0.0000 1.6994
# 5 -13.5597 -4.1134 -13.2711 0.0000 41.1949 0.0000
# 6 0.0000 0.0000 0.0000 1.6994 0.0000 35.0208
#
#
#
# Elastic Compliance Matrix: (Units=1/GPa)
#
#
# Indices 1 2 3 4 5 6 
#
# 1 0.009829 0.006167 0.000110 0.000000 0.003887 0.000000
# 2 0.006167 0.065937 0.006032 0.000000 0.010557 0.000000
# 3 0.000110 0.006032 0.014497 0.000000 0.005309 0.000000
# 4 0.000000 0.000000 0.000000 0.052959 0.000000 -0.002570
# 5 0.003887 0.010557 0.005309 0.000000 0.028319 0.000000
# 6 0.000000 0.000000 0.000000 -0.002570 0.000000 0.028679
#
#
# Mechanical properties :
#
#
# Convention : Reuss Voigt Hill
#
# Bulk Modulus (GPa) = 8.70452 21.38344 15.04398
# Shear Modulus (GPa) = 23.37605 33.22152 28.29878
#
# Velocity S-wave (km/s) = 3.31749 3.95488 3.65012
# Velocity P-wave (km/s) = 4.33272 5.56079 4.98472
#
# Compressibility (1/GPa) = 0.11488281
#
# Stress axis : x y z
#
# Youngs Moduli (GPa) = 101.73745 15.16601 68.98176
#
# Poissons Ratio (x) = -0.09354 -0.00760
# Poissons Ratio (y) = -0.62746 -0.41612
# Poissons Ratio (z) = -0.01121 -0.09149
#
# Static dielectric constant tensor:
#      x y z
#    x 1.520460 0.000000 0.107850 
#    y 0.000000 1.750180 0.000000 
#    z 0.107850 0.000000 1.702420 
# 
# From -- ./inp_files/28398.got.cif
#   From: 2010.05.17/outbox.cif.g08.bks.cpg/sg11_15_cif.got.tgz:28398.got - 2010.06.03 12:22:45.
