data_PCOD9163822
_publ_section_title
;
Structure prediction by ZEFSAII (Michael W. Deem and Ramdas Pophale) SiO2 
 PCOD9163822
Probable space group: P 21/M
;
_chemical_formula_sum "Si O2"
_cell_formula_units_Z 32
_cell_length_a 31.646087
_cell_length_b 8.830026
_cell_length_c 12.183889
_cell_angle_alpha 90.000000
_cell_angle_beta 149.891720
_cell_angle_gamma 90.000000
_cell_volume 1707.876333
_symmetry_space_group_name_H-M "P 21/M"
_symmetry_group_IT_number 11
_symmetry_cell_setting 'monoclinic'
loop_
_space_group_symop_operation_xyz
x,y,z
-x,1/2+y,-z
-x,-y,-z
x,1/2-y,z
loop_
_atom_site_type_symbol
_atom_site_label
_atom_site_fract_x
_atom_site_fract_y
_atom_site_fract_z
Si Si1 0.768667 0.568934 0.699268
Si Si2 0.284043 0.930400 0.647155
Si Si3 0.533476 0.570161 0.961850
Si Si4 0.890841 0.929918 0.363000
Si Si5 0.407109 0.430130 0.301595
Si Si6 0.259539 0.569885 0.836798
Si Si7 0.630594 0.429306 0.552491
Si Si8 0.931021 0.569057 0.202506
O O1 0.756977 0.750000 0.677625
O O2 0.756536 0.510745 0.548809
O O3 0.699102 0.491821 0.621083
O O4 0.860578 0.533048 0.954531
O O5 0.283636 0.750000 0.628339
O O6 0.241835 0.964282 0.669360
O O7 0.379953 0.987797 0.871539
O O8 0.547689 0.750000 0.007150
O O9 0.500000 0.500000 0.000000
O O10 0.461279 0.549062 0.708683
O O11 0.879992 0.750000 0.349710
O O12 0.893756 0.966835 0.239620
O O13 0.815928 0.013475 0.256457
O O14 0.981409 0.981807 0.612412
O O15 0.500000 0.500000 0.500000
O O16 0.412699 0.250000 0.309976
O O17 0.367736 0.484140 0.328721
O O18 0.345145 0.489962 0.068173
O O19 0.270436 0.750000 0.872074
O O20 0.643315 0.250000 0.598587
O O21 0.947585 0.750000 0.237779
#
# Coordination Sequence:
#
# PCOD9163822 Si02
#       8
#     4   4   4   4   4   4   4   4
#     4  11  22  37  60  88 119 155 196 246 299 350
#     4  11  24  40  58  83 117 158 203 248 297 354
#     4  11  22  36  57  83 114 154 199 245 294 348
#     4  10  20  37  64  94 120 152 193 239 294 356
#     4  12  25  41  61  87 120 156 199 247 297 353
#     4  11  24  42  63  86 119 161 201 245 298 356
#     4  11  23  38  59  87 119 155 198 245 298 357
#     4   9  20  38  60  90 123 152 187 237 297 356
#
# _framework density 18.736719000000001
#
# number of rings (size 3 to 8) (size 9 to 14) (size 15 to 20)
#    0.000    1.250    1.250    4.875    0.000    8.000 
#    0.000    0.625    0.000    0.000    0.000    0.000 
#    0.000    0.000    0.000    0.000    0.000    0.000 
#
# Total GULP energy -178982.441411 kJ/mol
# GULP energy per Si atom -5593.201294 kJ/mol
# Density = 1.869407 g / cm^3
# Si number density = 18.736719 Si / 1000 Ang^3
#
#
#
# Elastic Constant Matrix: (Units=GPa)
#
#
# Indices 1 2 3 4 5 6 
#
# 1 83.1674 43.3248 42.5964 0.0000 -6.0998 0.0000
# 2 43.3248 85.4700 54.1941 0.0000 -7.6282 0.0000
# 3 42.5964 54.1941 107.3417 0.0000 -10.0676 0.0000
# 4 0.0000 0.0000 0.0000 34.2375 0.0000 -0.0592
# 5 -6.0998 -7.6282 -10.0676 0.0000 25.7858 0.0000
# 6 0.0000 0.0000 0.0000 -0.0592 0.0000 31.0823
#
#
#
# Elastic Compliance Matrix: (Units=1/GPa)
#
#
# Indices 1 2 3 4 5 6 
#
# 1 0.017236 -0.006437 -0.003515 0.000000 0.000801 0.000000
# 2 -0.006437 0.019691 -0.007249 0.000000 0.001472 0.000000
# 3 -0.003515 -0.007249 0.014627 0.000000 0.002735 0.000000
# 4 0.000000 0.000000 0.000000 0.029208 0.000000 0.000056
# 5 0.000801 0.001472 0.002735 0.000000 0.040474 0.000000
# 6 0.000000 0.000000 0.000000 0.000056 0.000000 0.032173
#
#
# Mechanical properties :
#
#
# Convention : Reuss Voigt Hill
#
# Bulk Modulus (GPa) = 58.30016 61.80108 60.05062
# Shear Modulus (GPa) = 25.83620 27.27870 26.55745
#
# Velocity S-wave (km/s) = 3.71739 3.81976 3.76892
# Velocity P-wave (km/s) = 7.04332 7.24635 7.14556
#
# Compressibility (1/GPa) = 0.01715261
#
# Stress axis : x y z
#
# Youngs Moduli (GPa) = 58.01777 50.78578 68.36604
#
# Poissons Ratio (x) = 0.32690 0.24030
# Poissons Ratio (y) = 0.37345 0.49558
# Poissons Ratio (z) = 0.20393 0.36814
#
# Static dielectric constant tensor:
#      x y z
#    x 1.635340 0.000000 -0.013900 
#    y 0.000000 1.619910 0.000000 
#    z -0.013900 0.000000 1.632790 
# 
# From -- ./inp_files/45296.got.cif
#   From: 2010.05.17/outbox.cif.g08.bks.cpg/sg11_23_cif.got.tgz:45296.got - 2010.06.03 12:22:45.
