data_PCOD9163473
_publ_section_title
;
Structure prediction by ZEFSAII (Michael W. Deem and Ramdas Pophale) SiO2 
 PCOD9163473
Probable space group: P 21/M
;
_chemical_formula_sum "Si O2"
_cell_formula_units_Z 24
_cell_length_a 5.262350
_cell_length_b 22.157374
_cell_length_c 9.192500
_cell_angle_alpha 90.000000
_cell_angle_beta 92.849928
_cell_angle_gamma 90.000000
_cell_volume 1070.518519
_symmetry_space_group_name_H-M "P 21/M"
_symmetry_group_IT_number 11
_symmetry_cell_setting 'monoclinic'
loop_
_space_group_symop_operation_xyz
x,y,z
-x,1/2+y,-z
-x,-y,-z
x,1/2-y,z
loop_
_atom_site_type_symbol
_atom_site_label
_atom_site_fract_x
_atom_site_fract_y
_atom_site_fract_z
Si Si1 0.288617 0.993087 0.646230
Si Si2 0.415146 0.113099 0.193132
Si Si3 0.347634 0.821591 0.057649
Si Si4 0.161726 0.401619 0.467318
Si Si5 0.761501 0.964582 0.046711
Si Si6 0.125802 0.177339 0.751832
O O1 0.477302 0.948183 0.733812
O O2 0.072527 0.945912 0.584222
O O3 0.355903 0.046673 0.535097
O O4 0.203236 0.035931 0.779743
O O5 0.265049 0.135868 0.330924
O O6 0.620208 0.149806 0.103341
O O7 0.234034 0.093054 0.057623
O O8 0.331224 0.750000 0.035574
O O9 0.598936 0.833448 0.164269
O O10 0.106206 0.840709 0.147438
O O11 0.102583 0.356165 0.596536
O O12 0.500000 0.000000 0.000000
O O13 0.000000 0.000000 0.000000
O O14 0.106128 0.250000 0.730689
#
# Coordination Sequence:
#
# PCOD9163473 Si02
#       6
#     4   4   4   4   4   4
#     4  10  23  39  57  94 137 173 213 254 333 389
#     4  11  23  39  66  94 131 173 221 272 322 383
#     4  10  24  46  71  95 126 168 225 276 325 386
#     4  11  23  39  64  93 137 170 213 268 323 390
#     4  10  20  37  57  83 123 166 207 249 301 373
#     4  10  24  47  70  95 127 174 219 267 332 395
#
# _framework density 22.419044
#
# number of rings (size 3 to 8) (size 9 to 14) (size 15 to 20)
#    0.000    1.667    1.667    1.500    4.667    3.333 
#    3.000    0.833    0.000    0.000    0.000    0.000 
#    0.000    0.000    0.000    0.000    0.000    0.000 
#
# Total GULP energy -133616.800967 kJ/mol
# GULP energy per Si atom -5567.366707 kJ/mol
# Density = 2.236802 g / cm^3
# Si number density = 22.419044 Si / 1000 Ang^3
#
#
#
# Elastic Constant Matrix: (Units=GPa)
#
#
# Indices 1 2 3 4 5 6 
#
# 1 103.2938 32.6468 52.7601 0.0000 -16.5152 0.0000
# 2 32.6468 61.2578 86.6936 0.0000 -13.4822 0.0000
# 3 52.7601 86.6936 211.3497 0.0000 -30.2862 0.0000
# 4 0.0000 0.0000 0.0000 45.3683 0.0000 -7.8602
# 5 -16.5152 -13.4822 -30.2862 0.0000 30.5356 0.0000
# 6 0.0000 0.0000 0.0000 -7.8602 0.0000 27.8865
#
#
#
# Elastic Compliance Matrix: (Units=1/GPa)
#
#
# Indices 1 2 3 4 5 6 
#
# 1 0.012100 -0.005020 -0.000398 0.000000 0.003933 0.000000
# 2 -0.005020 0.041063 -0.015598 0.000000 -0.000056 0.000000
# 3 -0.000398 -0.015598 0.011903 0.000000 0.004704 0.000000
# 4 0.000000 0.000000 0.000000 0.023173 0.000000 0.006532
# 5 0.003933 -0.000056 0.004704 0.000000 0.039517 0.000000
# 6 0.000000 0.000000 0.000000 0.006532 0.000000 0.037701
#
#
# Mechanical properties :
#
#
# Convention : Reuss Voigt Hill
#
# Bulk Modulus (GPa) = 43.41493 80.01138 61.71316
# Shear Modulus (GPa) = 23.23783 34.34479 28.79131
#
# Velocity S-wave (km/s) = 3.22300 3.91826 3.58751
# Velocity P-wave (km/s) = 5.76693 7.49912 6.68933
#
# Compressibility (1/GPa) = 0.02303355
#
# Stress axis : x y z
#
# Youngs Moduli (GPa) = 82.64648 24.35299 84.01129
#
# Poissons Ratio (x) = 0.12225 0.03342
# Poissons Ratio (y) = 0.41487 1.31044
# Poissons Ratio (z) = 0.03288 0.37987
#
# Static dielectric constant tensor:
#      x y z
#    x 1.930530 0.000000 -0.050470 
#    y 0.000000 1.904180 0.000000 
#    z -0.050470 0.000000 1.975670 
# 
# From -- ./inp_files/10440.got.cif
#   From: 2010.05.17/outbox.cif.g08.bks.cpg/sg11_6_cif.got.tgz:10440.got - 2010.06.03 12:22:45.
