data_PCOD9163458
_publ_section_title
;
Structure prediction by ZEFSAII (Michael W. Deem and Ramdas Pophale) SiO2 
 PCOD9163458
Probable space group: P 21/M
;
_chemical_formula_sum "Si O2"
_cell_formula_units_Z 32
_cell_length_a 32.199950
_cell_length_b 7.552329
_cell_length_c 12.394438
_cell_angle_alpha 90.000000
_cell_angle_beta 28.721740
_cell_angle_gamma 90.000000
_cell_volume 1448.462302
_symmetry_space_group_name_H-M "P 21/M"
_symmetry_group_IT_number 11
_symmetry_cell_setting 'monoclinic'
loop_
_space_group_symop_operation_xyz
x,y,z
-x,1/2+y,-z
-x,-y,-z
x,1/2-y,z
loop_
_atom_site_type_symbol
_atom_site_label
_atom_site_fract_x
_atom_site_fract_y
_atom_site_fract_z
Si Si1 0.340015 0.038696 0.560859
Si Si2 0.000939 0.455525 0.822411
Si Si3 0.061307 0.462763 0.460513
Si Si4 0.313358 0.536873 0.377450
Si Si5 0.134230 0.965384 0.693063
Si Si6 0.534005 0.456863 0.113731
Si Si7 0.586362 0.960794 0.234027
Si Si8 0.743965 0.967049 0.026143
O O1 0.345713 0.250000 0.563653
O O2 0.437886 0.965182 0.338267
O O3 0.285529 0.973499 0.787158
O O4 0.302854 0.006701 0.526892
O O5 0.977159 0.250000 0.862232
O O6 0.016384 0.535536 0.670631
O O7 0.090511 0.467830 0.683802
O O8 0.927560 0.529669 0.068507
O O9 0.067952 0.250000 0.457810
O O10 0.000000 0.500000 0.500000
O O11 0.159306 0.527253 0.221129
O O12 0.314960 0.750000 0.365909
O O13 0.231038 0.476391 0.496307
O O14 0.401651 0.467202 0.122963
O O15 0.131403 0.750000 0.696070
O O16 0.522990 0.250000 0.111568
O O17 0.575735 0.467253 0.137449
O O18 0.593092 0.750000 0.209086
O O19 0.670663 0.023787 0.107547
O O20 0.500000 0.000000 0.500000
O O21 0.744281 0.750000 0.024510
#
# Coordination Sequence:
#
# PCOD9163458 Si02
#       8
#     4   4   4   4   4   4   4   4
#     4  10  20  37  57  76 109 150 186 224 271 336
#     4   9  19  36  57  78 107 142 180 224 270 330
#     4  10  22  39  59  84 114 147 185 231 281 333
#     4  10  22  36  55  82 113 143 181 236 281 320
#     4   9  19  36  55  79 109 141 177 227 283 324
#     4  10  21  38  56  80 116 149 183 230 280 327
#     4  11  21  37  61  86 115 151 190 233 280 336
#     4   9  20  38  57  81 114 149 183 228 283 334
#
# _framework density 22.092393999999999
#
# number of rings (size 3 to 8) (size 9 to 14) (size 15 to 20)
#    0.000    2.250    1.250    0.750    3.500    2.000 
#    0.000    1.250    0.000    0.000    0.000    0.000 
#    0.000    0.000    0.000    0.000    0.000    0.000 
#
# Total GULP energy -178774.146166 kJ/mol
# GULP energy per Si atom -5586.692068 kJ/mol
# Density = 2.204211 g / cm^3
# Si number density = 22.092394 Si / 1000 Ang^3
#
#
#
# Elastic Constant Matrix: (Units=GPa)
#
#
# Indices 1 2 3 4 5 6 
#
# 1 65.5969 -19.9411 5.7790 0.0000 9.8763 0.0000
# 2 -19.9411 52.1669 -0.5058 0.0000 -1.0938 0.0000
# 3 5.7790 -0.5058 31.7401 0.0000 -2.2010 0.0000
# 4 0.0000 0.0000 0.0000 0.5844 0.0000 -0.9017
# 5 9.8763 -1.0938 -2.2010 0.0000 36.1845 0.0000
# 6 0.0000 0.0000 0.0000 -0.9017 0.0000 24.2033
#
#
#
# Elastic Compliance Matrix: (Units=1/GPa)
#
#
# Indices 1 2 3 4 5 6 
#
# 1 0.018417 0.006900 -0.003593 0.000000 -0.005037 0.000000
# 2 0.006900 0.021770 -0.000998 0.000000 -0.001286 0.000000
# 3 -0.003593 -0.000998 0.032346 0.000000 0.002918 0.000000
# 4 0.000000 0.000000 0.000000 1.815676 0.000000 0.067644
# 5 -0.005037 -0.001286 0.002918 0.000000 0.029150 0.000000
# 6 0.000000 0.000000 0.000000 0.067644 0.000000 0.043837
#
#
# Mechanical properties :
#
#
# Convention : Reuss Voigt Hill
#
# Bulk Modulus (GPa) = 12.96171 13.35201 13.15686
# Shear Modulus (GPa) = 2.52233 23.13921 12.83077
#
# Velocity S-wave (km/s) = 1.06967 3.23984 2.41255
# Velocity P-wave (km/s) = 2.72128 4.47798 3.70524
#
# Compressibility (1/GPa) = 0.07715033
#
# Stress axis : x y z
#
# Youngs Moduli (GPa) = 54.29806 45.93482 30.91534
#
# Poissons Ratio (x) = -0.31693 0.11106
# Poissons Ratio (y) = -0.37463 0.03087
# Poissons Ratio (z) = 0.19507 0.04586
#
# Static dielectric constant tensor:
#      x y z
#    x 1.759890 0.000000 0.013500 
#    y 0.000000 1.752810 0.000000 
#    z 0.013500 0.000000 1.806330 
# 
# From -- ./inp_files/45107.got.cif
#   From: 2010.05.17/outbox.cif.g08.bks.cpg/sg11_23_cif.got.tgz:45107.got - 2010.06.03 12:22:45.
