data_PCOD9163254
_publ_section_title
;
Structure prediction by ZEFSAII (Michael W. Deem and Ramdas Pophale) SiO2 
 PCOD9163254
Probable space group: P 21/M
;
_chemical_formula_sum "Si O2"
_cell_formula_units_Z 32
_cell_length_a 15.335076
_cell_length_b 9.207274
_cell_length_c 11.336883
_cell_angle_alpha 90.000000
_cell_angle_beta 94.327619
_cell_angle_gamma 90.000000
_cell_volume 1596.138850
_symmetry_space_group_name_H-M "P 21/M"
_symmetry_group_IT_number 11
_symmetry_cell_setting 'monoclinic'
loop_
_space_group_symop_operation_xyz
x,y,z
-x,1/2+y,-z
-x,-y,-z
x,1/2-y,z
loop_
_atom_site_type_symbol
_atom_site_label
_atom_site_fract_x
_atom_site_fract_y
_atom_site_fract_z
Si Si1 0.589280 0.586172 0.028453
Si Si2 0.228670 0.581710 0.363380
Si Si3 0.761989 0.573826 0.159856
Si Si4 0.358636 0.411836 0.232238
Si Si5 0.021580 0.920862 0.377096
Si Si6 0.491841 0.418192 0.622500
Si Si7 0.289226 0.081701 0.596828
Si Si8 0.049335 0.073364 0.893510
O O1 0.568628 0.750000 0.070936
O O2 0.633869 0.599224 0.905757
O O3 0.500000 0.500000 0.000000
O O4 0.667508 0.515250 0.111132
O O5 0.249186 0.750000 0.346962
O O6 0.270092 0.487866 0.263538
O O7 0.125641 0.565608 0.369204
O O8 0.274300 0.521601 0.485647
O O9 0.755032 0.750000 0.150660
O O10 0.771680 0.541253 0.299412
O O11 0.847547 0.532412 0.095842
O O12 0.364122 0.250000 0.285766
O O13 0.441219 0.504545 0.283846
O O14 0.998236 0.750000 0.388994
O O15 0.982428 0.966586 0.244047
O O16 0.000000 0.000000 0.500000
O O17 0.500000 0.500000 0.500000
O O18 0.515318 0.250000 0.611994
O O19 0.390210 0.425935 0.646937
O O20 0.271885 0.250000 0.562218
O O21 0.040982 0.250000 0.901644
O O22 0.000000 0.000000 0.000000
#
# Coordination Sequence:
#
# PCOD9163254 Si02
#       8
#     4   4   4   4   4   4   4   4
#     4  10  22  40  61  87 117 154 201 247 297 359
#     4  11  23  37  57  86 121 155 192 245 304 359
#     4   9  19  38  63  87 115 155 199 244 295 356
#     4  11  23  37  56  84 118 156 202 244 295 362
#     4  10  23  42  64  93 124 159 204 257 315 375
#     4  11  21  34  55  83 117 156 198 245 298 356
#     4  10  20  36  60  86 114 154 201 244 296 359
#     4  10  22  41  65  92 125 162 206 257 311 372
#
# _framework density 20.048382
#
# number of rings (size 3 to 8) (size 9 to 14) (size 15 to 20)
#    0.000    1.750    1.250    2.625    1.750    5.000 
#    0.000    1.875    0.000    0.000    0.000    0.000 
#    0.000    0.000    0.000    0.000    0.000    0.000 
#
# Total GULP energy -178549.292940 kJ/mol
# GULP energy per Si atom -5579.665404 kJ/mol
# Density = 2.000275 g / cm^3
# Si number density = 20.048382 Si / 1000 Ang^3
#
#
#
# Elastic Constant Matrix: (Units=GPa)
#
#
# Indices 1 2 3 4 5 6 
#
# 1 88.3388 40.1264 31.4735 0.0000 -14.7560 0.0000
# 2 40.1264 86.1433 32.1511 0.0000 -7.5642 0.0000
# 3 31.4735 32.1511 98.7714 0.0000 -12.8106 0.0000
# 4 0.0000 0.0000 0.0000 24.3682 0.0000 -6.1634
# 5 -14.7560 -7.5642 -12.8106 0.0000 36.5931 0.0000
# 6 0.0000 0.0000 0.0000 -6.1634 0.0000 27.3068
#
#
#
# Elastic Compliance Matrix: (Units=1/GPa)
#
#
# Indices 1 2 3 4 5 6 
#
# 1 0.015623 -0.005981 -0.002488 0.000000 0.004193 0.000000
# 2 -0.005981 0.015561 -0.003200 0.000000 -0.000316 0.000000
# 3 -0.002488 -0.003200 0.012302 0.000000 0.002642 0.000000
# 4 0.000000 0.000000 0.000000 0.043522 0.000000 0.009823
# 5 0.004193 -0.000316 0.002642 0.000000 0.029878 0.000000
# 6 0.000000 0.000000 0.000000 0.009823 0.000000 0.038838
#
#
# Mechanical properties :
#
#
# Convention : Reuss Voigt Hill
#
# Bulk Modulus (GPa) = 49.63256 53.41728 51.52492
# Shear Modulus (GPa) = 26.91379 28.95379 27.93379
#
# Velocity S-wave (km/s) = 3.66791 3.80438 3.73677
# Velocity P-wave (km/s) = 6.53821 6.78231 6.66138
#
# Compressibility (1/GPa) = 0.02014807
#
# Stress axis : x y z
#
# Youngs Moduli (GPa) = 64.00615 64.26183 81.29061
#
# Poissons Ratio (x) = 0.38434 0.20223
# Poissons Ratio (y) = 0.38282 0.26017
# Poissons Ratio (z) = 0.15923 0.20567
#
# Static dielectric constant tensor:
#      x y z
#    x 1.728710 0.000000 0.014260 
#    y 0.000000 1.686030 0.000000 
#    z 0.014260 0.000000 1.738880 
# 
# From -- ./inp_files/38193.got.cif
#   From: 2010.05.17/outbox.cif.g08.bks.cpg/sg11_20_cif.got.tgz:38193.got - 2010.06.03 12:22:45.
