data_PCOD9163934
_publ_section_title
;
Structure prediction by ZEFSAII (Michael W. Deem and Ramdas Pophale) SiO2 
 PCOD9163934
Probable space group: P 21/M
;
_chemical_formula_sum "Si O2"
_cell_formula_units_Z 24
_cell_length_a 10.347457
_cell_length_b 8.524504
_cell_length_c 13.965272
_cell_angle_alpha 90.000000
_cell_angle_beta 89.913351
_cell_angle_gamma 90.000000
_cell_volume 1231.832481
_symmetry_space_group_name_H-M "P 21/M"
_symmetry_group_IT_number 11
_symmetry_cell_setting 'monoclinic'
loop_
_space_group_symop_operation_xyz
x,y,z
-x,1/2+y,-z
-x,-y,-z
x,1/2-y,z
loop_
_atom_site_type_symbol
_atom_site_label
_atom_site_fract_x
_atom_site_fract_y
_atom_site_fract_z
Si Si1 0.741628 0.560434 0.423194
Si Si2 0.391260 0.061863 0.928668
Si Si3 0.891896 0.061985 0.072115
Si Si4 0.248415 0.060528 0.356197
Si Si5 0.966434 0.060356 0.286835
Si Si6 0.483530 0.060837 0.717858
O O1 0.742787 0.750000 0.422848
O O2 0.743270 0.507547 0.533134
O O3 0.865998 0.502509 0.364946
O O4 0.613844 0.507636 0.365979
O O5 0.389160 0.250000 0.931116
O O6 0.426943 0.010747 0.820446
O O7 0.249906 0.998793 0.954378
O O8 0.500000 0.000000 0.000000
O O9 0.892354 0.250000 0.070589
O O10 0.924208 0.009370 0.180690
O O11 0.000000 0.000000 0.000000
O O12 0.250611 0.250000 0.355340
O O13 0.112169 0.009663 0.311257
O O14 0.373087 0.000492 0.300045
O O15 0.963063 0.250000 0.289541
O O16 0.486132 0.250000 0.716779
#
# Coordination Sequence:
#
# PCOD9163934 Si02
#       6
#     4   4   4   4   4   4
#     4  10  20  38  61  86 119 158 200 245 296 351
#     4  11  24  43  65  91 122 157 201 252 305 365
#     4  11  24  42  64  91 122 160 203 251 306 362
#     4  10  22  37  58  89 122 158 199 244 293 351
#     4  10  22  39  59  88 121 155 198 245 297 354
#     4  10  22  39  59  87 120 156 198 244 296 354
#
# _framework density 19.483167000000002
#
# number of rings (size 3 to 8) (size 9 to 14) (size 15 to 20)
#    0.000    1.667    1.667    2.000    2.333    4.000 
#    0.000    0.000    0.000    0.000    0.000    0.000 
#    0.000    0.000    0.000    0.000    0.000    0.000 
#
# Total GULP energy -134166.824361 kJ/mol
# GULP energy per Si atom -5590.284348 kJ/mol
# Density = 1.943882 g / cm^3
# Si number density = 19.483167 Si / 1000 Ang^3
#
#
#
# Elastic Constant Matrix: (Units=GPa)
#
#
# Indices 1 2 3 4 5 6 
#
# 1 162.4580 18.1894 44.7593 0.0000 0.1201 0.0000
# 2 18.1894 16.1338 19.0627 0.0000 1.5137 0.0000
# 3 44.7593 19.0627 80.6033 0.0000 -0.2790 0.0000
# 4 0.0000 0.0000 0.0000 23.0651 0.0000 -4.0915
# 5 0.1201 1.5137 -0.2790 0.0000 43.5367 0.0000
# 6 0.0000 0.0000 0.0000 -4.0915 0.0000 29.6684
#
#
#
# Elastic Compliance Matrix: (Units=1/GPa)
#
#
# Indices 1 2 3 4 5 6 
#
# 1 0.007541 -0.004950 -0.003016 0.000000 0.000132 0.000000
# 2 -0.004950 0.089694 -0.018475 0.000000 -0.003223 0.000000
# 3 -0.003016 -0.018475 0.018453 0.000000 0.000769 0.000000
# 4 0.000000 0.000000 0.000000 0.044443 0.000000 0.006129
# 5 0.000132 -0.003223 0.000769 0.000000 0.023086 0.000000
# 6 0.000000 0.000000 0.000000 0.006129 0.000000 0.034551
#
#
# Mechanical properties :
#
#
# Convention : Reuss Voigt Hill
#
# Bulk Modulus (GPa) = 15.92220 47.02422 31.47321
# Shear Modulus (GPa) = 17.14766 31.06630 24.10698
#
# Velocity S-wave (km/s) = 2.96991 3.99748 3.52138
# Velocity P-wave (km/s) = 4.46660 6.74497 5.72037
#
# Compressibility (1/GPa) = 0.06280538
#
# Stress axis : x y z
#
# Youngs Moduli (GPa) = 132.61636 11.14903 54.19065
#
# Poissons Ratio (x) = 0.05519 0.16345
# Poissons Ratio (y) = 0.65644 1.00118
# Poissons Ratio (z) = 0.39999 0.20598
#
# Static dielectric constant tensor:
#      x y z
#    x 1.637780 0.000000 0.020290 
#    y 0.000000 1.669600 0.000000 
#    z 0.020290 0.000000 1.670370 
# 
# From -- ./inp_files/46540.got.cif
#   From: 2010.05.17/outbox.cif.g08.bks.cpg/sg11_24_cif.got.tgz:46540.got - 2010.06.03 12:22:45.
