data_PCOD9163676
_publ_section_title
;
Structure prediction by ZEFSAII (Michael W. Deem and Ramdas Pophale) SiO2 
 PCOD9163676
Probable space group: P 21/M
;
_chemical_formula_sum "Si O2"
_cell_formula_units_Z 28
_cell_length_a 12.284111
_cell_length_b 8.235052
_cell_length_c 14.212908
_cell_angle_alpha 90.000000
_cell_angle_beta 74.781068
_cell_angle_gamma 90.000000
_cell_volume 1387.358647
_symmetry_space_group_name_H-M "P 21/M"
_symmetry_group_IT_number 11
_symmetry_cell_setting 'monoclinic'
loop_
_space_group_symop_operation_xyz
x,y,z
-x,1/2+y,-z
-x,-y,-z
x,1/2-y,z
loop_
_atom_site_type_symbol
_atom_site_label
_atom_site_fract_x
_atom_site_fract_y
_atom_site_fract_z
Si Si1 0.117426 0.944552 0.930034
Si Si2 0.442455 0.946462 0.154778
Si Si3 0.722453 0.448237 0.645962
Si Si4 0.828480 0.944327 0.293260
Si Si5 0.369694 0.555689 0.533924
Si Si6 0.336291 0.555174 0.982862
Si Si7 0.973927 0.053928 0.611624
O O1 0.120115 0.750000 0.929071
O O2 0.216753 0.006662 0.975530
O O3 0.143355 0.001874 0.818605
O O4 0.000000 0.000000 0.000000
O O5 0.444486 0.750000 0.154013
O O6 0.376657 0.000898 0.261897
O O7 0.568724 0.008248 0.114023
O O8 0.376591 0.003725 0.075904
O O9 0.723247 0.250000 0.644637
O O10 0.695069 0.502476 0.546249
O O11 0.844586 0.499721 0.657251
O O12 0.829175 0.750000 0.296027
O O13 0.929369 0.005716 0.339250
O O14 0.707320 0.000177 0.361097
O O15 0.500000 0.500000 0.500000
O O16 0.370398 0.750000 0.533069
O O17 0.331406 0.750000 0.990131
O O18 0.975175 0.250000 0.615851
O O19 0.000000 0.000000 0.500000
#
# Coordination Sequence:
#
# PCOD9163676 Si02
#       7
#     4   4   4   4   4   4   4
#     4  11  25  43  63  89 122 161 204 253 305 365
#     4   9  18  35  61  86 113 149 191 241 296 355
#     4   9  19  35  59  87 114 152 194 241 300 354
#     4  11  24  41  64  91 121 163 207 251 308 368
#     4  11  23  40  61  89 127 164 206 252 302 366
#     4   9  20  38  59  84 116 151 192 241 298 354
#     4  10  20  37  61  86 117 153 196 244 295 355
#
# _framework density 20.182237000000001
#
# number of rings (size 3 to 8) (size 9 to 14) (size 15 to 20)
#    0.000    2.000    1.429    1.286    4.000    1.714 
#    0.000    1.429    0.000    0.000    0.000    0.000 
#    0.000    0.000    0.000    0.000    0.000    0.000 
#
# Total GULP energy -156340.781772 kJ/mol
# GULP energy per Si atom -5583.599349 kJ/mol
# Density = 2.013630 g / cm^3
# Si number density = 20.182237 Si / 1000 Ang^3
#
#
#
# Elastic Constant Matrix: (Units=GPa)
#
#
# Indices 1 2 3 4 5 6 
#
# 1 146.4895 17.8993 46.4378 0.0000 -22.3961 0.0000
# 2 17.8993 22.1560 10.7572 0.0000 0.4332 0.0000
# 3 46.4378 10.7572 111.5378 0.0000 -28.5332 0.0000
# 4 0.0000 0.0000 0.0000 29.5383 0.0000 -5.7756
# 5 -22.3961 0.4332 -28.5332 0.0000 27.7332 0.0000
# 6 0.0000 0.0000 0.0000 -5.7756 0.0000 23.5743
#
#
#
# Elastic Compliance Matrix: (Units=1/GPa)
#
#
# Indices 1 2 3 4 5 6 
#
# 1 0.009030 -0.006594 -0.001672 0.000000 0.005675 0.000000
# 2 -0.006594 0.053307 -0.005390 0.000000 -0.011703 0.000000
# 3 -0.001672 -0.005390 0.013379 0.000000 0.012499 0.000000
# 4 0.000000 0.000000 0.000000 0.035558 0.000000 0.008711
# 5 0.005675 -0.011703 0.012499 0.000000 0.053683 0.000000
# 6 0.000000 0.000000 0.000000 0.008711 0.000000 0.044553
#
#
# Mechanical properties :
#
#
# Convention : Reuss Voigt Hill
#
# Bulk Modulus (GPa) = 20.65905 47.81909 34.23907
# Shear Modulus (GPa) = 19.76630 29.84177 24.80404
#
# Velocity S-wave (km/s) = 3.13292 3.84945 3.50952
# Velocity P-wave (km/s) = 4.83170 6.59566 5.78136
#
# Compressibility (1/GPa) = 0.04840494
#
# Stress axis : x y z
#
# Youngs Moduli (GPa) = 110.74517 18.75915 74.74515
#
# Poissons Ratio (x) = 0.12370 0.12495
# Poissons Ratio (y) = 0.73028 0.40284
# Poissons Ratio (z) = 0.18513 0.10110
#
# Static dielectric constant tensor:
#      x y z
#    x 1.728960 0.000000 0.015500 
#    y 0.000000 1.711790 0.000000 
#    z 0.015500 0.000000 1.681390 
# 
# From -- ./inp_files/48901.got.cif
#   From: 2010.05.17/outbox.cif.g08.bks.cpg/sg11_25_cif.got.tgz:48901.got - 2010.06.03 12:22:45.
