data_PCOD9163149
_publ_section_title
;
Structure prediction by ZEFSAII (Michael W. Deem and Ramdas Pophale) SiO2 
 PCOD9163149
Probable space group: P 21/M
;
_chemical_formula_sum "Si O2"
_cell_formula_units_Z 24
_cell_length_a 19.351182
_cell_length_b 9.210426
_cell_length_c 15.348528
_cell_angle_alpha 90.000000
_cell_angle_beta 28.911030
_cell_angle_gamma 90.000000
_cell_volume 1322.532423
_symmetry_space_group_name_H-M "P 21/M"
_symmetry_group_IT_number 11
_symmetry_cell_setting 'monoclinic'
loop_
_space_group_symop_operation_xyz
x,y,z
-x,1/2+y,-z
-x,-y,-z
x,1/2-y,z
loop_
_atom_site_type_symbol
_atom_site_label
_atom_site_fract_x
_atom_site_fract_y
_atom_site_fract_z
Si Si1 0.092699 0.084915 0.965880
Si Si2 0.561589 0.924709 0.018568
Si Si3 0.975348 0.074126 0.275539
Si Si4 0.350389 0.574703 0.412120
Si Si5 0.402733 0.417079 0.538301
Si Si6 0.893824 0.925975 0.685204
O O1 0.039267 0.250000 0.026919
O O2 0.250706 0.084642 0.754600
O O3 0.068825 0.027048 0.089354
O O4 0.000000 0.000000 0.000000
O O5 0.554532 0.750000 0.015337
O O6 0.463432 0.960501 0.210938
O O7 0.727671 0.964075 0.852015
O O8 0.500000 0.000000 0.000000
O O9 0.975797 0.250000 0.279499
O O10 0.810082 0.031849 0.441735
O O11 0.048967 0.025909 0.283268
O O12 0.351893 0.750000 0.423118
O O13 0.388233 0.497580 0.461457
O O14 0.500000 0.500000 0.500000
O O15 0.448740 0.250000 0.474126
O O16 0.903901 0.750000 0.668240
O O17 0.000000 0.000000 0.500000
#
# Coordination Sequence:
#
# PCOD9163149 Si02
#       6
#     4   4   4   4   4   4
#     4  10  20  36  59  85 113 150 191 235 280 334
#     4  10  22  38  61  88 117 153 191 236 287 343
#     4   9  18  34  58  83 111 147 187 230 281 340
#     4  10  20  37  60  84 114 154 193 234 289 346
#     4  11  24  38  57  85 119 156 194 239 284 337
#     4  10  21  38  60  86 114 147 189 235 285 340
#
# _framework density 18.147000999999999
#
# number of rings (size 3 to 8) (size 9 to 14) (size 15 to 20)
#    0.000    2.000    1.667    1.500    2.333    3.333 
#    0.000    1.667    0.000    0.000    0.000    0.000 
#    0.000    0.000    0.000    0.000    0.000    0.000 
#
# Total GULP energy -133870.701248 kJ/mol
# GULP energy per Si atom -5577.945885 kJ/mol
# Density = 1.810570 g / cm^3
# Si number density = 18.147001 Si / 1000 Ang^3
#
#
#
# Elastic Constant Matrix: (Units=GPa)
#
#
# Indices 1 2 3 4 5 6 
#
# 1 218.2692 65.0048 95.6363 0.0000 13.4966 0.0000
# 2 65.0048 46.9199 46.6991 0.0000 -0.6795 0.0000
# 3 95.6363 46.6991 122.9239 0.0000 20.2101 0.0000
# 4 0.0000 0.0000 0.0000 25.3351 0.0000 4.0460
# 5 13.4966 -0.6795 20.2101 0.0000 36.2942 0.0000
# 6 0.0000 0.0000 0.0000 4.0460 0.0000 35.5223
#
#
#
# Elastic Compliance Matrix: (Units=1/GPa)
#
#
# Indices 1 2 3 4 5 6 
#
# 1 0.008732 -0.009070 -0.003067 0.000000 -0.001709 0.000000
# 2 -0.009070 0.046376 -0.012393 0.000000 0.011142 0.000000
# 3 -0.003067 -0.012393 0.016600 0.000000 -0.008335 0.000000
# 4 0.000000 0.000000 0.000000 0.040202 0.000000 -0.004579
# 5 -0.001709 0.011142 -0.008335 0.000000 0.033038 0.000000
# 6 0.000000 0.000000 0.000000 -0.004579 0.000000 0.028673
#
#
# Mechanical properties :
#
#
# Convention : Reuss Voigt Hill
#
# Bulk Modulus (GPa) = 44.15674 89.19926 66.67800
# Shear Modulus (GPa) = 21.71729 31.48185 26.59957
#
# Velocity S-wave (km/s) = 3.46315 4.16964 3.83271
# Velocity P-wave (km/s) = 6.35428 8.51126 7.51061
#
# Compressibility (1/GPa) = 0.02264660
#
# Stress axis : x y z
#
# Youngs Moduli (GPa) = 114.51695 21.56302 60.24122
#
# Poissons Ratio (x) = 0.19558 0.18476
# Poissons Ratio (y) = 1.03870 0.74659
# Poissons Ratio (z) = 0.35122 0.26724
#
# Static dielectric constant tensor:
#      x y z
#    x 1.658450 0.000000 0.036120 
#    y 0.000000 1.630490 0.000000 
#    z 0.036120 0.000000 1.624080 
# 
# From -- ./inp_files/28946.got.cif
#   From: 2010.05.17/outbox.cif.g08.bks.cpg/sg11_15_cif.got.tgz:28946.got - 2010.06.03 12:22:45.
