data_PCOD9163779
_publ_section_title
;
Structure prediction by ZEFSAII (Michael W. Deem and Ramdas Pophale) SiO2 
 PCOD9163779
Probable space group: P 21/M
;
_chemical_formula_sum "Si O2"
_cell_formula_units_Z 24
_cell_length_a 14.142717
_cell_length_b 14.991775
_cell_length_c 9.297696
_cell_angle_alpha 90.000000
_cell_angle_beta 40.249706
_cell_angle_gamma 90.000000
_cell_volume 1273.721489
_symmetry_space_group_name_H-M "P 21/M"
_symmetry_group_IT_number 11
_symmetry_cell_setting 'monoclinic'
loop_
_space_group_symop_operation_xyz
x,y,z
-x,1/2+y,-z
-x,-y,-z
x,1/2-y,z
loop_
_atom_site_type_symbol
_atom_site_label
_atom_site_fract_x
_atom_site_fract_y
_atom_site_fract_z
Si Si1 0.335301 0.473441 0.230179
Si Si2 0.144101 0.019421 0.925643
Si Si3 0.348123 0.144605 0.500212
Si Si4 0.088756 0.077255 0.313647
Si Si5 0.201573 0.653347 0.314965
Si Si6 0.694647 0.351987 0.136772
O O1 0.330195 0.408503 0.371682
O O2 0.246722 0.423885 0.205322
O O3 0.257486 0.569710 0.342769
O O4 0.500000 0.500000 0.000000
O O5 0.246124 0.092278 0.730209
O O6 0.230084 0.926920 0.854128
O O7 0.102601 0.055511 0.131033
O O8 0.000000 0.000000 0.000000
O O9 0.312140 0.250000 0.529770
O O10 0.519422 0.138344 0.342964
O O11 0.974009 0.155807 0.471878
O O12 0.000000 0.000000 0.500000
O O13 0.262623 0.750000 0.286681
O O14 0.252361 0.636250 0.090998
O O15 0.732518 0.250000 0.133645
#
# Coordination Sequence:
#
# PCOD9163779 Si02
#       6
#     4   4   4   4   4   4
#     4  11  20  38  66  96 127 164 215 270 319 377
#     4  12  23  40  64  93 132 172 214 267 326 386
#     4  11  25  42  64  95 132 172 216 264 327 394
#     4  10  20  38  59  89 126 165 213 260 318 372
#     4  10  20  37  62  91 126 167 212 262 314 377
#     4  10  21  41  66  91 123 169 214 259 320 386
#
# _framework density 18.842424000000001
#
# number of rings (size 3 to 8) (size 9 to 14) (size 15 to 20)
#    0.000    1.333    5.000    2.500    0.000    2.000 
#    0.000    2.500    0.000    1.000    0.000    0.000 
#    0.000    0.000    0.000    0.000    0.000    0.000 
#
# Total GULP energy -133861.038838 kJ/mol
# GULP energy per Si atom -5577.543285 kJ/mol
# Density = 1.879954 g / cm^3
# Si number density = 18.842424 Si / 1000 Ang^3
#
#
#
# Elastic Constant Matrix: (Units=GPa)
#
#
# Indices 1 2 3 4 5 6 
#
# 1 110.4990 66.1226 67.6486 0.0000 -4.9941 0.0000
# 2 66.1226 182.3397 64.0029 0.0000 -0.1903 0.0000
# 3 67.6486 64.0029 149.1489 0.0000 1.8281 0.0000
# 4 0.0000 0.0000 0.0000 11.4068 0.0000 1.1003
# 5 -4.9941 -0.1903 1.8281 0.0000 31.8828 0.0000
# 6 0.0000 0.0000 0.0000 1.1003 0.0000 32.3874
#
#
#
# Elastic Compliance Matrix: (Units=1/GPa)
#
#
# Indices 1 2 3 4 5 6 
#
# 1 0.014296 -0.003408 -0.005052 0.000000 0.002509 0.000000
# 2 -0.003408 0.007271 -0.001569 0.000000 -0.000400 0.000000
# 3 -0.005052 -0.001569 0.009686 0.000000 -0.001356 0.000000
# 4 0.000000 0.000000 0.000000 0.087955 0.000000 -0.002988
# 5 0.002509 -0.000400 -0.001356 0.000000 0.031833 0.000000
# 6 0.000000 0.000000 0.000000 -0.002988 0.000000 0.030978
#
#
# Mechanical properties :
#
#
# Convention : Reuss Voigt Hill
#
# Bulk Modulus (GPa) = 89.33939 93.05954 91.19947
# Shear Modulus (GPa) = 24.29440 31.41630 27.85535
#
# Velocity S-wave (km/s) = 3.59464 4.08771 3.84908
# Velocity P-wave (km/s) = 8.04646 8.47199 8.26197
#
# Compressibility (1/GPa) = 0.01119327
#
# Stress axis : x y z
#
# Youngs Moduli (GPa) = 69.95112 137.54084 103.23904
#
# Poissons Ratio (x) = 0.46875 0.52159
# Poissons Ratio (y) = 0.23840 0.16201
# Poissons Ratio (z) = 0.35341 0.21584
#
# Static dielectric constant tensor:
#      x y z
#    x 1.668950 0.000000 -0.028620 
#    y 0.000000 1.698730 0.000000 
#    z -0.028620 0.000000 1.661260 
# 
# From -- ./inp_files/21987.got.cif
#   From: 2010.05.17/outbox.cif.g08.bks.cpg/sg11_11_cif.got.tgz:21987.got - 2010.06.03 12:22:45.
