data_PCOD9163036
_publ_section_title
;
Structure prediction by ZEFSAII (Michael W. Deem and Ramdas Pophale) SiO2 
 PCOD9163036
Probable space group: P 21/M
;
_chemical_formula_sum "Si O2"
_cell_formula_units_Z 28
_cell_length_a 19.697195
_cell_length_b 8.235298
_cell_length_c 14.900991
_cell_angle_alpha 90.000000
_cell_angle_beta 146.135441
_cell_angle_gamma 90.000000
_cell_volume 1346.897614
_symmetry_space_group_name_H-M "P 21/M"
_symmetry_group_IT_number 11
_symmetry_cell_setting 'monoclinic'
loop_
_space_group_symop_operation_xyz
x,y,z
-x,1/2+y,-z
-x,-y,-z
x,1/2-y,z
loop_
_atom_site_type_symbol
_atom_site_label
_atom_site_fract_x
_atom_site_fract_y
_atom_site_fract_z
Si Si1 0.722611 0.946121 0.524765
Si Si2 0.089990 0.062862 0.724367
Si Si3 0.170964 0.440779 0.545163
Si Si4 0.214066 0.553154 0.030941
Si Si5 0.686771 0.438300 0.140896
Si Si6 0.860623 0.444000 0.853554
Si Si7 0.452661 0.947945 0.181998
O O1 0.720880 0.750000 0.519649
O O2 0.797405 0.001563 0.519456
O O3 0.583764 0.003418 0.359441
O O4 0.784198 0.996599 0.684658
O O5 0.117840 0.250000 0.734573
O O6 0.187922 0.954963 0.778992
O O7 0.950027 0.025917 0.550926
O O8 0.113986 0.023703 0.855270
O O9 0.144365 0.250000 0.511953
O O10 0.284549 0.469594 0.735982
O O11 0.203237 0.750000 0.014316
O O12 0.195269 0.501122 0.112536
O O13 0.344497 0.506713 0.131601
O O14 0.663396 0.250000 0.135015
O O15 0.585126 0.502186 0.959873
O O16 0.858761 0.250000 0.851603
O O17 0.000000 0.500000 0.000000
O O18 0.453318 0.750000 0.179175
#
# Coordination Sequence:
#
# PCOD9163036 Si02
#       7
#     4   4   4   4   4   4   4
#     4  10  22  39  58  80 110 147 183 224 272 324
#     4  11  21  34  55  83 112 142 182 228 274 326
#     4  11  22  35  52  78 112 147 184 226 274 324
#     4   9  19  37  59  81 110 146 181 223 275 325
#     4  10  20  36  58  81 109 145 183 225 273 325
#     4  11  23  38  58  85 114 145 181 224 273 325
#     4   8  17  37  60  80 106 143 183 221 270 327
#
# _framework density 20.788515
#
# number of rings (size 3 to 8) (size 9 to 14) (size 15 to 20)
#    0.000    2.000    0.000    4.714    0.000    6.857 
#    0.000    3.571    0.000    0.000    0.000    0.000 
#    0.000    0.000    0.000    0.000    0.000    0.000 
#
# Total GULP energy -156455.151902 kJ/mol
# GULP energy per Si atom -5587.683996 kJ/mol
# Density = 2.074120 g / cm^3
# Si number density = 20.788515 Si / 1000 Ang^3
#
#
#
# Elastic Constant Matrix: (Units=GPa)
#
#
# Indices 1 2 3 4 5 6 
#
# 1 33.5966 -7.8282 19.5205 0.0000 -15.5110 0.0000
# 2 -7.8282 18.3122 -5.2876 0.0000 2.6318 0.0000
# 3 19.5205 -5.2876 138.9768 0.0000 -8.1197 0.0000
# 4 0.0000 0.0000 0.0000 31.1139 0.0000 -8.3085
# 5 -15.5110 2.6318 -8.1197 0.0000 38.2735 0.0000
# 6 0.0000 0.0000 0.0000 -8.3085 0.0000 15.8246
#
#
#
# Elastic Compliance Matrix: (Units=1/GPa)
#
#
# Indices 1 2 3 4 5 6 
#
# 1 0.043010 0.014846 -0.004574 0.000000 0.015439 0.000000
# 2 0.014846 0.060778 0.000339 0.000000 0.001909 0.000000
# 3 -0.004574 0.000339 0.007838 0.000000 -0.000214 0.000000
# 4 0.000000 0.000000 0.000000 0.037381 0.000000 0.019626
# 5 0.015439 0.001909 -0.000214 0.000000 0.032208 0.000000
# 6 0.000000 0.000000 0.000000 0.019626 0.000000 0.073498
#
#
# Mechanical properties :
#
#
# Convention : Reuss Voigt Hill
#
# Bulk Modulus (GPa) = 7.52736 22.63278 15.08007
# Shear Modulus (GPa) = 18.00021 29.34111 23.67066
#
# Velocity S-wave (km/s) = 2.94576 3.76095 3.37804
# Velocity P-wave (km/s) = 3.89857 5.45623 4.74180
#
# Compressibility (1/GPa) = 0.13284863
#
# Stress axis : x y z
#
# Youngs Moduli (GPa) = 23.25034 16.45321 127.57856
#
# Poissons Ratio (x) = -0.24427 0.58358
# Poissons Ratio (y) = -0.34519 -0.04321
# Poissons Ratio (z) = 0.10635 -0.00557
#
# Static dielectric constant tensor:
#      x y z
#    x 1.773560 0.000000 -0.092410 
#    y 0.000000 1.725970 0.000000 
#    z -0.092410 0.000000 2.036590 
# 
# From -- ./inp_files/38450.got.cif
#   From: 2010.05.17/outbox.cif.g08.bks.cpg/sg11_20_cif.got.tgz:38450.got - 2010.06.03 12:22:45.
