data_PCOD9163980
_publ_section_title
;
Structure prediction by ZEFSAII (Michael W. Deem and Ramdas Pophale) SiO2 
 PCOD9163980
Probable space group: P 21/M
;
_chemical_formula_sum "Si O2"
_cell_formula_units_Z 20
_cell_length_a 7.210181
_cell_length_b 9.954820
_cell_length_c 19.965625
_cell_angle_alpha 90.000000
_cell_angle_beta 43.758574
_cell_angle_gamma 90.000000
_cell_volume 991.130296
_symmetry_space_group_name_H-M "P 21/M"
_symmetry_group_IT_number 11
_symmetry_cell_setting 'monoclinic'
loop_
_space_group_symop_operation_xyz
x,y,z
-x,1/2+y,-z
-x,-y,-z
x,1/2-y,z
loop_
_atom_site_type_symbol
_atom_site_label
_atom_site_fract_x
_atom_site_fract_y
_atom_site_fract_z
Si Si1 0.143004 0.250000 0.336660
Si Si2 0.510356 0.250000 0.836660
Si Si3 0.616800 0.750000 0.860027
Si Si4 0.051315 0.750000 0.088739
Si Si5 0.713925 0.030064 0.886449
Si Si6 0.259720 0.969936 0.613551
Si Si7 0.406272 0.250000 0.411261
Si Si8 0.943092 0.750000 0.360027
O O1 0.385196 0.250000 0.219837
O O2 0.240491 0.250000 0.386780
O O3 0.958295 0.378391 0.367561
O O4 0.571459 0.121609 0.867562
O O5 0.735456 0.250000 0.719837
O O6 0.212389 0.250000 0.886780
O O7 0.775588 0.615897 0.840617
O O8 0.323503 0.750000 0.971644
O O9 0.066580 0.620144 0.133138
O O10 0.500000 0.000000 0.000000
O O11 0.400869 0.879856 0.633138
O O12 0.500000 0.000000 0.500000
O O13 0.138057 0.115897 0.659383
O O14 0.210077 0.250000 0.528356
#
# Coordination Sequence:
#
# PCOD9163980 Si02
#       8
#     2   2   2   2   4   4   2   2
#     4  11  21  39  61  90 124 154 201 249 291 357
#     4  11  21  39  61  90 124 154 201 249 291 357
#     4  10  20  38  62  88 120 156 198 250 292 346
#     4   9  21  41  63  86 118 162 199 241 301 353
#     4   9  20  40  61  83 117 157 198 246 300 350
#     4   9  20  40  61  83 117 157 198 246 300 350
#     4   9  21  41  63  86 118 162 199 241 301 353
#     4  10  20  38  62  88 120 156 198 250 292 346
#
# _framework density 20.178982000000001
#
# number of rings (size 3 to 8) (size 9 to 14) (size 15 to 20)
#    0.000    2.400    0.000    2.400    0.000    6.400 
#    0.000   38.000    0.000    0.000    0.000    0.000 
#    0.000    0.000    0.000    0.000    0.000    0.000 
#
# Total GULP energy -111557.527056 kJ/mol
# GULP energy per Si atom -5577.876353 kJ/mol
# Density = 2.013305 g / cm^3
# Si number density = 20.178982 Si / 1000 Ang^3
#
#
#
# Elastic Constant Matrix: (Units=GPa)
#
#
# Indices 1 2 3 4 5 6 
#
# 1 147.4937 72.3756 51.9102 0.0000 0.6083 0.0000
# 2 72.3756 185.8541 28.8266 0.0000 0.7408 0.0000
# 3 51.9102 28.8266 103.0048 0.0000 0.1488 0.0000
# 4 0.0000 0.0000 0.0000 -1.1597 0.0000 0.1052
# 5 0.6083 0.7408 0.1488 0.0000 29.9283 0.0000
# 6 0.0000 0.0000 0.0000 0.1052 0.0000 5.0287
#
#
#
# Elastic Compliance Matrix: (Units=1/GPa)
#
#
# Indices 1 2 3 4 5 6 
#
# 1 0.009755 -0.003174 -0.004028 0.000000 -0.000100 0.000000
# 2 -0.003174 0.006658 -0.000264 0.000000 -0.000099 0.000000
# 3 -0.004028 -0.000264 0.011812 0.000000 0.000030 0.000000
# 4 0.000000 0.000000 0.000000 -0.860668 0.000000 0.017999
# 5 -0.000100 -0.000099 0.000030 0.000000 0.033418 0.000000
# 6 0.000000 0.000000 0.000000 0.017999 0.000000 0.198481
#
#
# Mechanical properties :
#
#
# Convention : Reuss Voigt Hill
#
# Bulk Modulus (GPa) = 75.21989 82.50860 78.86424
# Shear Modulus (GPa) = -8.60316 25.64215 8.51950
#
# Velocity S-wave (km/s) = -2.06705 3.56860 2.05697
# Velocity P-wave (km/s) = 5.62675 7.61295 6.69393
#
# Compressibility (1/GPa) = 0.01329436
#
# Stress axis : x y z
#
# Youngs Moduli (GPa) = 102.50736 150.19974 84.66006
#
# Poissons Ratio (x) = 0.47671 0.34101
# Poissons Ratio (y) = 0.32534 0.02232
# Poissons Ratio (z) = 0.41290 0.03959
#
# Static dielectric constant tensor:
#      x y z
#    x 1.565810 0.000000 -0.003570 
#    y 0.000000 1.756150 0.000000 
#    z -0.003570 0.000000 1.775980 
# 
# From -- ./inp_files/56767.got.cif
#   From: 2010.05.17/outbox.cif.g08.bks.cpg/sg11_29_cif.got.tgz:56767.got - 2010.06.03 12:22:45.
