data_PCOD9163030
_publ_section_title
;
Structure prediction by ZEFSAII (Michael W. Deem and Ramdas Pophale) SiO2 
 PCOD9163030
Probable space group: P 21/M
;
_chemical_formula_sum "Si O2"
_cell_formula_units_Z 20
_cell_length_a 9.062709
_cell_length_b 13.653553
_cell_length_c 7.924930
_cell_angle_alpha 90.000000
_cell_angle_beta 95.699212
_cell_angle_gamma 90.000000
_cell_volume 975.769146
_symmetry_space_group_name_H-M "P 21/M"
_symmetry_group_IT_number 11
_symmetry_cell_setting 'monoclinic'
loop_
_space_group_symop_operation_xyz
x,y,z
-x,1/2+y,-z
-x,-y,-z
x,1/2-y,z
loop_
_atom_site_type_symbol
_atom_site_label
_atom_site_fract_x
_atom_site_fract_y
_atom_site_fract_z
Si Si1 0.924660 0.859194 0.063451
Si Si2 0.478240 0.557032 0.265978
Si Si3 0.575340 0.859194 0.936549
Si Si4 0.750000 0.006197 0.500000
Si Si5 0.021760 0.557032 0.734022
O O1 0.949850 0.750000 0.131828
O O2 0.967717 0.945648 0.194246
O O3 0.750000 0.870246 1.000000
O O4 0.011136 0.876284 0.897448
O O5 0.338688 0.569458 0.372246
O O6 0.628079 0.559837 0.391714
O O7 0.488864 0.623716 0.102552
O O8 0.550150 0.750000 0.868171
O O9 0.871921 0.940163 0.608286
O O10 0.532283 0.945648 0.805754
O O11 0.838688 0.069458 0.372246
#
# Coordination Sequence:
#
# PCOD9163030 Si02
#       5
#     4   4   4   4   4
#     4  10  20  37  60  83 108 149 191 222 268 336
#     4  10  20  38  58  84 110 150 178 236 268 334
#     4  10  20  37  60  83 108 149 191 222 268 336
#     4  10  20  36  58  80 118 146 180 220 296 316
#     4  10  20  38  58  84 110 150 178 236 268 334
#
# _framework density 20.496652000000001
#
# number of rings (size 3 to 8) (size 9 to 14) (size 15 to 20)
#    0.000    2.000    4.000    0.000    0.000    0.000 
#    0.000   16.000    0.000    0.000    0.000    0.000 
#    0.000    0.000    0.000    0.000    0.000    0.000 
#
# Total GULP energy -111672.316360 kJ/mol
# GULP energy per Si atom -5583.615818 kJ/mol
# Density = 2.045000 g / cm^3
# Si number density = 20.496652 Si / 1000 Ang^3
#
#
#
# Elastic Constant Matrix: (Units=GPa)
#
#
# Indices 1 2 3 4 5 6 
#
# 1 67.7807 10.1778 26.2022 0.0000 -12.1444 0.0000
# 2 10.1778 80.9618 1.3103 0.0000 11.7350 0.0000
# 3 26.2022 1.3103 132.1102 0.0000 -33.6632 0.0000
# 4 0.0000 0.0000 0.0000 2.1420 0.0000 -1.1815
# 5 -12.1444 11.7350 -33.6632 0.0000 39.8157 0.0000
# 6 0.0000 0.0000 0.0000 -1.1815 0.0000 4.4021
#
#
#
# Elastic Compliance Matrix: (Units=1/GPa)
#
#
# Indices 1 2 3 4 5 6 
#
# 1 0.016742 -0.002640 -0.002288 0.000000 0.003951 0.000000
# 2 -0.002640 0.013525 -0.001060 0.000000 -0.005688 0.000000
# 3 -0.002288 -0.001060 0.010115 0.000000 0.008166 0.000000
# 4 0.000000 0.000000 0.000000 0.547985 0.000000 0.147071
# 5 0.003951 -0.005688 0.008166 0.000000 0.034901 0.000000
# 6 0.000000 0.000000 0.000000 0.147071 0.000000 0.266636
#
#
# Mechanical properties :
#
#
# Convention : Reuss Voigt Hill
#
# Bulk Modulus (GPa) = 35.20369 39.58148 37.39258
# Shear Modulus (GPa) = 5.48638 25.48276 15.48457
#
# Velocity S-wave (km/s) = 1.63784 3.52982 2.75156
# Velocity P-wave (km/s) = 4.55953 5.99716 5.32707
#
# Compressibility (1/GPa) = 0.02840612
#
# Stress axis : x y z
#
# Youngs Moduli (GPa) = 59.72955 73.93738 98.86779
#
# Poissons Ratio (x) = 0.19521 0.22618
# Poissons Ratio (y) = 0.15770 0.10477
# Poissons Ratio (z) = 0.13664 0.07835
#
# Static dielectric constant tensor:
#      x y z
#    x 1.733360 0.000000 -0.019500 
#    y 0.000000 1.668250 0.000000 
#    z -0.019500 0.000000 1.758340 
# 
# From -- ./inp_files/17337.got.cif
#   From: 2010.05.17/outbox.cif.g08.bks.cpg/sg11_9_cif.got.tgz:17337.got - 2010.06.03 12:22:45.
