data_PCOD9163012
_publ_section_title
;
Structure prediction by ZEFSAII (Michael W. Deem and Ramdas Pophale) SiO2 
 PCOD9163012
Probable space group: P 21/M
;
_chemical_formula_sum "Si O2"
_cell_formula_units_Z 32
_cell_length_a 15.221146
_cell_length_b 8.319960
_cell_length_c 24.138911
_cell_angle_alpha 90.000000
_cell_angle_beta 148.588606
_cell_angle_gamma 90.000000
_cell_volume 1593.211647
_symmetry_space_group_name_H-M "P 21/M"
_symmetry_group_IT_number 11
_symmetry_cell_setting 'monoclinic'
loop_
_space_group_symop_operation_xyz
x,y,z
-x,1/2+y,-z
-x,-y,-z
x,1/2-y,z
loop_
_atom_site_type_symbol
_atom_site_label
_atom_site_fract_x
_atom_site_fract_y
_atom_site_fract_z
Si Si1 0.311277 0.561233 0.408760
Si Si2 0.319854 0.427751 0.886700
Si Si3 0.094331 0.056847 0.605533
Si Si4 0.600128 0.432089 0.179755
Si Si5 0.120150 0.440002 0.199198
Si Si6 0.973452 0.053051 0.663912
Si Si7 0.184231 0.558850 0.118267
Si Si8 0.262508 0.942929 0.039519
O O1 0.500000 0.500000 0.500000
O O2 0.326206 0.750000 0.425713
O O3 0.201535 0.527515 0.294822
O O4 0.200146 0.497501 0.400969
O O5 0.311866 0.250000 0.906217
O O6 0.341439 0.433721 0.832244
O O7 0.132419 0.503580 0.788496
O O8 0.500000 0.500000 0.000000
O O9 0.109467 0.250000 0.613263
O O10 0.003149 0.008486 0.615278
O O11 0.276933 0.970627 0.703559
O O12 0.000000 0.000000 0.500000
O O13 0.630493 0.250000 0.176169
O O14 0.404842 0.460384 0.084732
O O15 0.122967 0.250000 0.210867
O O16 0.220366 0.476922 0.196128
O O17 0.925587 0.486914 0.081753
O O18 0.979719 0.250000 0.669184
O O19 0.180964 0.750000 0.124659
O O20 0.289100 0.524466 0.119311
O O21 0.000000 0.500000 0.000000
O O22 0.280581 0.750000 0.041015
#
# Coordination Sequence:
#
# PCOD9163012 Si02
#       8
#     4   4   4   4   4   4   4   4
#     4  11  23  42  63  86 116 155 202 254 299 355
#     4  10  20  36  57  86 120 155 192 239 292 350
#     4  10  20  40  65  88 117 153 194 246 299 354
#     4  11  22  35  54  85 119 155 194 234 287 349
#     4  10  21  37  58  84 114 153 195 243 302 355
#     4   8  19  39  62  85 116 154 193 240 299 351
#     4   9  17  32  54  80 111 148 189 236 287 342
#     4   9  19  35  55  83 119 152 190 240 293 347
#
# _framework density 20.085217
#
# number of rings (size 3 to 8) (size 9 to 14) (size 15 to 20)
#    0.000    2.250    0.000    4.500    1.750    3.000 
#    2.250    6.875    0.000    0.000    0.000    0.000 
#    0.000    0.000    0.000    0.000    0.000    0.000 
#
# Total GULP energy -178213.783214 kJ/mol
# GULP energy per Si atom -5569.180725 kJ/mol
# Density = 2.003950 g / cm^3
# Si number density = 20.085217 Si / 1000 Ang^3
#
#
#
# Elastic Constant Matrix: (Units=GPa)
#
#
# Indices 1 2 3 4 5 6 
#
# 1 78.2225 17.0032 41.5092 0.0000 15.1687 0.0000
# 2 17.0032 32.2649 15.1150 0.0000 11.8081 0.0000
# 3 41.5092 15.1150 109.8097 0.0000 6.9666 0.0000
# 4 0.0000 0.0000 0.0000 33.1985 0.0000 -1.2843
# 5 15.1687 11.8081 6.9666 0.0000 31.8245 0.0000
# 6 0.0000 0.0000 0.0000 -1.2843 0.0000 21.8441
#
#
#
# Elastic Compliance Matrix: (Units=1/GPa)
#
#
# Indices 1 2 3 4 5 6 
#
# 1 0.017955 -0.004725 -0.005786 0.000000 -0.005538 0.000000
# 2 -0.004725 0.039074 -0.002855 0.000000 -0.011621 0.000000
# 3 -0.005786 -0.002855 0.011606 0.000000 0.001276 0.000000
# 4 0.000000 0.000000 0.000000 0.030191 0.000000 0.001775
# 5 -0.005538 -0.011621 0.001276 0.000000 0.038095 0.000000
# 6 0.000000 0.000000 0.000000 0.001775 0.000000 0.045883
#
#
# Mechanical properties :
#
#
# Convention : Reuss Voigt Hill
#
# Bulk Modulus (GPa) = 23.86421 40.83909 32.35165
# Shear Modulus (GPa) = 22.37115 27.15140 24.76127
#
# Velocity S-wave (km/s) = 3.34100 3.68069 3.51495
# Velocity P-wave (km/s) = 5.17594 6.20003 5.71098
#
# Compressibility (1/GPa) = 0.04190375
#
# Stress axis : x y z
#
# Youngs Moduli (GPa) = 55.69411 25.59252 86.16484
#
# Poissons Ratio (x) = 0.12092 0.49851
# Poissons Ratio (y) = 0.26315 0.24601
# Poissons Ratio (z) = 0.32222 0.07307
#
# Static dielectric constant tensor:
#      x y z
#    x 1.763210 0.000000 0.017080 
#    y 0.000000 1.702110 0.000000 
#    z 0.017080 0.000000 1.783000 
# 
# From -- ./inp_files/69119.got.cif
#   From: 2010.05.17/outbox.cif.g08.bks.cpg/sg11_35_cif.got.tgz:69119.got - 2010.06.03 12:22:45.
