data_PCOD9163631
_publ_section_title
;
Structure prediction by ZEFSAII (Michael W. Deem and Ramdas Pophale) SiO2 
 PCOD9163631
Probable space group: P 21/M
;
_chemical_formula_sum "Si O2"
_cell_formula_units_Z 24
_cell_length_a 21.348493
_cell_length_b 11.680373
_cell_length_c 8.114314
_cell_angle_alpha 90.000000
_cell_angle_beta 147.931748
_cell_angle_gamma 90.000000
_cell_volume 1074.267100
_symmetry_space_group_name_H-M "P 21/M"
_symmetry_group_IT_number 11
_symmetry_cell_setting 'monoclinic'
loop_
_space_group_symop_operation_xyz
x,y,z
-x,1/2+y,-z
-x,-y,-z
x,1/2-y,z
loop_
_atom_site_type_symbol
_atom_site_label
_atom_site_fract_x
_atom_site_fract_y
_atom_site_fract_z
Si Si1 0.543877 0.114335 0.496139
Si Si2 0.618507 0.871942 0.187797
Si Si3 0.860383 0.595422 0.543075
Si Si4 0.922429 0.880194 0.313110
Si Si5 0.265734 0.515816 0.294492
Si Si6 0.119105 0.628335 0.254190
O O1 0.537065 0.250000 0.542787
O O2 0.500000 0.000000 0.500000
O O3 0.675568 0.084305 0.724696
O O4 0.464386 0.112719 0.153973
O O5 0.587254 0.750000 0.196382
O O6 0.748315 0.867131 0.395749
O O7 0.632186 0.965695 0.359531
O O8 0.866542 0.630602 0.369743
O O9 0.858273 0.458955 0.550374
O O10 0.980920 0.628634 0.903506
O O11 0.971586 0.750000 0.385060
O O12 0.818242 0.913555 0.955371
O O13 0.000000 0.000000 0.500000
O O14 0.184426 0.591661 0.232459
O O15 0.163574 0.750000 0.404180
#
# Coordination Sequence:
#
# PCOD9163631 Si02
#       6
#     4   4   4   4   4   4
#     4  11  25  45  70  98 133 174 220 274 332 394
#     4  10  21  40  66  95 129 171 219 269 323 389
#     4  10  21  37  58  89 126 171 213 262 321 383
#     4  12  25  41  63  96 135 178 221 272 328 392
#     4  11  23  41  65  97 130 173 219 272 333 392
#     4  10  20  37  60  88 125 168 217 270 325 385
#
# _framework density 22.340814000000002
#
# number of rings (size 3 to 8) (size 9 to 14) (size 15 to 20)
#    0.000    1.333    1.667    4.000    0.000    4.000 
#    0.000    7.500    0.000    0.000    0.000    0.000 
#    0.000    0.000    0.000    0.000    0.000    0.000 
#
# Total GULP energy -133753.275371 kJ/mol
# GULP energy per Si atom -5573.053140 kJ/mol
# Density = 2.228996 g / cm^3
# Si number density = 22.340814 Si / 1000 Ang^3
#
#
#
# Elastic Constant Matrix: (Units=GPa)
#
#
# Indices 1 2 3 4 5 6 
#
# 1 69.4404 46.7105 -3.6911 0.0000 11.2775 0.0000
# 2 46.7105 205.6645 23.1760 0.0000 -5.1913 0.0000
# 3 -3.6911 23.1760 51.4763 0.0000 1.1961 0.0000
# 4 0.0000 0.0000 0.0000 23.0121 0.0000 -17.4251
# 5 11.2775 -5.1913 1.1961 0.0000 27.6042 0.0000
# 6 0.0000 0.0000 0.0000 -17.4251 0.0000 8.2421
#
#
#
# Elastic Compliance Matrix: (Units=1/GPa)
#
#
# Indices 1 2 3 4 5 6 
#
# 1 0.019520 -0.005104 0.003909 0.000000 -0.009104 0.000000
# 2 -0.005104 0.006488 -0.003367 0.000000 0.003451 0.000000
# 3 0.003909 -0.003367 0.021296 0.000000 -0.003153 0.000000
# 4 0.000000 0.000000 0.000000 -0.072321 0.000000 -0.152898
# 5 -0.009104 0.003451 -0.003153 0.000000 0.040732 0.000000
# 6 0.000000 0.000000 0.000000 -0.152898 0.000000 -0.201921
#
#
# Mechanical properties :
#
#
# Convention : Reuss Voigt Hill
#
# Bulk Modulus (GPa) = 26.19135 50.99689 38.59412
# Shear Modulus (GPa) = -30.42177 29.13072 -0.64553
#
# Velocity S-wave (km/s) = -3.69414 3.61491 -0.53812
# Velocity P-wave (km/s) = 2.53901 6.34821 4.11419
#
# Compressibility (1/GPa) = 0.03818055
#
# Stress axis : x y z
#
# Youngs Moduli (GPa) = 51.22864 154.13035 46.95716
#
# Poissons Ratio (x) = 0.78665 -0.18356
# Poissons Ratio (y) = 0.26146 0.15812
# Poissons Ratio (z) = -0.20026 0.51899
#
# Static dielectric constant tensor:
#      x y z
#    x 1.785370 0.000000 0.034200 
#    y 0.000000 1.966080 0.000000 
#    z 0.034200 0.000000 1.917940 
# 
# From -- ./inp_files/27673.got.cif
#   From: 2010.05.17/outbox.cif.g08.bks.cpg/sg11_14_cif.got.tgz:27673.got - 2010.06.03 12:22:45.
