data_PCOD9163173
_publ_section_title
;
Structure prediction by ZEFSAII (Michael W. Deem and Ramdas Pophale) SiO2 
 PCOD9163173
Probable space group: P 21/M
;
_chemical_formula_sum "Si O2"
_cell_formula_units_Z 32
_cell_length_a 17.338558
_cell_length_b 14.718430
_cell_length_c 24.522649
_cell_angle_alpha 90.000000
_cell_angle_beta 163.937853
_cell_angle_gamma 90.000000
_cell_volume 1731.487529
_symmetry_space_group_name_H-M "P 21/M"
_symmetry_group_IT_number 11
_symmetry_cell_setting 'monoclinic'
loop_
_space_group_symop_operation_xyz
x,y,z
-x,1/2+y,-z
-x,-y,-z
x,1/2-y,z
loop_
_atom_site_type_symbol
_atom_site_label
_atom_site_fract_x
_atom_site_fract_y
_atom_site_fract_z
Si Si1 0.813347 0.518451 0.092948
Si Si2 0.261266 0.146044 0.570652
Si Si3 0.989688 0.642664 0.114487
Si Si4 0.190225 0.579246 0.653788
Si Si5 0.647135 0.149642 0.350079
Si Si6 0.774862 0.017023 0.529963
Si Si7 0.160409 0.641280 0.973557
Si Si8 0.187637 0.482049 0.181083
O O1 0.945877 0.596007 0.143567
O O2 0.964636 0.521181 0.253342
O O3 0.485617 0.539786 0.873854
O O4 0.858162 0.421753 0.092806
O O5 0.275465 0.250000 0.564321
O O6 0.528925 0.126778 0.790847
O O7 0.984469 0.126462 0.417484
O O8 0.271515 0.083010 0.525168
O O9 0.057608 0.750000 0.162794
O O10 0.191330 0.576499 0.217678
O O11 0.685530 0.632931 0.878917
O O12 0.252676 0.642226 0.644059
O O13 0.000000 0.500000 0.500000
O O14 0.696569 0.250000 0.405196
O O15 0.793792 0.078164 0.488738
O O16 0.496170 0.045011 0.372739
O O17 0.116541 0.750000 0.936498
O O18 0.953990 0.594915 0.877389
O O19 0.000000 0.500000 0.000000
#
# Coordination Sequence:
#
# PCOD9163173 Si02
#       8
#     4   4   4   4   4   4   4   4
#     4  10  23  39  60  86 121 153 187 243 293 341
#     4  11  22  38  63  89 114 151 197 243 288 344
#     4   9  19  37  60  83 112 155 202 236 276 340
#     4  11  19  40  66  82 108 152 196 233 283 352
#     4  10  20  36  59  86 113 149 196 241 282 338
#     4  12  23  38  57  88 125 150 189 243 297 338
#     4  10  21  39  61  87 116 156 202 236 278 345
#     4  11  20  36  59  87 117 156 195 237 285 339
#
# _framework density 18.481217999999998
#
# number of rings (size 3 to 8) (size 9 to 14) (size 15 to 20)
#    0.000    1.500    5.000    1.125    0.000    5.500 
#    0.000    1.250    0.000    0.000    0.000    0.000 
#    0.000    0.000    0.000    0.000    0.000    0.000 
#
# Total GULP energy -178627.231861 kJ/mol
# GULP energy per Si atom -5582.100996 kJ/mol
# Density = 1.843915 g / cm^3
# Si number density = 18.481218 Si / 1000 Ang^3
#
#
#
# Elastic Constant Matrix: (Units=GPa)
#
#
# Indices 1 2 3 4 5 6 
#
# 1 55.5617 20.3568 26.6183 0.0000 7.0054 0.0000
# 2 20.3568 93.5151 22.3506 0.0000 -13.8577 0.0000
# 3 26.6183 22.3506 69.6823 0.0000 -7.3910 0.0000
# 4 0.0000 0.0000 0.0000 12.3143 0.0000 4.4399
# 5 7.0054 -13.8577 -7.3910 0.0000 33.6348 0.0000
# 6 0.0000 0.0000 0.0000 4.4399 0.0000 7.2508
#
#
#
# Elastic Compliance Matrix: (Units=1/GPa)
#
#
# Indices 1 2 3 4 5 6 
#
# 1 0.025236 -0.004676 -0.009114 0.000000 -0.009186 0.000000
# 2 -0.004676 0.013013 -0.001757 0.000000 0.005949 0.000000
# 3 -0.009114 -0.001757 0.018962 0.000000 0.005342 0.000000
# 4 0.000000 0.000000 0.000000 0.104215 0.000000 -0.063815
# 5 -0.009186 0.005949 0.005342 0.000000 0.035269 0.000000
# 6 0.000000 0.000000 0.000000 -0.063815 0.000000 0.176992
#
#
# Mechanical properties :
#
#
# Convention : Reuss Voigt Hill
#
# Bulk Modulus (GPa) = 38.28940 39.71227 39.00084
# Shear Modulus (GPa) = 12.09225 20.60220 16.34722
#
# Velocity S-wave (km/s) = 2.56070 3.34243 2.97733
# Velocity P-wave (km/s) = 5.43193 6.03576 5.74179
#
# Compressibility (1/GPa) = 0.02611689
#
# Stress axis : x y z
#
# Youngs Moduli (GPa) = 39.62599 76.84712 52.73574
#
# Poissons Ratio (x) = 0.35936 0.48065
# Poissons Ratio (y) = 0.18530 0.09263
# Poissons Ratio (z) = 0.36117 0.13498
#
# Static dielectric constant tensor:
#      x y z
#    x 1.639160 0.000000 0.015770 
#    y 0.000000 1.642280 0.000000 
#    z 0.015770 0.000000 1.623770 
# 
# From -- ./inp_files/47654.got.cif
#   From: 2010.05.17/outbox.cif.g08.bks.cpg/sg11_24_cif.got.tgz:47654.got - 2010.06.03 12:22:45.
