data_PCOD9163347
_publ_section_title
;
Structure prediction by ZEFSAII (Michael W. Deem and Ramdas Pophale) SiO2 
 PCOD9163347
Probable space group: P 21/M
;
_chemical_formula_sum "Si O2"
_cell_formula_units_Z 30
_cell_length_a 15.006000
_cell_length_b 13.944340
_cell_length_c 19.388829
_cell_angle_alpha 90.000000
_cell_angle_beta 18.688221
_cell_angle_gamma 90.000000
_cell_volume 1299.965228
_symmetry_space_group_name_H-M "P 21/M"
_symmetry_group_IT_number 11
_symmetry_cell_setting 'monoclinic'
loop_
_space_group_symop_operation_xyz
x,y,z
-x,1/2+y,-z
-x,-y,-z
x,1/2-y,z
loop_
_atom_site_type_symbol
_atom_site_label
_atom_site_fract_x
_atom_site_fract_y
_atom_site_fract_z
Si Si1 0.171247 0.407330 0.201906
Si Si2 0.731466 0.482024 0.430339
Si Si3 0.357185 0.403566 0.264034
Si Si4 0.982358 0.142512 0.058611
Si Si5 0.596669 0.641135 0.430905
Si Si6 0.690639 0.044673 0.148747
Si Si7 0.765138 0.750000 0.750877
Si Si8 0.763809 0.420577 0.742599
O O1 0.049228 0.334234 0.346389
O O2 0.198418 0.510044 0.219104
O O3 0.996443 0.423609 0.261624
O O4 0.478471 0.363752 0.962748
O O5 0.783517 0.565132 0.335923
O O6 0.503938 0.409775 0.565176
O O7 0.589890 0.530192 0.600473
O O8 0.587816 0.409916 0.153260
O O9 0.411026 0.333475 0.161620
O O10 0.305873 0.509209 0.270496
O O11 0.055159 0.369925 0.514754
O O12 0.099021 0.250000 0.973868
O O13 0.691175 0.143731 0.313882
O O14 0.895021 0.109554 0.045473
O O15 0.171235 0.060642 0.954328
O O16 0.697501 0.750000 0.350741
#
# Coordination Sequence:
#
# PCOD9163347 Si02
#       8
#     4   4   4   4   4   4   2   4
#     4  10  20  39  61  86 121 164 198 257 300 375
#     4  10  20  36  62  86 121 164 199 245 316 358
#     4  10  20  39  61  91 119 162 197 261 301 369
#     4   9  20  38  58  86 121 155 206 254 293 373
#     4   9  20  38  59  88 123 154 208 257 294 366
#     4  10  20  36  61  88 121 163 199 242 321 358
#     4  10  24  38  60  94 126 148 214 258 304 366
#     4   9  20  38  62  80 120 159 203 245 307 360
#
# _framework density 23.077539999999999
#
# number of rings (size 3 to 8) (size 9 to 14) (size 15 to 20)
#    0.000    2.400    1.333    0.000    3.733    1.067 
#    0.000    0.000   13.200    0.000    0.000    0.000 
#    0.000    0.000    0.000    0.000    0.000    0.000 
#
# Total GULP energy -167100.279052 kJ/mol
# GULP energy per Si atom -5570.009302 kJ/mol
# Density = 2.302501 g / cm^3
# Si number density = 23.077540 Si / 1000 Ang^3
#
#
#
# Elastic Constant Matrix: (Units=GPa)
#
#
# Indices 1 2 3 4 5 6 
#
# 1 125.6846 33.6763 22.4885 0.0000 -31.7017 0.0000
# 2 33.6763 114.3163 5.6578 0.0000 -14.3034 0.0000
# 3 22.4885 5.6578 78.1580 0.0000 -14.4482 0.0000
# 4 0.0000 0.0000 0.0000 5.3530 0.0000 -7.8652
# 5 -31.7017 -14.3034 -14.4482 0.0000 29.5542 0.0000
# 6 0.0000 0.0000 0.0000 -7.8652 0.0000 -31.9058
#
#
#
# Elastic Compliance Matrix: (Units=1/GPa)
#
#
# Indices 1 2 3 4 5 6 
#
# 1 0.011387 -0.001958 -0.001156 0.000000 0.010702 0.000000
# 2 -0.001958 0.009650 0.000374 0.000000 0.002753 0.000000
# 3 -0.001156 0.000374 0.014186 0.000000 0.005876 0.000000
# 4 0.000000 0.000000 0.000000 0.137138 0.000000 -0.033806
# 5 0.010702 0.002753 0.005876 0.000000 0.049520 0.000000
# 6 0.000000 0.000000 0.000000 -0.033806 0.000000 -0.023009
#
#
# Mechanical properties :
#
#
# Convention : Reuss Voigt Hill
#
# Bulk Modulus (GPa) = 33.62226 49.08933 41.35580
# Shear Modulus (GPa) = 23.33501 17.68937 20.51219
#
# Velocity S-wave (km/s) = 3.18332 2.77161 2.98457
# Velocity P-wave (km/s) = 5.30210 5.61784 5.46225
#
# Compressibility (1/GPa) = 0.02974220
#
# Stress axis : x y z
#
# Youngs Moduli (GPa) = 87.81654 103.62176 70.48969
#
# Poissons Ratio (x) = 0.20293 0.08152
# Poissons Ratio (y) = 0.17198 -0.02634
# Poissons Ratio (z) = 0.10155 -0.03873
#
# Static dielectric constant tensor:
#      x y z
#    x 1.909510 0.000000 0.118740 
#    y 0.000000 1.857870 0.000000 
#    z 0.118740 0.000000 1.991860 
# 
# From -- ./inp_files/65692.got.cif
#   From: 2010.05.17/outbox.cif.g08.bks.cpg/sg11_33_cif.got.tgz:65692.got - 2010.06.03 12:22:45.
