data_PCOD9163000
_publ_section_title
;
Structure prediction by ZEFSAII (Michael W. Deem and Ramdas Pophale) SiO2 
 PCOD9163000
Probable space group: P 21/M
;
_chemical_formula_sum "Si O2"
_cell_formula_units_Z 28
_cell_length_a 9.347201
_cell_length_b 11.959181
_cell_length_c 14.700814
_cell_angle_alpha 90.000000
_cell_angle_beta 119.264152
_cell_angle_gamma 90.000000
_cell_volume 1433.599233
_symmetry_space_group_name_H-M "P 21/M"
_symmetry_group_IT_number 11
_symmetry_cell_setting 'monoclinic'
loop_
_space_group_symop_operation_xyz
x,y,z
-x,1/2+y,-z
-x,-y,-z
x,1/2-y,z
loop_
_atom_site_type_symbol
_atom_site_label
_atom_site_fract_x
_atom_site_fract_y
_atom_site_fract_z
Si Si1 0.159914 0.118118 0.350072
Si Si2 0.202469 0.530520 0.717354
Si Si3 0.527807 0.626912 0.853589
Si Si4 0.695554 0.625525 0.085232
Si Si5 0.011409 0.876062 0.052927
Si Si6 0.675686 0.879407 0.404052
Si Si7 0.318160 0.964029 0.243734
O O1 0.154970 0.250000 0.325122
O O2 0.267810 0.104617 0.474771
O O3 0.237780 0.044983 0.293872
O O4 0.977448 0.074782 0.317045
O O5 0.341303 0.625259 0.761885
O O6 0.269000 0.453056 0.819705
O O7 0.221760 0.460346 0.630732
O O8 0.599067 0.750000 0.860790
O O9 0.623410 0.537579 0.823823
O O10 0.551205 0.603159 0.967811
O O11 0.667554 0.750000 0.113089
O O12 0.857189 0.623909 0.072576
O O13 0.009999 0.750000 0.005913
O O14 0.178390 0.882688 0.162832
O O15 0.000000 0.000000 0.000000
O O16 0.705841 0.750000 0.388970
O O17 0.483193 0.906718 0.332178
#
# Coordination Sequence:
#
# PCOD9163000 Si02
#       7
#     4   4   4   4   4   4   4
#     4  11  23  39  60  88 118 152 202 256 310 365
#     4  11  21  38  60  84 118 156 199 243 305 361
#     4  10  21  36  57  85 120 157 196 245 301 361
#     4  10  20  36  57  84 119 156 198 242 293 356
#     4  11  22  38  61  92 126 161 202 249 300 363
#     4  10  23  41  60  84 115 154 202 257 307 362
#     4  11  21  39  62  85 118 157 200 248 304 360
#
# _framework density 19.531261000000001
#
# number of rings (size 3 to 8) (size 9 to 14) (size 15 to 20)
#    0.000    1.429    2.857    3.000    0.000    0.571 
#    0.000    0.000    0.000    6.857    0.000    0.000 
#    0.000    0.000    0.000    0.000    0.000    0.000 
#
# Total GULP energy -156172.881768 kJ/mol
# GULP energy per Si atom -5577.602920 kJ/mol
# Density = 1.948681 g / cm^3
# Si number density = 19.531261 Si / 1000 Ang^3
#
#
#
# Elastic Constant Matrix: (Units=GPa)
#
#
# Indices 1 2 3 4 5 6 
#
# 1 31.6936 13.9917 -1.7605 0.0000 5.8474 0.0000
# 2 13.9917 118.9216 38.9753 0.0000 -8.5024 0.0000
# 3 -1.7605 38.9753 68.4420 0.0000 10.1409 0.0000
# 4 0.0000 0.0000 0.0000 30.6468 0.0000 -0.2814
# 5 5.8474 -8.5024 10.1409 0.0000 29.3219 0.0000
# 6 0.0000 0.0000 0.0000 -0.2814 0.0000 -4.6046
#
#
#
# Elastic Compliance Matrix: (Units=1/GPa)
#
#
# Indices 1 2 3 4 5 6 
#
# 1 0.037551 -0.007615 0.007103 0.000000 -0.012153 0.000000
# 2 -0.007615 0.012730 -0.008661 0.000000 0.008205 0.000000
# 3 0.007103 -0.008661 0.021404 0.000000 -0.011330 0.000000
# 4 0.000000 0.000000 0.000000 0.032612 0.000000 -0.001993
# 5 -0.012153 0.008205 -0.011330 0.000000 0.042826 0.000000
# 6 0.000000 0.000000 0.000000 -0.001993 0.000000 -0.217053
#
#
# Mechanical properties :
#
#
# Convention : Reuss Voigt Hill
#
# Bulk Modulus (GPa) = 18.74785 35.71894 27.23339
# Shear Modulus (GPa) = -147.90315 22.26286 -62.82014
#
# Velocity S-wave (km/s) = -8.71153 3.37984 -5.67747
# Velocity P-wave (km/s) = 9.56911 5.79300 5.38559
#
# Compressibility (1/GPa) = 0.05333944
#
# Stress axis : x y z
#
# Youngs Moduli (GPa) = 26.63077 78.55474 46.71920
#
# Poissons Ratio (x) = 0.59818 -0.33184
# Poissons Ratio (y) = 0.20279 0.40463
# Poissons Ratio (z) = -0.18916 0.68035
#
# Static dielectric constant tensor:
#      x y z
#    x 1.662660 0.000000 0.016420 
#    y 0.000000 1.714750 0.000000 
#    z 0.016420 0.000000 1.682960 
# 
# From -- ./inp_files/21177.got.cif
#   From: 2010.05.17/outbox.cif.g08.bks.cpg/sg11_11_cif.got.tgz:21177.got - 2010.06.03 12:22:45.
