data_PCOD9163424
_publ_section_title
;
Structure prediction by ZEFSAII (Michael W. Deem and Ramdas Pophale) SiO2 
 PCOD9163424
Probable space group: P 21/M
;
_chemical_formula_sum "Si O2"
_cell_formula_units_Z 32
_cell_length_a 10.350195
_cell_length_b 15.738499
_cell_length_c 9.505112
_cell_angle_alpha 90.000000
_cell_angle_beta 88.855881
_cell_angle_gamma 90.000000
_cell_volume 1548.041107
_symmetry_space_group_name_H-M "P 21/M"
_symmetry_group_IT_number 11
_symmetry_cell_setting 'monoclinic'
loop_
_space_group_symop_operation_xyz
x,y,z
-x,1/2+y,-z
-x,-y,-z
x,1/2-y,z
loop_
_atom_site_type_symbol
_atom_site_label
_atom_site_fract_x
_atom_site_fract_y
_atom_site_fract_z
Si Si1 0.634376 0.651717 0.729870
Si Si2 0.918996 0.648904 0.850850
Si Si3 0.606713 0.414101 0.107108
Si Si4 0.799805 0.575327 0.118611
Si Si5 0.076990 0.975741 0.638558
Si Si6 0.721599 0.340229 0.369421
Si Si7 0.460397 0.153534 0.843637
Si Si8 0.474804 0.098051 0.528111
O O1 0.590553 0.750000 0.752747
O O2 0.773182 0.644606 0.795342
O O3 0.529047 0.587738 0.801212
O O4 0.643873 0.629644 0.564660
O O5 0.955190 0.750000 0.859142
O O6 0.004153 0.591509 0.743526
O O7 0.906566 0.600839 0.001046
O O8 0.701976 0.494913 0.093357
O O9 0.688848 0.350591 0.204406
O O10 0.554121 0.388639 0.956130
O O11 0.870991 0.552154 0.263374
O O12 0.691748 0.649031 0.115869
O O13 0.200065 0.922042 0.586743
O O14 0.000000 0.000000 0.500000
O O15 0.786478 0.250000 0.393688
O O16 0.590348 0.346671 0.460029
O O17 0.501979 0.250000 0.831077
O O18 0.465271 0.110950 0.692254
O O19 0.500000 0.000000 0.500000
#
# Coordination Sequence:
#
# PCOD9163424 Si02
#       8
#     4   4   4   4   4   4   4   4
#     4  10  20  37  59  89 125 168 206 247 309 382
#     4  11  24  43  68  90 122 168 214 260 316 377
#     4  10  20  36  63  94 126 160 197 245 311 375
#     4  11  24  41  64  95 127 166 206 262 310 375
#     4  11  26  45  66  91 120 167 222 272 316 362
#     4  10  21  42  63  86 123 166 209 250 308 381
#     4  12  22  35  59  98 133 157 196 251 314 375
#     4  11  23  35  57  90 129 164 197 250 315 381
#
# _framework density 20.671287
#
# number of rings (size 3 to 8) (size 9 to 14) (size 15 to 20)
#    0.000    1.250    1.250    6.750    5.250    0.000 
#    0.000    1.875    0.000    0.000    0.000    0.000 
#    0.000    0.000    0.000    0.000    0.000    0.000 
#
# Total GULP energy -178466.087200 kJ/mol
# GULP energy per Si atom -5577.065225 kJ/mol
# Density = 2.062424 g / cm^3
# Si number density = 20.671287 Si / 1000 Ang^3
#
#
#
# Elastic Constant Matrix: (Units=GPa)
#
#
# Indices 1 2 3 4 5 6 
#
# 1 42.6088 8.5559 17.5408 0.0000 13.1546 0.0000
# 2 8.5559 69.9721 15.3969 0.0000 4.7219 0.0000
# 3 17.5408 15.3969 120.3278 0.0000 20.9130 0.0000
# 4 0.0000 0.0000 0.0000 12.0789 0.0000 -3.9739
# 5 13.1546 4.7219 20.9130 0.0000 41.2612 0.0000
# 6 0.0000 0.0000 0.0000 -3.9739 0.0000 24.9914
#
#
#
# Elastic Compliance Matrix: (Units=1/GPa)
#
#
# Indices 1 2 3 4 5 6 
#
# 1 0.027138 -0.002303 -0.002416 0.000000 -0.007164 0.000000
# 2 -0.002303 0.014925 -0.001540 0.000000 -0.000193 0.000000
# 3 -0.002416 -0.001540 0.009535 0.000000 -0.003886 0.000000
# 4 0.000000 0.000000 0.000000 0.087359 0.000000 0.013891
# 5 -0.007164 -0.000193 -0.003886 0.000000 0.028512 0.000000
# 6 0.000000 0.000000 0.000000 0.013891 0.000000 0.042223
#
#
# Mechanical properties :
#
#
# Convention : Reuss Voigt Hill
#
# Bulk Modulus (GPa) = 25.58946 35.09953 30.34450
# Shear Modulus (GPa) = 21.25507 28.42731 24.84119
#
# Velocity S-wave (km/s) = 3.21010 3.71240 3.47035
# Velocity P-wave (km/s) = 5.11329 5.94917 5.54700
#
# Compressibility (1/GPa) = 0.03907859
#
# Stress axis : x y z
#
# Youngs Moduli (GPa) = 36.84850 67.00156 104.87205
#
# Poissons Ratio (x) = 0.15432 0.25340
# Poissons Ratio (y) = 0.08487 0.16155
# Poissons Ratio (z) = 0.08904 0.10322
#
# Static dielectric constant tensor:
#      x y z
#    x 1.757670 0.000000 -0.021950 
#    y 0.000000 1.793520 0.000000 
#    z -0.021950 0.000000 1.783700 
# 
# From -- ./inp_files/18072.got.cif
#   From: 2010.05.17/outbox.cif.g08.bks.cpg/sg11_10_cif.got.tgz:18072.got - 2010.06.03 12:22:45.
