data_PCOD9163900
_publ_section_title
;
Structure prediction by ZEFSAII (Michael W. Deem and Ramdas Pophale) SiO2 
 PCOD9163900
Probable space group: P 21/M
;
_chemical_formula_sum "Si O2"
_cell_formula_units_Z 30
_cell_length_a 16.043285
_cell_length_b 12.187657
_cell_length_c 13.655449
_cell_angle_alpha 90.000000
_cell_angle_beta 143.275507
_cell_angle_gamma 90.000000
_cell_volume 1596.604439
_symmetry_space_group_name_H-M "P 21/M"
_symmetry_group_IT_number 11
_symmetry_cell_setting 'monoclinic'
loop_
_space_group_symop_operation_xyz
x,y,z
-x,1/2+y,-z
-x,-y,-z
x,1/2-y,z
loop_
_atom_site_type_symbol
_atom_site_label
_atom_site_fract_x
_atom_site_fract_y
_atom_site_fract_z
Si Si1 0.467135 0.375877 0.277172
Si Si2 0.844173 0.876145 0.550812
Si Si3 0.257090 0.542438 0.380377
Si Si4 0.601260 0.036345 0.959872
Si Si5 0.856480 0.126917 0.080518
Si Si6 0.671562 0.875470 0.196196
Si Si7 0.940795 0.250000 0.846730
Si Si8 0.176752 0.432699 0.101930
O O1 0.499620 0.250000 0.284117
O O2 0.581617 0.423337 0.459120
O O3 0.466676 0.450884 0.180192
O O4 0.313213 0.383839 0.177582
O O5 0.803355 0.750000 0.538668
O O6 0.789240 0.893829 0.389303
O O7 0.010083 0.883391 0.723162
O O8 0.778203 0.965295 0.560582
O O9 0.166556 0.652759 0.292001
O O10 0.221119 0.473802 0.249953
O O11 0.478296 0.106975 0.892353
O O12 0.715729 0.105286 0.008549
O O13 0.675560 0.963525 0.113333
O O14 0.855925 0.250000 0.037516
O O15 0.866654 0.037844 0.004504
O O16 0.682657 0.750000 0.170682
O O17 0.053614 0.345719 0.986571
#
# Coordination Sequence:
#
# PCOD9163900 Si02
#       8
#     4   4   4   4   4   4   2   4
#     4  11  22  41  60  87 122 156 201 254 302 355
#     4  10  22  38  61  88 125 157 201 250 300 357
#     4  12  24  40  61  91 121 161 206 247 299 354
#     4  10  21  37  62  87 118 155 203 247 299 362
#     4  10  22  39  61  88 121 159 199 249 302 360
#     4  10  20  38  60  87 117 156 199 249 302 360
#     4  12  24  40  64  86 124 158 204 254 286 366
#     4  11  25  40  61  88 123 163 202 246 302 358
#
# _framework density 18.789877000000001
#
# number of rings (size 3 to 8) (size 9 to 14) (size 15 to 20)
#    0.000    1.333    4.000    1.600    1.867    0.533 
#    0.000    0.000    1.467    0.000    0.000    0.000 
#    0.000    0.000    0.000    0.000    0.000    0.000 
#
# Total GULP energy -167058.485331 kJ/mol
# GULP energy per Si atom -5568.616178 kJ/mol
# Density = 1.874711 g / cm^3
# Si number density = 18.789877 Si / 1000 Ang^3
#
#
#
# Elastic Constant Matrix: (Units=GPa)
#
#
# Indices 1 2 3 4 5 6 
#
# 1 13.4063 3.4012 -6.2078 0.0000 -5.9261 0.0000
# 2 3.4012 91.2323 25.6405 0.0000 -10.1658 0.0000
# 3 -6.2078 25.6405 99.2292 0.0000 -9.6964 0.0000
# 4 0.0000 0.0000 0.0000 27.4846 0.0000 -2.1824
# 5 -5.9261 -10.1658 -9.6964 0.0000 22.9904 0.0000
# 6 0.0000 0.0000 0.0000 -2.1824 0.0000 -4.7088
#
#
#
# Elastic Compliance Matrix: (Units=1/GPa)
#
#
# Indices 1 2 3 4 5 6 
#
# 1 0.090986 -0.003037 0.009009 0.000000 0.025910 0.000000
# 2 -0.003037 0.012305 -0.003040 0.000000 0.003376 0.000000
# 3 0.009009 -0.003040 0.012018 0.000000 0.006047 0.000000
# 4 0.000000 0.000000 0.000000 0.035093 0.000000 -0.016264
# 5 0.025910 0.003376 0.006047 0.000000 0.054218 0.000000
# 6 0.000000 0.000000 0.000000 -0.016264 0.000000 -0.204832
#
#
# Mechanical properties :
#
#
# Convention : Reuss Voigt Hill
#
# Bulk Modulus (GPa) = 8.25267 27.72619 17.98943
# Shear Modulus (GPa) = 145.71456 21.22216 83.46836
#
# Velocity S-wave (km/s) = 8.81577 3.36437 6.67221
# Velocity P-wave (km/s) = 10.39353 5.46625 8.30377
#
# Compressibility (1/GPa) = 0.12117294
#
# Stress axis : x y z
#
# Youngs Moduli (GPa) = 10.99067 81.26980 83.21170
#
# Poissons Ratio (x) = 0.24680 -0.74962
# Poissons Ratio (y) = 0.03338 0.25293
# Poissons Ratio (z) = -0.09901 0.24703
#
# Static dielectric constant tensor:
#      x y z
#    x 1.639890 0.000000 0.007730 
#    y 0.000000 1.633620 0.000000 
#    z 0.007730 0.000000 1.634470 
# 
# From -- ./inp_files/21224.got.cif
#   From: 2010.05.17/outbox.cif.g08.bks.cpg/sg11_11_cif.got.tgz:21224.got - 2010.06.03 12:22:45.
