data_PCOD9163713
_publ_section_title
;
Structure prediction by ZEFSAII (Michael W. Deem and Ramdas Pophale) SiO2 
 PCOD9163713
Probable space group: P 21/M
;
_chemical_formula_sum "Si O2"
_cell_formula_units_Z 24
_cell_length_a 15.444155
_cell_length_b 8.739067
_cell_length_c 10.427500
_cell_angle_alpha 90.000000
_cell_angle_beta 68.395288
_cell_angle_gamma 90.000000
_cell_volume 1308.500325
_symmetry_space_group_name_H-M "P 21/M"
_symmetry_group_IT_number 11
_symmetry_cell_setting 'monoclinic'
loop_
_space_group_symop_operation_xyz
x,y,z
-x,1/2+y,-z
-x,-y,-z
x,1/2-y,z
loop_
_atom_site_type_symbol
_atom_site_label
_atom_site_fract_x
_atom_site_fract_y
_atom_site_fract_z
Si Si1 0.714964 0.565308 0.162921
Si Si2 0.205291 0.433214 0.158307
Si Si3 0.313660 0.565839 0.337977
Si Si4 0.178290 0.932929 0.651696
Si Si5 0.009419 0.932460 0.351767
Si Si6 0.507897 0.934532 0.352753
O O1 0.720198 0.750000 0.172199
O O2 0.773900 0.491140 0.244941
O O3 0.606841 0.520415 0.238719
O O4 0.754672 0.523034 0.002401
O O5 0.195698 0.250000 0.168204
O O6 0.274165 0.487208 0.233152
O O7 0.105363 0.508222 0.239293
O O8 0.311732 0.750000 0.321808
O O9 0.246075 0.529740 0.494841
O O10 0.418039 0.518065 0.319370
O O11 0.167205 0.750000 0.661272
O O12 0.079227 0.010485 0.680075
O O13 0.010478 0.750000 0.359018
O O14 0.000000 0.000000 0.500000
O O15 0.505201 0.750000 0.362601
O O16 0.500000 0.000000 0.500000
#
# Coordination Sequence:
#
# PCOD9163713 Si02
#       6
#     4   4   4   4   4   4
#     4  10  23  41  61  89 126 162 201 249 301 355
#     4  11  24  41  61  89 124 162 201 248 303 358
#     4  10  21  37  60  90 122 157 201 250 298 354
#     4  11  22  38  63  93 122 157 201 249 300 357
#     4  12  24  40  64  91 119 157 201 250 301 358
#     4  10  20  37  61  89 121 157 201 249 295 353
#
# _framework density 18.341608000000001
#
# number of rings (size 3 to 8) (size 9 to 14) (size 15 to 20)
#    0.000    1.333    3.333    2.500    0.000    4.000 
#    0.000    0.000    0.000    0.000    0.000    0.000 
#    0.000    0.000    0.000    0.000    0.000    0.000 
#
# Total GULP energy -134171.622241 kJ/mol
# GULP energy per Si atom -5590.484260 kJ/mol
# Density = 1.829986 g / cm^3
# Si number density = 18.341608 Si / 1000 Ang^3
#
#
#
# Elastic Constant Matrix: (Units=GPa)
#
#
# Indices 1 2 3 4 5 6 
#
# 1 200.2784 63.8191 96.5676 0.0000 0.2000 0.0000
# 2 63.8191 57.3341 65.2916 0.0000 -0.0492 0.0000
# 3 96.5676 65.2916 165.0984 0.0000 -2.9569 0.0000
# 4 0.0000 0.0000 0.0000 25.3765 0.0000 8.7807
# 5 0.2000 -0.0492 -2.9569 0.0000 34.2292 0.0000
# 6 0.0000 0.0000 0.0000 8.7807 0.0000 31.7247
#
#
#
# Elastic Compliance Matrix: (Units=1/GPa)
#
#
# Indices 1 2 3 4 5 6 
#
# 1 0.008135 -0.006608 -0.002150 0.000000 -0.000243 0.000000
# 2 -0.006608 0.037137 -0.010837 0.000000 -0.000844 0.000000
# 3 -0.002150 -0.010837 0.011618 0.000000 0.001001 0.000000
# 4 0.000000 0.000000 0.000000 0.043580 0.000000 -0.012062
# 5 -0.000243 -0.000844 0.001001 0.000000 0.029301 0.000000
# 6 0.000000 0.000000 0.000000 -0.012062 0.000000 0.034860
#
#
# Mechanical properties :
#
#
# Convention : Reuss Voigt Hill
#
# Bulk Modulus (GPa) = 56.49131 97.11861 76.80496
# Shear Modulus (GPa) = 23.84130 31.40159 27.62144
#
# Velocity S-wave (km/s) = 3.60925 4.14217 3.88486
# Velocity P-wave (km/s) = 6.94517 8.71445 7.87962
#
# Compressibility (1/GPa) = 0.01770184
#
# Stress axis : x y z
#
# Youngs Moduli (GPa) = 122.92053 26.92744 86.07454
#
# Poissons Ratio (x) = 0.17793 0.18503
# Poissons Ratio (y) = 0.81223 0.93276
# Poissons Ratio (z) = 0.26423 0.29180
#
# Static dielectric constant tensor:
#      x y z
#    x 1.615610 0.000000 -0.010970 
#    y 0.000000 1.618850 0.000000 
#    z -0.010970 0.000000 1.592840 
# 
# From -- ./inp_files/20367.got.cif
#   From: 2010.05.17/outbox.cif.g08.bks.cpg/sg11_11_cif.got.tgz:20367.got - 2010.06.03 12:22:45.
