data_PCOD9163024
_publ_section_title
;
Structure prediction by ZEFSAII (Michael W. Deem and Ramdas Pophale) SiO2 
 PCOD9163024
Probable space group: P 21/M
;
_chemical_formula_sum "Si O2"
_cell_formula_units_Z 26
_cell_length_a 13.550636
_cell_length_b 13.575587
_cell_length_c 7.434756
_cell_angle_alpha 90.000000
_cell_angle_beta 67.563208
_cell_angle_gamma 90.000000
_cell_volume 1264.149701
_symmetry_space_group_name_H-M "P 21/M"
_symmetry_group_IT_number 11
_symmetry_cell_setting 'monoclinic'
loop_
_space_group_symop_operation_xyz
x,y,z
-x,1/2+y,-z
-x,-y,-z
x,1/2-y,z
loop_
_atom_site_type_symbol
_atom_site_label
_atom_site_fract_x
_atom_site_fract_y
_atom_site_fract_z
Si Si1 0.696644 0.448894 0.816735
Si Si2 0.758930 0.440817 0.155308
Si Si3 0.607956 0.505969 0.534669
Si Si4 0.206691 0.137969 0.700919
Si Si5 0.006422 0.250000 0.246077
Si Si6 0.899383 0.250000 0.968396
Si Si7 0.817511 0.250000 0.643021
Si Si8 0.903531 0.577471 0.582354
O O1 0.603719 0.482029 0.747585
O O2 0.743308 0.343859 0.724705
O O3 0.796276 0.521714 0.714049
O O4 0.679293 0.448359 0.041417
O O5 0.690549 0.428638 0.383838
O O6 0.815663 0.547105 0.146688
O O7 0.835861 0.350170 0.062317
O O8 0.500000 0.500000 0.500000
O O9 0.674518 0.606675 0.453943
O O10 0.210919 0.250000 0.762302
O O11 0.125232 0.125328 0.590809
O O12 0.997656 0.250000 0.037274
O O13 0.886180 0.250000 0.414002
O O14 0.063377 0.156242 0.292331
O O15 0.903485 0.250000 0.749167
O O16 0.000000 0.500000 0.500000
#
# Coordination Sequence:
#
# PCOD9163024 Si02
#       8
#     4   4   4   4   2   2   2   4
#     4  10  20  38  57  82 112 148 184 227 284 331
#     4   9  20  37  59  79 114 145 184 234 280 332
#     4   9  20  38  59  84 108 144 187 230 280 337
#     4   9  19  39  54  79 119 149 181 233 285 336
#     4  12  20  34  54  78 107 150 189 230 272 316
#     4  10  20  38  54  85 108 144 194 233 276 329
#     4  10  20  36  58  79 111 146 183 239 280 317
#     4  11  20  34  55  80 109 148 193 224 269 335
#
# _framework density 20.567184000000001
#
# number of rings (size 3 to 8) (size 9 to 14) (size 15 to 20)
#    0.923    1.231    2.308    1.846    0.000    0.615 
#    6.923    2.308    0.000    0.000    0.000    0.000 
#    0.000    0.000    0.000    0.000    0.000    0.000 
#
# Total GULP energy -144951.863214 kJ/mol
# GULP energy per Si atom -5575.071662 kJ/mol
# Density = 2.052037 g / cm^3
# Si number density = 20.567184 Si / 1000 Ang^3
#
#
#
# Elastic Constant Matrix: (Units=GPa)
#
#
# Indices 1 2 3 4 5 6 
#
# 1 96.6638 32.9663 17.0605 0.0000 37.2822 0.0000
# 2 32.9663 122.7481 16.1298 0.0000 15.8087 0.0000
# 3 17.0605 16.1298 83.1977 0.0000 32.8237 0.0000
# 4 0.0000 0.0000 0.0000 -185.7683 0.0000 -14.6126
# 5 37.2822 15.8087 32.8237 0.0000 38.8030 0.0000
# 6 0.0000 0.0000 0.0000 -14.6126 0.0000 8.7447
#
#
#
# Elastic Compliance Matrix: (Units=1/GPa)
#
#
# Indices 1 2 3 4 5 6 
#
# 1 0.018479 -0.002942 0.004972 0.000000 -0.020762 0.000000
# 2 -0.002942 0.009077 -0.001220 0.000000 0.000161 0.000000
# 3 0.004972 -0.001220 0.019399 0.000000 -0.020690 0.000000
# 4 0.000000 0.000000 0.000000 -0.004758 0.000000 -0.007950
# 5 -0.020762 0.000161 -0.020690 0.000000 0.063156 0.000000
# 6 0.000000 0.000000 0.000000 -0.007950 0.000000 0.101070
#
#
# Mechanical properties :
#
#
# Convention : Reuss Voigt Hill
#
# Bulk Modulus (GPa) = 20.58685 48.32476 34.45581
# Shear Modulus (GPa) = 22.62508 -11.88059 5.37225
#
# Velocity S-wave (km/s) = 3.32031 -2.40604 1.61794
# Velocity P-wave (km/s) = 4.97298 3.97849 4.50327
#
# Compressibility (1/GPa) = 0.04857470
#
# Stress axis : x y z
#
# Youngs Moduli (GPa) = 54.11682 110.17428 51.54804
#
# Poissons Ratio (x) = 0.32416 -0.25631
# Poissons Ratio (y) = 0.15923 0.06288
# Poissons Ratio (z) = -0.26908 0.13440
#
# Static dielectric constant tensor:
#      x y z
#    x 1.732620 0.000000 0.009450 
#    y 0.000000 1.706020 0.000000 
#    z 0.009450 0.000000 1.762430 
# 
# From -- ./inp_files/17472.got.cif
#   From: 2010.05.17/outbox.cif.g08.bks.cpg/sg11_9_cif.got.tgz:17472.got - 2010.06.03 12:22:45.
