data_PCOD9163981
_publ_section_title
;
Structure prediction by ZEFSAII (Michael W. Deem and Ramdas Pophale) SiO2 
 PCOD9163981
Probable space group: P 21/M
;
_chemical_formula_sum "Si O2"
_cell_formula_units_Z 24
_cell_length_a 10.385046
_cell_length_b 8.843172
_cell_length_c 14.374505
_cell_angle_alpha 90.000000
_cell_angle_beta 89.760477
_cell_angle_gamma 90.000000
_cell_volume 1320.096258
_symmetry_space_group_name_H-M "P 21/M"
_symmetry_group_IT_number 11
_symmetry_cell_setting 'monoclinic'
loop_
_space_group_symop_operation_xyz
x,y,z
-x,1/2+y,-z
-x,-y,-z
x,1/2-y,z
loop_
_atom_site_type_symbol
_atom_site_label
_atom_site_fract_x
_atom_site_fract_y
_atom_site_fract_z
Si Si1 0.371566 0.431970 0.455561
Si Si2 0.877629 0.428931 0.449137
Si Si3 0.882867 0.569852 0.057562
Si Si4 0.278047 0.066170 0.251814
Si Si5 0.977578 0.429010 0.242025
Si Si6 0.624604 0.567270 0.950206
O O1 0.500000 0.500000 0.500000
O O2 0.378089 0.250000 0.457006
O O3 0.249704 0.488605 0.515099
O O4 0.345023 0.480563 0.348245
O O5 0.868703 0.250000 0.469135
O O6 0.906297 0.447203 0.340016
O O7 0.000000 0.500000 0.500000
O O8 0.890105 0.750000 0.052536
O O9 0.901819 0.514763 0.162154
O O10 0.749649 0.523092 0.009979
O O11 0.000000 0.500000 0.000000
O O12 0.276737 0.250000 0.252289
O O13 0.349869 0.018473 0.156900
O O14 0.127227 0.019683 0.249177
O O15 0.981401 0.250000 0.219095
O O16 0.615521 0.750000 0.949978
O O17 0.500000 0.500000 0.000000
#
# Coordination Sequence:
#
# PCOD9163981 Si02
#       6
#     4   4   4   4   4   4
#     4  11  23  41  63  89 123 162 204 252 306 366
#     4  11  22  38  62  91 121 158 202 252 306 362
#     4  11  22  37  60  90 120 153 197 251 299 351
#     4   9  18  38  62  82 114 160 198 239 299 359
#     4  10  20  38  62  88 120 159 201 244 298 361
#     4  10  22  40  60  84 118 154 196 242 293 353
#
# _framework density 18.180493999999999
#
# number of rings (size 3 to 8) (size 9 to 14) (size 15 to 20)
#    0.000    1.667    3.333    1.500    0.000    4.000 
#    0.000    6.667    0.000    0.000    0.000    0.000 
#    0.000    0.000    0.000    0.000    0.000    0.000 
#
# Total GULP energy -134024.657359 kJ/mol
# GULP energy per Si atom -5584.360723 kJ/mol
# Density = 1.813911 g / cm^3
# Si number density = 18.180494 Si / 1000 Ang^3
#
#
#
# Elastic Constant Matrix: (Units=GPa)
#
#
# Indices 1 2 3 4 5 6 
#
# 1 177.4266 52.4148 91.0181 0.0000 -1.7043 0.0000
# 2 52.4148 47.2773 54.9966 0.0000 3.2642 0.0000
# 3 91.0181 54.9966 129.5754 0.0000 6.2610 0.0000
# 4 0.0000 0.0000 0.0000 33.9942 0.0000 -0.9128
# 5 -1.7043 3.2642 6.2610 0.0000 30.3190 0.0000
# 6 0.0000 0.0000 0.0000 -0.9128 0.0000 35.7563
#
#
#
# Elastic Compliance Matrix: (Units=1/GPa)
#
#
# Indices 1 2 3 4 5 6 
#
# 1 0.009600 -0.005581 -0.004474 0.000000 0.002064 0.000000
# 2 -0.005581 0.045046 -0.015100 0.000000 -0.002045 0.000000
# 3 -0.004474 -0.015100 0.017377 0.000000 -0.002214 0.000000
# 4 0.000000 0.000000 0.000000 0.029437 0.000000 0.000751
# 5 0.002064 -0.002045 -0.002214 0.000000 0.033776 0.000000
# 6 0.000000 0.000000 0.000000 0.000751 0.000000 0.027986
#
#
# Mechanical properties :
#
#
# Convention : Reuss Voigt Hill
#
# Bulk Modulus (GPa) = 46.05808 83.45983 64.75896
# Shear Modulus (GPa) = 22.64800 30.40387 26.52594
#
# Velocity S-wave (km/s) = 3.53332 4.09386 3.82387
# Velocity P-wave (km/s) = 6.48341 8.26753 7.42922
#
# Compressibility (1/GPa) = 0.02171172
#
# Stress axis : x y z
#
# Youngs Moduli (GPa) = 104.16751 22.19952 57.54859
#
# Poissons Ratio (x) = 0.12389 0.25750
# Poissons Ratio (y) = 0.58133 0.86900
# Poissons Ratio (z) = 0.46609 0.33522
#
# Static dielectric constant tensor:
#      x y z
#    x 1.741380 0.000000 0.142180 
#    y 0.000000 1.618950 0.000000 
#    z 0.142180 0.000000 1.686770 
# 
# From -- ./inp_files/20317.got.cif
#   From: 2010.05.17/outbox.cif.g08.bks.cpg/sg11_11_cif.got.tgz:20317.got - 2010.06.03 12:22:45.
