data_PCOD9163950
_publ_section_title
;
Structure prediction by ZEFSAII (Michael W. Deem and Ramdas Pophale) SiO2 
 PCOD9163950
Probable space group: P 21/M
;
_chemical_formula_sum "Si O2"
_cell_formula_units_Z 28
_cell_length_a 5.222563
_cell_length_b 12.980324
_cell_length_c 17.244192
_cell_angle_alpha 90.000000
_cell_angle_beta 82.405446
_cell_angle_gamma 90.000000
_cell_volume 1158.739144
_symmetry_space_group_name_H-M "P 21/M"
_symmetry_group_IT_number 11
_symmetry_cell_setting 'monoclinic'
loop_
_space_group_symop_operation_xyz
x,y,z
-x,1/2+y,-z
-x,-y,-z
x,1/2-y,z
loop_
_atom_site_type_symbol
_atom_site_label
_atom_site_fract_x
_atom_site_fract_y
_atom_site_fract_z
Si Si1 0.898586 0.250000 0.791124
Si Si2 0.324996 0.859012 0.704888
Si Si3 0.765433 0.970017 0.064695
Si Si4 0.999822 0.523747 0.227735
Si Si5 0.747726 0.588220 0.573681
Si Si6 0.354581 0.250000 0.899740
Si Si7 0.284009 0.635617 0.474604
Si Si8 0.574867 0.866983 0.855243
O O1 0.915038 0.138033 0.749482
O O2 0.630530 0.250000 0.847691
O O3 0.132302 0.250000 0.843322
O O4 0.204910 0.750000 0.684571
O O5 0.603484 0.867802 0.653972
O O6 0.365807 0.853231 0.795200
O O7 0.166866 0.963892 0.701020
O O8 0.674011 0.854595 0.051497
O O9 0.851180 0.961324 0.151841
O O10 0.556342 0.061320 0.074582
O O11 0.000000 0.000000 0.000000
O O12 0.216331 0.441968 0.192900
O O13 0.548001 0.620325 0.512795
O O14 0.743653 0.464053 0.578253
O O15 0.032917 0.625948 0.540798
O O16 0.284500 0.750000 0.439575
O O17 0.660752 0.750000 0.872225
#
# Coordination Sequence:
#
# PCOD9163950 Si02
#       8
#     2   4   4   4   4   2   4   4
#     4  10  20  40  64  78 114 154 194 236 288 351
#     4  10  21  37  59  86 119 155 200 245 296 358
#     4  10  22  38  57  83 117 151 196 246 302 359
#     4  10  21  39  58  83 114 155 195 248 296 356
#     4  10  22  37  61  92 119 162 204 240 296 356
#     4  10  20  40  60  86 110 150 194 236 286 363
#     4  10  20  38  61  88 126 158 198 249 294 344
#     4  10  21  37  57  84 117 150 195 249 302 351
#
# _framework density 24.164194999999999
#
# number of rings (size 3 to 8) (size 9 to 14) (size 15 to 20)
#    0.000    2.000    1.429    1.714    3.000    1.143 
#    1.286    0.000    0.000    0.000    0.000    0.000 
#    0.000    0.000    0.000    0.000    0.000    0.000 
#
# Total GULP energy -156374.619463 kJ/mol
# GULP energy per Si atom -5584.807838 kJ/mol
# Density = 2.410920 g / cm^3
# Si number density = 24.164195 Si / 1000 Ang^3
#
#
#
# Elastic Constant Matrix: (Units=GPa)
#
#
# Indices 1 2 3 4 5 6 
#
# 1 82.9282 34.5364 6.5323 0.0000 -14.7791 0.0000
# 2 34.5364 288.0051 36.7618 0.0000 -21.5537 0.0000
# 3 6.5323 36.7618 47.4664 0.0000 -13.9652 0.0000
# 4 0.0000 0.0000 0.0000 21.7219 0.0000 -1.2072
# 5 -14.7791 -21.5537 -13.9652 0.0000 44.2688 0.0000
# 6 0.0000 0.0000 0.0000 -1.2072 0.0000 21.6516
#
#
#
# Elastic Compliance Matrix: (Units=1/GPa)
#
#
# Indices 1 2 3 4 5 6 
#
# 1 0.013285 -0.001348 0.000361 0.000000 0.003893 0.000000
# 2 -0.001348 0.004033 -0.002748 0.000000 0.000647 0.000000
# 3 0.000361 -0.002748 0.025119 0.000000 0.006707 0.000000
# 4 0.000000 0.000000 0.000000 0.046180 0.000000 0.002575
# 5 0.003893 0.000647 0.006707 0.000000 0.026320 0.000000
# 6 0.000000 0.000000 0.000000 0.002575 0.000000 0.046330
#
#
# Mechanical properties :
#
#
# Convention : Reuss Voigt Hill
#
# Bulk Modulus (GPa) = 28.59744 63.78452 46.19098
# Shear Modulus (GPa) = 27.71753 40.23306 33.97529
#
# Velocity S-wave (km/s) = 3.39049 4.08485 3.75376
# Velocity P-wave (km/s) = 5.21417 6.97865 6.15992
#
# Compressibility (1/GPa) = 0.03496817
#
# Stress axis : x y z
#
# Youngs Moduli (GPa) = 75.27120 247.95995 39.81033
#
# Poissons Ratio (x) = 0.33421 -0.01437
# Poissons Ratio (y) = 0.10145 0.10938
# Poissons Ratio (z) = -0.02717 0.68130
#
# Static dielectric constant tensor:
#      x y z
#    x 1.993140 0.000000 0.059840 
#    y 0.000000 1.994080 0.000000 
#    z 0.059840 0.000000 1.898790 
# 
# From -- ./inp_files/8642.got.cif
#   From: 2010.05.17/outbox.cif.g08.bks.cpg/sg11_5_cif.got.tgz:8642.got - 2010.06.03 12:22:45.
