data_PCOD9163851
_publ_section_title
;
Structure prediction by ZEFSAII (Michael W. Deem and Ramdas Pophale) SiO2 
 PCOD9163851
Probable space group: P 21/M
;
_chemical_formula_sum "Si O2"
_cell_formula_units_Z 24
_cell_length_a 9.906146
_cell_length_b 10.226514
_cell_length_c 19.986013
_cell_angle_alpha 90.000000
_cell_angle_beta 41.971214
_cell_angle_gamma 90.000000
_cell_volume 1354.025835
_symmetry_space_group_name_H-M "P 21/M"
_symmetry_group_IT_number 11
_symmetry_cell_setting 'monoclinic'
loop_
_space_group_symop_operation_xyz
x,y,z
-x,1/2+y,-z
-x,-y,-z
x,1/2-y,z
loop_
_atom_site_type_symbol
_atom_site_label
_atom_site_fract_x
_atom_site_fract_y
_atom_site_fract_z
Si Si1 0.722097 0.250000 0.383377
Si Si2 0.249515 0.250000 0.572579
Si Si3 0.872230 0.250000 0.616623
Si Si4 0.032748 0.750000 0.572579
Si Si5 0.934799 0.517364 0.273328
Si Si6 0.056679 0.400844 0.881926
Si Si7 0.245218 0.017364 0.273328
Si Si8 0.702458 0.099156 0.118074
O O1 0.481963 0.250000 0.467004
O O2 0.818408 0.379791 0.316219
O O3 0.793619 0.250000 0.434837
O O4 0.194680 0.123178 0.637126
O O5 0.098129 0.250000 0.565163
O O6 0.767064 0.379791 0.683781
O O7 0.882976 0.250000 0.532996
O O8 0.893940 0.623178 0.637126
O O9 0.970592 0.567694 0.185728
O O10 0.140729 0.500000 0.239514
O O11 0.121962 0.250000 0.865816
O O12 0.215580 0.500000 0.856280
O O13 0.849227 0.416899 0.000000
O O14 0.472224 0.067694 0.185728
O O15 0.719412 0.250000 0.134184
#
# Coordination Sequence:
#
# PCOD9163851 Si02
#       8
#     2   2   2   2   4   4   4   4
#     4  10  22  34  57  84 115 149 190 233 283 336
#     4  10  20  38  55  82 115 151 190 237 281 336
#     4  10  22  34  57  84 115 149 190 233 283 336
#     4  10  20  38  55  82 115 151 190 237 281 336
#     4  10  21  38  59  84 116 152 191 236 283 337
#     4  10  22  40  61  86 116 149 189 238 288 342
#     4  10  21  38  59  84 116 152 191 236 283 337
#     4  10  22  40  61  86 116 149 189 238 288 342
#
# _framework density 17.724920999999998
#
# number of rings (size 3 to 8) (size 9 to 14) (size 15 to 20)
#    0.000    2.000    1.667    1.000    2.333    3.333 
#    0.000    0.000    0.000    0.000    0.000    0.000 
#    0.000    0.000    0.000    0.000    0.000    0.000 
#
# Total GULP energy -134014.256441 kJ/mol
# GULP energy per Si atom -5583.927352 kJ/mol
# Density = 1.768458 g / cm^3
# Si number density = 17.724921 Si / 1000 Ang^3
#
#
#
# Elastic Constant Matrix: (Units=GPa)
#
#
# Indices 1 2 3 4 5 6 
#
# 1 62.1947 33.0900 45.6259 0.0000 -0.0026 0.0000
# 2 33.0900 126.8779 27.0405 0.0000 0.0004 0.0000
# 3 45.6259 27.0405 43.7684 0.0000 0.0037 0.0000
# 4 0.0000 0.0000 0.0000 13.5622 0.0000 -0.0010
# 5 -0.0026 0.0004 0.0037 0.0000 34.0074 0.0000
# 6 0.0000 0.0000 0.0000 -0.0010 0.0000 -3.2399
#
#
#
# Elastic Compliance Matrix: (Units=1/GPa)
#
#
# Indices 1 2 3 4 5 6 
#
# 1 0.069375 -0.003087 -0.070412 0.000000 0.000013 0.000000
# 2 -0.003087 0.009214 -0.002475 0.000000 0.000000 0.000000
# 3 -0.070412 -0.002475 0.097777 0.000000 -0.000016 0.000000
# 4 0.000000 0.000000 0.000000 0.073734 0.000000 -0.000022
# 5 0.000013 0.000000 -0.000016 0.000000 0.029405 0.000000
# 6 0.000000 0.000000 0.000000 -0.000022 0.000000 -0.308654
#
#
# Mechanical properties :
#
#
# Convention : Reuss Voigt Hill
#
# Bulk Modulus (GPa) = 40.95253 49.37264 45.16258
# Shear Modulus (GPa) = 38.18553 17.33825 27.76189
#
# Velocity S-wave (km/s) = 4.64652 3.13099 3.96190
# Velocity P-wave (km/s) = 7.20705 6.40204 6.81644
#
# Compressibility (1/GPa) = 0.02441852
#
# Stress axis : x y z
#
# Youngs Moduli (GPa) = 14.41435 108.52984 10.22734
#
# Poissons Ratio (x) = 0.33501 0.72013
# Poissons Ratio (y) = 0.04449 0.02531
# Poissons Ratio (z) = 1.01495 0.26858
#
# Static dielectric constant tensor:
#      x y z
#    x 1.580820 0.000000 0.000000 
#    y 0.000000 1.609220 0.000000 
#    z 0.000000 0.000000 1.560520 
# 
# From -- ./inp_files/27583.got.cif
#   From: 2010.05.17/outbox.cif.g08.bks.cpg/sg11_14_cif.got.tgz:27583.got - 2010.06.03 12:22:45.
