data_PCOD9163600
_publ_section_title
;
Structure prediction by ZEFSAII (Michael W. Deem and Ramdas Pophale) SiO2 
 PCOD9163600
Probable space group: P 21/M
;
_chemical_formula_sum "Si O2"
_cell_formula_units_Z 32
_cell_length_a 13.970753
_cell_length_b 7.759718
_cell_length_c 24.827016
_cell_angle_alpha 90.000000
_cell_angle_beta 149.633601
_cell_angle_gamma 90.000000
_cell_volume 1360.615362
_symmetry_space_group_name_H-M "P 21/M"
_symmetry_group_IT_number 11
_symmetry_cell_setting 'monoclinic'
loop_
_space_group_symop_operation_xyz
x,y,z
-x,1/2+y,-z
-x,-y,-z
x,1/2-y,z
loop_
_atom_site_type_symbol
_atom_site_label
_atom_site_fract_x
_atom_site_fract_y
_atom_site_fract_z
Si Si1 0.601698 0.443702 0.103220
Si Si2 0.537593 0.545487 0.301785
Si Si3 0.073895 0.043234 0.475661
Si Si4 0.119043 0.544753 0.110513
Si Si5 0.574783 0.456498 0.476210
Si Si6 0.322098 0.960915 0.748770
Si Si7 0.973082 0.048512 0.703197
Si Si8 0.174933 0.454566 0.252163
O O1 0.537115 0.250000 0.079302
O O2 0.569812 0.528392 0.146106
O O3 0.828182 0.453076 0.205664
O O4 0.500000 0.500000 0.000000
O O5 0.528717 0.750000 0.308080
O O6 0.712261 0.472500 0.422062
O O7 0.330425 0.468562 0.207243
O O8 0.595316 0.522563 0.267412
O O9 0.084566 0.250000 0.475800
O O10 0.898605 0.981839 0.354825
O O11 0.000000 0.000000 0.500000
O O12 0.128488 0.750000 0.116394
O O13 0.059556 0.488347 0.141556
O O14 0.000000 0.500000 0.000000
O O15 0.500000 0.500000 0.500000
O O16 0.589718 0.250000 0.478222
O O17 0.791661 0.522884 0.581229
O O18 0.395348 0.518218 0.353712
O O19 0.322422 0.750000 0.747681
O O20 0.001317 0.250000 0.704416
O O21 0.911846 0.035995 0.736349
O O22 0.182771 0.250000 0.265275
#
# Coordination Sequence:
#
# PCOD9163600 Si02
#       8
#     4   4   4   4   4   4   4   4
#     4  11  24  40  56  79 110 148 193 238 280 329
#     4   9  19  35  57  82 109 140 175 217 270 325
#     4   8  14  29  52  80 109 135 167 211 263 325
#     4  11  24  40  56  79 110 148 193 238 280 329
#     4   8  16  31  54  84 115 143 177 221 275 337
#     4   9  19  35  57  82 109 140 175 217 270 325
#     4  10  20  37  60  86 115 148 184 228 281 338
#     4  10  20  37  60  86 115 148 184 228 281 338
#
# _framework density 23.518768999999999
#
# number of rings (size 3 to 8) (size 9 to 14) (size 15 to 20)
#    0.000    2.500    0.000    1.500    0.000    5.000 
#    0.000    3.750    0.000    4.500    0.000    0.000 
#    0.000    0.000    0.000    0.000    0.000    0.000 
#
# Total GULP energy -178608.294353 kJ/mol
# GULP energy per Si atom -5581.509199 kJ/mol
# Density = 2.346524 g / cm^3
# Si number density = 23.518769 Si / 1000 Ang^3
#
#
#
# Elastic Constant Matrix: (Units=GPa)
#
#
# Indices 1 2 3 4 5 6 
#
# 1 50.2400 -10.3378 20.7640 0.0000 -14.6676 0.0000
# 2 -10.3378 62.3983 -0.4947 0.0000 -6.9203 0.0000
# 3 20.7640 -0.4947 129.2849 0.0000 -42.2549 0.0000
# 4 0.0000 0.0000 0.0000 20.1340 0.0000 -0.5253
# 5 -14.6676 -6.9203 -42.2549 0.0000 35.9338 0.0000
# 6 0.0000 0.0000 0.0000 -0.5253 0.0000 22.7912
#
#
#
# Elastic Compliance Matrix: (Units=1/GPa)
#
#
# Indices 1 2 3 4 5 6 
#
# 1 0.024166 0.005137 -0.000510 0.000000 0.010253 0.000000
# 2 0.005137 0.017723 0.001695 0.000000 0.007503 0.000000
# 3 -0.000510 0.001695 0.012770 0.000000 0.015134 0.000000
# 4 0.000000 0.000000 0.000000 0.049697 0.000000 0.001145
# 5 0.010253 0.007503 0.015134 0.000000 0.051256 0.000000
# 6 0.000000 0.000000 0.000000 0.001145 0.000000 0.043903
#
#
# Mechanical properties :
#
#
# Convention : Reuss Voigt Hill
#
# Bulk Modulus (GPa) = 14.85860 29.08734 21.97297
# Shear Modulus (GPa) = 23.88860 31.23789 27.56325
#
# Velocity S-wave (km/s) = 3.19050 3.64842 3.42712
# Velocity P-wave (km/s) = 4.46138 5.49022 5.00232
#
# Compressibility (1/GPa) = 0.06730111
#
# Stress axis : x y z
#
# Youngs Moduli (GPa) = 41.38076 56.42482 78.31032
#
# Poissons Ratio (x) = -0.28984 0.03997
# Poissons Ratio (y) = -0.21256 -0.13275
# Poissons Ratio (z) = 0.02112 -0.09565
#
# Static dielectric constant tensor:
#      x y z
#    x 1.913830 0.000000 -0.015690 
#    y 0.000000 1.865520 0.000000 
#    z -0.015690 0.000000 1.961390 
# 
# From -- ./inp_files/69145.got.cif
#   From: 2010.05.17/outbox.cif.g08.bks.cpg/sg11_35_cif.got.tgz:69145.got - 2010.06.03 12:22:45.
