data_PCOD9163855
_publ_section_title
;
Structure prediction by ZEFSAII (Michael W. Deem and Ramdas Pophale) SiO2 
 PCOD9163855
Probable space group: P 21/M
;
_chemical_formula_sum "Si O2"
_cell_formula_units_Z 24
_cell_length_a 17.369196
_cell_length_b 14.546041
_cell_length_c 8.298866
_cell_angle_alpha 90.000000
_cell_angle_beta 143.996233
_cell_angle_gamma 90.000000
_cell_volume 1232.540670
_symmetry_space_group_name_H-M "P 21/M"
_symmetry_group_IT_number 11
_symmetry_cell_setting 'monoclinic'
loop_
_space_group_symop_operation_xyz
x,y,z
-x,1/2+y,-z
-x,-y,-z
x,1/2-y,z
loop_
_atom_site_type_symbol
_atom_site_label
_atom_site_fract_x
_atom_site_fract_y
_atom_site_fract_z
Si Si1 0.090579 0.559994 0.926111
Si Si2 0.234950 0.750000 0.727969
Si Si3 0.374957 0.750000 0.489532
Si Si4 0.618265 0.454037 0.606576
Si Si5 0.103539 0.750000 0.855296
Si Si6 0.626067 0.947828 0.280027
Si Si7 0.508521 0.750000 0.064079
Si Si8 0.864518 0.065138 0.611327
O O1 0.029519 0.654499 0.756093
O O2 0.996471 0.472866 0.753979
O O3 0.231408 0.549256 0.076182
O O4 0.111873 0.574414 0.155637
O O5 0.173536 0.750000 0.801159
O O6 0.393481 0.750000 0.003106
O O7 0.187257 0.659122 0.552600
O O8 0.419436 0.848006 0.493839
O O9 0.422964 0.750000 0.754571
O O10 0.219652 0.750000 0.187616
O O11 0.500000 0.500000 0.500000
O O12 0.635906 0.515619 0.477757
O O13 0.753633 0.986556 0.406797
O O14 0.596688 0.840503 0.220981
O O15 0.500000 0.000000 0.000000
#
# Coordination Sequence:
#
# PCOD9163855 Si02
#       8
#     4   2   2   4   2   4   2   4
#     4   9  20  40  62  83 115 158 198 239 288 358
#     4  12  22  34  60  89 118 155 194 246 293 365
#     4  10  20  38  57  80 115 163 199 235 298 365
#     4  10  21  36  60  88 120 154 196 246 301 358
#     4  10  22  35  58  87 116 153 196 237 303 358
#     4  11  21  35  59  90 114 149 198 249 290 340
#     4  12  22  37  59  88 121 151 207 248 294 352
#     4  10  21  40  63  85 115 157 203 242 291 347
#
# _framework density 19.471972999999998
#
# number of rings (size 3 to 8) (size 9 to 14) (size 15 to 20)
#    0.000    1.667    3.333    2.500    4.667    1.333 
#    0.000    5.833    3.667    0.000    0.000    0.000 
#    0.000    0.000    0.000    0.000    0.000    0.000 
#
# Total GULP energy -133844.315673 kJ/mol
# GULP energy per Si atom -5576.846486 kJ/mol
# Density = 1.942765 g / cm^3
# Si number density = 19.471973 Si / 1000 Ang^3
#
#
#
# Elastic Constant Matrix: (Units=GPa)
#
#
# Indices 1 2 3 4 5 6 
#
# 1 66.9198 44.4835 16.1987 0.0000 26.6151 0.0000
# 2 44.4835 191.2044 37.6890 0.0000 18.0060 0.0000
# 3 16.1987 37.6890 40.0295 0.0000 10.6930 0.0000
# 4 0.0000 0.0000 0.0000 28.8100 0.0000 9.2246
# 5 26.6151 18.0060 10.6930 0.0000 21.1077 0.0000
# 6 0.0000 0.0000 0.0000 9.2246 0.0000 28.3102
#
#
#
# Elastic Compliance Matrix: (Units=1/GPa)
#
#
# Indices 1 2 3 4 5 6 
#
# 1 0.032637 -0.004188 0.000896 0.000000 -0.038034 0.000000
# 2 -0.004188 0.007105 -0.005535 0.000000 0.002024 0.000000
# 3 0.000896 -0.005535 0.033390 0.000000 -0.013323 0.000000
# 4 0.000000 0.000000 0.000000 0.038753 0.000000 -0.012627
# 5 -0.038034 0.002024 -0.013323 0.000000 0.100357 0.000000
# 6 0.000000 0.000000 0.000000 -0.012627 0.000000 0.039438
#
#
# Mechanical properties :
#
#
# Convention : Reuss Voigt Hill
#
# Bulk Modulus (GPa) = 18.02561 54.98846 36.50703
# Shear Modulus (GPa) = 17.37160 28.96439 23.16800
#
# Velocity S-wave (km/s) = 2.99010 3.86099 3.45311
# Velocity P-wave (km/s) = 4.60415 6.94099 5.88964
#
# Compressibility (1/GPa) = 0.05547663
#
# Stress axis : x y z
#
# Youngs Moduli (GPa) = 30.64009 140.75006 29.94947
#
# Poissons Ratio (x) = 0.58943 -0.02683
# Poissons Ratio (y) = 0.12831 0.16578
# Poissons Ratio (z) = -0.02745 0.77910
#
# Static dielectric constant tensor:
#      x y z
#    x 1.703810 0.000000 0.022130 
#    y 0.000000 1.676280 0.000000 
#    z 0.022130 0.000000 1.656080 
# 
# From -- ./inp_files/22067.got.cif
#   From: 2010.05.17/outbox.cif.g08.bks.cpg/sg11_12_cif.got.tgz:22067.got - 2010.06.03 12:22:45.
