data_PCOD9163406
_publ_section_title
;
Structure prediction by ZEFSAII (Michael W. Deem and Ramdas Pophale) SiO2 
 PCOD9163406
Probable space group: P 21/M
;
_chemical_formula_sum "Si O2"
_cell_formula_units_Z 26
_cell_length_a 19.112137
_cell_length_b 7.372392
_cell_length_c 14.903699
_cell_angle_alpha 90.000000
_cell_angle_beta 29.700576
_cell_angle_gamma 90.000000
_cell_volume 1040.463442
_symmetry_space_group_name_H-M "P 21/M"
_symmetry_group_IT_number 11
_symmetry_cell_setting 'monoclinic'
loop_
_space_group_symop_operation_xyz
x,y,z
-x,1/2+y,-z
-x,-y,-z
x,1/2-y,z
loop_
_atom_site_type_symbol
_atom_site_label
_atom_site_fract_x
_atom_site_fract_y
_atom_site_fract_z
Si Si1 0.283001 0.542554 0.941668
Si Si2 0.157621 0.535270 0.364853
Si Si3 0.596725 0.750000 0.960117
Si Si4 0.772970 0.030190 0.382545
Si Si5 0.525810 0.540870 0.798327
Si Si6 0.667591 0.033650 0.309473
Si Si7 0.027480 0.967281 0.693596
O O1 0.333741 0.750000 0.876238
O O2 0.394302 0.461661 0.885935
O O3 0.281805 0.462126 0.843177
O O4 0.126857 0.540853 0.153581
O O5 0.186036 0.750000 0.321428
O O6 0.279451 0.408448 0.190992
O O7 0.136418 0.487712 0.493929
O O8 0.000000 0.500000 0.500000
O O9 0.475652 0.592667 0.117514
O O10 0.770592 0.250000 0.383401
O O11 0.741051 0.963363 0.318037
O O12 0.916884 0.972882 0.271021
O O13 0.651799 0.971214 0.586555
O O14 0.510648 0.750000 0.844433
O O15 0.691751 0.250000 0.282921
O O16 0.500000 0.000000 0.500000
O O17 0.014691 0.750000 0.707999
#
# Coordination Sequence:
#
# PCOD9163406 Si02
#       7
#     4   4   2   4   4   4   4
#     4  10  22  37  60  97 132 167 221 270 317 391
#     4  11  23  42  66  96 132 171 220 277 338 395
#     4  12  24  40  68  92 126 168 220 274 332 384
#     4  10  21  42  66  91 133 181 215 265 330 395
#     4  11  23  40  66  99 132 171 221 271 330 395
#     4  10  20  36  62  94 130 172 219 266 318 379
#     4  10  24  41  64  93 129 174 217 267 335 394
#
# _framework density 24.988862000000001
#
# number of rings (size 3 to 8) (size 9 to 14) (size 15 to 20)
#    0.000    1.538    3.077    1.385    4.308    3.077 
#    0.000    0.769    0.000    0.000    0.000    0.000 
#    0.000    0.000    0.000    0.000    0.000    0.000 
#
# Total GULP energy -145062.478490 kJ/mol
# GULP energy per Si atom -5579.326096 kJ/mol
# Density = 2.493199 g / cm^3
# Si number density = 24.988862 Si / 1000 Ang^3
#
#
#
# Elastic Constant Matrix: (Units=GPa)
#
#
# Indices 1 2 3 4 5 6 
#
# 1 104.0266 8.8814 -11.3523 0.0000 6.4343 0.0000
# 2 8.8814 146.7148 6.9701 0.0000 14.2420 0.0000
# 3 -11.3523 6.9701 72.9399 0.0000 5.9476 0.0000
# 4 0.0000 0.0000 0.0000 23.7742 0.0000 -1.9725
# 5 6.4343 14.2420 5.9476 0.0000 39.8137 0.0000
# 6 0.0000 0.0000 0.0000 -1.9725 0.0000 -1.9640
#
#
#
# Elastic Compliance Matrix: (Units=1/GPa)
#
#
# Indices 1 2 3 4 5 6 
#
# 1 0.009951 -0.000522 0.001736 0.000000 -0.001681 0.000000
# 2 -0.000522 0.007105 -0.000567 0.000000 -0.002373 0.000000
# 3 0.001736 -0.000567 0.014214 0.000000 -0.002201 0.000000
# 4 0.000000 0.000000 0.000000 0.038827 0.000000 -0.038996
# 5 -0.001681 -0.002373 -0.002201 0.000000 0.026566 0.000000
# 6 0.000000 0.000000 0.000000 -0.038996 0.000000 -0.470005
#
#
# Mechanical properties :
#
#
# Convention : Reuss Voigt Hill
#
# Bulk Modulus (GPa) = 30.70883 36.96441 33.83662
# Shear Modulus (GPa) = -13.74448 33.60358 9.92955
#
# Velocity S-wave (km/s) = -2.34780 3.67105 1.99555
# Velocity P-wave (km/s) = 2.22848 5.72654 4.34508
#
# Compressibility (1/GPa) = 0.03256392
#
# Stress axis : x y z
#
# Youngs Moduli (GPa) = 100.49402 140.75079 70.35470
#
# Poissons Ratio (x) = 0.07343 -0.12211
# Poissons Ratio (y) = 0.05242 0.03987
# Poissons Ratio (z) = -0.17442 0.07976
#
# Static dielectric constant tensor:
#      x y z
#    x 2.117900 0.000000 0.039520 
#    y 0.000000 3.335890 0.000000 
#    z 0.039520 0.000000 2.085500 
# 
# From -- ./inp_files/54202.got.cif
#   From: 2010.05.17/outbox.cif.g08.bks.cpg/sg11_28_cif.got.tgz:54202.got - 2010.06.03 12:22:45.
