data_PCOD9163523
_publ_section_title
;
Structure prediction by ZEFSAII (Michael W. Deem and Ramdas Pophale) SiO2 
 PCOD9163523
Probable space group: P 21/M
;
_chemical_formula_sum "Si O2"
_cell_formula_units_Z 32
_cell_length_a 15.930815
_cell_length_b 7.694468
_cell_length_c 25.126576
_cell_angle_alpha 90.000000
_cell_angle_beta 150.202121
_cell_angle_gamma 90.000000
_cell_volume 1530.577994
_symmetry_space_group_name_H-M "P 21/M"
_symmetry_group_IT_number 11
_symmetry_cell_setting 'monoclinic'
loop_
_space_group_symop_operation_xyz
x,y,z
-x,1/2+y,-z
-x,-y,-z
x,1/2-y,z
loop_
_atom_site_type_symbol
_atom_site_label
_atom_site_fract_x
_atom_site_fract_y
_atom_site_fract_z
Si Si1 0.270669 0.458006 0.665144
Si Si2 0.588383 0.043150 0.493797
Si Si3 0.259050 0.461781 0.253641
Si Si4 0.037547 0.445486 0.318938
Si Si5 0.624468 0.448583 0.905139
Si Si6 0.056598 0.954147 0.452469
Si Si7 0.805778 0.543051 0.899650
Si Si8 0.066489 0.964041 0.853711
O O1 0.279100 0.250000 0.676014
O O2 0.444006 0.526905 0.787165
O O3 0.223865 0.485829 0.576940
O O4 0.108549 0.528368 0.608380
O O5 0.619724 0.250000 0.505387
O O6 0.442694 0.985556 0.374170
O O7 0.500000 0.000000 0.500000
O O8 0.764748 0.948579 0.586475
O O9 0.250886 0.250000 0.250889
O O10 0.260086 0.516013 0.193345
O O11 0.097900 0.518844 0.201062
O O12 0.971707 0.250000 0.287212
O O13 0.035592 0.518983 0.377774
O O14 0.952359 0.522392 0.218319
O O15 0.592086 0.250000 0.904838
O O16 0.729536 0.449971 0.908326
O O17 0.758049 0.522252 0.021897
O O18 0.055909 0.750000 0.460787
O O19 0.779385 0.750000 0.891802
O O20 0.000000 0.500000 0.000000
O O21 0.064016 0.750000 0.852584
#
# Coordination Sequence:
#
# PCOD9163523 Si02
#       8
#     4   4   4   4   4   4   4   4
#     4   9  20  39  63  88 111 140 182 228 278 340
#     4  11  21  35  53  77 109 148 189 232 277 324
#     4   9  18  33  50  70 104 146 184 220 271 326
#     4  11  22  37  57  82 110 147 193 231 273 335
#     4  10  20  37  59  82 108 143 187 232 277 329
#     4  10  21  39  61  85 115 145 175 225 288 339
#     4  11  21  34  52  77 109 147 187 228 273 325
#     4   9  17  34  56  76 107 149 185 223 274 324
#
# _framework density 20.907135
#
# number of rings (size 3 to 8) (size 9 to 14) (size 15 to 20)
#    0.000    2.000    2.500    1.500    1.750    1.000 
#    0.000    5.000    0.000    0.000    0.000    0.000 
#    0.000    0.000    0.000    0.000    0.000    0.000 
#
# Total GULP energy -178288.514351 kJ/mol
# GULP energy per Si atom -5571.516073 kJ/mol
# Density = 2.085955 g / cm^3
# Si number density = 20.907135 Si / 1000 Ang^3
#
#
#
# Elastic Constant Matrix: (Units=GPa)
#
#
# Indices 1 2 3 4 5 6 
#
# 1 79.9356 -4.5517 54.9712 0.0000 -23.6190 0.0000
# 2 -4.5517 43.1975 2.2430 0.0000 -2.4052 0.0000
# 3 54.9712 2.2430 195.4168 0.0000 -33.4564 0.0000
# 4 0.0000 0.0000 0.0000 6.8506 0.0000 1.1866
# 5 -23.6190 -2.4052 -33.4564 0.0000 40.2542 0.0000
# 6 0.0000 0.0000 0.0000 1.1866 0.0000 17.9018
#
#
#
# Elastic Compliance Matrix: (Units=1/GPa)
#
#
# Indices 1 2 3 4 5 6 
#
# 1 0.017305 0.002418 -0.003652 0.000000 0.007263 0.000000
# 2 0.002418 0.023565 -0.000544 0.000000 0.002374 0.000000
# 3 -0.003652 -0.000544 0.006737 0.000000 0.003424 0.000000
# 4 0.000000 0.000000 0.000000 0.147668 0.000000 -0.009788
# 5 0.007263 0.002374 0.003424 0.000000 0.032091 0.000000
# 6 0.000000 0.000000 0.000000 -0.009788 0.000000 0.056509
#
#
# Mechanical properties :
#
#
# Convention : Reuss Voigt Hill
#
# Bulk Modulus (GPa) = 22.70178 47.09719 34.89949
# Shear Modulus (GPa) = 16.54992 30.72714 23.63853
#
# Velocity S-wave (km/s) = 2.81658 3.83782 3.36615
# Velocity P-wave (km/s) = 4.63243 6.49725 5.64241
#
# Compressibility (1/GPa) = 0.04404940
#
# Stress axis : x y z
#
# Youngs Moduli (GPa) = 57.78542 42.43639 148.43137
#
# Poissons Ratio (x) = -0.10259 0.54213
# Poissons Ratio (y) = -0.13970 0.08075
# Poissons Ratio (z) = 0.21105 0.02309
#
# Static dielectric constant tensor:
#      x y z
#    x 1.719180 0.000000 -0.005080 
#    y 0.000000 1.793930 0.000000 
#    z -0.005080 0.000000 1.748210 
# 
# From -- ./inp_files/69137.got.cif
#   From: 2010.05.17/outbox.cif.g08.bks.cpg/sg11_35_cif.got.tgz:69137.got - 2010.06.03 12:22:45.
