data_PCOD9163712
_publ_section_title
;
Structure prediction by ZEFSAII (Michael W. Deem and Ramdas Pophale) SiO2 
 PCOD9163712
Probable space group: P 21/M
;
_chemical_formula_sum "Si O2"
_cell_formula_units_Z 24
_cell_length_a 17.869170
_cell_length_b 8.694588
_cell_length_c 14.510264
_cell_angle_alpha 90.000000
_cell_angle_beta 144.483427
_cell_angle_gamma 90.000000
_cell_volume 1309.660711
_symmetry_space_group_name_H-M "P 21/M"
_symmetry_group_IT_number 11
_symmetry_cell_setting 'monoclinic'
loop_
_space_group_symop_operation_xyz
x,y,z
-x,1/2+y,-z
-x,-y,-z
x,1/2-y,z
loop_
_atom_site_type_symbol
_atom_site_label
_atom_site_fract_x
_atom_site_fract_y
_atom_site_fract_z
Si Si1 0.874499 0.935766 0.924653
Si Si2 0.125022 0.564788 0.676855
Si Si3 0.619343 0.434979 0.175601
Si Si4 0.382473 0.433892 0.440333
Si Si5 0.783048 0.563795 0.036524
Si Si6 0.479215 0.935505 0.725453
O O1 0.880796 0.750000 0.930944
O O2 0.750173 0.983608 0.740352
O O3 0.849786 0.982489 0.006570
O O4 0.000000 0.000000 0.000000
O O5 0.119123 0.750000 0.673157
O O6 0.248669 0.515633 0.739881
O O7 0.148888 0.503987 0.804551
O O8 0.000000 0.500000 0.500000
O O9 0.615677 0.250000 0.168765
O O10 0.595126 0.481077 0.256452
O O11 0.500000 0.500000 0.000000
O O12 0.500000 0.500000 0.500000
O O13 0.386303 0.250000 0.441671
O O14 0.405727 0.493070 0.565983
O O15 0.786964 0.750000 0.046300
O O16 0.630838 0.518890 0.881524
O O17 0.478409 0.750000 0.716219
#
# Coordination Sequence:
#
# PCOD9163712 Si02
#       6
#     4   4   4   4   4   4
#     4  10  23  41  60  87 121 157 199 245 296 354
#     4  11  24  40  60  90 123 158 201 242 293 357
#     4  10  21  37  60  88 117 151 197 244 292 350
#     4  11  22  38  60  89 120 153 199 246 292 351
#     4  10  20  39  63  85 118 159 197 243 300 354
#     4  10  20  37  61  89 121 156 195 246 301 347
#
# _framework density 18.325357
#
# number of rings (size 3 to 8) (size 9 to 14) (size 15 to 20)
#    0.000    1.667    3.333    1.000    0.000    5.333 
#    0.000    5.000    0.000    0.000    0.000    0.000 
#    0.000    0.000    0.000    0.000    0.000    0.000 
#
# Total GULP energy -134011.508532 kJ/mol
# GULP energy per Si atom -5583.812855 kJ/mol
# Density = 1.828365 g / cm^3
# Si number density = 18.325357 Si / 1000 Ang^3
#
#
#
# Elastic Constant Matrix: (Units=GPa)
#
#
# Indices 1 2 3 4 5 6 
#
# 1 201.4466 42.8597 126.7079 0.0000 -13.4204 0.0000
# 2 42.8597 17.7436 43.5382 0.0000 -4.9591 0.0000
# 3 126.7079 43.5382 188.5370 0.0000 -6.9449 0.0000
# 4 0.0000 0.0000 0.0000 34.2551 0.0000 -6.3795
# 5 -13.4204 -4.9591 -6.9449 0.0000 40.7718 0.0000
# 6 0.0000 0.0000 0.0000 -6.3795 0.0000 28.1404
#
#
#
# Elastic Compliance Matrix: (Units=1/GPa)
#
#
# Indices 1 2 3 4 5 6 
#
# 1 0.010865 -0.018874 -0.002915 0.000000 0.000784 0.000000
# 2 -0.018874 0.167708 -0.025683 0.000000 0.009811 0.000000
# 3 -0.002915 -0.025683 0.013126 0.000000 -0.001847 0.000000
# 4 0.000000 0.000000 0.000000 0.030480 0.000000 0.006910
# 5 0.000784 0.009811 -0.001847 0.000000 0.025664 0.000000
# 6 0.000000 0.000000 0.000000 0.006910 0.000000 0.037103
#
#
# Mechanical properties :
#
#
# Convention : Reuss Voigt Hill
#
# Bulk Modulus (GPa) = 10.33518 92.65988 51.49753
# Shear Modulus (GPa) = 12.13181 33.60824 22.87003
#
# Velocity S-wave (km/s) = 2.57577 4.28714 3.53654
# Velocity P-wave (km/s) = 3.80765 8.67062 6.69619
#
# Compressibility (1/GPa) = 0.09675690
#
# Stress axis : x y z
#
# Youngs Moduli (GPa) = 92.03615 5.96273 76.18701
#
# Poissons Ratio (x) = 0.11254 0.22207
# Poissons Ratio (y) = 1.73708 1.95668
# Poissons Ratio (z) = 0.26826 0.15314
#
# Static dielectric constant tensor:
#      x y z
#    x 1.601230 0.000000 0.014270 
#    y 0.000000 1.625520 0.000000 
#    z 0.014270 0.000000 1.589700 
# 
# From -- ./inp_files/53153.got.cif
#   From: 2010.05.17/outbox.cif.g08.bks.cpg/sg11_27_cif.got.tgz:53153.got - 2010.06.03 12:22:45.
