data_PCOD9163765
_publ_section_title
;
Structure prediction by ZEFSAII (Michael W. Deem and Ramdas Pophale) SiO2 
 PCOD9163765
Probable space group: P 21/M
;
_chemical_formula_sum "Si O2"
_cell_formula_units_Z 28
_cell_length_a 9.840081
_cell_length_b 14.856173
_cell_length_c 7.760772
_cell_angle_alpha 90.000000
_cell_angle_beta 103.290580
_cell_angle_gamma 90.000000
_cell_volume 1104.129697
_symmetry_space_group_name_H-M "P 21/M"
_symmetry_group_IT_number 11
_symmetry_cell_setting 'monoclinic'
loop_
_space_group_symop_operation_xyz
x,y,z
-x,1/2+y,-z
-x,-y,-z
x,1/2-y,z
loop_
_atom_site_type_symbol
_atom_site_label
_atom_site_fract_x
_atom_site_fract_y
_atom_site_fract_z
Si Si1 0.033587 0.355390 0.874540
Si Si2 0.044009 0.602397 0.509811
Si Si3 0.211358 0.348184 0.348398
Si Si4 0.185642 0.856290 0.899363
Si Si5 0.499788 0.150320 0.630890
Si Si6 0.355972 0.355540 0.959202
Si Si7 0.328292 0.996884 0.187665
O O1 0.049611 0.250000 0.868939
O O2 0.933830 0.377224 0.683866
O O3 0.193064 0.387624 0.894877
O O4 0.956910 0.373740 0.032596
O O5 0.903602 0.651258 0.536149
O O6 0.000000 0.500000 0.500000
O O7 0.157912 0.623929 0.689851
O O8 0.191869 0.250000 0.254851
O O9 0.367881 0.349618 0.467184
O O10 0.209503 0.440847 0.241047
O O11 0.222094 0.750000 0.929261
O O12 0.285609 0.924905 0.028108
O O13 0.567336 0.250000 0.639944
O O14 0.430168 0.138940 0.798665
O O15 0.600303 0.065149 0.646876
O O16 0.365824 0.250000 0.011864
O O17 0.417020 0.424686 0.117361
#
# Coordination Sequence:
#
# PCOD9163765 Si02
#       7
#     4   4   4   4   4   4   4
#     4  10  20  39  63  88 124 167 212 264 318 377
#     4  12  23  39  65  96 129 167 217 270 324 384
#     4  11  23  41  66  94 124 166 222 275 320 375
#     4  11  25  41  62  97 138 176 210 261 337 402
#     4  10  22  41  64  88 121 169 215 265 325 382
#     4  10  20  37  62  90 119 158 215 272 322 378
#     4  12  23  39  60  93 131 167 211 263 325 397
#
# _framework density 25.359338999999999
#
# number of rings (size 3 to 8) (size 9 to 14) (size 15 to 20)
#    0.000    1.143    1.429    5.571    0.000    2.857 
#    0.000    0.000    0.000    0.000    0.000    0.000 
#    0.000    0.000    0.000    0.000    0.000    0.000 
#
# Total GULP energy -156478.020246 kJ/mol
# GULP energy per Si atom -5588.500723 kJ/mol
# Density = 2.530162 g / cm^3
# Si number density = 25.359339 Si / 1000 Ang^3
#
#
#
# Elastic Constant Matrix: (Units=GPa)
#
#
# Indices 1 2 3 4 5 6 
#
# 1 35.2363 25.4009 -4.4150 0.0000 4.6166 0.0000
# 2 25.4009 164.8189 53.0170 0.0000 15.9238 0.0000
# 3 -4.4150 53.0170 98.1243 0.0000 13.7510 0.0000
# 4 0.0000 0.0000 0.0000 35.7055 0.0000 -1.1021
# 5 4.6166 15.9238 13.7510 0.0000 37.9012 0.0000
# 6 0.0000 0.0000 0.0000 -1.1021 0.0000 29.2697
#
#
#
# Elastic Compliance Matrix: (Units=1/GPa)
#
#
# Indices 1 2 3 4 5 6 
#
# 1 0.034457 -0.006819 0.005712 0.000000 -0.003405 0.000000
# 2 -0.006819 0.008803 -0.004911 0.000000 -0.001086 0.000000
# 3 0.005712 -0.004911 0.013601 0.000000 -0.003567 0.000000
# 4 0.000000 0.000000 0.000000 0.028039 0.000000 0.001056
# 5 -0.003405 -0.001086 -0.003567 0.000000 0.028550 0.000000
# 6 0.000000 0.000000 0.000000 0.001056 0.000000 0.034205
#
#
# Mechanical properties :
#
#
# Convention : Reuss Voigt Hill
#
# Bulk Modulus (GPa) = 22.30879 49.57614 35.94246
# Shear Modulus (GPa) = 28.63163 35.52037 32.07600
#
# Velocity S-wave (km/s) = 3.36376 3.74663 3.56034
# Velocity P-wave (km/s) = 4.88904 6.18936 5.57723
#
# Compressibility (1/GPa) = 0.04482539
#
# Stress axis : x y z
#
# Youngs Moduli (GPa) = 29.02183 113.60202 73.52220
#
# Poissons Ratio (x) = 0.77461 -0.41993
# Poissons Ratio (y) = 0.19789 0.36105
# Poissons Ratio (z) = -0.16576 0.55787
#
# Static dielectric constant tensor:
#      x y z
#    x 2.084170 0.000000 0.057280 
#    y 0.000000 2.213230 0.000000 
#    z 0.057280 0.000000 2.096700 
# 
# From -- ./inp_files/17798.got.cif
#   From: 2010.05.17/outbox.cif.g08.bks.cpg/sg11_9_cif.got.tgz:17798.got - 2010.06.03 12:22:45.
