data_PCOD9163770
_publ_section_title
;
Structure prediction by ZEFSAII (Michael W. Deem and Ramdas Pophale) SiO2 
 PCOD9163770
Probable space group: P 21/M
;
_chemical_formula_sum "Si O2"
_cell_formula_units_Z 28
_cell_length_a 9.143004
_cell_length_b 13.489329
_cell_length_c 17.784725
_cell_angle_alpha 90.000000
_cell_angle_beta 141.768600
_cell_angle_gamma 90.000000
_cell_volume 1357.388206
_symmetry_space_group_name_H-M "P 21/M"
_symmetry_group_IT_number 11
_symmetry_cell_setting 'monoclinic'
loop_
_space_group_symop_operation_xyz
x,y,z
-x,1/2+y,-z
-x,-y,-z
x,1/2-y,z
loop_
_atom_site_type_symbol
_atom_site_label
_atom_site_fract_x
_atom_site_fract_y
_atom_site_fract_z
Si Si1 0.829620 0.142768 0.925811
Si Si2 0.850245 0.533573 0.176526
Si Si3 0.219383 0.364408 0.563640
Si Si4 0.385467 0.859655 0.006345
Si Si5 0.231751 0.540162 0.688667
Si Si6 0.387734 0.971645 0.374566
Si Si7 0.716882 0.933385 0.813384
O O1 0.819063 0.250000 0.883490
O O2 0.629285 0.137675 0.909176
O O3 0.803500 0.047024 0.863737
O O4 0.071529 0.133446 0.071184
O O5 0.649983 0.616730 0.086139
O O6 0.805387 0.486193 0.240079
O O7 0.120549 0.565939 0.279048
O O8 0.783426 0.446594 0.091254
O O9 0.238708 0.250000 0.592789
O O10 0.216964 0.439544 0.633018
O O11 0.434252 0.397772 0.596276
O O12 0.975797 0.387429 0.422103
O O13 0.310321 0.750000 0.951678
O O14 0.487229 0.584011 0.771701
O O15 0.358026 0.064660 0.304226
O O16 0.500000 0.000000 0.500000
#
# Coordination Sequence:
#
# PCOD9163770 Si02
#       7
#     4   4   4   4   4   4   4
#     4  10  20  37  62  90 121 159 207 262 311 365
#     4  11  21  40  64  90 128 164 203 261 317 374
#     4  10  23  41  62  90 121 163 210 253 303 369
#     4  10  22  38  62  93 122 163 210 262 319 371
#     4  10  21  39  63  85 123 164 202 254 307 371
#     4  11  22  40  63  88 128 167 206 255 316 378
#     4  10  21  38  61  91 119 163 207 253 312 372
#
# _framework density 20.627851
#
# number of rings (size 3 to 8) (size 9 to 14) (size 15 to 20)
#    0.000    1.714    4.286    0.000    0.000    4.571 
#    0.000    2.143    0.000    0.000    0.000    0.000 
#    0.000    0.000    0.000    0.000    0.000    0.000 
#
# Total GULP energy -156364.634358 kJ/mol
# GULP energy per Si atom -5584.451227 kJ/mol
# Density = 2.058090 g / cm^3
# Si number density = 20.627851 Si / 1000 Ang^3
#
#
#
# Elastic Constant Matrix: (Units=GPa)
#
#
# Indices 1 2 3 4 5 6 
#
# 1 78.1927 0.7028 22.8543 0.0000 14.9498 0.0000
# 2 0.7028 77.2907 14.0810 0.0000 8.5402 0.0000
# 3 22.8543 14.0810 89.5581 0.0000 16.9276 0.0000
# 4 0.0000 0.0000 0.0000 7.9594 0.0000 -0.3152
# 5 14.9498 8.5402 16.9276 0.0000 51.9095 0.0000
# 6 0.0000 0.0000 0.0000 -0.3152 0.0000 12.3113
#
#
#
# Elastic Compliance Matrix: (Units=1/GPa)
#
#
# Indices 1 2 3 4 5 6 
#
# 1 0.014325 0.000804 -0.003173 0.000000 -0.003223 0.000000
# 2 0.000804 0.013492 -0.001986 0.000000 -0.001804 0.000000
# 3 -0.003173 -0.001986 0.012845 0.000000 -0.002948 0.000000
# 4 0.000000 0.000000 0.000000 0.125765 0.000000 0.003220
# 5 -0.003223 -0.001804 -0.002948 0.000000 0.021451 0.000000
# 6 0.000000 0.000000 0.000000 0.003220 0.000000 0.081308
#
#
# Mechanical properties :
#
#
# Convention : Reuss Voigt Hill
#
# Bulk Modulus (GPa) = 31.29557 35.59086 33.44321
# Shear Modulus (GPa) = 17.32826 28.26295 22.79561
#
# Velocity S-wave (km/s) = 2.90149 3.70555 3.32789
# Velocity P-wave (km/s) = 5.14095 5.96652 5.56905
#
# Compressibility (1/GPa) = 0.03195340
#
# Stress axis : x y z
#
# Youngs Moduli (GPa) = 69.80652 74.11864 77.85102
#
# Poissons Ratio (x) = -0.05959 0.24701
# Poissons Ratio (y) = -0.05612 0.15457
# Poissons Ratio (z) = 0.22148 0.14716
#
# Static dielectric constant tensor:
#      x y z
#    x 1.741600 0.000000 0.009560 
#    y 0.000000 1.709740 0.000000 
#    z 0.009560 0.000000 1.777020 
# 
# From -- ./inp_files/58147.got.cif
#   From: 2010.05.17/outbox.cif.g08.bks.cpg/sg11_30_cif.got.tgz:58147.got - 2010.06.03 12:22:45.
