data_PCOD9163013
_publ_section_title
;
Structure prediction by ZEFSAII (Michael W. Deem and Ramdas Pophale) SiO2 
 PCOD9163013
Probable space group: P 21/M
;
_chemical_formula_sum "Si O2"
_cell_formula_units_Z 28
_cell_length_a 18.342868
_cell_length_b 8.706188
_cell_length_c 14.840374
_cell_angle_alpha 90.000000
_cell_angle_beta 147.105414
_cell_angle_gamma 90.000000
_cell_volume 1287.111054
_symmetry_space_group_name_H-M "P 21/M"
_symmetry_group_IT_number 11
_symmetry_cell_setting 'monoclinic'
loop_
_space_group_symop_operation_xyz
x,y,z
-x,1/2+y,-z
-x,-y,-z
x,1/2-y,z
loop_
_atom_site_type_symbol
_atom_site_label
_atom_site_fract_x
_atom_site_fract_y
_atom_site_fract_z
Si Si1 0.983661 0.434903 0.799660
Si Si2 0.897268 0.429046 0.516441
Si Si3 0.797921 0.573996 0.237790
Si Si4 0.528097 0.429144 0.931540
Si Si5 0.535867 0.433205 0.317437
Si Si6 0.270552 0.566153 0.129450
Si Si7 0.244889 0.936666 0.309826
O O1 0.004986 0.250000 0.822595
O O2 0.894066 0.467372 0.618221
O O3 0.899180 0.482596 0.799545
O O4 0.125542 0.517608 0.942148
O O5 0.858337 0.250000 0.463181
O O6 0.055043 0.442148 0.653104
O O7 0.817060 0.532144 0.362853
O O8 0.753863 0.750000 0.180758
O O9 0.686080 0.464714 0.080020
O O10 0.502980 0.250000 0.907512
O O11 0.446964 0.503807 0.765416
O O12 0.500000 0.500000 0.000000
O O13 0.544128 0.250000 0.322100
O O14 0.390651 0.485273 0.201931
O O15 0.642845 0.489072 0.502632
O O16 0.286918 0.750000 0.141617
O O17 0.272190 0.515291 0.236248
O O18 0.246346 0.750000 0.311545
#
# Coordination Sequence:
#
# PCOD9163013 Si02
#       7
#     4   4   4   4   4   4   4
#     4  10  20  37  61  89 122 163 209 258 317 375
#     4   9  19  34  57  85 117 159 204 251 305 364
#     4  10  20  36  57  86 121 158 203 250 301 363
#     4  12  26  43  63  90 124 161 202 252 306 367
#     4  11  23  42  66  92 123 166 212 259 313 372
#     4  11  22  39  62  92 127 166 211 260 311 373
#     4   9  21  39  62  92 126 163 209 262 318 372
#
# _framework density 21.754145000000001
#
# number of rings (size 3 to 8) (size 9 to 14) (size 15 to 20)
#    0.000    1.714    0.000    4.286    2.000    2.286 
#    0.000    4.286    0.000    0.000    0.000    0.000 
#    0.000    0.000    0.000    0.000    0.000    0.000 
#
# Total GULP energy -156657.398676 kJ/mol
# GULP energy per Si atom -5594.907096 kJ/mol
# Density = 2.170463 g / cm^3
# Si number density = 21.754145 Si / 1000 Ang^3
#
#
#
# Elastic Constant Matrix: (Units=GPa)
#
#
# Indices 1 2 3 4 5 6 
#
# 1 72.9132 11.4558 2.7143 0.0000 -17.0972 0.0000
# 2 11.4558 58.3329 15.5293 0.0000 -9.8155 0.0000
# 3 2.7143 15.5293 75.5156 0.0000 -12.5722 0.0000
# 4 0.0000 0.0000 0.0000 28.0908 0.0000 -7.6636
# 5 -17.0972 -9.8155 -12.5722 0.0000 39.6086 0.0000
# 6 0.0000 0.0000 0.0000 -7.6636 0.0000 20.4988
#
#
#
# Elastic Compliance Matrix: (Units=1/GPa)
#
#
# Indices 1 2 3 4 5 6 
#
# 1 0.015545 -0.002224 0.000976 0.000000 0.006468 0.000000
# 2 -0.002224 0.018924 -0.003369 0.000000 0.002660 0.000000
# 3 0.000976 -0.003369 0.014603 0.000000 0.004221 0.000000
# 4 0.000000 0.000000 0.000000 0.039642 0.000000 0.014820
# 5 0.006468 0.002660 0.004221 0.000000 0.030038 0.000000
# 6 0.000000 0.000000 0.000000 0.014820 0.000000 0.054324
#
#
# Mechanical properties :
#
#
# Convention : Reuss Voigt Hill
#
# Bulk Modulus (GPa) = 25.10216 29.57337 27.33776
# Shear Modulus (GPa) = 25.56370 29.44382 27.50376
#
# Velocity S-wave (km/s) = 3.43172 3.68296 3.55956
# Velocity P-wave (km/s) = 5.22172 5.63112 5.43028
#
# Compressibility (1/GPa) = 0.03983721
#
# Stress axis : x y z
#
# Youngs Moduli (GPa) = 64.33010 52.84234 68.48003
#
# Poissons Ratio (x) = 0.11752 -0.06680
# Poissons Ratio (y) = 0.14307 0.23069
# Poissons Ratio (z) = -0.06276 0.17801
#
# Static dielectric constant tensor:
#      x y z
#    x 1.828440 0.000000 0.010380 
#    y 0.000000 1.734020 0.000000 
#    z 0.010380 0.000000 1.797550 
# 
# From -- ./inp_files/54614.got.cif
#   From: 2010.05.17/outbox.cif.g08.bks.cpg/sg11_28_cif.got.tgz:54614.got - 2010.06.03 12:22:45.
