data_PCOD9163567
_publ_section_title
;
Structure prediction by ZEFSAII (Michael W. Deem and Ramdas Pophale) SiO2 
 PCOD9163567
Probable space group: P 21/M
;
_chemical_formula_sum "Si O2"
_cell_formula_units_Z 24
_cell_length_a 8.130491
_cell_length_b 16.686340
_cell_length_c 11.869675
_cell_angle_alpha 90.000000
_cell_angle_beta 37.058755
_cell_angle_gamma 90.000000
_cell_volume 970.443132
_symmetry_space_group_name_H-M "P 21/M"
_symmetry_group_IT_number 11
_symmetry_cell_setting 'monoclinic'
loop_
_space_group_symop_operation_xyz
x,y,z
-x,1/2+y,-z
-x,-y,-z
x,1/2-y,z
loop_
_atom_site_type_symbol
_atom_site_label
_atom_site_fract_x
_atom_site_fract_y
_atom_site_fract_z
Si Si1 0.175761 0.067123 0.102194
Si Si2 0.591162 0.081999 0.314843
Si Si3 0.291229 0.660342 0.222232
Si Si4 0.589711 0.608315 0.347010
Si Si5 0.189427 0.619117 0.030069
Si Si6 0.001904 0.657887 0.588494
O O1 0.897766 0.094907 0.195447
O O2 0.152629 0.096714 0.244324
O O3 0.183880 0.972919 0.076654
O O4 0.447962 0.104722 0.903261
O O5 0.404250 0.110523 0.519383
O O6 0.557250 0.985308 0.328272
O O7 0.597118 0.122646 0.189311
O O8 0.355161 0.750000 0.225608
O O9 0.242353 0.664209 0.116087
O O10 0.035765 0.633768 0.438954
O O11 0.319383 0.653113 0.455601
O O12 0.886863 0.638165 0.149413
O O13 0.903640 0.750000 0.655023
#
# Coordination Sequence:
#
# PCOD9163567 Si02
#       6
#     4   4   4   4   4   4
#     4  10  20  37  60  80 104 142 187 225 261 317
#     4   9  18  34  58  85 107 133 175 226 273 317
#     4  11  24  38  52  77 114 149 180 219 270 324
#     4   9  18  34  56  81 108 136 174 224 271 318
#     4  11  21  34  57  86 111 138 176 225 277 320
#     4  10  21  37  56  77 106 147 187 221 264 320
#
# _framework density 24.730969999999999
#
# number of rings (size 3 to 8) (size 9 to 14) (size 15 to 20)
#    0.000    2.000    0.000    6.000    0.000    2.667 
#    0.000    4.167    0.000    0.000    0.000    0.000 
#    0.000    0.000    0.000    0.000    0.000    0.000 
#
# Total GULP energy -134221.068445 kJ/mol
# GULP energy per Si atom -5592.544519 kJ/mol
# Density = 2.467468 g / cm^3
# Si number density = 24.730970 Si / 1000 Ang^3
#
#
#
# Elastic Constant Matrix: (Units=GPa)
#
#
# Indices 1 2 3 4 5 6 
#
# 1 62.5089 1.1980 16.3502 0.0000 26.3520 0.0000
# 2 1.1980 15.6460 22.8709 0.0000 8.8163 0.0000
# 3 16.3502 22.8709 160.1240 0.0000 30.1663 0.0000
# 4 0.0000 0.0000 0.0000 7.5053 0.0000 0.9992
# 5 26.3520 8.8163 30.1663 0.0000 56.3514 0.0000
# 6 0.0000 0.0000 0.0000 0.9992 0.0000 4.1228
#
#
#
# Elastic Compliance Matrix: (Units=1/GPa)
#
#
# Indices 1 2 3 4 5 6 
#
# 1 0.020287 0.005433 -0.001001 0.000000 -0.009801 0.000000
# 2 0.005433 0.084939 -0.010793 0.000000 -0.010052 0.000000
# 3 -0.001001 -0.010793 0.008322 0.000000 -0.002298 0.000000
# 4 0.000000 0.000000 0.000000 0.137680 0.000000 -0.033366
# 5 -0.009801 -0.010052 -0.002298 0.000000 0.025132 0.000000
# 6 0.000000 0.000000 0.000000 -0.033366 0.000000 0.250637
#
#
# Mechanical properties :
#
#
# Convention : Reuss Voigt Hill
#
# Bulk Modulus (GPa) = 9.91812 35.45746 22.68779
# Shear Modulus (GPa) = 8.72099 26.78658 17.75378
#
# Velocity S-wave (km/s) = 1.87989 3.29465 2.68223
# Velocity P-wave (km/s) = 2.95485 5.37041 4.33431
#
# Compressibility (1/GPa) = 0.10082554
#
# Stress axis : x y z
#
# Youngs Moduli (GPa) = 49.29180 11.77314 120.16418
#
# Poissons Ratio (x) = -0.06396 0.12029
# Poissons Ratio (y) = -0.26779 1.29695
# Poissons Ratio (z) = 0.04934 0.12707
#
# Static dielectric constant tensor:
#      x y z
#    x 2.032050 0.000000 0.052720 
#    y 0.000000 1.915390 0.000000 
#    z 0.052720 0.000000 2.011040 
# 
# From -- ./inp_files/19055.got.cif
#   From: 2010.05.17/outbox.cif.g08.bks.cpg/sg11_10_cif.got.tgz:19055.got - 2010.06.03 12:22:45.
