data_PCOD9163015
_publ_section_title
;
Structure prediction by ZEFSAII (Michael W. Deem and Ramdas Pophale) SiO2 
 PCOD9163015
Probable space group: P 21/M
;
_chemical_formula_sum "Si O2"
_cell_formula_units_Z 26
_cell_length_a 14.024100
_cell_length_b 9.213092
_cell_length_c 9.393410
_cell_angle_alpha 90.000000
_cell_angle_beta 86.757613
_cell_angle_gamma 90.000000
_cell_volume 1211.735715
_symmetry_space_group_name_H-M "P 21/M"
_symmetry_group_IT_number 11
_symmetry_cell_setting 'monoclinic'
loop_
_space_group_symop_operation_xyz
x,y,z
-x,1/2+y,-z
-x,-y,-z
x,1/2-y,z
loop_
_atom_site_type_symbol
_atom_site_label
_atom_site_fract_x
_atom_site_fract_y
_atom_site_fract_z
Si Si1 0.804633 0.577380 0.096935
Si Si2 0.236151 0.590409 0.472090
Si Si3 0.736539 0.920810 0.797373
Si Si4 0.962287 0.750000 0.549427
Si Si5 0.535187 0.075570 0.851537
Si Si6 0.632190 0.421683 0.279990
Si Si7 0.940547 0.490354 0.324230
O O1 0.789343 0.750000 0.120995
O O2 0.714831 0.491932 0.174019
O O3 0.899321 0.532043 0.174156
O O4 0.801585 0.548368 0.929076
O O5 0.240478 0.750000 0.403256
O O6 0.223632 0.465008 0.359188
O O7 0.328786 0.567372 0.562369
O O8 0.147810 0.589896 0.587848
O O9 0.712864 0.750000 0.801974
O O10 0.641434 0.017690 0.818280
O O11 0.975157 0.623143 0.670882
O O12 0.960122 0.626500 0.422592
O O13 0.530446 0.250000 0.859611
O O14 0.463535 0.011479 0.739317
O O15 0.500000 0.000000 0.000000
O O16 0.620231 0.250000 0.248029
#
# Coordination Sequence:
#
# PCOD9163015 Si02
#       7
#     4   4   4   2   4   4   4
#     4  10  20  36  57  87 118 155 197 244 286 351
#     4  10  22  40  58  88 122 158 193 244 296 355
#     4  11  24  38  59  85 120 162 203 238 300 347
#     4  10  20  36  66  96 114 148 188 244 294 352
#     4  12  23  38  58  85 119 158 202 256 292 338
#     4  10  21  36  61  85 115 153 207 251 294 339
#     4  10  20  38  64  93 119 148 194 240 292 352
#
# _framework density 21.456826
#
# number of rings (size 3 to 8) (size 9 to 14) (size 15 to 20)
#    0.000    1.538    3.077    2.308    2.154    2.462 
#    0.000    0.000    0.000    5.538    0.000    0.000 
#    0.000    0.000    0.000    0.000    0.000    0.000 
#
# Total GULP energy -144756.085063 kJ/mol
# GULP energy per Si atom -5567.541733 kJ/mol
# Density = 2.140799 g / cm^3
# Si number density = 21.456826 Si / 1000 Ang^3
#
#
#
# Elastic Constant Matrix: (Units=GPa)
#
#
# Indices 1 2 3 4 5 6 
#
# 1 54.2732 29.7664 29.8255 0.0000 23.3982 0.0000
# 2 29.7664 172.1384 55.2029 0.0000 32.4166 0.0000
# 3 29.8255 55.2029 91.9482 0.0000 26.2233 0.0000
# 4 0.0000 0.0000 0.0000 31.8433 0.0000 -4.9087
# 5 23.3982 32.4166 26.2233 0.0000 36.7629 0.0000
# 6 0.0000 0.0000 0.0000 -4.9087 0.0000 -14.0242
#
#
#
# Elastic Compliance Matrix: (Units=1/GPa)
#
#
# Indices 1 2 3 4 5 6 
#
# 1 0.027073 -0.000707 -0.004546 0.000000 -0.013365 0.000000
# 2 -0.000707 0.007740 -0.003263 0.000000 -0.004047 0.000000
# 3 -0.004546 -0.003263 0.015898 0.000000 -0.005569 0.000000
# 4 0.000000 0.000000 0.000000 0.029796 0.000000 -0.010429
# 5 -0.013365 -0.004047 -0.005569 0.000000 0.043249 0.000000
# 6 0.000000 0.000000 0.000000 -0.010429 0.000000 -0.067655
#
#
# Mechanical properties :
#
#
# Convention : Reuss Voigt Hill
#
# Bulk Modulus (GPa) = 29.69191 60.88324 45.28757
# Shear Modulus (GPa) = 59.26972 24.48738 41.87855
#
# Velocity S-wave (km/s) = 5.26144 3.38189 4.42266
# Velocity P-wave (km/s) = 7.12589 6.60953 6.87256
#
# Compressibility (1/GPa) = 0.03367921
#
# Stress axis : x y z
#
# Youngs Moduli (GPa) = 36.93713 129.19473 62.90190
#
# Poissons Ratio (x) = 0.09132 0.28593
# Poissons Ratio (y) = 0.02611 0.20527
# Poissons Ratio (z) = 0.16790 0.42162
#
# Static dielectric constant tensor:
#      x y z
#    x 1.866730 0.000000 0.006700 
#    y 0.000000 1.734340 0.000000 
#    z 0.006700 0.000000 1.780850 
# 
# From -- ./inp_files/23957.got.cif
#   From: 2010.05.17/outbox.cif.g08.bks.cpg/sg11_12_cif.got.tgz:23957.got - 2010.06.03 12:22:45.
