data_PCOD9163844
_publ_section_title
;
Structure prediction by ZEFSAII (Michael W. Deem and Ramdas Pophale) SiO2 
 PCOD9163844
Probable space group: P 21/M
;
_chemical_formula_sum "Si O2"
_cell_formula_units_Z 18
_cell_length_a 7.621831
_cell_length_b 18.494652
_cell_length_c 7.056030
_cell_angle_alpha 90.000000
_cell_angle_beta 138.424873
_cell_angle_gamma 90.000000
_cell_volume 660.044580
_symmetry_space_group_name_H-M "P 21/M"
_symmetry_group_IT_number 11
_symmetry_cell_setting 'monoclinic'
loop_
_space_group_symop_operation_xyz
x,y,z
-x,1/2+y,-z
-x,-y,-z
x,1/2-y,z
loop_
_atom_site_type_symbol
_atom_site_label
_atom_site_fract_x
_atom_site_fract_y
_atom_site_fract_z
Si Si1 0.159593 0.872698 0.845389
Si Si2 0.205490 0.250000 0.410300
Si Si3 0.089642 0.904583 0.363020
Si Si4 0.440913 0.250000 0.965076
Si Si5 0.590680 0.510615 0.854762
Si Si6 0.331395 0.750000 0.467947
O O1 0.039991 0.905014 0.553039
O O2 0.944177 0.822001 0.769161
O O3 0.279396 0.932901 0.078534
O O4 0.393123 0.820813 0.959013
O O5 0.188654 0.250000 0.626905
O O6 0.508197 0.250000 0.596614
O O7 0.173978 0.823918 0.372564
O O8 0.826873 0.931778 0.049390
O O9 0.337171 0.959616 0.540382
O O10 0.433578 0.250000 0.183676
O O11 0.500000 0.500000 0.000000
#
# Coordination Sequence:
#
# PCOD9163844 Si02
#       6
#     4   2   4   2   4   2
#     4   9  20  37  59  99 125 166 229 266 325 404
#     4  11  23  41  67  95 131 179 220 277 330 386
#     4  10  22  39  66  97 130 180 214 277 337 394
#     4   9  21  39  66  89 129 178 213 274 333 387
#     4  10  20  37  67  99 131 172 223 273 335 398
#     4  10  24  46  61 100 136 169 231 273 327 405
#
# _framework density 27.270883999999999
#
# number of rings (size 3 to 8) (size 9 to 14) (size 15 to 20)
#    0.000    2.222    0.000    3.333   12.444    0.889 
#    8.000    2.222    0.000    0.000    0.000    0.000 
#    0.000    0.000    0.000    0.000    0.000    0.000 
#
# Total GULP energy -100995.564109 kJ/mol
# GULP energy per Si atom -5610.864673 kJ/mol
# Density = 2.720881 g / cm^3
# Si number density = 27.270884 Si / 1000 Ang^3
#
#
#
# Elastic Constant Matrix: (Units=GPa)
#
#
# Indices 1 2 3 4 5 6 
#
# 1 75.6001 20.9290 25.0708 0.0000 2.2856 0.0000
# 2 20.9290 142.1135 22.0990 0.0000 26.2497 0.0000
# 3 25.0708 22.0990 103.2320 0.0000 6.1951 0.0000
# 4 0.0000 0.0000 0.0000 37.3396 0.0000 15.5973
# 5 2.2856 26.2497 6.1951 0.0000 50.9848 0.0000
# 6 0.0000 0.0000 0.0000 15.5973 0.0000 25.0854
#
#
#
# Elastic Compliance Matrix: (Units=1/GPa)
#
#
# Indices 1 2 3 4 5 6 
#
# 1 0.014780 -0.001793 -0.003245 0.000000 0.000655 0.000000
# 2 -0.001793 0.008211 -0.001081 0.000000 -0.004015 0.000000
# 3 -0.003245 -0.001081 0.010743 0.000000 -0.000603 0.000000
# 4 0.000000 0.000000 0.000000 0.036177 0.000000 -0.022494
# 5 0.000655 -0.004015 -0.000603 0.000000 0.021725 0.000000
# 6 0.000000 0.000000 0.000000 -0.022494 0.000000 0.053850
#
#
# Mechanical properties :
#
#
# Convention : Reuss Voigt Hill
#
# Bulk Modulus (GPa) = 46.52256 50.79368 48.65812
# Shear Modulus (GPa) = 30.32344 39.53841 34.93092
#
# Velocity S-wave (km/s) = 3.33819 3.81181 3.58283
# Velocity P-wave (km/s) = 5.65283 6.16759 5.91581
#
# Compressibility (1/GPa) = 0.02149495
#
# Stress axis : x y z
#
# Youngs Moduli (GPa) = 67.65820 121.79508 93.08702
#
# Poissons Ratio (x) = 0.21838 0.30206
# Poissons Ratio (y) = 0.12131 0.10065
# Poissons Ratio (z) = 0.21955 0.13169
#
# Static dielectric constant tensor:
#      x y z
#    x 2.113870 0.000000 -0.043970 
#    y 0.000000 2.122010 0.000000 
#    z -0.043970 0.000000 2.086890 
# 
# From -- ./inp_files/1713.got.cif
#   From: 2010.05.17/outbox.cif.g08.bks.cpg/sg11_1_cif.got.tgz:1713.got - 2010.06.03 12:22:45.
