data_PCOD9163717
_publ_section_title
;
Structure prediction by ZEFSAII (Michael W. Deem and Ramdas Pophale) SiO2 
 PCOD9163717
Probable space group: P 21/M
;
_chemical_formula_sum "Si O2"
_cell_formula_units_Z 28
_cell_length_a 11.304934
_cell_length_b 8.049457
_cell_length_c 15.076322
_cell_angle_alpha 90.000000
_cell_angle_beta 110.593485
_cell_angle_gamma 90.000000
_cell_volume 1284.257323
_symmetry_space_group_name_H-M "P 21/M"
_symmetry_group_IT_number 11
_symmetry_cell_setting 'monoclinic'
loop_
_space_group_symop_operation_xyz
x,y,z
-x,1/2+y,-z
-x,-y,-z
x,1/2-y,z
loop_
_atom_site_type_symbol
_atom_site_label
_atom_site_fract_x
_atom_site_fract_y
_atom_site_fract_z
Si Si1 0.405513 0.552821 0.553454
Si Si2 0.887204 0.556682 0.536939
Si Si3 0.872319 0.449610 0.916464
Si Si4 0.255369 0.451074 0.840869
Si Si5 0.440725 0.551752 0.755960
Si Si6 0.032612 0.549549 0.246490
Si Si7 0.628263 0.943068 0.950679
O O1 0.500000 0.500000 0.500000
O O2 0.415527 0.750000 0.560145
O O3 0.255243 0.516160 0.507595
O O4 0.452727 0.482644 0.660711
O O5 0.872187 0.750000 0.516124
O O6 0.930203 0.524073 0.649418
O O7 0.000000 0.500000 0.500000
O O8 0.855179 0.250000 0.918510
O O9 0.881520 0.495220 0.815010
O O10 0.760890 0.544549 0.935549
O O11 0.000000 0.500000 0.000000
O O12 0.261085 0.250000 0.842276
O O13 0.302881 0.518806 0.759766
O O14 0.110491 0.498960 0.816479
O O15 0.343752 0.515814 0.944629
O O16 0.463716 0.750000 0.758622
O O17 0.531855 0.477282 0.855436
O O18 0.035568 0.750000 0.255827
O O19 0.593594 0.750000 0.954880
#
# Coordination Sequence:
#
# PCOD9163717 Si02
#       7
#     4   4   4   4   4   4   4
#     4  11  25  46  68  97 132 171 220 276 333 392
#     4  12  26  45  70  99 129 171 220 277 338 394
#     4  11  22  38  60  89 124 164 206 252 309 372
#     4  10  20  37  61  89 126 164 200 246 306 368
#     4  10  23  40  62  89 122 160 205 255 307 368
#     4  10  22  40  62  92 127 164 207 260 316 376
#     4  10  21  39  59  87 126 163 202 252 303 364
#
# _framework density 21.802482999999999
#
# number of rings (size 3 to 8) (size 9 to 14) (size 15 to 20)
#    0.000    1.429    1.429    3.429    2.000    6.286 
#    0.000    0.000    0.000    0.000    0.000    0.000 
#    0.000    0.000    0.000    0.000    0.000    0.000 
#
# Total GULP energy -156384.689436 kJ/mol
# GULP energy per Si atom -5585.167480 kJ/mol
# Density = 2.175286 g / cm^3
# Si number density = 21.802483 Si / 1000 Ang^3
#
#
#
# Elastic Constant Matrix: (Units=GPa)
#
#
# Indices 1 2 3 4 5 6 
#
# 1 117.9654 5.4140 56.9120 0.0000 -22.5729 0.0000
# 2 5.4140 34.9746 9.5182 0.0000 -2.7705 0.0000
# 3 56.9120 9.5182 133.7251 0.0000 -23.5851 0.0000
# 4 0.0000 0.0000 0.0000 16.4639 0.0000 -6.4926
# 5 -22.5729 -2.7705 -23.5851 0.0000 42.8269 0.0000
# 6 0.0000 0.0000 0.0000 -6.4926 0.0000 33.7520
#
#
#
# Elastic Compliance Matrix: (Units=1/GPa)
#
#
# Indices 1 2 3 4 5 6 
#
# 1 0.011154 -0.000329 -0.004088 0.000000 0.003607 0.000000
# 2 -0.000329 0.029193 -0.001811 0.000000 0.000718 0.000000
# 3 -0.004088 -0.001811 0.009908 0.000000 0.003185 0.000000
# 4 0.000000 0.000000 0.000000 0.065725 0.000000 0.012643
# 5 0.003607 0.000718 0.003185 0.000000 0.027051 0.000000
# 6 0.000000 0.000000 0.000000 0.012643 0.000000 0.032060
#
#
# Mechanical properties :
#
#
# Convention : Reuss Voigt Hill
#
# Bulk Modulus (GPa) = 26.45479 47.81704 37.13592
# Shear Modulus (GPa) = 24.98165 32.92996 28.95580
#
# Velocity S-wave (km/s) = 3.38866 3.89057 3.64826
# Velocity P-wave (km/s) = 5.24127 6.49320 5.90053
#
# Compressibility (1/GPa) = 0.03780033
#
# Stress axis : x y z
#
# Youngs Moduli (GPa) = 89.65079 34.25495 100.92486
#
# Poissons Ratio (x) = 0.01125 0.41255
# Poissons Ratio (y) = 0.02945 0.18282
# Poissons Ratio (z) = 0.36646 0.06205
#
# Static dielectric constant tensor:
#      x y z
#    x 1.976810 0.000000 0.001700 
#    y 0.000000 1.776500 0.000000 
#    z 0.001700 0.000000 1.832210 
# 
# From -- ./inp_files/49477.got.cif
#   From: 2010.05.17/outbox.cif.g08.bks.cpg/sg11_25_cif.got.tgz:49477.got - 2010.06.03 12:22:45.
