data_PCOD9163467
_publ_section_title
;
Structure prediction by ZEFSAII (Michael W. Deem and Ramdas Pophale) SiO2 
 PCOD9163467
Probable space group: P 21/M
;
_chemical_formula_sum "Si O2"
_cell_formula_units_Z 24
_cell_length_a 16.548657
_cell_length_b 14.865670
_cell_length_c 8.028050
_cell_angle_alpha 90.000000
_cell_angle_beta 34.390400
_cell_angle_gamma 90.000000
_cell_volume 1115.511630
_symmetry_space_group_name_H-M "P 21/M"
_symmetry_group_IT_number 11
_symmetry_cell_setting 'monoclinic'
loop_
_space_group_symop_operation_xyz
x,y,z
-x,1/2+y,-z
-x,-y,-z
x,1/2-y,z
loop_
_atom_site_type_symbol
_atom_site_label
_atom_site_fract_x
_atom_site_fract_y
_atom_site_fract_z
Si Si1 0.413357 0.447313 0.791601
Si Si2 0.743464 0.250000 0.219837
Si Si3 0.568806 0.750000 0.376358
Si Si4 0.080659 0.750000 0.380323
Si Si5 0.684010 0.067569 0.519539
Si Si6 0.175149 0.560446 0.354996
Si Si7 0.854135 0.750000 0.041292
Si Si8 0.083062 0.049922 0.005412
O O1 0.500000 0.500000 0.500000
O O2 0.392570 0.343715 0.778006
O O3 0.515911 0.445590 0.779223
O O4 0.267185 0.497162 0.081050
O O5 0.605055 0.250000 0.328524
O O6 0.727236 0.161984 0.360825
O O7 0.890658 0.250000 0.865859
O O8 0.681403 0.750000 0.337123
O O9 0.158282 0.660272 0.312967
O O10 0.924158 0.750000 0.734389
O O11 0.741922 0.064879 0.608441
O O12 0.760605 0.990769 0.277999
O O13 0.013972 0.528362 0.669859
O O14 0.910769 0.657490 0.023203
O O15 0.000000 0.000000 0.000000
#
# Coordination Sequence:
#
# PCOD9163467 Si02
#       8
#     4   2   2   2   4   4   2   4
#     4  11  22  37  58  83 116 152 192 241 286 340
#     4  10  21  37  58  85 116 148 194 243 285 339
#     4  10  22  37  53  81 115 149 185 236 289 336
#     4  10  21  35  56  83 108 145 191 236 288 340
#     4  10  20  37  58  83 113 152 192 236 288 343
#     4  10  20  37  57  81 112 149 191 237 288 345
#     4  10  20  37  57  81 117 152 188 237 292 345
#     4   9  20  36  57  84 113 149 192 236 286 344
#
# _framework density 21.514792
#
# number of rings (size 3 to 8) (size 9 to 14) (size 15 to 20)
#    0.000    2.000    0.000    4.000    0.000    3.333 
#    0.000    7.500    0.000    2.000    0.000    0.000 
#    0.000    0.000    0.000    0.000    0.000    0.000 
#
# Total GULP energy -133957.716272 kJ/mol
# GULP energy per Si atom -5581.571511 kJ/mol
# Density = 2.146582 g / cm^3
# Si number density = 21.514792 Si / 1000 Ang^3
#
#
#
# Elastic Constant Matrix: (Units=GPa)
#
#
# Indices 1 2 3 4 5 6 
#
# 1 64.0645 -0.6342 4.4154 0.0000 -5.4624 0.0000
# 2 -0.6342 140.7089 59.0689 0.0000 3.3660 0.0000
# 3 4.4154 59.0689 70.9915 0.0000 7.2502 0.0000
# 4 0.0000 0.0000 0.0000 35.8387 0.0000 -0.0478
# 5 -5.4624 3.3660 7.2502 0.0000 30.3584 0.0000
# 6 0.0000 0.0000 0.0000 -0.0478 0.0000 14.5894
#
#
#
# Elastic Compliance Matrix: (Units=1/GPa)
#
#
# Indices 1 2 3 4 5 6 
#
# 1 0.016038 0.000850 -0.002040 0.000000 0.003279 0.000000
# 2 0.000850 0.010996 -0.009320 0.000000 0.001160 0.000000
# 3 -0.002040 -0.009320 0.022447 0.000000 -0.004695 0.000000
# 4 0.000000 0.000000 0.000000 0.027903 0.000000 0.000092
# 5 0.003279 0.001160 -0.004695 0.000000 0.034522 0.000000
# 6 0.000000 0.000000 0.000000 0.000092 0.000000 0.068543
#
#
# Mechanical properties :
#
#
# Convention : Reuss Voigt Hill
#
# Bulk Modulus (GPa) = 35.13549 44.60722 39.87135
# Shear Modulus (GPa) = 23.70164 30.35162 27.02663
#
# Velocity S-wave (km/s) = 3.32270 3.76005 3.54812
# Velocity P-wave (km/s) = 5.57555 6.29515 5.94625
#
# Compressibility (1/GPa) = 0.02846125
#
# Stress axis : x y z
#
# Youngs Moduli (GPa) = 62.35267 90.94604 44.54859
#
# Poissons Ratio (x) = -0.07731 0.09086
# Poissons Ratio (y) = -0.05300 0.41520
# Poissons Ratio (z) = 0.12718 0.84763
#
# Static dielectric constant tensor:
#      x y z
#    x 1.829710 0.000000 -0.024040 
#    y 0.000000 1.733830 0.000000 
#    z -0.024040 0.000000 1.805140 
# 
# From -- ./inp_files/12517.got.cif
#   From: 2010.05.17/outbox.cif.g08.bks.cpg/sg11_7_cif.got.tgz:12517.got - 2010.06.03 12:22:45.
