data_PCOD9163455
_publ_section_title
;
Structure prediction by ZEFSAII (Michael W. Deem and Ramdas Pophale) SiO2 
 PCOD9163455
Probable space group: P 21/M
;
_chemical_formula_sum "Si O2"
_cell_formula_units_Z 24
_cell_length_a 15.137492
_cell_length_b 13.869677
_cell_length_c 8.793870
_cell_angle_alpha 90.000000
_cell_angle_beta 137.451684
_cell_angle_gamma 90.000000
_cell_volume 1248.484031
_symmetry_space_group_name_H-M "P 21/M"
_symmetry_group_IT_number 11
_symmetry_cell_setting 'monoclinic'
loop_
_space_group_symop_operation_xyz
x,y,z
-x,1/2+y,-z
-x,-y,-z
x,1/2-y,z
loop_
_atom_site_type_symbol
_atom_site_label
_atom_site_fract_x
_atom_site_fract_y
_atom_site_fract_z
Si Si1 0.907308 0.635710 0.943557
Si Si2 0.265755 0.134241 0.572484
Si Si3 0.822540 0.138603 0.590980
Si Si4 0.697666 0.977926 0.869198
Si Si5 0.149845 0.978170 0.658008
Si Si6 0.417099 0.523260 0.600816
O O1 0.912961 0.750000 0.975818
O O2 0.054644 0.597815 0.155866
O O3 0.846606 0.621651 0.699487
O O4 0.805808 0.594106 0.938282
O O5 0.282876 0.250000 0.621291
O O6 0.218153 0.069090 0.655050
O O7 0.390275 0.080703 0.649024
O O8 0.813969 0.250000 0.612133
O O9 0.851060 0.112754 0.453946
O O10 0.683386 0.092202 0.444205
O O11 0.636490 0.024076 0.640129
O O12 0.566321 0.943040 0.788339
O O13 0.773642 0.040467 0.089145
O O14 0.000000 0.000000 0.500000
#
# Coordination Sequence:
#
# PCOD9163455 Si02
#       6
#     4   4   4   4   4   4
#     4   9  18  34  57  80 110 149 188 223 262 324
#     4   9  20  36  56  81 109 146 188 222 270 331
#     4  10  21  37  55  82 113 147 185 225 273 323
#     4  10  20  37  56  83 111 143 186 223 277 323
#     4  11  22  34  56  83 113 143 176 231 280 321
#     4   9  21  38  60  79 108 150 186 224 266 328
#
# _framework density 19.223314999999999
#
# number of rings (size 3 to 8) (size 9 to 14) (size 15 to 20)
#    0.000    2.333    1.667    0.000    2.333    6.667 
#    0.000    5.833    0.000    0.000    0.000    0.000 
#    0.000    0.000    0.000    0.000    0.000    0.000 
#
# Total GULP energy -133607.762394 kJ/mol
# GULP energy per Si atom -5566.990100 kJ/mol
# Density = 1.917956 g / cm^3
# Si number density = 19.223315 Si / 1000 Ang^3
#
#
#
# Elastic Constant Matrix: (Units=GPa)
#
#
# Indices 1 2 3 4 5 6 
#
# 1 65.6521 -10.2997 4.2270 0.0000 15.1040 0.0000
# 2 -10.2997 48.8044 -11.3058 0.0000 3.7027 0.0000
# 3 4.2270 -11.3058 37.7502 0.0000 10.7352 0.0000
# 4 0.0000 0.0000 0.0000 19.9474 0.0000 -5.2642
# 5 15.1040 3.7027 10.7352 0.0000 32.3831 0.0000
# 6 0.0000 0.0000 0.0000 -5.2642 0.0000 0.4861
#
#
#
# Elastic Compliance Matrix: (Units=1/GPa)
#
#
# Indices 1 2 3 4 5 6 
#
# 1 0.018140 0.005101 0.002284 0.000000 -0.009801 0.000000
# 2 0.005101 0.024272 0.009014 0.000000 -0.008143 0.000000
# 3 0.002284 0.009014 0.032603 0.000000 -0.012904 0.000000
# 4 0.000000 0.000000 0.000000 -0.026985 0.000000 -0.292218
# 5 -0.009801 -0.008143 -0.012904 0.000000 0.040660 0.000000
# 6 0.000000 0.000000 0.000000 -0.292218 0.000000 -1.107297
#
#
# Mechanical properties :
#
#
# Convention : Reuss Voigt Hill
#
# Bulk Modulus (GPa) = 9.27543 13.04996 11.16269
# Shear Modulus (GPa) = -4.92385 21.86900 8.47258
#
# Velocity S-wave (km/s) = -1.60217 3.37653 2.10167
# Velocity P-wave (km/s) = 1.18868 4.69091 3.42181
#
# Compressibility (1/GPa) = 0.10781176
#
# Stress axis : x y z
#
# Youngs Moduli (GPa) = 55.12728 41.19925 30.67175
#
# Poissons Ratio (x) = -0.21015 -0.07004
# Poissons Ratio (y) = -0.28120 -0.27647
# Poissons Ratio (z) = -0.12589 -0.37136
#
# Static dielectric constant tensor:
#      x y z
#    x 1.727580 0.000000 0.013350 
#    y 0.000000 1.716760 0.000000 
#    z 0.013350 0.000000 1.708700 
# 
# From -- ./inp_files/22010.got.cif
#   From: 2010.05.17/outbox.cif.g08.bks.cpg/sg11_12_cif.got.tgz:22010.got - 2010.06.03 12:22:45.
