data_PCOD9163871
_publ_section_title
;
Structure prediction by ZEFSAII (Michael W. Deem and Ramdas Pophale) SiO2 
 PCOD9163871
Probable space group: P 21/M
;
_chemical_formula_sum "Si O2"
_cell_formula_units_Z 20
_cell_length_a 7.549917
_cell_length_b 13.546869
_cell_length_c 9.579989
_cell_angle_alpha 90.000000
_cell_angle_beta 97.081805
_cell_angle_gamma 90.000000
_cell_volume 972.344684
_symmetry_space_group_name_H-M "P 21/M"
_symmetry_group_IT_number 11
_symmetry_cell_setting 'monoclinic'
loop_
_space_group_symop_operation_xyz
x,y,z
-x,1/2+y,-z
-x,-y,-z
x,1/2-y,z
loop_
_atom_site_type_symbol
_atom_site_label
_atom_site_fract_x
_atom_site_fract_y
_atom_site_fract_z
Si Si1 0.134512 0.362790 0.084223
Si Si2 0.457279 0.860357 0.206603
Si Si3 0.256547 0.939514 0.939480
Si Si4 0.211518 0.041484 0.671224
Si Si5 0.804397 0.504108 0.656240
O O1 0.188091 0.250000 0.059981
O O2 0.919896 0.374274 0.052592
O O3 0.184826 0.398361 0.246085
O O4 0.209398 0.451253 0.994931
O O5 0.392888 0.750000 0.218287
O O6 0.415602 0.894946 0.044945
O O7 0.662893 0.869641 0.269638
O O8 0.342928 0.933298 0.292284
O O9 0.284774 0.952812 0.777369
O O10 0.001146 0.046043 0.684516
O O11 0.230450 0.024429 0.508953
#
# Coordination Sequence:
#
# PCOD9163871 Si02
#       5
#     4   4   4   4   4
#     4   9  17  33  57  81 110 151 190 229 283 336
#     4  11  22  36  57  84 115 150 186 228 281 338
#     4   9  19  34  54  82 115 146 186 237 279 330
#     4  10  20  38  59  79 110 151 187 231 283 327
#     4   9  21  39  58  82 114 148 188 235 277 330
#
# _framework density 20.568836999999998
#
# number of rings (size 3 to 8) (size 9 to 14) (size 15 to 20)
#    0.000    2.400    0.000    3.000    0.000    2.400 
#    0.000    9.000    0.000   10.800    0.000    0.000 
#    0.000    0.000    0.000    0.000    0.000    0.000 
#
# Total GULP energy -111622.320855 kJ/mol
# GULP energy per Si atom -5581.116043 kJ/mol
# Density = 2.052202 g / cm^3
# Si number density = 20.568837 Si / 1000 Ang^3
#
#
#
# Elastic Constant Matrix: (Units=GPa)
#
#
# Indices 1 2 3 4 5 6 
#
# 1 55.8943 16.6351 17.0639 0.0000 19.8352 0.0000
# 2 16.6351 99.7337 1.2423 0.0000 11.4343 0.0000
# 3 17.0639 1.2423 111.4010 0.0000 25.7693 0.0000
# 4 0.0000 0.0000 0.0000 5.9447 0.0000 6.0889
# 5 19.8352 11.4343 25.7693 0.0000 28.2634 0.0000
# 6 0.0000 0.0000 0.0000 6.0889 0.0000 17.4003
#
#
#
# Elastic Compliance Matrix: (Units=1/GPa)
#
#
# Indices 1 2 3 4 5 6 
#
# 1 0.024275 -0.002193 0.000053 0.000000 -0.016198 0.000000
# 2 -0.002193 0.010820 0.001105 0.000000 -0.003846 0.000000
# 3 0.000053 0.001105 0.011492 0.000000 -0.010962 0.000000
# 4 0.000000 0.000000 0.000000 0.262194 0.000000 -0.091751
# 5 -0.016198 -0.003846 -0.010962 0.000000 0.058299 0.000000
# 6 0.000000 0.000000 0.000000 -0.091751 0.000000 0.089577
#
#
# Mechanical properties :
#
#
# Convention : Reuss Voigt Hill
#
# Bulk Modulus (GPa) = 22.46342 37.43463 29.94902
# Shear Modulus (GPa) = 10.55819 25.79419 18.17619
#
# Velocity S-wave (km/s) = 2.26809 3.54509 2.97589
# Velocity P-wave (km/s) = 4.21945 5.91575 5.13809
#
# Compressibility (1/GPa) = 0.04451683
#
# Stress axis : x y z
#
# Youngs Moduli (GPa) = 41.19402 92.42509 87.01818
#
# Poissons Ratio (x) = 0.20266 -0.00460
# Poissons Ratio (y) = 0.09032 -0.09614
# Poissons Ratio (z) = -0.00218 -0.10211
#
# Static dielectric constant tensor:
#      x y z
#    x 1.783360 0.000000 -0.005990 
#    y 0.000000 1.707440 0.000000 
#    z -0.005990 0.000000 1.759940 
# 
# From -- ./inp_files/12130.got.cif
#   From: 2010.05.17/outbox.cif.g08.bks.cpg/sg11_7_cif.got.tgz:12130.got - 2010.06.03 12:22:45.
