data_PCOD9163667
_publ_section_title
;
Structure prediction by ZEFSAII (Michael W. Deem and Ramdas Pophale) SiO2 
 PCOD9163667
Probable space group: P 21/M
;
_chemical_formula_sum "Si O2"
_cell_formula_units_Z 28
_cell_length_a 12.934874
_cell_length_b 8.809451
_cell_length_c 15.983169
_cell_angle_alpha 90.000000
_cell_angle_beta 55.026752
_cell_angle_gamma 90.000000
_cell_volume 1492.383274
_symmetry_space_group_name_H-M "P 21/M"
_symmetry_group_IT_number 11
_symmetry_cell_setting 'monoclinic'
loop_
_space_group_symop_operation_xyz
x,y,z
-x,1/2+y,-z
-x,-y,-z
x,1/2-y,z
loop_
_atom_site_type_symbol
_atom_site_label
_atom_site_fract_x
_atom_site_fract_y
_atom_site_fract_z
Si Si1 0.553802 0.931888 0.789841
Si Si2 0.974026 0.431746 0.277694
Si Si3 0.773816 0.068827 0.780085
Si Si4 0.526902 0.068816 0.359791
Si Si5 0.935245 0.931197 0.949094
Si Si6 0.295503 0.070049 0.591347
Si Si7 0.669029 0.932285 0.001280
O O1 0.561516 0.750000 0.793280
O O2 0.499580 0.971020 0.723673
O O3 0.690271 0.003854 0.743408
O O4 0.457051 0.997551 0.902898
O O5 0.987014 0.250000 0.276410
O O6 0.083444 0.508071 0.281983
O O7 0.000843 0.478488 0.168442
O O8 0.834465 0.484488 0.364940
O O9 0.771212 0.250000 0.782423
O O10 0.707723 0.002630 0.894560
O O11 0.550204 0.250000 0.354508
O O12 0.401403 0.035771 0.472287
O O13 0.642282 0.983418 0.350231
O O14 0.946141 0.750000 0.948969
O O15 0.787035 0.967856 0.007864
O O16 0.000000 0.000000 0.000000
O O17 0.273709 0.250000 0.602574
O O18 0.658718 0.750000 0.997857
#
# Coordination Sequence:
#
# PCOD9163667 Si02
#       7
#     4   4   4   4   4   4   4
#     4  11  22  37  58  82 112 150 189 233 280 328
#     4  10  21  38  58  81 111 149 186 226 280 337
#     4  11  22  38  58  83 112 147 190 233 277 332
#     4   9  21  39  58  84 115 147 186 231 280 333
#     4   9  20  34  50  75 110 144 180 224 268 322
#     4  10  20  37  61  86 113 146 186 231 280 335
#     4  10  21  37  54  79 113 151 189 228 276 329
#
# _framework density 18.761937
#
# number of rings (size 3 to 8) (size 9 to 14) (size 15 to 20)
#    0.000    2.000    0.000    4.286    2.000    5.143 
#    0.000    0.714    0.000    0.000    0.000    0.000 
#    0.000    0.000    0.000    0.000    0.000    0.000 
#
# Total GULP energy -156415.990333 kJ/mol
# GULP energy per Si atom -5586.285369 kJ/mol
# Density = 1.871923 g / cm^3
# Si number density = 18.761937 Si / 1000 Ang^3
#
#
#
# Elastic Constant Matrix: (Units=GPa)
#
#
# Indices 1 2 3 4 5 6 
#
# 1 87.2233 42.6994 19.4210 0.0000 -11.1099 0.0000
# 2 42.6994 72.2105 18.5829 0.0000 -6.6464 0.0000
# 3 19.4210 18.5829 22.4200 0.0000 -7.6199 0.0000
# 4 0.0000 0.0000 0.0000 22.6454 0.0000 -2.2464
# 5 -11.1099 -6.6464 -7.6199 0.0000 23.8117 0.0000
# 6 0.0000 0.0000 0.0000 -2.2464 0.0000 38.8264
#
#
#
# Elastic Compliance Matrix: (Units=1/GPa)
#
#
# Indices 1 2 3 4 5 6 
#
# 1 0.017529 -0.008187 -0.007175 0.000000 0.003597 0.000000
# 2 -0.008187 0.021429 -0.011147 0.000000 -0.001406 0.000000
# 3 -0.007175 -0.011147 0.064924 0.000000 0.014317 0.000000
# 4 0.000000 0.000000 0.000000 0.044414 0.000000 0.002570
# 5 0.003597 -0.001406 0.014317 0.000000 0.047864 0.000000
# 6 0.000000 0.000000 0.000000 0.002570 0.000000 0.025904
#
#
# Mechanical properties :
#
#
# Convention : Reuss Voigt Hill
#
# Bulk Modulus (GPa) = 19.66114 38.14006 28.90060
# Shear Modulus (GPa) = 17.12112 23.80006 20.46059
#
# Velocity S-wave (km/s) = 3.02411 3.56551 3.30591
# Velocity P-wave (km/s) = 4.76400 6.10925 5.47808
#
# Compressibility (1/GPa) = 0.05086175
#
# Stress axis : x y z
#
# Youngs Moduli (GPa) = 57.04918 46.66566 15.40271
#
# Poissons Ratio (x) = 0.38207 0.11052
# Poissons Ratio (y) = 0.46709 0.17170
# Poissons Ratio (z) = 0.40934 0.52019
#
# Static dielectric constant tensor:
#      x y z
#    x 1.659240 0.000000 -0.001800 
#    y 0.000000 1.623280 0.000000 
#    z -0.001800 0.000000 1.639310 
# 
# From -- ./inp_files/49129.got.cif
#   From: 2010.05.17/outbox.cif.g08.bks.cpg/sg11_25_cif.got.tgz:49129.got - 2010.06.03 12:22:45.
