data_PCOD9163131
_publ_section_title
;
Structure prediction by ZEFSAII (Michael W. Deem and Ramdas Pophale) SiO2 
 PCOD9163131
Probable space group: P 21/M
;
_chemical_formula_sum "Si O2"
_cell_formula_units_Z 32
_cell_length_a 27.396349
_cell_length_b 7.874847
_cell_length_c 21.312169
_cell_angle_alpha 90.000000
_cell_angle_beta 20.123105
_cell_angle_gamma 90.000000
_cell_volume 1581.864720
_symmetry_space_group_name_H-M "P 21/M"
_symmetry_group_IT_number 11
_symmetry_cell_setting 'monoclinic'
loop_
_space_group_symop_operation_xyz
x,y,z
-x,1/2+y,-z
-x,-y,-z
x,1/2-y,z
loop_
_atom_site_type_symbol
_atom_site_label
_atom_site_fract_x
_atom_site_fract_y
_atom_site_fract_z
Si Si1 0.019211 0.458405 0.236530
Si Si2 0.466420 0.457752 0.840502
Si Si3 0.220343 0.950350 0.567833
Si Si4 0.338921 0.042917 0.861619
Si Si5 0.568176 0.047142 0.483811
Si Si6 0.223595 0.045057 0.220234
Si Si7 0.033235 0.952994 0.559146
Si Si8 0.847948 0.946596 0.210130
O O1 0.020751 0.250000 0.233517
O O2 0.911435 0.519058 0.313262
O O3 0.970066 0.513196 0.365380
O O4 0.182049 0.513140 0.031574
O O5 0.470447 0.250000 0.836138
O O6 0.626899 0.520332 0.638015
O O7 0.378236 0.506397 0.884842
O O8 0.375597 0.511973 0.010477
O O9 0.226258 0.750000 0.546850
O O10 0.195483 0.966025 0.672120
O O11 0.339091 0.250000 0.860052
O O12 0.461492 0.984517 0.666806
O O13 0.577312 0.250000 0.477388
O O14 0.500000 0.000000 0.500000
O O15 0.724497 0.977542 0.308400
O O16 0.221900 0.250000 0.220564
O O17 0.101054 0.982942 0.319675
O O18 0.172813 0.992173 0.350310
O O19 0.017429 0.750000 0.581184
O O20 0.854563 0.750000 0.217192
O O21 0.000000 0.000000 0.000000
#
# Coordination Sequence:
#
# PCOD9163131 Si02
#       8
#     4   4   4   4   4   4   4   4
#     4   9  17  30  52  81 110 143 182 227 278 335
#     4   9  15  29  52  77 104 140 184 227 272 332
#     4  10  20  36  59  84 110 142 187 234 280 341
#     4   9  16  30  54  81 108 141 183 229 272 326
#     4  11  23  40  63  92 123 153 192 240 290 344
#     4   9  16  27  48  72 100 139 181 223 273 329
#     4   9  16  28  46  72 104 136 177 227 275 327
#     4  12  26  44  63  85 117 157 196 237 291 351
#
# _framework density 20.229289999999999
#
# number of rings (size 3 to 8) (size 9 to 14) (size 15 to 20)
#    0.000    2.250    2.500    1.500    1.750    0.000 
#    0.000    1.875    0.000    1.500    0.000    0.000 
#    0.000    0.000    0.000    0.000    0.000    0.000 
#
# Total GULP energy -178587.917797 kJ/mol
# GULP energy per Si atom -5580.872431 kJ/mol
# Density = 2.018325 g / cm^3
# Si number density = 20.229290 Si / 1000 Ang^3
#
#
#
# Elastic Constant Matrix: (Units=GPa)
#
#
# Indices 1 2 3 4 5 6 
#
# 1 64.0143 -7.8694 41.2919 0.0000 -17.3131 0.0000
# 2 -7.8694 14.9141 -2.2613 0.0000 -4.2202 0.0000
# 3 41.2919 -2.2613 164.5236 0.0000 -12.3688 0.0000
# 4 0.0000 0.0000 0.0000 16.1926 0.0000 5.5777
# 5 -17.3131 -4.2202 -12.3688 0.0000 35.0963 0.0000
# 6 0.0000 0.0000 0.0000 5.5777 0.0000 16.6720
#
#
#
# Elastic Compliance Matrix: (Units=1/GPa)
#
#
# Indices 1 2 3 4 5 6 
#
# 1 0.023853 0.015205 -0.004885 0.000000 0.011874 0.000000
# 2 0.015205 0.079530 -0.001479 0.000000 0.016543 0.000000
# 3 -0.004885 -0.001479 0.007282 0.000000 -0.000021 0.000000
# 4 0.000000 0.000000 0.000000 0.069801 0.000000 -0.023352
# 5 0.011874 0.016543 -0.000021 0.000000 0.036332 0.000000
# 6 0.000000 0.000000 0.000000 -0.023352 0.000000 0.067794
#
#
# Mechanical properties :
#
#
# Convention : Reuss Voigt Hill
#
# Bulk Modulus (GPa) = 7.79138 33.97493 20.88316
# Shear Modulus (GPa) = 16.14504 27.74488 21.94496
#
# Velocity S-wave (km/s) = 2.82814 3.70742 3.29722
# Velocity P-wave (km/s) = 3.81108 5.92942 4.98409
#
# Compressibility (1/GPa) = 0.12834703
#
# Stress axis : x y z
#
# Youngs Moduli (GPa) = 41.92348 12.57384 137.32025
#
# Poissons Ratio (x) = -0.19119 0.67080
# Poissons Ratio (y) = -0.63745 0.20315
# Poissons Ratio (z) = 0.20479 0.01860
#
# Static dielectric constant tensor:
#      x y z
#    x 1.455120 0.000000 -0.129710 
#    y 0.000000 1.742240 0.000000 
#    z -0.129710 0.000000 1.651690 
# 
# From -- ./inp_files/66938.got.cif
#   From: 2010.05.17/outbox.cif.g08.bks.cpg/sg11_34_cif.got.tgz:66938.got - 2010.06.03 12:22:45.
