data_PCOD9163245
_publ_section_title
;
Structure prediction by ZEFSAII (Michael W. Deem and Ramdas Pophale) SiO2 
 PCOD9163245
Probable space group: P 21/M
;
_chemical_formula_sum "Si O2"
_cell_formula_units_Z 32
_cell_length_a 15.635531
_cell_length_b 11.427934
_cell_length_c 7.395897
_cell_angle_alpha 90.000000
_cell_angle_beta 79.949612
_cell_angle_gamma 90.000000
_cell_volume 1301.233253
_symmetry_space_group_name_H-M "P 21/M"
_symmetry_group_IT_number 11
_symmetry_cell_setting 'monoclinic'
loop_
_space_group_symop_operation_xyz
x,y,z
-x,1/2+y,-z
-x,-y,-z
x,1/2-y,z
loop_
_atom_site_type_symbol
_atom_site_label
_atom_site_fract_x
_atom_site_fract_y
_atom_site_fract_z
Si Si1 0.567343 0.877758 0.107551
Si Si2 0.423949 0.570218 0.428948
Si Si3 0.341320 0.373814 0.271354
Si Si4 0.161966 0.121660 0.123708
Si Si5 0.131345 0.376026 0.708551
Si Si6 0.843238 0.121711 0.254653
Si Si7 0.072143 0.879533 0.145823
Si Si8 0.653179 0.374008 0.178351
O O1 0.607341 0.750000 0.148027
O O2 0.473841 0.878754 0.237791
O O3 0.616380 0.999981 0.131096
O O4 0.573222 0.875895 0.888544
O O5 0.500000 0.500000 0.500000
O O6 0.349461 0.482770 0.394536
O O7 0.382705 0.639531 0.606002
O O8 0.342749 0.250000 0.370312
O O9 0.257565 0.379587 0.175356
O O10 0.122507 0.250000 0.188787
O O11 0.114721 0.001063 0.194991
O O12 0.164830 0.122722 0.904064
O O13 0.158679 0.250000 0.616716
O O14 0.156804 0.504147 0.626402
O O15 0.027293 0.376644 0.757108
O O16 0.846350 0.250000 0.343079
O O17 0.756851 0.118580 0.161980
O O18 0.920519 0.115204 0.077165
O O19 0.109936 0.750000 0.180810
O O20 0.632852 0.250000 0.087498
#
# Coordination Sequence:
#
# PCOD9163245 Si02
#       8
#     4   4   4   4   4   4   4   4
#     4  10  20  36  60  86 108 137 180 229 282 337
#     4  10  22  38  55  76 105 145 186 227 275 331
#     4  10  21  37  58  84 112 142 183 236 288 333
#     4   9  16  27  45  71 102 135 170 211 261 316
#     4   9  16  26  44  74 111 143 174 215 263 317
#     4   9  16  26  42  66  99 137 174 210 254 307
#     4   9  16  26  43  73 111 146 175 211 263 318
#     4  10  21  36  54  80 114 149 184 225 274 333
#
# _framework density 24.592054999999998
#
# number of rings (size 3 to 8) (size 9 to 14) (size 15 to 20)
#    0.000    2.500    0.000    3.750    0.000    7.000 
#    0.000    2.500    0.000    0.000    0.000    3.500 
#    0.000    4.000    0.000    0.000    0.000    0.000 
#
# Total GULP energy -178374.789085 kJ/mol
# GULP energy per Si atom -5574.212159 kJ/mol
# Density = 2.453608 g / cm^3
# Si number density = 24.592055 Si / 1000 Ang^3
#
#
#
# Elastic Constant Matrix: (Units=GPa)
#
#
# Indices 1 2 3 4 5 6 
#
# 1 55.5998 39.0467 9.9048 0.0000 -10.5630 0.0000
# 2 39.0467 300.6852 20.2637 0.0000 2.8500 0.0000
# 3 9.9048 20.2637 35.1107 0.0000 -3.4771 0.0000
# 4 0.0000 0.0000 0.0000 -7.7384 0.0000 8.2365
# 5 -10.5630 2.8500 -3.4771 0.0000 21.2925 0.0000
# 6 0.0000 0.0000 0.0000 8.2365 0.0000 -30.4606
#
#
#
# Elastic Compliance Matrix: (Units=1/GPa)
#
#
# Indices 1 2 3 4 5 6 
#
# 1 0.022711 -0.002805 -0.003695 0.000000 0.011039 0.000000
# 2 -0.002805 0.003820 -0.001628 0.000000 -0.002169 0.000000
# 3 -0.003695 -0.001628 0.030802 0.000000 0.003415 0.000000
# 4 0.000000 0.000000 0.000000 -0.181448 0.000000 -0.049063
# 5 0.011039 -0.002169 0.003415 0.000000 0.053289 0.000000
# 6 0.000000 0.000000 0.000000 -0.049063 0.000000 -0.046096
#
#
# Mechanical properties :
#
#
# Convention : Reuss Voigt Hill
#
# Bulk Modulus (GPa) = 24.34464 58.86955 41.60710
# Shear Modulus (GPa) = -57.48861 18.09740 -19.69560
#
# Velocity S-wave (km/s) = -4.84021 2.71570 -2.83308
# Velocity P-wave (km/s) = 4.61692 5.81582 2.50078
#
# Compressibility (1/GPa) = 0.04107680
#
# Stress axis : x y z
#
# Youngs Moduli (GPa) = 44.03191 261.76211 32.46581
#
# Poissons Ratio (x) = 0.73420 0.11995
# Poissons Ratio (y) = 0.12350 0.05287
# Poissons Ratio (z) = 0.16269 0.42624
#
# Static dielectric constant tensor:
#      x y z
#    x 1.937980 0.000000 -0.035120 
#    y 0.000000 2.021650 0.000000 
#    z -0.035120 0.000000 1.923900 
# 
# From -- ./inp_files/21535.got.cif
#   From: 2010.05.17/outbox.cif.g08.bks.cpg/sg11_11_cif.got.tgz:21535.got - 2010.06.03 12:22:45.
