data_PCOD9163204
_publ_section_title
;
Structure prediction by ZEFSAII (Michael W. Deem and Ramdas Pophale) SiO2 
 PCOD9163204
Probable space group: P 21/M
;
_chemical_formula_sum "Si O2"
_cell_formula_units_Z 28
_cell_length_a 12.294798
_cell_length_b 8.183943
_cell_length_c 15.435602
_cell_angle_alpha 90.000000
_cell_angle_beta 118.493637
_cell_angle_gamma 90.000000
_cell_volume 1364.998752
_symmetry_space_group_name_H-M "P 21/M"
_symmetry_group_IT_number 11
_symmetry_cell_setting 'monoclinic'
loop_
_space_group_symop_operation_xyz
x,y,z
-x,1/2+y,-z
-x,-y,-z
x,1/2-y,z
loop_
_atom_site_type_symbol
_atom_site_label
_atom_site_fract_x
_atom_site_fract_y
_atom_site_fract_z
Si Si1 0.744616 0.941064 0.680401
Si Si2 0.875405 0.553244 0.003361
Si Si3 0.991004 0.552703 0.221267
Si Si4 0.084083 0.052118 0.613799
Si Si5 0.370631 0.054029 0.186049
Si Si6 0.391419 0.937724 0.521109
Si Si7 0.637482 0.937996 0.301520
O O1 0.720995 0.750000 0.653501
O O2 0.656529 0.998079 0.724902
O O3 0.726070 0.042688 0.586013
O O4 0.883893 0.967573 0.762928
O O5 0.872649 0.750000 0.996285
O O6 0.889369 0.510613 0.110217
O O7 0.745924 0.491171 0.913970
O O8 0.000000 0.500000 0.000000
O O9 0.006291 0.750000 0.225679
O O10 0.965885 0.502585 0.310594
O O11 0.087331 0.250000 0.612477
O O12 0.226253 0.989739 0.663738
O O13 0.000000 0.000000 0.500000
O O14 0.363155 0.250000 0.183664
O O15 0.510480 0.009146 0.214320
O O16 0.411046 0.750000 0.553995
O O17 0.500000 0.000000 0.500000
O O18 0.377365 0.043939 0.600742
O O19 0.641650 0.750000 0.276752
#
# Coordination Sequence:
#
# PCOD9163204 Si02
#       7
#     4   4   4   4   4   4   4
#     4  11  21  34  54  84 120 151 188 237 290 349
#     4  10  20  36  59  87 119 155 194 242 294 350
#     4  10  21  38  61  86 116 155 199 244 295 348
#     4  10  23  42  62  87 116 154 200 245 291 347
#     4  10  21  36  55  83 119 154 189 235 293 351
#     4  12  23  35  53  80 113 148 189 233 289 353
#     4  11  23  39  59  83 116 155 197 244 294 347
#
# _framework density 20.512839
#
# number of rings (size 3 to 8) (size 9 to 14) (size 15 to 20)
#    0.000    1.429    2.857    3.000    0.000    5.143 
#    0.000    0.714    0.000    0.000    0.000    0.000 
#    0.000    0.000    0.000    0.000    0.000    0.000 
#
# Total GULP energy -156276.802621 kJ/mol
# GULP energy per Si atom -5581.314379 kJ/mol
# Density = 2.046615 g / cm^3
# Si number density = 20.512839 Si / 1000 Ang^3
#
#
#
# Elastic Constant Matrix: (Units=GPa)
#
#
# Indices 1 2 3 4 5 6 
#
# 1 108.4933 4.8075 38.8726 0.0000 19.1826 0.0000
# 2 4.8075 14.1592 11.7856 0.0000 1.7707 0.0000
# 3 38.8726 11.7856 127.8265 0.0000 21.5174 0.0000
# 4 0.0000 0.0000 0.0000 24.0568 0.0000 8.0288
# 5 19.1826 1.7707 21.5174 0.0000 37.5238 0.0000
# 6 0.0000 0.0000 0.0000 8.0288 0.0000 20.8241
#
#
#
# Elastic Compliance Matrix: (Units=1/GPa)
#
#
# Indices 1 2 3 4 5 6 
#
# 1 0.010890 -0.001085 -0.002527 0.000000 -0.004067 0.000000
# 2 -0.001085 0.076612 -0.006883 0.000000 0.000886 0.000000
# 3 -0.002527 -0.006883 0.009911 0.000000 -0.004067 0.000000
# 4 0.000000 0.000000 0.000000 0.047707 0.000000 -0.018393
# 5 -0.004067 0.000886 -0.004067 0.000000 0.031019 0.000000
# 6 0.000000 0.000000 0.000000 -0.018393 0.000000 0.055113
#
#
# Mechanical properties :
#
#
# Convention : Reuss Voigt Hill
#
# Bulk Modulus (GPa) = 13.08524 40.15671 26.62098
# Shear Modulus (GPa) = 18.00405 29.48182 23.74293
#
# Velocity S-wave (km/s) = 2.96581 3.79520 3.40585
# Velocity P-wave (km/s) = 4.25687 6.23086 5.33594
#
# Compressibility (1/GPa) = 0.07642197
#
# Stress axis : x y z
#
# Youngs Moduli (GPa) = 91.83001 13.05280 100.90117
#
# Poissons Ratio (x) = 0.01417 0.25497
# Poissons Ratio (y) = 0.09968 0.69448
# Poissons Ratio (z) = 0.23205 0.08984
#
# Static dielectric constant tensor:
#      x y z
#    x 1.757400 0.000000 0.055930 
#    y 0.000000 1.762810 0.000000 
#    z 0.055930 0.000000 1.782830 
# 
# From -- ./inp_files/37667.got.cif
#   From: 2010.05.17/outbox.cif.g08.bks.cpg/sg11_19_cif.got.tgz:37667.got - 2010.06.03 12:22:45.
