data_PCOD9163583
_publ_section_title
;
Structure prediction by ZEFSAII (Michael W. Deem and Ramdas Pophale) SiO2 
 PCOD9163583
Probable space group: P 21/M
;
_chemical_formula_sum "Si O2"
_cell_formula_units_Z 28
_cell_length_a 20.413893
_cell_length_b 7.678026
_cell_length_c 23.622227
_cell_angle_alpha 90.000000
_cell_angle_beta 20.016651
_cell_angle_gamma 90.000000
_cell_volume 1267.344092
_symmetry_space_group_name_H-M "P 21/M"
_symmetry_group_IT_number 11
_symmetry_cell_setting 'monoclinic'
loop_
_space_group_symop_operation_xyz
x,y,z
-x,1/2+y,-z
-x,-y,-z
x,1/2-y,z
loop_
_atom_site_type_symbol
_atom_site_label
_atom_site_fract_x
_atom_site_fract_y
_atom_site_fract_z
Si Si1 0.048918 0.963199 0.108110
Si Si2 0.390679 0.040508 0.531145
Si Si3 0.282595 0.953325 0.433037
Si Si4 0.096715 0.960642 0.195521
Si Si5 0.833456 0.054720 0.592691
Si Si6 0.620343 0.451005 0.236712
Si Si7 0.529400 0.458205 0.041697
O O1 0.049844 0.750000 0.104848
O O2 0.134414 0.011206 0.100049
O O3 0.828558 0.022071 0.286793
O O4 0.183785 0.027249 0.947735
O O5 0.376936 0.250000 0.534833
O O6 0.512909 0.970799 0.378493
O O7 0.500000 0.000000 0.500000
O O8 0.334661 0.750000 0.383163
O O9 0.208481 0.032797 0.433736
O O10 0.465608 0.043879 0.311731
O O11 0.105877 0.968315 0.619465
O O12 0.083763 0.750000 0.207942
O O13 0.265899 0.015322 0.100161
O O14 0.887552 0.250000 0.532945
O O15 0.638318 0.043926 0.786046
O O16 0.000000 0.000000 0.500000
O O17 0.662089 0.250000 0.217379
O O18 0.514838 0.250000 0.061153
O O19 0.500000 0.500000 0.000000
#
# Coordination Sequence:
#
# PCOD9163583 Si02
#       7
#     4   4   4   4   4   4   4
#     4   9  18  36  61  88 114 149 201 247 284 346
#     4  10  21  38  60  88 122 157 196 243 295 356
#     4  11  23  37  57  87 120 151 191 250 307 351
#     4  10  20  37  60  84 112 153 200 241 291 361
#     4  11  24  40  57  81 116 156 201 252 307 367
#     4  10  20  38  64  87 115 158 202 243 293 358
#     4  11  23  38  59  85 115 154 200 250 306 366
#
# _framework density 22.093449
#
# number of rings (size 3 to 8) (size 9 to 14) (size 15 to 20)
#    0.000    1.714    1.429    3.000    0.000    8.000 
#    0.000    1.429    0.000    0.000    0.000    0.000 
#    0.000    0.000    0.000    0.000    0.000    0.000 
#
# Total GULP energy -156434.572327 kJ/mol
# GULP energy per Si atom -5586.949012 kJ/mol
# Density = 2.204316 g / cm^3
# Si number density = 22.093449 Si / 1000 Ang^3
#
#
#
# Elastic Constant Matrix: (Units=GPa)
#
#
# Indices 1 2 3 4 5 6 
#
# 1 132.7386 -3.6902 64.1334 0.0000 9.1745 0.0000
# 2 -3.6902 39.2157 -8.1809 0.0000 0.3874 0.0000
# 3 64.1334 -8.1809 154.7530 0.0000 20.4651 0.0000
# 4 0.0000 0.0000 0.0000 11.6985 0.0000 -4.8979
# 5 9.1745 0.3874 20.4651 0.0000 33.9274 0.0000
# 6 0.0000 0.0000 0.0000 -4.8979 0.0000 23.7799
#
#
#
# Elastic Compliance Matrix: (Units=1/GPa)
#
#
# Indices 1 2 3 4 5 6 
#
# 1 0.009421 0.000081 -0.003872 0.000000 -0.000213 0.000000
# 2 0.000081 0.025831 0.001493 0.000000 -0.001217 0.000000
# 3 -0.003872 0.001493 0.008704 0.000000 -0.004220 0.000000
# 4 0.000000 0.000000 0.000000 0.093548 0.000000 0.019268
# 5 -0.000213 -0.001217 -0.004220 0.000000 0.032092 0.000000
# 6 0.000000 0.000000 0.000000 0.019268 0.000000 0.046021
#
#
# Mechanical properties :
#
#
# Convention : Reuss Voigt Hill
#
# Bulk Modulus (GPa) = 25.40658 47.91463 36.66060
# Shear Modulus (GPa) = 21.42863 32.17749 26.80306
#
# Velocity S-wave (km/s) = 3.11771 3.82046 3.48683
# Velocity P-wave (km/s) = 4.94821 6.41837 5.73063
#
# Compressibility (1/GPa) = 0.03935989
#
# Stress axis : x y z
#
# Youngs Moduli (GPa) = 106.14192 38.71301 114.89561
#
# Poissons Ratio (x) = -0.00313 0.44487
# Poissons Ratio (y) = -0.00859 -0.17154
# Poissons Ratio (z) = 0.41098 -0.05780
#
# Static dielectric constant tensor:
#      x y z
#    x 1.819620 0.000000 0.013060 
#    y 0.000000 1.842090 0.000000 
#    z 0.013060 0.000000 1.786120 
# 
# From -- ./inp_files/66728.got.cif
#   From: 2010.05.17/outbox.cif.g08.bks.cpg/sg11_34_cif.got.tgz:66728.got - 2010.06.03 12:22:45.
