data_PCOD9163188
_publ_section_title
;
Structure prediction by ZEFSAII (Michael W. Deem and Ramdas Pophale) SiO2 
 PCOD9163188
Probable space group: P 21/M
;
_chemical_formula_sum "Si O2"
_cell_formula_units_Z 32
_cell_length_a 12.165954
_cell_length_b 8.330772
_cell_length_c 15.590817
_cell_angle_alpha 90.000000
_cell_angle_beta 91.959914
_cell_angle_gamma 90.000000
_cell_volume 1579.232801
_symmetry_space_group_name_H-M "P 21/M"
_symmetry_group_IT_number 11
_symmetry_cell_setting 'monoclinic'
loop_
_space_group_symop_operation_xyz
x,y,z
-x,1/2+y,-z
-x,-y,-z
x,1/2-y,z
loop_
_atom_site_type_symbol
_atom_site_label
_atom_site_fract_x
_atom_site_fract_y
_atom_site_fract_z
Si Si1 0.332984 0.445937 0.892520
Si Si2 0.830978 0.556092 0.553615
Si Si3 0.892584 0.556737 0.193143
Si Si4 0.483682 0.558910 0.234537
Si Si5 0.324479 0.054883 0.082997
Si Si6 0.941278 0.943405 0.379643
Si Si7 0.420003 0.058202 0.421342
Si Si8 0.073042 0.440263 0.080522
O O1 0.334596 0.250000 0.892905
O O2 0.208836 0.497627 0.868035
O O3 0.410184 0.499748 0.816645
O O4 0.366965 0.495541 0.989433
O O5 0.828148 0.750000 0.554089
O O6 0.873914 0.500388 0.461094
O O7 0.707258 0.499325 0.571145
O O8 0.932626 0.502794 0.616036
O O9 0.894901 0.750000 0.188331
O O10 0.880059 0.508822 0.291304
O O11 0.007405 0.492096 0.162407
O O12 0.493069 0.750000 0.244606
O O13 0.386495 0.516954 0.165741
O O14 0.464419 0.489082 0.328411
O O15 0.330898 0.250000 0.088329
O O16 0.197637 0.002103 0.082114
O O17 0.944730 0.750000 0.383355
O O18 0.416497 0.250000 0.426359
O O19 0.500000 0.000000 0.500000
O O20 0.078437 0.250000 0.074687
O O21 0.000000 0.500000 0.000000
#
# Coordination Sequence:
#
# PCOD9163188 Si02
#       8
#     4   4   4   4   4   4   4   4
#     4   9  19  38  62  86 118 160 201 247 302 353
#     4   9  20  39  61  84 116 154 191 236 296 353
#     4  10  20  36  59  86 118 154 195 242 295 353
#     4  11  24  40  64  92 118 156 204 248 296 356
#     4  10  21  40  62  85 121 161 198 246 301 353
#     4   9  19  35  61  90 114 148 192 241 290 349
#     4  11  25  44  65  89 121 159 198 246 300 355
#     4  11  22  37  58  84 118 157 195 238 293 350
#
# _framework density 20.263003000000001
#
# number of rings (size 3 to 8) (size 9 to 14) (size 15 to 20)
#    0.000    2.000    1.250    1.500    3.500    2.500 
#    0.000    1.875    0.000    0.000    0.000    0.000 
#    0.000    0.000    0.000    0.000    0.000    0.000 
#
# Total GULP energy -178587.664119 kJ/mol
# GULP energy per Si atom -5580.864504 kJ/mol
# Density = 2.021688 g / cm^3
# Si number density = 20.263003 Si / 1000 Ang^3
#
#
#
# Elastic Constant Matrix: (Units=GPa)
#
#
# Indices 1 2 3 4 5 6 
#
# 1 117.6371 10.4774 54.0330 0.0000 -12.6253 0.0000
# 2 10.4774 12.5250 17.4675 0.0000 -0.4955 0.0000
# 3 54.0330 17.4675 134.2338 0.0000 -1.7639 0.0000
# 4 0.0000 0.0000 0.0000 29.5865 0.0000 1.8350
# 5 -12.6253 -0.4955 -1.7639 0.0000 27.4187 0.0000
# 6 0.0000 0.0000 0.0000 1.8350 0.0000 26.2089
#
#
#
# Elastic Compliance Matrix: (Units=1/GPa)
#
#
# Indices 1 2 3 4 5 6 
#
# 1 0.011158 -0.003626 -0.003956 0.000000 0.004818 0.000000
# 2 -0.003626 0.098745 -0.011398 0.000000 -0.000618 0.000000
# 3 -0.003956 -0.011398 0.010508 0.000000 -0.001352 0.000000
# 4 0.000000 0.000000 0.000000 0.033947 0.000000 -0.002377
# 5 0.004818 -0.000618 -0.001352 0.000000 0.038592 0.000000
# 6 0.000000 0.000000 0.000000 -0.002377 0.000000 0.038321
#
#
# Mechanical properties :
#
#
# Convention : Reuss Voigt Hill
#
# Bulk Modulus (GPa) = 12.12854 47.59464 29.86159
# Shear Modulus (GPa) = 16.85126 28.80403 22.82764
#
# Velocity S-wave (km/s) = 2.88692 3.77438 3.36008
# Velocity P-wave (km/s) = 4.13654 6.52181 5.46100
#
# Compressibility (1/GPa) = 0.08245017
#
# Stress axis : x y z
#
# Youngs Moduli (GPa) = 89.62264 10.12711 95.16882
#
# Poissons Ratio (x) = 0.03672 0.37651
# Poissons Ratio (y) = 0.32495 1.08474
# Poissons Ratio (z) = 0.35457 0.11543
#
# Static dielectric constant tensor:
#      x y z
#    x 1.729130 0.000000 -0.017180 
#    y 0.000000 1.710960 0.000000 
#    z -0.017180 0.000000 1.725990 
# 
# From -- ./inp_files/49332.got.cif
#   From: 2010.05.17/outbox.cif.g08.bks.cpg/sg11_25_cif.got.tgz:49332.got - 2010.06.03 12:22:45.
