data_PCOD9163594
_publ_section_title
;
Structure prediction by ZEFSAII (Michael W. Deem and Ramdas Pophale) SiO2 
 PCOD9163594
Probable space group: P 21/M
;
_chemical_formula_sum "Si O2"
_cell_formula_units_Z 24
_cell_length_a 15.236111
_cell_length_b 9.352961
_cell_length_c 9.490841
_cell_angle_alpha 90.000000
_cell_angle_beta 80.237271
_cell_angle_gamma 90.000000
_cell_volume 1332.885033
_symmetry_space_group_name_H-M "P 21/M"
_symmetry_group_IT_number 11
_symmetry_cell_setting 'monoclinic'
loop_
_space_group_symop_operation_xyz
x,y,z
-x,1/2+y,-z
-x,-y,-z
x,1/2-y,z
loop_
_atom_site_type_symbol
_atom_site_label
_atom_site_fract_x
_atom_site_fract_y
_atom_site_fract_z
Si Si1 0.257851 0.421682 0.013238
Si Si2 0.552532 0.912992 0.601387
Si Si3 0.743829 0.923407 0.657998
Si Si4 0.563904 0.086626 0.085873
Si Si5 0.079557 0.422979 0.561052
Si Si6 0.922869 0.578990 0.106640
O O1 0.273962 0.250000 0.005342
O O2 0.245125 0.464262 0.181011
O O3 0.342815 0.505119 0.931737
O O4 0.170824 0.451949 0.944335
O O5 0.566809 0.750000 0.547818
O O6 0.649043 0.972571 0.621528
O O7 0.489041 0.909429 0.753956
O O8 0.500000 0.000000 0.500000
O O9 0.740449 0.750000 0.659020
O O10 0.827448 0.964829 0.539071
O O11 0.577038 0.250000 0.033889
O O12 0.500000 0.000000 0.000000
O O13 0.070811 0.250000 0.551957
O O14 0.078737 0.459849 0.727342
O O15 0.000000 0.500000 0.500000
O O16 0.936842 0.750000 0.094452
O O17 0.000000 0.500000 0.000000
#
# Coordination Sequence:
#
# PCOD9163594 Si02
#       6
#     4   4   4   4   4   4
#     4  10  20  37  60  85 115 153 193 237 289 341
#     4  10  22  38  57  83 115 152 192 236 280 335
#     4   9  18  36  58  80 112 150 188 230 281 338
#     4  11  22  38  59  86 118 153 194 238 283 338
#     4  10  21  38  60  86 114 149 190 232 283 342
#     4  10  22  38  61  89 116 149 191 237 289 346
#
# _framework density 18.006055
#
# number of rings (size 3 to 8) (size 9 to 14) (size 15 to 20)
#    0.000    2.000    1.667    1.500    2.333    4.000 
#    0.000    1.667    0.000    0.000    0.000    0.000 
#    0.000    0.000    0.000    0.000    0.000    0.000 
#
# Total GULP energy -133937.402055 kJ/mol
# GULP energy per Si atom -5580.725086 kJ/mol
# Density = 1.796507 g / cm^3
# Si number density = 18.006055 Si / 1000 Ang^3
#
#
#
# Elastic Constant Matrix: (Units=GPa)
#
#
# Indices 1 2 3 4 5 6 
#
# 1 195.2875 65.9337 97.7220 0.0000 3.6973 0.0000
# 2 65.9337 51.2333 41.9590 0.0000 7.8490 0.0000
# 3 97.7220 41.9590 118.2084 0.0000 11.9456 0.0000
# 4 0.0000 0.0000 0.0000 28.4861 0.0000 -1.3597
# 5 3.6973 7.8490 11.9456 0.0000 39.8784 0.0000
# 6 0.0000 0.0000 0.0000 -1.3597 0.0000 35.1162
#
#
#
# Elastic Compliance Matrix: (Units=1/GPa)
#
#
# Indices 1 2 3 4 5 6 
#
# 1 0.011712 -0.010352 -0.006294 0.000000 0.002837 0.000000
# 2 -0.010352 0.036926 -0.004034 0.000000 -0.005100 0.000000
# 3 -0.006294 -0.004034 0.015422 0.000000 -0.003242 0.000000
# 4 0.000000 0.000000 0.000000 0.035170 0.000000 0.001362
# 5 0.002837 -0.005100 -0.003242 0.000000 0.026788 0.000000
# 6 0.000000 0.000000 0.000000 0.001362 0.000000 0.028530
#
#
# Mechanical properties :
#
#
# Convention : Reuss Voigt Hill
#
# Bulk Modulus (GPa) = 44.05298 86.21761 65.13530
# Shear Modulus (GPa) = 24.57324 31.30378 27.93851
#
# Velocity S-wave (km/s) = 3.69822 4.17407 3.94333
# Velocity P-wave (km/s) = 6.53870 8.43902 7.54889
#
# Compressibility (1/GPa) = 0.02269994
#
# Stress axis : x y z
#
# Youngs Moduli (GPa) = 85.38597 27.08147 64.84085
#
# Poissons Ratio (x) = 0.28034 0.40811
# Poissons Ratio (y) = 0.88390 0.26156
# Poissons Ratio (z) = 0.53742 0.10924
#
# Static dielectric constant tensor:
#      x y z
#    x 1.597250 0.000000 0.002980 
#    y 0.000000 1.610640 0.000000 
#    z 0.002980 0.000000 1.597650 
# 
# From -- ./inp_files/20318.got.cif
#   From: 2010.05.17/outbox.cif.g08.bks.cpg/sg11_11_cif.got.tgz:20318.got - 2010.06.03 12:22:45.
