data_PCOD9163735
_publ_section_title
;
Structure prediction by ZEFSAII (Michael W. Deem and Ramdas Pophale) SiO2 
 PCOD9163735
Probable space group: P 21/M
;
_chemical_formula_sum "Si O2"
_cell_formula_units_Z 26
_cell_length_a 12.342436
_cell_length_b 19.546696
_cell_length_c 5.071862
_cell_angle_alpha 90.000000
_cell_angle_beta 114.107623
_cell_angle_gamma 90.000000
_cell_volume 1116.883079
_symmetry_space_group_name_H-M "P 21/M"
_symmetry_group_IT_number 11
_symmetry_cell_setting 'monoclinic'
loop_
_space_group_symop_operation_xyz
x,y,z
-x,1/2+y,-z
-x,-y,-z
x,1/2-y,z
loop_
_atom_site_type_symbol
_atom_site_label
_atom_site_fract_x
_atom_site_fract_y
_atom_site_fract_z
Si Si1 0.065326 0.166566 0.504212
Si Si2 0.648893 0.250000 0.074299
Si Si3 0.798930 0.382408 0.292074
Si Si4 0.444482 0.055726 0.152198
Si Si5 0.211923 0.331943 0.145870
Si Si6 0.416973 0.324705 0.726853
Si Si7 0.687801 0.447153 0.668052
O O1 0.052360 0.250000 0.491074
O O2 0.937742 0.133937 0.427315
O O3 0.122016 0.144801 0.284497
O O4 0.158468 0.143979 0.819136
O O5 0.730297 0.311235 0.281725
O O6 0.556171 0.307761 0.853997
O O7 0.762020 0.438426 0.473678
O O8 0.756056 0.405673 0.960802
O O9 0.555195 0.076167 0.448434
O O10 0.343289 0.019391 0.225444
O O11 0.403785 0.116751 0.926041
O O12 0.500000 0.000000 0.000000
O O13 0.200984 0.250000 0.122232
O O14 0.344725 0.341471 0.392288
O O15 0.366839 0.250000 0.772776
#
# Coordination Sequence:
#
# PCOD9163735 Si02
#       7
#     4   2   4   4   4   4   4
#     4  10  20  37  62  86 124 166 213 252 317 375
#     4  10  20  38  56 102 130 158 194 264 332 356
#     4  12  22  40  60  96 129 164 202 270 310 375
#     4  11  21  42  64  91 130 176 208 245 319 403
#     4   9  19  38  57  88 117 166 207 251 311 371
#     4   9  19  40  64  95 130 155 205 273 309 375
#     4  11  23  38  61  88 125 167 213 240 311 387
#
# _framework density 23.279070000000001
#
# number of rings (size 3 to 8) (size 9 to 14) (size 15 to 20)
#    0.462    1.231    3.846    0.923    0.000    0.615 
#    9.692    0.000    0.000    5.538    0.000    0.000 
#    0.000    0.000    0.000    0.000    0.000    0.000 
#
# Total GULP energy -144766.648736 kJ/mol
# GULP energy per Si atom -5567.948028 kJ/mol
# Density = 2.322609 g / cm^3
# Si number density = 23.279070 Si / 1000 Ang^3
#
#
#
# Elastic Constant Matrix: (Units=GPa)
#
#
# Indices 1 2 3 4 5 6 
#
# 1 67.4141 26.4243 24.9990 0.0000 5.4629 0.0000
# 2 26.4243 72.4204 51.7578 0.0000 7.3541 0.0000
# 3 24.9990 51.7578 131.4783 0.0000 -0.1640 0.0000
# 4 0.0000 0.0000 0.0000 27.5278 0.0000 1.1613
# 5 5.4629 7.3541 -0.1640 0.0000 43.0601 0.0000
# 6 0.0000 0.0000 0.0000 1.1613 0.0000 13.1056
#
#
#
# Elastic Compliance Matrix: (Units=1/GPa)
#
#
# Indices 1 2 3 4 5 6 
#
# 1 0.017500 -0.005390 -0.001207 0.000000 -0.001304 0.000000
# 2 -0.005390 0.021358 -0.007387 0.000000 -0.002992 0.000000
# 3 -0.001207 -0.007387 0.010745 0.000000 0.001456 0.000000
# 4 0.000000 0.000000 0.000000 0.036463 0.000000 -0.003231
# 5 -0.001304 -0.002992 0.001456 0.000000 0.023905 0.000000
# 6 0.000000 0.000000 0.000000 -0.003231 0.000000 0.076590
#
#
# Mechanical properties :
#
#
# Convention : Reuss Voigt Hill
#
# Bulk Modulus (GPa) = 46.22143 53.07502 49.64823
# Shear Modulus (GPa) = 22.54890 27.94748 25.24819
#
# Velocity S-wave (km/s) = 3.11567 3.46864 3.29688
# Velocity P-wave (km/s) = 5.73076 6.23626 5.98885
#
# Compressibility (1/GPa) = 0.02163499
#
# Stress axis : x y z
#
# Youngs Moduli (GPa) = 57.14364 46.82110 93.06672
#
# Poissons Ratio (x) = 0.25237 0.11235
# Poissons Ratio (y) = 0.30801 0.68745
# Poissons Ratio (z) = 0.06898 0.34585
#
# Static dielectric constant tensor:
#      x y z
#    x 1.933750 0.000000 -0.041790 
#    y 0.000000 1.969720 0.000000 
#    z -0.041790 0.000000 1.821800 
# 
# From -- ./inp_files/7107.got.cif
#   From: 2010.05.17/outbox.cif.g08.bks.cpg/sg11_4_cif.got.tgz:7107.got - 2010.06.03 12:22:45.
