data_PCOD9163457
_publ_section_title
;
Structure prediction by ZEFSAII (Michael W. Deem and Ramdas Pophale) SiO2 
 PCOD9163457
Probable space group: P 21/M
;
_chemical_formula_sum "Si O2"
_cell_formula_units_Z 32
_cell_length_a 34.096330
_cell_length_b 8.822820
_cell_length_c 12.759213
_cell_angle_alpha 90.000000
_cell_angle_beta 151.400602
_cell_angle_gamma 90.000000
_cell_volume 1837.327661
_symmetry_space_group_name_H-M "P 21/M"
_symmetry_group_IT_number 11
_symmetry_cell_setting 'monoclinic'
loop_
_space_group_symop_operation_xyz
x,y,z
-x,1/2+y,-z
-x,-y,-z
x,1/2-y,z
loop_
_atom_site_type_symbol
_atom_site_label
_atom_site_fract_x
_atom_site_fract_y
_atom_site_fract_z
Si Si1 0.654442 0.568168 0.193488
Si Si2 0.996951 0.432141 0.313280
Si Si3 0.523488 0.068243 0.167925
Si Si4 0.181073 0.431633 0.806390
Si Si5 0.037645 0.569299 0.192263
Si Si6 0.178774 0.568267 0.020095
Si Si7 0.223451 0.931027 0.688295
Si Si8 0.690950 0.568118 0.521917
O O1 0.664215 0.750000 0.208759
O O2 0.708773 0.488783 0.233491
O O3 0.681552 0.525528 0.376400
O O4 0.557386 0.534001 0.953806
O O5 0.997474 0.250000 0.305324
O O6 0.085064 0.477661 0.566594
O O7 0.992465 0.503949 0.187920
O O8 0.916697 0.476080 0.189608
O O9 0.531567 0.250000 0.180499
O O10 0.610988 0.994319 0.395778
O O11 0.500000 0.000000 0.000000
O O12 0.185661 0.250000 0.820350
O O13 0.226880 0.493343 0.811006
O O14 0.209959 0.501486 0.983487
O O15 0.030771 0.750000 0.174176
O O16 0.133586 0.529194 0.431005
O O17 0.000000 0.500000 0.000000
O O18 0.184518 0.750000 0.032966
O O19 0.230296 0.502153 0.237593
O O20 0.227435 0.750000 0.708804
O O21 0.692413 0.750000 0.530418
#
# Coordination Sequence:
#
# PCOD9163457 Si02
#       8
#     4   4   4   4   4   4   4   4
#     4   9  19  34  54  80 109 139 174 213 257 315
#     4   9  20  36  53  75 101 136 179 221 266 313
#     4   9  17  32  53  78 108 141 174 212 261 315
#     4  10  20  37  57  75 102 139 180 223 267 313
#     4  10  21  34  49  71 103 141 176 217 263 311
#     4  11  22  35  54  79 108 138 176 225 268 314
#     4  10  21  35  53  77 103 136 179 219 260 311
#     4  10  21  35  52  80 112 142 177 214 264 319
#
# _framework density 17.416599999999999
#
# number of rings (size 3 to 8) (size 9 to 14) (size 15 to 20)
#    0.000    2.250    0.000    3.375    1.750    6.000 
#    0.000    0.000    0.000    0.750    0.000    0.000 
#    0.000    0.000    0.000    0.000    0.000    0.000 
#
# Total GULP energy -178505.254976 kJ/mol
# GULP energy per Si atom -5578.289218 kJ/mol
# Density = 1.737696 g / cm^3
# Si number density = 17.416600 Si / 1000 Ang^3
#
#
#
# Elastic Constant Matrix: (Units=GPa)
#
#
# Indices 1 2 3 4 5 6 
#
# 1 118.4666 38.2688 32.7059 0.0000 12.7442 0.0000
# 2 38.2688 30.9301 17.1221 0.0000 6.7379 0.0000
# 3 32.7059 17.1221 34.0876 0.0000 7.0852 0.0000
# 4 0.0000 0.0000 0.0000 28.2981 0.0000 0.1737
# 5 12.7442 6.7379 7.0852 0.0000 22.3667 0.0000
# 6 0.0000 0.0000 0.0000 0.1737 0.0000 30.7741
#
#
#
# Elastic Compliance Matrix: (Units=1/GPa)
#
#
# Indices 1 2 3 4 5 6 
#
# 1 0.015307 -0.014669 -0.006877 0.000000 -0.002124 0.000000
# 2 -0.014669 0.059833 -0.014955 0.000000 -0.004929 0.000000
# 3 -0.006877 -0.014955 0.044634 0.000000 -0.005716 0.000000
# 4 0.000000 0.000000 0.000000 0.035339 0.000000 -0.000200
# 5 -0.002124 -0.004929 -0.005716 0.000000 0.049215 0.000000
# 6 0.000000 0.000000 0.000000 -0.000200 0.000000 0.032496
#
#
# Mechanical properties :
#
#
# Convention : Reuss Voigt Hill
#
# Bulk Modulus (GPa) = 21.38017 39.96421 30.67219
# Shear Modulus (GPa) = 15.36495 22.64695 19.00595
#
# Velocity S-wave (km/s) = 2.97341 3.60989 3.30700
# Velocity P-wave (km/s) = 4.90822 6.35381 5.67722
#
# Compressibility (1/GPa) = 0.04677232
#
# Stress axis : x y z
#
# Youngs Moduli (GPa) = 65.33035 16.71319 22.40453
#
# Poissons Ratio (x) = 0.24517 0.15407
# Poissons Ratio (y) = 0.95834 0.33506
# Poissons Ratio (z) = 0.44925 0.24994
#
# Static dielectric constant tensor:
#      x y z
#    x 1.576850 0.000000 0.025480 
#    y 0.000000 1.575780 0.000000 
#    z 0.025480 0.000000 1.579190 
# 
# From -- ./inp_files/42859.got.cif
#   From: 2010.05.17/outbox.cif.g08.bks.cpg/sg11_22_cif.got.tgz:42859.got - 2010.06.03 12:22:45.
