data_PCOD9163323
_publ_section_title
;
Structure prediction by ZEFSAII (Michael W. Deem and Ramdas Pophale) SiO2 
 PCOD9163323
Probable space group: P 21/M
;
_chemical_formula_sum "Si O2"
_cell_formula_units_Z 30
_cell_length_a 14.375978
_cell_length_b 9.330942
_cell_length_c 12.102440
_cell_angle_alpha 90.000000
_cell_angle_beta 69.949936
_cell_angle_gamma 90.000000
_cell_volume 1525.047383
_symmetry_space_group_name_H-M "P 21/M"
_symmetry_group_IT_number 11
_symmetry_cell_setting 'monoclinic'
loop_
_space_group_symop_operation_xyz
x,y,z
-x,1/2+y,-z
-x,-y,-z
x,1/2-y,z
loop_
_atom_site_type_symbol
_atom_site_label
_atom_site_fract_x
_atom_site_fract_y
_atom_site_fract_z
Si Si1 0.218146 0.418828 0.270562
Si Si2 0.336759 0.080739 0.810282
Si Si3 0.009651 0.750000 0.469236
Si Si4 0.188406 0.582734 0.724494
Si Si5 0.714308 0.420199 0.556329
Si Si6 0.603932 0.581748 0.962680
Si Si7 0.487584 0.076975 0.387030
Si Si8 0.996321 0.526745 0.676199
O O1 0.223122 0.250000 0.300127
O O2 0.212274 0.518150 0.381144
O O3 0.117281 0.441401 0.244565
O O4 0.315311 0.460075 0.162035
O O5 0.350037 0.250000 0.777690
O O6 0.345560 0.065385 0.938204
O O7 0.237713 0.019203 0.795076
O O8 0.424881 0.984793 0.723538
O O9 0.996080 0.627610 0.379903
O O10 0.019539 0.630808 0.564713
O O11 0.201974 0.750000 0.748677
O O12 0.246091 0.559773 0.583917
O O13 0.074924 0.552371 0.740944
O O14 0.697403 0.250000 0.579493
O O15 0.616697 0.515921 0.612745
O O16 0.582972 0.750000 0.954656
O O17 0.500000 0.500000 0.000000
O O18 0.489417 0.250000 0.393694
O O19 0.500000 0.000000 0.500000
#
# Coordination Sequence:
#
# PCOD9163323 Si02
#       8
#     4   4   2   4   4   4   4   4
#     4  11  23  40  64  93 126 169 215 266 318 375
#     4  11  24  42  65  90 124 167 214 263 320 378
#     4  10  20  36  60  90 128 176 204 258 314 374
#     4  11  23  38  59  90 130 171 205 252 316 382
#     4  11  23  36  58  91 130 162 204 256 315 379
#     4  10  24  46  69  94 122 164 216 269 321 373
#     4  12  23  39  58  87 122 158 202 253 314 384
#     4  11  22  38  60  91 132 169 217 257 316 374
#
# _framework density 19.671520000000001
#
# number of rings (size 3 to 8) (size 9 to 14) (size 15 to 20)
#    0.000    1.067    2.667    4.400    3.733    4.267 
#    0.000    0.667    0.000    0.000    0.000    0.000 
#    0.000    0.000    0.000    0.000    0.000    0.000 
#
# Total GULP energy -167115.214778 kJ/mol
# GULP energy per Si atom -5570.507159 kJ/mol
# Density = 1.962675 g / cm^3
# Si number density = 19.671520 Si / 1000 Ang^3
#
#
#
# Elastic Constant Matrix: (Units=GPa)
#
#
# Indices 1 2 3 4 5 6 
#
# 1 128.0447 41.1207 26.0589 0.0000 0.1000 0.0000
# 2 41.1207 156.5184 40.6152 0.0000 4.7636 0.0000
# 3 26.0589 40.6152 55.4694 0.0000 -1.2186 0.0000
# 4 0.0000 0.0000 0.0000 31.2487 0.0000 -28.6376
# 5 0.1000 4.7636 -1.2186 0.0000 22.2920 0.0000
# 6 0.0000 0.0000 0.0000 -28.6376 0.0000 124.4555
#
#
#
# Elastic Compliance Matrix: (Units=1/GPa)
#
#
# Indices 1 2 3 4 5 6 
#
# 1 0.008931 -0.001558 -0.003052 0.000000 0.000126 0.000000
# 2 -0.001558 0.008250 -0.005354 0.000000 -0.002049 0.000000
# 3 -0.003052 -0.005354 0.023435 0.000000 0.002439 0.000000
# 4 0.000000 0.000000 0.000000 0.040553 0.000000 0.009331
# 5 0.000126 -0.002049 0.002439 0.000000 0.045430 0.000000
# 6 0.000000 0.000000 0.000000 0.009331 0.000000 0.010182
#
#
# Mechanical properties :
#
#
# Convention : Reuss Voigt Hill
#
# Bulk Modulus (GPa) = 48.33577 61.73579 55.03578
# Shear Modulus (GPa) = 30.56130 51.08176 40.82153
#
# Velocity S-wave (km/s) = 3.94583 5.10135 4.56033
# Velocity P-wave (km/s) = 6.73678 8.13325 7.46773
#
# Compressibility (1/GPa) = 0.02068861
#
# Stress axis : x y z
#
# Youngs Moduli (GPa) = 111.96656 121.21217 42.67059
#
# Poissons Ratio (x) = 0.18888 0.13023
# Poissons Ratio (y) = 0.17448 0.22844
# Poissons Ratio (z) = 0.34173 0.64893
#
# Static dielectric constant tensor:
#      x y z
#    x 1.790620 0.000000 -0.015600 
#    y 0.000000 1.662130 0.000000 
#    z -0.015600 0.000000 1.674240 
# 
# From -- ./inp_files/38002.got.cif
#   From: 2010.05.17/outbox.cif.g08.bks.cpg/sg11_20_cif.got.tgz:38002.got - 2010.06.03 12:22:45.
