data_PCOD9163841
_publ_section_title
;
Structure prediction by ZEFSAII (Michael W. Deem and Ramdas Pophale) SiO2 
 PCOD9163841
Probable space group: P 21/M
;
_chemical_formula_sum "Si O2"
_cell_formula_units_Z 32
_cell_length_a 5.210257
_cell_length_b 21.715589
_cell_length_c 14.263626
_cell_angle_alpha 90.000000
_cell_angle_beta 126.223871
_cell_angle_gamma 90.000000
_cell_volume 1301.908290
_symmetry_space_group_name_H-M "P 21/M"
_symmetry_group_IT_number 11
_symmetry_cell_setting 'monoclinic'
loop_
_space_group_symop_operation_xyz
x,y,z
-x,1/2+y,-z
-x,-y,-z
x,1/2-y,z
loop_
_atom_site_type_symbol
_atom_site_label
_atom_site_fract_x
_atom_site_fract_y
_atom_site_fract_z
Si Si1 0.328152 0.922734 0.446351
Si Si2 0.126803 0.999576 0.903726
Si Si3 0.371215 0.588192 0.239355
Si Si4 0.244569 0.182709 0.423294
Si Si5 0.797229 0.319540 0.156936
Si Si6 0.682252 0.604201 0.843904
Si Si7 0.815085 0.817253 0.364937
Si Si8 0.154695 0.515740 0.699017
O O1 0.433210 0.928822 0.361567
O O2 0.594875 0.884401 0.560137
O O3 0.063708 0.868685 0.388754
O O4 0.141427 0.987441 0.424859
O O5 0.914920 0.952841 0.919886
O O6 0.053866 0.971245 0.783599
O O7 0.976606 0.067153 0.862064
O O8 0.500000 0.000000 0.000000
O O9 0.477067 0.658110 0.254696
O O10 0.608401 0.542440 0.237583
O O11 0.410760 0.250000 0.437639
O O12 0.186746 0.183656 0.522159
O O13 0.936377 0.184533 0.292748
O O14 0.722494 0.250000 0.109581
O O15 0.491310 0.362693 0.106170
O O16 0.087195 0.347777 0.158910
O O17 0.389652 0.571382 0.721783
O O18 0.889428 0.750000 0.344867
#
# Coordination Sequence:
#
# PCOD9163841 Si02
#       8
#     4   4   4   4   4   4   4   4
#     4   9  16  30  51  78 113 155 191 245 292 340
#     4  10  20  37  66  94 113 139 188 245 296 360
#     4   8  17  30  51  79 117 146 183 232 296 350
#     4   9  19  32  51  80 111 155 214 256 282 336
#     4  11  24  41  62  85 119 163 205 245 288 340
#     4  11  22  41  61  90 121 154 195 244 300 357
#     4   9  16  28  49  76 110 153 198 245 291 339
#     4   9  18  36  58  85 121 148 184 240 303 357
#
# _framework density 24.579305000000002
#
# number of rings (size 3 to 8) (size 9 to 14) (size 15 to 20)
#    0.000    2.500    1.250    0.750    1.750    2.500 
#    0.000    1.250    0.000    1.500    0.000    0.000 
#    0.000    0.000    0.000    0.000    0.000    0.000 
#
# Total GULP energy -178418.230736 kJ/mol
# GULP energy per Si atom -5575.569711 kJ/mol
# Density = 2.452336 g / cm^3
# Si number density = 24.579305 Si / 1000 Ang^3
#
#
#
# Elastic Constant Matrix: (Units=GPa)
#
#
# Indices 1 2 3 4 5 6 
#
# 1 77.8389 21.4097 6.0796 0.0000 4.5350 0.0000
# 2 21.4097 127.7611 16.5724 0.0000 2.5266 0.0000
# 3 6.0796 16.5724 65.8813 0.0000 11.9132 0.0000
# 4 0.0000 0.0000 0.0000 21.3388 0.0000 10.5637
# 5 4.5350 2.5266 11.9132 0.0000 27.9698 0.0000
# 6 0.0000 0.0000 0.0000 10.5637 0.0000 33.7370
#
#
#
# Elastic Compliance Matrix: (Units=1/GPa)
#
#
# Indices 1 2 3 4 5 6 
#
# 1 0.013587 -0.002192 -0.000368 0.000000 -0.001848 0.000000
# 2 -0.002192 0.008445 -0.002003 0.000000 0.000446 0.000000
# 3 -0.000368 -0.002003 0.016981 0.000000 -0.006992 0.000000
# 4 0.000000 0.000000 0.000000 0.055460 0.000000 -0.017365
# 5 -0.001848 0.000446 -0.006992 0.000000 0.038990 0.000000
# 6 0.000000 0.000000 0.000000 -0.017365 0.000000 0.035079
#
#
# Mechanical properties :
#
#
# Convention : Reuss Voigt Hill
#
# Bulk Modulus (GPa) = 33.46003 39.95607 36.70805
# Shear Modulus (GPa) = 26.64817 31.77043 29.20930
#
# Velocity S-wave (km/s) = 3.29625 3.59913 3.45101
# Velocity P-wave (km/s) = 5.30374 5.79335 5.55394
#
# Compressibility (1/GPa) = 0.02988641
#
# Stress axis : x y z
#
# Youngs Moduli (GPa) = 73.60244 118.40647 58.88955
#
# Poissons Ratio (x) = 0.25960 0.02168
# Poissons Ratio (y) = 0.16137 0.11794
# Poissons Ratio (z) = 0.02709 0.23713
#
# Static dielectric constant tensor:
#      x y z
#    x 2.069390 0.000000 0.045250 
#    y 0.000000 2.053320 0.000000 
#    z 0.045250 0.000000 1.967200 
# 
# From -- ./inp_files/57238.got.cif
#   From: 2010.05.17/outbox.cif.g08.bks.cpg/sg11_29_cif.got.tgz:57238.got - 2010.06.03 12:22:45.
