data_PCOD9163565
_publ_section_title
;
Structure prediction by ZEFSAII (Michael W. Deem and Ramdas Pophale) SiO2 
 PCOD9163565
Probable space group: P 21/M
;
_chemical_formula_sum "Si O2"
_cell_formula_units_Z 28
_cell_length_a 7.107299
_cell_length_b 12.021393
_cell_length_c 14.433549
_cell_angle_alpha 90.000000
_cell_angle_beta 60.583972
_cell_angle_gamma 90.000000
_cell_volume 1074.208997
_symmetry_space_group_name_H-M "P 21/M"
_symmetry_group_IT_number 11
_symmetry_cell_setting 'monoclinic'
loop_
_space_group_symop_operation_xyz
x,y,z
-x,1/2+y,-z
-x,-y,-z
x,1/2-y,z
loop_
_atom_site_type_symbol
_atom_site_label
_atom_site_fract_x
_atom_site_fract_y
_atom_site_fract_z
Si Si1 0.520838 0.625500 0.616870
Si Si2 0.361187 0.122896 0.698059
Si Si3 0.780102 0.629015 0.060718
Si Si4 0.312999 0.365178 0.211827
Si Si5 0.128538 0.596583 0.237592
Si Si6 0.985444 0.872441 0.465443
Si Si7 0.729923 0.096432 0.988416
O O1 0.409878 0.750000 0.630136
O O2 0.433905 0.496862 0.635962
O O3 0.613691 0.630612 0.699028
O O4 0.731801 0.630007 0.500495
O O5 0.449443 0.250000 0.656848
O O6 0.354776 0.106963 0.812179
O O7 0.109126 0.129962 0.734595
O O8 0.730589 0.750000 0.037250
O O9 0.035015 0.627388 0.026740
O O10 0.735480 0.536567 0.996174
O O11 0.198333 0.250000 0.220099
O O12 0.153342 0.464912 0.233254
O O13 0.532812 0.369143 0.099857
O O14 0.278549 0.631790 0.116206
O O15 0.147268 0.631129 0.339298
O O16 0.018349 0.750000 0.506576
O O17 0.000000 0.000000 0.500000
#
# Coordination Sequence:
#
# PCOD9163565 Si02
#       7
#     4   4   4   4   4   4   4
#     4  10  22  42  67  95 127 169 216 265 323 385
#     4  10  21  41  66  97 132 168 215 266 319 382
#     4   9  18  34  58  89 129 172 209 253 315 386
#     4  11  22  39  62  92 132 170 211 265 324 386
#     4  11  24  41  63  94 129 167 217 270 322 378
#     4  11  24  45  69  93 127 171 217 266 322 385
#     4  10  20  37  59  92 128 164 214 261 319 378
#
# _framework density 26.065691000000001
#
# number of rings (size 3 to 8) (size 9 to 14) (size 15 to 20)
#    0.000    1.714    2.857    1.286    0.000    4.000 
#    0.000    1.429    0.000    0.000    0.000    0.000 
#    0.000    0.000    0.000    0.000    0.000    0.000 
#
# Total GULP energy -156199.105307 kJ/mol
# GULP energy per Si atom -5578.539475 kJ/mol
# Density = 2.600636 g / cm^3
# Si number density = 26.065691 Si / 1000 Ang^3
#
#
#
# Elastic Constant Matrix: (Units=GPa)
#
#
# Indices 1 2 3 4 5 6 
#
# 1 55.4623 40.4129 22.2327 0.0000 -12.3960 0.0000
# 2 40.4129 325.7087 38.2816 0.0000 -8.8142 0.0000
# 3 22.2327 38.2816 148.9210 0.0000 -2.8046 0.0000
# 4 0.0000 0.0000 0.0000 3.6234 0.0000 -17.0860
# 5 -12.3960 -8.8142 -2.8046 0.0000 34.2631 0.0000
# 6 0.0000 0.0000 0.0000 -17.0860 0.0000 129.4640
#
#
#
# Elastic Compliance Matrix: (Units=1/GPa)
#
#
# Indices 1 2 3 4 5 6 
#
# 1 0.022363 -0.002270 -0.002618 0.000000 0.007293 0.000000
# 2 -0.002270 0.003416 -0.000539 0.000000 0.000013 0.000000
# 3 -0.002618 -0.000539 0.007235 0.000000 -0.000494 0.000000
# 4 0.000000 0.000000 0.000000 0.730727 0.000000 0.096437
# 5 0.007293 0.000013 -0.000494 0.000000 0.031787 0.000000
# 6 0.000000 0.000000 0.000000 0.096437 0.000000 0.020451
#
#
# Mechanical properties :
#
#
# Convention : Reuss Voigt Hill
#
# Bulk Modulus (GPa) = 45.12431 81.32737 63.22584
# Shear Modulus (GPa) = 5.99363 62.08109 34.03736
#
# Velocity S-wave (km/s) = 1.51803 4.88558 3.61755
# Velocity P-wave (km/s) = 4.51906 7.94316 6.46203
#
# Compressibility (1/GPa) = 0.02216100
#
# Stress axis : x y z
#
# Youngs Moduli (GPa) = 44.71575 292.77846 138.21637
#
# Poissons Ratio (x) = 0.66453 0.36184
# Poissons Ratio (y) = 0.10149 0.07448
# Poissons Ratio (z) = 0.11706 0.15778
#
# Static dielectric constant tensor:
#      x y z
#    x 2.014550 0.000000 0.030200 
#    y 0.000000 2.094360 0.000000 
#    z 0.030200 0.000000 2.050040 
# 
# From -- ./inp_files/47121.got.cif
#   From: 2010.05.17/outbox.cif.g08.bks.cpg/sg11_24_cif.got.tgz:47121.got - 2010.06.03 12:22:45.
