data_PCOD9163312
_publ_section_title
;
Structure prediction by ZEFSAII (Michael W. Deem and Ramdas Pophale) SiO2 
 PCOD9163312
Probable space group: P 21/M
;
_chemical_formula_sum "Si O2"
_cell_formula_units_Z 32
_cell_length_a 12.578358
_cell_length_b 21.605723
_cell_length_c 8.866260
_cell_angle_alpha 90.000000
_cell_angle_beta 40.731088
_cell_angle_gamma 90.000000
_cell_volume 1572.244792
_symmetry_space_group_name_H-M "P 21/M"
_symmetry_group_IT_number 11
_symmetry_cell_setting 'monoclinic'
loop_
_space_group_symop_operation_xyz
x,y,z
-x,1/2+y,-z
-x,-y,-z
x,1/2-y,z
loop_
_atom_site_type_symbol
_atom_site_label
_atom_site_fract_x
_atom_site_fract_y
_atom_site_fract_z
Si Si1 0.307602 0.322092 0.530186
Si Si2 0.958752 0.179624 0.777398
Si Si3 0.471329 0.394566 0.091133
Si Si4 0.272162 0.561826 0.947927
Si Si5 0.048099 0.319418 0.327188
Si Si6 0.321227 0.678399 0.381299
Si Si7 0.266050 0.062430 0.052738
Si Si8 0.479491 0.601531 0.462569
O O1 0.342129 0.250000 0.519610
O O2 0.382268 0.344071 0.290668
O O3 0.394444 0.363684 0.562302
O O4 0.113254 0.329430 0.721065
O O5 0.893880 0.250000 0.868939
O O6 0.020452 0.176691 0.537523
O O7 0.830288 0.125044 0.936731
O O8 0.586518 0.432548 0.078529
O O9 0.582699 0.359904 0.849051
O O10 0.340639 0.435307 0.140557
O O11 0.175436 0.500413 0.101870
O O12 0.359383 0.560221 0.692292
O O13 0.112306 0.250000 0.224618
O O14 0.870949 0.326065 0.442686
O O15 0.162884 0.374781 0.151242
O O16 0.368200 0.750000 0.318834
O O17 0.372364 0.651213 0.486766
O O18 0.415641 0.066215 0.774964
#
# Coordination Sequence:
#
# PCOD9163312 Si02
#       8
#     4   4   4   4   4   4   4   4
#     4  10  20  37  61  90 123 158 199 247 302 358
#     4  10  21  39  62  92 124 155 196 252 304 354
#     4  10  20  36  60  90 117 158 203 254 297 350
#     4  11  23  41  62  88 122 163 204 248 299 357
#     4  10  21  39  62  92 124 155 196 252 304 354
#     4  10  20  37  61  90 123 158 199 247 302 358
#     4  11  23  41  62  88 122 163 204 248 299 357
#     4  10  24  40  58  88 123 162 205 246 295 356
#
# _framework density 20.353065000000001
#
# number of rings (size 3 to 8) (size 9 to 14) (size 15 to 20)
#    0.000    1.750    2.500    1.500    0.000    6.500 
#    0.000    6.250    0.000    0.000    0.000    0.000 
#    0.000    0.000    0.000    0.000    0.000    0.000 
#
# Total GULP energy -178725.127295 kJ/mol
# GULP energy per Si atom -5585.160228 kJ/mol
# Density = 2.030674 g / cm^3
# Si number density = 20.353065 Si / 1000 Ang^3
#
#
#
# Elastic Constant Matrix: (Units=GPa)
#
#
# Indices 1 2 3 4 5 6 
#
# 1 84.3308 6.9903 4.0667 0.0000 8.4367 0.0000
# 2 6.9903 65.9567 10.6360 0.0000 -9.3094 0.0000
# 3 4.0667 10.6360 30.9962 0.0000 6.7306 0.0000
# 4 0.0000 0.0000 0.0000 40.2275 0.0000 -55.5077
# 5 8.4367 -9.3094 6.7306 0.0000 23.4666 0.0000
# 6 0.0000 0.0000 0.0000 -55.5077 0.0000 144.8108
#
#
#
# Elastic Compliance Matrix: (Units=1/GPa)
#
#
# Indices 1 2 3 4 5 6 
#
# 1 0.012568 -0.002144 0.000269 0.000000 -0.005446 0.000000
# 2 -0.002144 0.018168 -0.008196 0.000000 0.010329 0.000000
# 3 0.000269 -0.008196 0.038141 0.000000 -0.014288 0.000000
# 4 0.000000 0.000000 0.000000 0.052768 0.000000 0.020227
# 5 -0.005446 0.010329 -0.014288 0.000000 0.052767 0.000000
# 6 0.000000 0.000000 0.000000 0.020227 0.000000 0.014659
#
#
# Mechanical properties :
#
#
# Convention : Reuss Voigt Hill
#
# Bulk Modulus (GPa) = 20.51855 24.96330 22.74093
# Shear Modulus (GPa) = 22.17708 52.34037 37.25873
#
# Velocity S-wave (km/s) = 3.30452 5.07662 4.28322
# Velocity P-wave (km/s) = 4.96618 6.83041 5.97149
#
# Compressibility (1/GPa) = 0.04873640
#
# Stress axis : x y z
#
# Youngs Moduli (GPa) = 79.56931 55.04116 26.21821
#
# Poissons Ratio (x) = 0.11801 -0.00706
# Poissons Ratio (y) = 0.17061 0.21488
# Poissons Ratio (z) = -0.02144 0.45111
#
# Static dielectric constant tensor:
#      x y z
#    x 1.714390 0.000000 -0.005270 
#    y 0.000000 1.754920 0.000000 
#    z -0.005270 0.000000 1.710590 
# 
# From -- ./inp_files/19345.got.cif
#   From: 2010.05.17/outbox.cif.g08.bks.cpg/sg11_10_cif.got.tgz:19345.got - 2010.06.03 12:22:45.
