data_PCOD9163186
_publ_section_title
;
Structure prediction by ZEFSAII (Michael W. Deem and Ramdas Pophale) SiO2 
 PCOD9163186
Probable space group: P 21/M
;
_chemical_formula_sum "Si O2"
_cell_formula_units_Z 28
_cell_length_a 17.172314
_cell_length_b 9.099021
_cell_length_c 21.457631
_cell_angle_alpha 90.000000
_cell_angle_beta 155.089660
_cell_angle_gamma 90.000000
_cell_volume 1412.189916
_symmetry_space_group_name_H-M "P 21/M"
_symmetry_group_IT_number 11
_symmetry_cell_setting 'monoclinic'
loop_
_space_group_symop_operation_xyz
x,y,z
-x,1/2+y,-z
-x,-y,-z
x,1/2-y,z
loop_
_atom_site_type_symbol
_atom_site_label
_atom_site_fract_x
_atom_site_fract_y
_atom_site_fract_z
Si Si1 0.154183 0.414349 0.664548
Si Si2 0.729235 0.074282 0.356512
Si Si3 0.041107 0.428437 0.796105
Si Si4 0.997118 0.925239 0.898520
Si Si5 0.662811 0.427720 0.448079
Si Si6 0.707149 0.425051 0.778530
Si Si7 0.646489 0.585811 0.064955
O O1 0.151055 0.250000 0.635034
O O2 0.311353 0.502629 0.740072
O O3 0.197595 0.400343 0.768469
O O4 0.944940 0.472055 0.514982
O O5 0.714118 0.250000 0.341578
O O6 0.648312 0.029139 0.364176
O O7 0.048515 0.250000 0.805494
O O8 0.019896 0.499249 0.848336
O O9 0.861540 0.464869 0.623104
O O10 0.236724 0.477373 0.907747
O O11 0.971979 0.750000 0.874189
O O12 0.824615 0.997266 0.809552
O O13 0.175129 0.950449 0.072415
O O14 0.645263 0.250000 0.438148
O O15 0.494667 0.505013 0.361258
O O16 0.697780 0.250000 0.761324
O O17 0.578483 0.750000 0.000009
O O18 0.500000 0.500000 0.000000
#
# Coordination Sequence:
#
# PCOD9163186 Si02
#       7
#     4   4   4   4   4   4   4
#     4   9  17  32  51  72 102 140 181 226 274 320
#     4   9  17  31  52  76 103 138 180 225 272 323
#     4  10  21  39  61  84 115 155 194 236 288 343
#     4  10  22  41  63  87 116 150 190 233 282 342
#     4  10  20  36  59  86 117 152 193 238 286 341
#     4  10  22  40  62  88 117 149 187 233 285 342
#     4  10  21  37  55  77 110 150 191 234 280 333
#
# _framework density 19.827362000000001
#
# number of rings (size 3 to 8) (size 9 to 14) (size 15 to 20)
#    0.000    2.286    1.429    0.857    0.000    5.714 
#    0.000    5.714    0.000    0.000    0.000    0.000 
#    0.000    0.000    0.000    0.000    0.000    0.000 
#
# Total GULP energy -155940.120212 kJ/mol
# GULP energy per Si atom -5569.290008 kJ/mol
# Density = 1.978223 g / cm^3
# Si number density = 19.827362 Si / 1000 Ang^3
#
#
#
# Elastic Constant Matrix: (Units=GPa)
#
#
# Indices 1 2 3 4 5 6 
#
# 1 164.9582 50.5876 41.2177 0.0000 15.7175 0.0000
# 2 50.5876 40.3785 21.1269 0.0000 13.1639 0.0000
# 3 41.2177 21.1269 45.9109 0.0000 27.4666 0.0000
# 4 0.0000 0.0000 0.0000 23.2319 0.0000 -0.2660
# 5 15.7175 13.1639 27.4666 0.0000 34.7890 0.0000
# 6 0.0000 0.0000 0.0000 -0.2660 0.0000 37.1166
#
#
#
# Elastic Compliance Matrix: (Units=1/GPa)
#
#
# Indices 1 2 3 4 5 6 
#
# 1 0.011057 -0.011503 -0.008052 0.000000 0.005714 0.000000
# 2 -0.011503 0.044601 -0.006083 0.000000 -0.006877 0.000000
# 3 -0.008052 -0.006083 0.053550 0.000000 -0.036339 0.000000
# 4 0.000000 0.000000 0.000000 0.043048 0.000000 0.000309
# 5 0.005714 -0.006877 -0.036339 0.000000 0.057455 0.000000
# 6 0.000000 0.000000 0.000000 0.000309 0.000000 0.026944
#
#
# Mechanical properties :
#
#
# Convention : Reuss Voigt Hill
#
# Bulk Modulus (GPa) = 17.26160 53.01244 35.13702
# Shear Modulus (GPa) = 16.27376 28.24853 22.26115
#
# Velocity S-wave (km/s) = 2.86802 3.77865 3.35438
# Velocity P-wave (km/s) = 4.43759 6.76998 5.72385
#
# Compressibility (1/GPa) = 0.05793206
#
# Stress axis : x y z
#
# Youngs Moduli (GPa) = 90.43888 22.42085 18.67420
#
# Poissons Ratio (x) = 0.25790 0.15037
# Poissons Ratio (y) = 1.04028 0.11360
# Poissons Ratio (z) = 0.72825 0.13639
#
# Static dielectric constant tensor:
#      x y z
#    x 1.766700 0.000000 -0.103470 
#    y 0.000000 1.727660 0.000000 
#    z -0.103470 0.000000 1.847580 
# 
# From -- ./inp_files/65459.got.cif
#   From: 2010.05.17/outbox.cif.g08.bks.cpg/sg11_33_cif.got.tgz:65459.got - 2010.06.03 12:22:45.
