data_PCOD9163843
_publ_section_title
;
Structure prediction by ZEFSAII (Michael W. Deem and Ramdas Pophale) SiO2 
 PCOD9163843
Probable space group: P 21/M
;
_chemical_formula_sum "Si O2"
_cell_formula_units_Z 32
_cell_length_a 5.415942
_cell_length_b 32.074770
_cell_length_c 7.392037
_cell_angle_alpha 90.000000
_cell_angle_beta 103.343753
_cell_angle_gamma 90.000000
_cell_volume 1249.441219
_symmetry_space_group_name_H-M "P 21/M"
_symmetry_group_IT_number 11
_symmetry_cell_setting 'monoclinic'
loop_
_space_group_symop_operation_xyz
x,y,z
-x,1/2+y,-z
-x,-y,-z
x,1/2-y,z
loop_
_atom_site_type_symbol
_atom_site_label
_atom_site_fract_x
_atom_site_fract_y
_atom_site_fract_z
Si Si1 0.427401 0.030867 0.322456
Si Si2 0.788749 0.381329 0.055141
Si Si3 0.334535 0.296358 0.441190
Si Si4 0.243077 0.093663 0.867944
Si Si5 0.985403 0.664655 0.355133
Si Si6 0.594182 0.378019 0.399556
Si Si7 0.294934 0.704821 0.141901
Si Si8 0.086388 0.002749 0.724788
O O1 0.445946 0.078714 0.389223
O O2 0.500000 0.000000 0.500000
O O3 0.648686 0.021167 0.217777
O O4 0.147989 0.018260 0.210316
O O5 0.050214 0.392281 0.996910
O O6 0.701974 0.334260 0.989669
O O7 0.539596 0.408507 0.963223
O O8 0.795688 0.384393 0.272011
O O9 0.343086 0.250000 0.362807
O O10 0.429441 0.336081 0.343346
O O11 0.502199 0.294896 0.656826
O O12 0.059927 0.309165 0.472242
O O13 0.227054 0.130742 0.718627
O O14 0.134573 0.050504 0.778300
O O15 0.230721 0.634478 0.402528
O O16 0.029289 0.697316 0.203380
O O17 0.306456 0.750000 0.055378
O O18 0.000000 0.000000 0.500000
#
# Coordination Sequence:
#
# PCOD9163843 Si02
#       8
#     4   4   4   4   4   4   4   4
#     4  10  22  38  62  96 127 168 218 267 326 389
#     4  11  25  43  63  97 134 181 217 264 344 402
#     4  10  21  38  66  96 126 166 226 279 328 387
#     4  11  23  43  68  95 133 177 221 269 324 403
#     4  10  20  37  67  94 123 172 223 273 327 381
#     4  11  26  40  66  94 140 171 220 279 334 394
#     4   9  19  38  61  91 126 168 218 272 325 401
#     4  10  21  37  65  95 125 156 224 270 318 373
#
# _framework density 25.611447999999999
#
# number of rings (size 3 to 8) (size 9 to 14) (size 15 to 20)
#    0.000    1.750    1.250    2.625    7.000    1.000 
#    0.000    3.750    0.000    0.000    0.000    0.000 
#    0.000    0.000    0.000    0.000    0.000    0.000 
#
# Total GULP energy -178853.265663 kJ/mol
# GULP energy per Si atom -5589.164552 kJ/mol
# Density = 2.555316 g / cm^3
# Si number density = 25.611448 Si / 1000 Ang^3
#
#
#
# Elastic Constant Matrix: (Units=GPa)
#
#
# Indices 1 2 3 4 5 6 
#
# 1 113.5369 25.0966 -3.5925 0.0000 -25.6973 0.0000
# 2 25.0966 207.5731 27.2398 0.0000 -13.9722 0.0000
# 3 -3.5925 27.2398 38.2970 0.0000 -8.3852 0.0000
# 4 0.0000 0.0000 0.0000 34.8630 0.0000 -1.7865
# 5 -25.6973 -13.9722 -8.3852 0.0000 26.9409 0.0000
# 6 0.0000 0.0000 0.0000 -1.7865 0.0000 23.5687
#
#
#
# Elastic Compliance Matrix: (Units=1/GPa)
#
#
# Indices 1 2 3 4 5 6 
#
# 1 0.012008 -0.001242 0.004697 0.000000 0.012272 0.000000
# 2 -0.001242 0.005515 -0.003941 0.000000 0.000449 0.000000
# 3 0.004697 -0.003941 0.032075 0.000000 0.012419 0.000000
# 4 0.000000 0.000000 0.000000 0.028796 0.000000 0.002183
# 5 0.012272 0.000449 0.012419 0.000000 0.052922 0.000000
# 6 0.000000 0.000000 0.000000 0.002183 0.000000 0.042595
#
#
# Mechanical properties :
#
#
# Convention : Reuss Voigt Hill
#
# Bulk Modulus (GPa) = 20.56525 50.76611 35.66568
# Shear Modulus (GPa) = 26.16545 37.78537 31.97541
#
# Velocity S-wave (km/s) = 3.19976 3.84517 3.53722
# Velocity P-wave (km/s) = 4.65816 6.29114 5.53520
#
# Compressibility (1/GPa) = 0.04862572
#
# Stress axis : x y z
#
# Youngs Moduli (GPa) = 83.27477 181.31808 31.17712
#
# Poissons Ratio (x) = 0.22524 -0.14644
# Poissons Ratio (y) = 0.10345 0.12287
# Poissons Ratio (z) = -0.39114 0.71459
#
# Static dielectric constant tensor:
#      x y z
#    x 2.168850 0.000000 -0.066650 
#    y 0.000000 1.913170 0.000000 
#    z -0.066650 0.000000 1.932410 
# 
# From -- ./inp_files/10839.got.cif
#   From: 2010.05.17/outbox.cif.g08.bks.cpg/sg11_6_cif.got.tgz:10839.got - 2010.06.03 12:22:45.
