data_PCOD9163573
_publ_section_title
;
Structure prediction by ZEFSAII (Michael W. Deem and Ramdas Pophale) SiO2 
 PCOD9163573
Probable space group: P 21/M
;
_chemical_formula_sum "Si O2"
_cell_formula_units_Z 28
_cell_length_a 18.957230
_cell_length_b 8.598954
_cell_length_c 9.555152
_cell_angle_alpha 90.000000
_cell_angle_beta 75.329516
_cell_angle_gamma 90.000000
_cell_volume 1506.827184
_symmetry_space_group_name_H-M "P 21/M"
_symmetry_group_IT_number 11
_symmetry_cell_setting 'monoclinic'
loop_
_space_group_symop_operation_xyz
x,y,z
-x,1/2+y,-z
-x,-y,-z
x,1/2-y,z
loop_
_atom_site_type_symbol
_atom_site_label
_atom_site_fract_x
_atom_site_fract_y
_atom_site_fract_z
Si Si1 0.864870 0.563474 0.233311
Si Si2 0.297592 0.061875 0.004378
Si Si3 0.295198 0.563586 0.694827
Si Si4 0.867374 0.938709 0.910140
Si Si5 0.566577 0.563147 0.874114
Si Si6 0.433743 0.936652 0.440254
Si Si7 0.002258 0.563380 0.654981
O O1 0.867030 0.750000 0.239559
O O2 0.783079 0.506977 0.305725
O O3 0.880821 0.515296 0.064424
O O4 0.925185 0.492888 0.303631
O O5 0.298039 0.250000 0.993079
O O6 0.215163 0.012890 0.085530
O O7 0.313524 0.995298 0.842177
O O8 0.358422 0.015870 0.085751
O O9 0.289933 0.750000 0.700048
O O10 0.358539 0.517885 0.555334
O O11 0.868070 0.750000 0.906399
O O12 0.931280 0.993563 0.776905
O O13 0.563445 0.750000 0.872689
O O14 0.562947 0.500404 0.718577
O O15 0.500000 0.500000 0.000000
O O16 0.437594 0.750000 0.434573
O O17 0.500000 0.000000 0.500000
O O18 0.000945 0.750000 0.653597
O O19 0.000000 0.500000 0.500000
#
# Coordination Sequence:
#
# PCOD9163573 Si02
#       7
#     4   4   4   4   4   4   4
#     4  10  20  37  60  83 108 144 187 229 276 335
#     4   9  19  37  59  83 109 143 186 229 276 334
#     4  10  21  37  58  86 115 144 181 230 282 332
#     4   8  17  35  58  81 107 141 183 227 273 327
#     4  11  23  38  59  85 116 153 192 234 282 335
#     4  11  24  40  59  84 116 151 190 234 283 340
#     4  11  22  36  54  80 114 148 184 231 282 333
#
# _framework density 18.582090000000001
#
# number of rings (size 3 to 8) (size 9 to 14) (size 15 to 20)
#    0.000    2.000    0.000    4.286    0.000    6.857 
#    0.000    7.857    0.000    0.000    0.000    0.000 
#    0.000    0.000    0.000    0.000    0.000    0.000 
#
# Total GULP energy -156408.240490 kJ/mol
# GULP energy per Si atom -5586.008589 kJ/mol
# Density = 1.853980 g / cm^3
# Si number density = 18.582090 Si / 1000 Ang^3
#
#
#
# Elastic Constant Matrix: (Units=GPa)
#
#
# Indices 1 2 3 4 5 6 
#
# 1 178.6786 51.1866 141.4374 0.0000 11.2239 0.0000
# 2 51.1866 47.4710 47.6581 0.0000 -1.2498 0.0000
# 3 141.4374 47.6581 177.7136 0.0000 -6.2124 0.0000
# 4 0.0000 0.0000 0.0000 33.0255 0.0000 3.0260
# 5 11.2239 -1.2498 -6.2124 0.0000 34.1371 0.0000
# 6 0.0000 0.0000 0.0000 3.0260 0.0000 29.6798
#
#
#
# Elastic Compliance Matrix: (Units=1/GPa)
#
#
# Indices 1 2 3 4 5 6 
#
# 1 0.018695 -0.007038 -0.013300 0.000000 -0.008825 0.000000
# 2 -0.007038 0.031481 -0.002737 0.000000 0.002969 0.000000
# 3 -0.013300 -0.002737 0.017205 0.000000 0.007404 0.000000
# 4 0.000000 0.000000 0.000000 0.030565 0.000000 -0.003116
# 5 -0.008825 0.002969 0.007404 0.000000 0.033651 0.000000
# 6 0.000000 0.000000 0.000000 -0.003116 0.000000 0.034011
#
#
# Mechanical properties :
#
#
# Convention : Reuss Voigt Hill
#
# Bulk Modulus (GPa) = 47.10263 98.26970 72.68617
# Shear Modulus (GPa) = 22.84828 30.27389 26.56109
#
# Velocity S-wave (km/s) = 3.51035 4.04071 3.78483
# Velocity P-wave (km/s) = 6.46788 8.64689 7.63552
#
# Compressibility (1/GPa) = 0.02123024
#
# Stress axis : x y z
#
# Youngs Moduli (GPa) = 53.48957 31.76565 58.12299
#
# Poissons Ratio (x) = 0.22358 0.77304
# Poissons Ratio (y) = 0.37648 0.15907
# Poissons Ratio (z) = 0.71141 0.08694
#
# Static dielectric constant tensor:
#      x y z
#    x 1.632150 0.000000 -0.014110 
#    y 0.000000 1.634020 0.000000 
#    z -0.014110 0.000000 1.609850 
# 
# From -- ./inp_files/23972.got.cif
#   From: 2010.05.17/outbox.cif.g08.bks.cpg/sg11_12_cif.got.tgz:23972.got - 2010.06.03 12:22:45.
