data_PCOD9163612
_publ_section_title
;
Structure prediction by ZEFSAII (Michael W. Deem and Ramdas Pophale) SiO2 
 PCOD9163612
Probable space group: P 21/M
;
_chemical_formula_sum "Si O2"
_cell_formula_units_Z 30
_cell_length_a 15.281351
_cell_length_b 9.446464
_cell_length_c 19.305527
_cell_angle_alpha 90.000000
_cell_angle_beta 151.241533
_cell_angle_gamma 90.000000
_cell_volume 1340.801799
_symmetry_space_group_name_H-M "P 21/M"
_symmetry_group_IT_number 11
_symmetry_cell_setting 'monoclinic'
loop_
_space_group_symop_operation_xyz
x,y,z
-x,1/2+y,-z
-x,-y,-z
x,1/2-y,z
loop_
_atom_site_type_symbol
_atom_site_label
_atom_site_fract_x
_atom_site_fract_y
_atom_site_fract_z
Si Si1 0.414718 0.083813 0.036785
Si Si2 0.878652 0.582616 0.516124
Si Si3 0.065786 0.250000 0.046840
Si Si4 0.765370 0.917172 0.228298
Si Si5 0.161283 0.085912 0.346111
Si Si6 0.946377 0.022661 0.865368
Si Si7 0.509488 0.081875 0.250731
Si Si8 0.441630 0.911590 0.340831
O O1 0.471198 0.250000 0.069400
O O2 0.383737 0.057424 0.096380
O O3 0.579528 0.981987 0.128903
O O4 0.256999 0.064062 0.870755
O O5 0.874183 0.750000 0.495475
O O6 0.872641 0.569994 0.595980
O O7 0.700891 0.497998 0.368067
O O8 0.064471 0.504652 0.625104
O O9 0.079661 0.129007 0.995455
O O10 0.036749 0.372858 0.085503
O O11 0.782383 0.750000 0.254365
O O12 0.126710 0.250000 0.304988
O O13 0.378522 0.059531 0.489463
O O14 0.053805 0.991303 0.217201
O O15 0.744477 0.077510 0.746962
O O16 0.538177 0.250000 0.279276
O O17 0.443637 0.015451 0.277011
O O18 0.459796 0.750000 0.326953
#
# Coordination Sequence:
#
# PCOD9163612 Si02
#       8
#     4   4   2   4   4   4   4   4
#     4   9  20  39  59  84 116 149 187 231 281 339
#     4  10  21  39  58  84 117 151 188 232 283 335
#     4  10  24  36  58  76 118 146 188 234 278 332
#     4  10  20  37  60  87 114 148 191 232 276 336
#     4   9  19  37  60  80 107 144 189 236 279 331
#     4  11  20  42  54  83 110 153 187 234 278 334
#     4  10  21  38  59  87 116 145 187 237 283 331
#     4  10  21  38  59  82 110 145 188 234 282 335
#
# _framework density 22.374673000000001
#
# number of rings (size 3 to 8) (size 9 to 14) (size 15 to 20)
#    0.000    2.133    1.333    2.400    0.933    2.133 
#   10.800    0.000    0.000    0.000    0.000    0.000 
#    0.000    0.000    0.000    0.000    0.000    0.000 
#
# Total GULP energy -167123.123154 kJ/mol
# GULP energy per Si atom -5570.770772 kJ/mol
# Density = 2.232375 g / cm^3
# Si number density = 22.374673 Si / 1000 Ang^3
#
#
#
# Elastic Constant Matrix: (Units=GPa)
#
#
# Indices 1 2 3 4 5 6 
#
# 1 43.7155 9.6829 16.9809 0.0000 -13.2460 0.0000
# 2 9.6829 120.9749 47.6989 0.0000 -4.5945 0.0000
# 3 16.9809 47.6989 79.7664 0.0000 -10.7754 0.0000
# 4 0.0000 0.0000 0.0000 -77.1869 0.0000 -45.9568
# 5 -13.2460 -4.5945 -10.7754 0.0000 50.3906 0.0000
# 6 0.0000 0.0000 0.0000 -45.9568 0.0000 -6.4840
#
#
#
# Elastic Compliance Matrix: (Units=1/GPa)
#
#
# Indices 1 2 3 4 5 6 
#
# 1 0.026561 0.000017 -0.004861 0.000000 0.005944 0.000000
# 2 0.000017 0.010825 -0.006531 0.000000 -0.000405 0.000000
# 3 -0.004861 -0.006531 0.017736 0.000000 0.001919 0.000000
# 4 0.000000 0.000000 0.000000 0.004024 0.000000 -0.028517
# 5 0.005944 -0.000405 0.001919 0.000000 0.021781 0.000000
# 6 0.000000 0.000000 0.000000 -0.028517 0.000000 0.047896
#
#
# Mechanical properties :
#
#
# Convention : Reuss Voigt Hill
#
# Bulk Modulus (GPa) = 30.89290 43.68691 37.28990
# Shear Modulus (GPa) = 30.79492 4.68353 17.73922
#
# Velocity S-wave (km/s) = 3.71392 1.44837 2.81877
# Velocity P-wave (km/s) = 5.67697 4.72912 5.22458
#
# Compressibility (1/GPa) = 0.03236990
#
# Stress axis : x y z
#
# Youngs Moduli (GPa) = 37.64936 92.38181 56.38147
#
# Poissons Ratio (x) = -0.00153 0.27409
# Poissons Ratio (y) = -0.00062 0.36824
# Poissons Ratio (z) = 0.18302 0.60337
#
# Static dielectric constant tensor:
#      x y z
#    x 1.860770 0.000000 0.011910 
#    y 0.000000 1.774870 0.000000 
#    z 0.011910 0.000000 1.860110 
# 
# From -- ./inp_files/66108.got.cif
#   From: 2010.05.17/outbox.cif.g08.bks.cpg/sg11_34_cif.got.tgz:66108.got - 2010.06.03 12:22:45.
