data_PCOD9163310
_publ_section_title
;
Structure prediction by ZEFSAII (Michael W. Deem and Ramdas Pophale) SiO2 
 PCOD9163310
Probable space group: P 21/M
;
_chemical_formula_sum "Si O2"
_cell_formula_units_Z 28
_cell_length_a 12.967315
_cell_length_b 8.470177
_cell_length_c 13.681684
_cell_angle_alpha 90.000000
_cell_angle_beta 111.991147
_cell_angle_gamma 90.000000
_cell_volume 1393.397633
_symmetry_space_group_name_H-M "P 21/M"
_symmetry_group_IT_number 11
_symmetry_cell_setting 'monoclinic'
loop_
_space_group_symop_operation_xyz
x,y,z
-x,1/2+y,-z
-x,-y,-z
x,1/2-y,z
loop_
_atom_site_type_symbol
_atom_site_label
_atom_site_fract_x
_atom_site_fract_y
_atom_site_fract_z
Si Si1 0.405720 0.060850 0.894417
Si Si2 0.963695 0.058869 0.881127
Si Si3 0.879356 0.940307 0.428262
Si Si4 0.715860 0.438956 0.731275
Si Si5 0.159485 0.442405 0.807412
Si Si6 0.679531 0.560302 0.499737
Si Si7 0.511532 0.437395 0.283267
O O1 0.407267 0.250000 0.893814
O O2 0.282560 0.008682 0.884406
O O3 0.429967 0.002993 0.793196
O O4 0.500000 0.000000 0.000000
O O5 0.963719 0.250000 0.880681
O O6 0.839299 0.007825 0.807070
O O7 0.056840 0.003551 0.836772
O O8 0.000000 0.000000 0.000000
O O9 0.878902 0.750000 0.427881
O O10 0.853323 0.993888 0.309204
O O11 0.785043 0.990666 0.471169
O O12 0.000000 0.000000 0.500000
O O13 0.710589 0.250000 0.737864
O O14 0.692097 0.487533 0.611055
O O15 0.617360 0.513035 0.760310
O O16 0.156956 0.250000 0.807407
O O17 0.678371 0.750000 0.507775
O O18 0.571804 0.507118 0.400571
O O19 0.521069 0.250000 0.288725
#
# Coordination Sequence:
#
# PCOD9163310 Si02
#       7
#     4   4   4   4   4   4   4
#     4  11  23  42  66  95 129 165 209 259 316 378
#     4  10  23  42  65  91 123 164 209 258 312 372
#     4  10  20  36  60  89 123 163 204 253 308 369
#     4  11  24  42  64  92 129 169 211 262 316 381
#     4   9  19  40  64  87 122 163 199 247 311 370
#     4  11  22  40  64  93 128 165 208 261 319 379
#     4  12  25  42  65  94 128 169 214 261 316 378
#
# _framework density 20.094767000000001
#
# number of rings (size 3 to 8) (size 9 to 14) (size 15 to 20)
#    0.000    1.429    1.429    3.857    2.000    3.429 
#    0.000    1.429    0.000    0.000    0.000    0.000 
#    0.000    0.000    0.000    0.000    0.000    0.000 
#
# Total GULP energy -156564.714086 kJ/mol
# GULP energy per Si atom -5591.596932 kJ/mol
# Density = 2.004903 g / cm^3
# Si number density = 20.094767 Si / 1000 Ang^3
#
#
#
# Elastic Constant Matrix: (Units=GPa)
#
#
# Indices 1 2 3 4 5 6 
#
# 1 127.8741 3.7551 19.5756 0.0000 22.8240 0.0000
# 2 3.7551 25.9898 -2.4262 0.0000 3.4951 0.0000
# 3 19.5756 -2.4262 81.5258 0.0000 23.2369 0.0000
# 4 0.0000 0.0000 0.0000 36.4615 0.0000 -2.4369
# 5 22.8240 3.4951 23.2369 0.0000 39.5531 0.0000
# 6 0.0000 0.0000 0.0000 -2.4369 0.0000 27.7697
#
#
#
# Elastic Compliance Matrix: (Units=1/GPa)
#
#
# Indices 1 2 3 4 5 6 
#
# 1 0.008775 -0.000742 -0.000846 0.000000 -0.004501 0.000000
# 2 -0.000742 0.039455 0.002671 0.000000 -0.004628 0.000000
# 3 -0.000846 0.002671 0.014986 0.000000 -0.008552 0.000000
# 4 0.000000 0.000000 0.000000 0.027588 0.000000 0.002421
# 5 -0.004501 -0.004628 -0.008552 0.000000 0.033313 0.000000
# 6 0.000000 0.000000 0.000000 0.002421 0.000000 0.036223
#
#
# Mechanical properties :
#
#
# Convention : Reuss Voigt Hill
#
# Bulk Modulus (GPa) = 15.29433 30.79988 23.04710
# Shear Modulus (GPa) = 27.78278 35.05590 31.41934
#
# Velocity S-wave (km/s) = 3.72235 4.18129 3.95848
# Velocity P-wave (km/s) = 5.10903 6.21864 5.69094
#
# Compressibility (1/GPa) = 0.06538372
#
# Stress axis : x y z
#
# Youngs Moduli (GPa) = 113.96201 25.34505 66.72774
#
# Poissons Ratio (x) = 0.01879 0.05646
# Poissons Ratio (y) = 0.08451 -0.17825
# Poissons Ratio (z) = 0.09643 -0.06770
#
# Static dielectric constant tensor:
#      x y z
#    x 1.715370 0.000000 0.008990 
#    y 0.000000 1.685720 0.000000 
#    z 0.008990 0.000000 1.672450 
# 
# From -- ./inp_files/49459.got.cif
#   From: 2010.05.17/outbox.cif.g08.bks.cpg/sg11_25_cif.got.tgz:49459.got - 2010.06.03 12:22:45.
