data_PCOD9163562
_publ_section_title
;
Structure prediction by ZEFSAII (Michael W. Deem and Ramdas Pophale) SiO2 
 PCOD9163562
Probable space group: P 21/M
;
_chemical_formula_sum "Si O2"
_cell_formula_units_Z 32
_cell_length_a 8.107859
_cell_length_b 26.487899
_cell_length_c 13.155573
_cell_angle_alpha 90.000000
_cell_angle_beta 33.740163
_cell_angle_gamma 90.000000
_cell_volume 1569.245255
_symmetry_space_group_name_H-M "P 21/M"
_symmetry_group_IT_number 11
_symmetry_cell_setting 'monoclinic'
loop_
_space_group_symop_operation_xyz
x,y,z
-x,1/2+y,-z
-x,-y,-z
x,1/2-y,z
loop_
_atom_site_type_symbol
_atom_site_label
_atom_site_fract_x
_atom_site_fract_y
_atom_site_fract_z
Si Si1 0.312571 0.587324 0.081143
Si Si2 0.262186 0.694755 0.004380
Si Si3 0.391546 0.307182 0.373314
Si Si4 0.943503 0.934894 0.671806
Si Si5 0.592219 0.808536 0.294847
Si Si6 0.376970 0.624539 0.595637
Si Si7 0.179809 0.871344 0.360763
Si Si8 0.232553 0.468322 0.589791
O O1 0.309930 0.593339 0.204995
O O2 0.025596 0.552878 0.204296
O O3 0.281750 0.644984 0.060867
O O4 0.600872 0.564950 0.879243
O O5 0.273911 0.750000 0.050584
O O6 0.526117 0.692731 0.787355
O O7 0.947729 0.692742 0.107359
O O8 0.375511 0.250000 0.418434
O O9 0.654248 0.336313 0.297275
O O10 0.077113 0.334382 0.549514
O O11 0.107783 0.904952 0.680603
O O12 0.026153 0.904926 0.527655
O O13 0.073649 0.991422 0.598832
O O14 0.489536 0.750000 0.356031
O O15 0.517741 0.841778 0.433081
O O16 0.430827 0.837119 0.285435
O O17 0.600234 0.582567 0.527896
O O18 0.500000 0.500000 0.500000
#
# Coordination Sequence:
#
# PCOD9163562 Si02
#       8
#     4   4   4   4   4   4   4   4
#     4  12  22  42  65  91 124 167 205 255 314 366
#     4  10  22  38  61  90 126 166 206 251 307 375
#     4  11  21  38  61  91 127 164 204 253 309 372
#     4  10  24  41  62  90 129 158 206 263 309 363
#     4  10  20  37  59  87 121 161 203 250 308 370
#     4  10  20  39  62  87 118 165 205 253 306 373
#     4  11  23  38  63  93 125 160 205 256 304 376
#     4  10  21  41  66  89 118 162 213 259 311 365
#
# _framework density 20.391967999999999
#
# number of rings (size 3 to 8) (size 9 to 14) (size 15 to 20)
#    0.000    1.500    3.750    1.125    1.750    2.500 
#    0.000    0.625    0.000    5.250    0.000    0.000 
#    0.000    0.000    0.000    0.000    0.000    0.000 
#
# Total GULP energy -178419.807303 kJ/mol
# GULP energy per Si atom -5575.618978 kJ/mol
# Density = 2.034555 g / cm^3
# Si number density = 20.391968 Si / 1000 Ang^3
#
#
#
# Elastic Constant Matrix: (Units=GPa)
#
#
# Indices 1 2 3 4 5 6 
#
# 1 50.4774 36.9555 9.7043 0.0000 3.2429 0.0000
# 2 36.9555 115.3393 13.2212 0.0000 -1.7086 0.0000
# 3 9.7043 13.2212 63.9694 0.0000 -3.4310 0.0000
# 4 0.0000 0.0000 0.0000 19.7231 0.0000 -4.1748
# 5 3.2429 -1.7086 -3.4310 0.0000 21.2939 0.0000
# 6 0.0000 0.0000 0.0000 -4.1748 0.0000 31.8383
#
#
#
# Elastic Compliance Matrix: (Units=1/GPa)
#
#
# Indices 1 2 3 4 5 6 
#
# 1 0.026758 -0.008351 -0.002610 0.000000 -0.005166 0.000000
# 2 -0.008351 0.011490 -0.000999 0.000000 0.002033 0.000000
# 3 -0.002610 -0.000999 0.016394 0.000000 0.002959 0.000000
# 4 0.000000 0.000000 0.000000 0.052149 0.000000 0.006838
# 5 -0.005166 0.002033 0.002959 0.000000 0.048388 0.000000
# 6 0.000000 0.000000 0.000000 0.006838 0.000000 0.032305
#
#
# Mechanical properties :
#
#
# Convention : Reuss Voigt Hill
#
# Bulk Modulus (GPa) = 32.55006 38.83869 35.69438
# Shear Modulus (GPa) = 22.55843 25.89806 24.22825
#
# Velocity S-wave (km/s) = 3.32963 3.56759 3.45066
# Velocity P-wave (km/s) = 5.54786 6.00481 5.78085
#
# Compressibility (1/GPa) = 0.03072191
#
# Stress axis : x y z
#
# Youngs Moduli (GPa) = 37.37142 87.02940 60.99930
#
# Poissons Ratio (x) = 0.72677 0.15923
# Poissons Ratio (y) = 0.31208 0.06094
# Poissons Ratio (z) = 0.09756 0.08694
#
# Static dielectric constant tensor:
#      x y z
#    x 1.741150 0.000000 -0.012760 
#    y 0.000000 1.747570 0.000000 
#    z -0.012760 0.000000 1.705870 
# 
# From -- ./inp_files/23359.got.cif
#   From: 2010.05.17/outbox.cif.g08.bks.cpg/sg11_12_cif.got.tgz:23359.got - 2010.06.03 12:22:45.
