data_PCOD9163291
_publ_section_title
;
Structure prediction by ZEFSAII (Michael W. Deem and Ramdas Pophale) SiO2 
 PCOD9163291
Probable space group: P 21/M
;
_chemical_formula_sum "Si O2"
_cell_formula_units_Z 24
_cell_length_a 9.093667
_cell_length_b 14.490434
_cell_length_c 10.260458
_cell_angle_alpha 90.000000
_cell_angle_beta 91.221535
_cell_angle_gamma 90.000000
_cell_volume 1351.725412
_symmetry_space_group_name_H-M "P 21/M"
_symmetry_group_IT_number 11
_symmetry_cell_setting 'monoclinic'
loop_
_space_group_symop_operation_xyz
x,y,z
-x,1/2+y,-z
-x,-y,-z
x,1/2-y,z
loop_
_atom_site_type_symbol
_atom_site_label
_atom_site_fract_x
_atom_site_fract_y
_atom_site_fract_z
Si Si1 0.929891 0.947862 0.622676
Si Si2 0.080957 0.750000 0.695636
Si Si3 0.501775 0.750000 0.929600
Si Si4 0.403677 0.052101 0.101482
Si Si5 0.413157 0.750000 0.624634
Si Si6 0.905117 0.048970 0.888011
Si Si7 0.167887 0.750000 0.007156
Si Si8 0.424328 0.067913 0.399331
O O1 0.753472 0.934130 0.599048
O O2 0.997340 0.845903 0.656672
O O3 0.957516 0.016581 0.746061
O O4 0.000000 0.000000 0.500000
O O5 0.236573 0.750000 0.620319
O O6 0.113228 0.750000 0.853687
O O7 0.598009 0.658215 0.944345
O O8 0.450030 0.750000 0.778873
O O9 0.347950 0.750000 0.006067
O O10 0.465117 0.047578 0.249413
O O11 0.251292 0.000315 0.102770
O O12 0.500000 0.000000 0.000000
O O13 0.496982 0.663598 0.567487
O O14 0.887484 0.157294 0.921145
O O15 0.000000 0.000000 0.000000
O O16 0.500000 0.000000 0.500000
#
# Coordination Sequence:
#
# PCOD9163291 Si02
#       8
#     4   2   2   4   2   4   2   4
#     4  11  24  40  62  94 128 168 208 261 314 378
#     4  11  21  38  66  88 121 169 210 250 324 386
#     4   9  18  34  60  87 118 160 200 248 306 371
#     4  10  20  36  60  88 119 159 206 255 304 365
#     4   9  19  35  60  87 110 159 206 246 293 372
#     4  11  23  38  61  93 127 162 210 262 311 375
#     4  11  20  37  64  90 123 164 208 258 319 373
#     4  10  21  38  59  87 120 157 202 250 302 365
#
# _framework density 17.755085000000001
#
# number of rings (size 3 to 8) (size 9 to 14) (size 15 to 20)
#    0.000    1.667    3.333    1.500    0.000    4.667 
#    0.000    4.167    0.000    2.000    0.000    0.000 
#    0.000    0.000    0.000    0.000    0.000    0.000 
#
# Total GULP energy -133715.319966 kJ/mol
# GULP energy per Si atom -5571.471665 kJ/mol
# Density = 1.771467 g / cm^3
# Si number density = 17.755085 Si / 1000 Ang^3
#
#
#
# Elastic Constant Matrix: (Units=GPa)
#
#
# Indices 1 2 3 4 5 6 
#
# 1 68.5340 60.6807 55.0448 0.0000 2.8389 0.0000
# 2 60.6807 207.5994 86.7124 0.0000 -0.0094 0.0000
# 3 55.0448 86.7124 121.6479 0.0000 -13.1433 0.0000
# 4 0.0000 0.0000 0.0000 31.2323 0.0000 0.4577
# 5 2.8389 -0.0094 -13.1433 0.0000 29.6661 0.0000
# 6 0.0000 0.0000 0.0000 0.4577 0.0000 29.6959
#
#
#
# Elastic Compliance Matrix: (Units=1/GPa)
#
#
# Indices 1 2 3 4 5 6 
#
# 1 0.025983 -0.003375 -0.010104 0.000000 -0.006964 0.000000
# 2 -0.003375 0.007447 -0.003934 0.000000 -0.001418 0.000000
# 3 -0.010104 -0.003934 0.016490 0.000000 0.008272 0.000000
# 4 0.000000 0.000000 0.000000 0.032025 0.000000 -0.000494
# 5 -0.006964 -0.001418 0.008272 0.000000 0.038039 0.000000
# 6 0.000000 0.000000 0.000000 -0.000494 0.000000 0.033682
#
#
# Mechanical properties :
#
#
# Convention : Reuss Voigt Hill
#
# Bulk Modulus (GPa) = 66.25014 89.18412 77.71713
# Shear Modulus (GPa) = 25.83653 31.14174 28.48914
#
# Velocity S-wave (km/s) = 3.81880 4.19258 4.01004
# Velocity P-wave (km/s) = 7.53914 8.58930 8.08130
#
# Compressibility (1/GPa) = 0.01509431
#
# Stress axis : x y z
#
# Youngs Moduli (GPa) = 38.48653 134.28949 60.64098
#
# Poissons Ratio (x) = 0.45319 0.61272
# Poissons Ratio (y) = 0.12988 0.23857
# Poissons Ratio (z) = 0.38887 0.52832
#
# Static dielectric constant tensor:
#      x y z
#    x 1.592720 0.000000 -0.017370 
#    y 0.000000 1.575490 0.000000 
#    z -0.017370 0.000000 1.665670 
# 
# From -- ./inp_files/17008.got.cif
#   From: 2010.05.17/outbox.cif.g08.bks.cpg/sg11_9_cif.got.tgz:17008.got - 2010.06.03 12:22:45.
