data_PCOD9163191
_publ_section_title
;
Structure prediction by ZEFSAII (Michael W. Deem and Ramdas Pophale) SiO2 
 PCOD9163191
Probable space group: P 21/M
;
_chemical_formula_sum "Si O2"
_cell_formula_units_Z 32
_cell_length_a 29.498126
_cell_length_b 8.970142
_cell_length_c 5.272913
_cell_angle_alpha 90.000000
_cell_angle_beta 100.386064
_cell_angle_gamma 90.000000
_cell_volume 1372.365044
_symmetry_space_group_name_H-M "P 21/M"
_symmetry_group_IT_number 11
_symmetry_cell_setting 'monoclinic'
loop_
_space_group_symop_operation_xyz
x,y,z
-x,1/2+y,-z
-x,-y,-z
x,1/2-y,z
loop_
_atom_site_type_symbol
_atom_site_label
_atom_site_fract_x
_atom_site_fract_y
_atom_site_fract_z
Si Si1 0.676945 0.910398 0.010899
Si Si2 0.950157 0.569780 0.388054
Si Si3 0.271109 0.907747 0.279705
Si Si4 0.550024 0.568938 0.609618
Si Si5 0.822872 0.089498 0.090514
Si Si6 0.224971 0.093608 0.620623
Si Si7 0.907849 0.426170 0.838335
Si Si8 0.595184 0.428540 0.159936
O O1 0.652895 0.750000 0.978620
O O2 0.690896 0.970596 0.748957
O O3 0.726760 0.889313 0.184018
O O4 0.647294 0.030096 0.131513
O O5 0.048950 0.250000 0.613705
O O6 0.934440 0.505079 0.099392
O O7 0.000000 0.500000 0.500000
O O8 0.918440 0.506601 0.584849
O O9 0.294471 0.750000 0.336542
O O10 0.237996 0.952432 0.470669
O O11 0.231373 0.896516 0.027110
O O12 0.500000 0.500000 0.500000
O O13 0.548918 0.750000 0.612892
O O14 0.581685 0.507643 0.410446
O O15 0.566560 0.501470 0.896353
O O16 0.837991 0.250000 0.218764
O O17 0.854910 0.066217 0.880226
O O18 0.819830 0.944383 0.261409
O O19 0.218224 0.250000 0.468690
O O20 0.920279 0.250000 0.833712
O O21 0.588177 0.250000 0.166893
#
# Coordination Sequence:
#
# PCOD9163191 Si02
#       8
#     4   4   4   4   4   4   4   4
#     4  10  22  40  59  87 125 169 217 269 330 388
#     4  12  26  46  70 100 134 173 218 272 335 401
#     4  10  20  36  59  86 121 166 214 265 320 384
#     4  12  26  48  74 103 139 179 222 276 339 405
#     4   9  21  39  59  86 121 165 214 261 319 384
#     4  10  21  36  58  86 123 166 211 265 324 383
#     4  11  24  44  70 100 135 176 221 274 331 397
#     4  12  26  45  71 104 138 178 228 280 335 402
#
# _framework density 23.317409999999999
#
# number of rings (size 3 to 8) (size 9 to 14) (size 15 to 20)
#    0.000    1.250    0.000    5.625    3.500    3.000 
#    0.000    0.000    0.000    0.000    0.000    0.000 
#    0.000    0.000    0.000    0.000    0.000    0.000 
#
# Total GULP energy -178571.575824 kJ/mol
# GULP energy per Si atom -5580.361744 kJ/mol
# Density = 2.326434 g / cm^3
# Si number density = 23.317410 Si / 1000 Ang^3
#
#
#
# Elastic Constant Matrix: (Units=GPa)
#
#
# Indices 1 2 3 4 5 6 
#
# 1 83.3161 24.6474 4.8057 0.0000 -3.4269 0.0000
# 2 24.6474 171.1699 28.8565 0.0000 2.1186 0.0000
# 3 4.8057 28.8565 65.7751 0.0000 4.2032 0.0000
# 4 0.0000 0.0000 0.0000 31.5780 0.0000 -8.7918
# 5 -3.4269 2.1186 4.2032 0.0000 34.5357 0.0000
# 6 0.0000 0.0000 0.0000 -8.7918 0.0000 42.5631
#
#
#
# Elastic Compliance Matrix: (Units=1/GPa)
#
#
# Indices 1 2 3 4 5 6 
#
# 1 0.012603 -0.001794 -0.000222 0.000000 0.001388 0.000000
# 2 -0.001794 0.006564 -0.002733 0.000000 -0.000248 0.000000
# 3 -0.000222 -0.002733 0.016538 0.000000 -0.001867 0.000000
# 4 0.000000 0.000000 0.000000 0.033600 0.000000 0.006940
# 5 0.001388 -0.000248 -0.001867 0.000000 0.029336 0.000000
# 6 0.000000 0.000000 0.000000 0.006940 0.000000 0.024928
#
#
# Mechanical properties :
#
#
# Convention : Reuss Voigt Hill
#
# Bulk Modulus (GPa) = 38.15895 48.54223 43.35059
# Shear Modulus (GPa) = 35.25998 39.19879 37.22938
#
# Velocity S-wave (km/s) = 3.89289 4.10456 4.00013
# Velocity P-wave (km/s) = 6.05034 6.58229 6.32191
#
# Compressibility (1/GPa) = 0.02620617
#
# Stress axis : x y z
#
# Youngs Moduli (GPa) = 79.34464 152.33830 60.46739
#
# Poissons Ratio (x) = 0.27337 0.01344
# Poissons Ratio (y) = 0.14238 0.16525
# Poissons Ratio (z) = 0.01763 0.41633
#
# Static dielectric constant tensor:
#      x y z
#    x 1.881060 0.000000 0.061550 
#    y 0.000000 2.061960 0.000000 
#    z 0.061550 0.000000 1.972540 
# 
# From -- ./inp_files/9678.got.cif
#   From: 2010.05.17/outbox.cif.g08.bks.cpg/sg11_5_cif.got.tgz:9678.got - 2010.06.03 12:22:45.
