data_PCOD9163318
_publ_section_title
;
Structure prediction by ZEFSAII (Michael W. Deem and Ramdas Pophale) SiO2 
 PCOD9163318
Probable space group: P 21/M
;
_chemical_formula_sum "Si O2"
_cell_formula_units_Z 28
_cell_length_a 26.088635
_cell_length_b 8.749104
_cell_length_c 9.636615
_cell_angle_alpha 90.000000
_cell_angle_beta 141.903362
_cell_angle_gamma 90.000000
_cell_volume 1357.117207
_symmetry_space_group_name_H-M "P 21/M"
_symmetry_group_IT_number 11
_symmetry_cell_setting 'monoclinic'
loop_
_space_group_symop_operation_xyz
x,y,z
-x,1/2+y,-z
-x,-y,-z
x,1/2-y,z
loop_
_atom_site_type_symbol
_atom_site_label
_atom_site_fract_x
_atom_site_fract_y
_atom_site_fract_z
Si Si1 0.744540 0.931807 0.475976
Si Si2 0.869177 0.066132 0.953905
Si Si3 0.309291 0.928128 0.920763
Si Si4 0.502750 0.571567 0.354320
Si Si5 0.795087 0.566707 0.082056
Si Si6 0.035813 0.433479 0.433853
Si Si7 0.577554 0.068112 0.250839
O O1 0.744992 0.750000 0.484341
O O2 0.824046 0.998359 0.724534
O O3 0.736867 0.985545 0.301459
O O4 0.663086 0.996871 0.379618
O O5 0.863301 0.250000 0.941025
O O6 0.966771 0.020148 0.174107
O O7 0.822068 0.004077 0.992064
O O8 0.286509 0.750000 0.874409
O O9 0.287234 0.001535 0.022334
O O10 0.407398 0.938219 0.099276
O O11 0.500000 0.500000 0.500000
O O12 0.526672 0.750000 0.408478
O O13 0.560865 0.479305 0.373748
O O14 0.791104 0.750000 0.059450
O O15 0.867725 0.524119 0.349053
O O16 0.033733 0.250000 0.433626
O O17 0.000000 0.500000 0.500000
O O18 0.579714 0.250000 0.238775
O O19 0.500000 0.000000 0.000000
#
# Coordination Sequence:
#
# PCOD9163318 Si02
#       7
#     4   4   4   4   4   4   4
#     4  12  25  41  62  88 119 157 200 246 296 350
#     4  10  20  37  61  89 121 156 198 245 294 349
#     4  11  24  42  61  85 120 159 197 242 300 356
#     4  11  25  43  64  89 121 157 199 246 296 349
#     4  10  20  36  60  90 122 156 198 244 294 352
#     4   8  16  32  56  85 117 154 194 240 291 346
#     4  12  24  42  66  90 119 157 199 241 292 351
#
# _framework density 20.631968000000001
#
# number of rings (size 3 to 8) (size 9 to 14) (size 15 to 20)
#    0.000    1.429    1.429    4.286    2.000    2.857 
#    0.000    0.714    0.000    0.000    0.000    0.000 
#    0.000    0.000    0.000    0.000    0.000    0.000 
#
# Total GULP energy -156455.680815 kJ/mol
# GULP energy per Si atom -5587.702886 kJ/mol
# Density = 2.058501 g / cm^3
# Si number density = 20.631968 Si / 1000 Ang^3
#
#
#
# Elastic Constant Matrix: (Units=GPa)
#
#
# Indices 1 2 3 4 5 6 
#
# 1 45.9341 4.5317 -19.9381 0.0000 -10.8993 0.0000
# 2 4.5317 110.4566 24.7627 0.0000 -5.3841 0.0000
# 3 -19.9381 24.7627 78.6475 0.0000 -14.6736 0.0000
# 4 0.0000 0.0000 0.0000 32.7414 0.0000 -3.5553
# 5 -10.8993 -5.3841 -14.6736 0.0000 27.4725 0.0000
# 6 0.0000 0.0000 0.0000 -3.5553 0.0000 24.2292
#
#
#
# Elastic Compliance Matrix: (Units=1/GPa)
#
#
# Indices 1 2 3 4 5 6 
#
# 1 0.032058 -0.003235 0.012662 0.000000 0.018847 0.000000
# 2 -0.003235 0.010070 -0.004289 0.000000 -0.001601 0.000000
# 3 0.012662 -0.004289 0.020054 0.000000 0.014894 0.000000
# 4 0.000000 0.000000 0.000000 0.031037 0.000000 0.004554
# 5 0.018847 -0.001601 0.014894 0.000000 0.051519 0.000000
# 6 0.000000 0.000000 0.000000 0.004554 0.000000 0.041941
#
#
# Mechanical properties :
#
#
# Convention : Reuss Voigt Hill
#
# Bulk Modulus (GPa) = 13.80132 28.19453 20.99793
# Shear Modulus (GPa) = 24.93074 31.93409 28.43242
#
# Velocity S-wave (km/s) = 3.47991 3.93847 3.71627
# Velocity P-wave (km/s) = 4.78019 5.86321 5.34918
#
# Compressibility (1/GPa) = 0.07245683
#
# Stress axis : x y z
#
# Youngs Moduli (GPa) = 31.19375 99.30859 49.86436
#
# Poissons Ratio (x) = 0.32128 -0.63139
# Poissons Ratio (y) = 0.10092 0.21389
# Poissons Ratio (z) = -0.39498 0.42597
#
# Static dielectric constant tensor:
#      x y z
#    x 1.716920 0.000000 0.015750 
#    y 0.000000 1.683040 0.000000 
#    z 0.015750 0.000000 1.788460 
# 
# From -- ./inp_files/28574.got.cif
#   From: 2010.05.17/outbox.cif.g08.bks.cpg/sg11_15_cif.got.tgz:28574.got - 2010.06.03 12:22:45.
