data_PCOD9163180
_publ_section_title
;
Structure prediction by ZEFSAII (Michael W. Deem and Ramdas Pophale) SiO2 
 PCOD9163180
Probable space group: P 21/M
;
_chemical_formula_sum "Si O2"
_cell_formula_units_Z 28
_cell_length_a 10.513539
_cell_length_b 8.371808
_cell_length_c 28.538683
_cell_angle_alpha 90.000000
_cell_angle_beta 35.059648
_cell_angle_gamma 90.000000
_cell_volume 1442.907211
_symmetry_space_group_name_H-M "P 21/M"
_symmetry_group_IT_number 11
_symmetry_cell_setting 'monoclinic'
loop_
_space_group_symop_operation_xyz
x,y,z
-x,1/2+y,-z
-x,-y,-z
x,1/2-y,z
loop_
_atom_site_type_symbol
_atom_site_label
_atom_site_fract_x
_atom_site_fract_y
_atom_site_fract_z
Si Si1 0.814207 0.058639 0.687819
Si Si2 0.389148 0.554954 0.662715
Si Si3 0.123770 0.056866 0.509424
Si Si4 0.061454 0.441675 0.033236
Si Si5 0.069757 0.056943 0.243759
Si Si6 0.487182 0.058887 0.057056
Si Si7 0.638661 0.443097 0.220580
O O1 0.818096 0.250000 0.687460
O O2 0.988833 0.001881 0.595667
O O3 0.876412 0.995591 0.720033
O O4 0.571419 0.003054 0.745138
O O5 0.388022 0.750000 0.663019
O O6 0.621129 0.503253 0.570115
O O7 0.379511 0.504151 0.719971
O O8 0.170300 0.501020 0.701532
O O9 0.122493 0.250000 0.509822
O O10 0.000000 0.000000 0.500000
O O11 0.067416 0.250000 0.031615
O O12 0.867385 0.494330 0.127404
O O13 0.297484 0.504309 0.979292
O O14 0.000000 0.500000 0.000000
O O15 0.068551 0.250000 0.242755
O O16 0.264553 0.001318 0.150191
O O17 0.481275 0.250000 0.058312
O O18 0.500000 0.000000 0.000000
O O19 0.634411 0.250000 0.221600
#
# Coordination Sequence:
#
# PCOD9163180 Si02
#       7
#     4   4   4   4   4   4   4
#     4  11  23  36  55  88 123 150 185 240 294 338
#     4   9  18  36  61  83 107 145 193 237 273 330
#     4  10  20  36  59  86 116 148 188 235 286 340
#     4  11  23  38  58  86 117 152 198 245 294 352
#     4  10  22  40  60  83 113 155 199 231 277 351
#     4  11  23  40  62  87 117 155 199 245 296 352
#     4  10  20  37  61  83 107 150 198 235 281 348
#
# _framework density 19.405266000000001
#
# number of rings (size 3 to 8) (size 9 to 14) (size 15 to 20)
#    0.000    1.714    1.429    3.000    0.000    9.143 
#    0.000    1.429    0.000    0.000    0.000    0.000 
#    0.000    0.000    0.000    0.000    0.000    0.000 
#
# Total GULP energy -156489.027947 kJ/mol
# GULP energy per Si atom -5588.893855 kJ/mol
# Density = 1.936110 g / cm^3
# Si number density = 19.405266 Si / 1000 Ang^3
#
#
#
# Elastic Constant Matrix: (Units=GPa)
#
#
# Indices 1 2 3 4 5 6 
#
# 1 149.4354 10.4517 61.8075 0.0000 -18.0887 0.0000
# 2 10.4517 13.8379 18.8328 0.0000 -2.9185 0.0000
# 3 61.8075 18.8328 151.5295 0.0000 -19.1301 0.0000
# 4 0.0000 0.0000 0.0000 21.4820 0.0000 1.0169
# 5 -18.0887 -2.9185 -19.1301 0.0000 41.1315 0.0000
# 6 0.0000 0.0000 0.0000 1.0169 0.0000 17.8666
#
#
#
# Elastic Compliance Matrix: (Units=1/GPa)
#
#
# Indices 1 2 3 4 5 6 
#
# 1 0.008272 -0.001891 -0.002865 0.000000 0.002171 0.000000
# 2 -0.001891 0.087466 -0.010009 0.000000 0.000720 0.000000
# 3 -0.002865 -0.010009 0.009310 0.000000 0.002360 0.000000
# 4 0.000000 0.000000 0.000000 0.046676 0.000000 -0.002657
# 5 0.002171 0.000720 0.002360 0.000000 0.026416 0.000000
# 6 0.000000 0.000000 0.000000 -0.002657 0.000000 0.056122
#
#
# Mechanical properties :
#
#
# Convention : Reuss Voigt Hill
#
# Bulk Modulus (GPa) = 13.24166 55.22077 34.23121
# Shear Modulus (GPa) = 17.30324 31.01007 24.15666
#
# Velocity S-wave (km/s) = 2.98934 4.00187 3.53207
# Velocity P-wave (km/s) = 4.33052 7.06198 5.85769
#
# Compressibility (1/GPa) = 0.07551925
#
# Stress axis : x y z
#
# Youngs Moduli (GPa) = 120.89175 11.43298 107.41377
#
# Poissons Ratio (x) = 0.02162 0.30773
# Poissons Ratio (y) = 0.22858 1.07507
# Poissons Ratio (z) = 0.34635 0.11443
#
# Static dielectric constant tensor:
#      x y z
#    x 1.620160 0.000000 -0.000330 
#    y 0.000000 1.674120 0.000000 
#    z -0.000330 0.000000 1.679570 
# 
# From -- ./inp_files/70788.got.cif
#   From: 2010.05.17/outbox.cif.g08.bks.cpg/sg11_36_cif.got.tgz:70788.got - 2010.06.03 12:22:45.
