data_PCOD9163078
_publ_section_title
;
Structure prediction by ZEFSAII (Michael W. Deem and Ramdas Pophale) SiO2 
 PCOD9163078
Probable space group: P 21/M
;
_chemical_formula_sum "Si O2"
_cell_formula_units_Z 32
_cell_length_a 15.185312
_cell_length_b 14.140581
_cell_length_c 8.837969
_cell_angle_alpha 90.000000
_cell_angle_beta 114.954558
_cell_angle_gamma 90.000000
_cell_volume 1720.598776
_symmetry_space_group_name_H-M "P 21/M"
_symmetry_group_IT_number 11
_symmetry_cell_setting 'monoclinic'
loop_
_space_group_symop_operation_xyz
x,y,z
-x,1/2+y,-z
-x,-y,-z
x,1/2-y,z
loop_
_atom_site_type_symbol
_atom_site_label
_atom_site_fract_x
_atom_site_fract_y
_atom_site_fract_z
Si Si1 0.233421 0.638624 0.297851
Si Si2 0.743993 0.502516 0.110493
Si Si3 0.756769 0.637558 0.388764
Si Si4 0.082260 0.950271 0.960991
Si Si5 0.974868 0.636811 0.599075
Si Si6 0.598948 0.023035 0.738446
Si Si7 0.416902 0.363323 0.508486
Si Si8 0.165051 0.636674 0.585098
O O1 0.254734 0.750000 0.306256
O O2 0.326222 0.578927 0.315481
O O3 0.201812 0.614112 0.444817
O O4 0.147342 0.614141 0.118501
O O5 0.725573 0.587781 0.211556
O O6 0.838131 0.515529 0.068831
O O7 0.773113 0.415055 0.240456
O O8 0.652214 0.484036 0.937475
O O9 0.759853 0.750000 0.368838
O O10 0.865669 0.600982 0.501451
O O11 0.683704 0.620592 0.474369
O O12 0.025307 0.894008 0.790367
O O13 0.000000 0.000000 0.000000
O O14 0.968099 0.750000 0.592819
O O15 0.051807 0.609192 0.524975
O O16 0.501166 0.084515 0.665254
O O17 0.583412 0.920382 0.650234
O O18 0.431966 0.250000 0.504386
O O19 0.171598 0.750000 0.610460
#
# Coordination Sequence:
#
# PCOD9163078 Si02
#       8
#     4   4   4   4   4   4   4   4
#     4  10  20  36  58  84 116 152 194 241 284 336
#     4  10  22  36  56  82 115 147 184 236 279 339
#     4  10  22  38  57  80 112 154 193 230 279 338
#     4  10  22  32  51  82 113 151 194 236 284 334
#     4   9  19  35  52  74 110 152 190 229 276 330
#     4  10  22  39  62  89 113 146 186 236 293 341
#     4  10  22  41  63  85 112 146 188 236 287 344
#     4   9  19  34  55  83 113 149 191 231 277 333
#
# _framework density 18.598177
#
# number of rings (size 3 to 8) (size 9 to 14) (size 15 to 20)
#    0.000    2.250    0.000    1.500    7.000    5.500 
#    0.000    0.625    0.000    3.000    0.000    0.000 
#    0.000    0.000    0.000    0.000    0.000    0.000 
#
# Total GULP energy -178586.062689 kJ/mol
# GULP energy per Si atom -5580.814459 kJ/mol
# Density = 1.855585 g / cm^3
# Si number density = 18.598177 Si / 1000 Ang^3
#
#
#
# Elastic Constant Matrix: (Units=GPa)
#
#
# Indices 1 2 3 4 5 6 
#
# 1 48.1760 25.4789 31.0839 0.0000 11.5661 0.0000
# 2 25.4789 78.1603 18.7917 0.0000 3.0888 0.0000
# 3 31.0839 18.7917 90.9128 0.0000 9.8928 0.0000
# 4 0.0000 0.0000 0.0000 21.4263 0.0000 -0.1687
# 5 11.5661 3.0888 9.8928 0.0000 30.1836 0.0000
# 6 0.0000 0.0000 0.0000 -0.1687 0.0000 24.7726
#
#
#
# Elastic Compliance Matrix: (Units=1/GPa)
#
#
# Indices 1 2 3 4 5 6 
#
# 1 0.032780 -0.008284 -0.008525 0.000000 -0.008919 0.000000
# 2 -0.008284 0.015563 -0.000577 0.000000 0.001771 0.000000
# 3 -0.008525 -0.000577 0.014177 0.000000 -0.001321 0.000000
# 4 0.000000 0.000000 0.000000 0.046674 0.000000 0.000318
# 5 -0.008919 0.001771 -0.001321 0.000000 0.036800 0.000000
# 6 0.000000 0.000000 0.000000 0.000318 0.000000 0.040369
#
#
# Mechanical properties :
#
#
# Convention : Reuss Voigt Hill
#
# Bulk Modulus (GPa) = 36.03763 40.88423 38.46093
# Shear Modulus (GPa) = 21.70273 24.73613 23.21943
#
# Velocity S-wave (km/s) = 3.41974 3.65091 3.53722
# Velocity P-wave (km/s) = 5.91708 6.30895 6.11616
#
# Compressibility (1/GPa) = 0.02774877
#
# Stress axis : x y z
#
# Youngs Moduli (GPa) = 30.50648 64.25349 70.53480
#
# Poissons Ratio (x) = 0.53225 0.60131
# Poissons Ratio (y) = 0.25270 0.04073
# Poissons Ratio (z) = 0.26007 0.03710
#
# Static dielectric constant tensor:
#      x y z
#    x 1.653910 0.000000 0.006440 
#    y 0.000000 1.646970 0.000000 
#    z 0.006440 0.000000 1.615170 
# 
# From -- ./inp_files/22244.got.cif
#   From: 2010.05.17/outbox.cif.g08.bks.cpg/sg11_12_cif.got.tgz:22244.got - 2010.06.03 12:22:45.
