data_PCOD9163242
_publ_section_title
;
Structure prediction by ZEFSAII (Michael W. Deem and Ramdas Pophale) SiO2 
 PCOD9163242
Probable space group: P 21/M
;
_chemical_formula_sum "Si O2"
_cell_formula_units_Z 28
_cell_length_a 5.317661
_cell_length_b 9.672890
_cell_length_c 25.256293
_cell_angle_alpha 90.000000
_cell_angle_beta 73.506242
_cell_angle_gamma 90.000000
_cell_volume 1245.654153
_symmetry_space_group_name_H-M "P 21/M"
_symmetry_group_IT_number 11
_symmetry_cell_setting 'monoclinic'
loop_
_space_group_symop_operation_xyz
x,y,z
-x,1/2+y,-z
-x,-y,-z
x,1/2-y,z
loop_
_atom_site_type_symbol
_atom_site_label
_atom_site_fract_x
_atom_site_fract_y
_atom_site_fract_z
Si Si1 0.089622 0.098835 0.327555
Si Si2 0.270175 0.914133 0.482971
Si Si3 0.353311 0.586435 0.126731
Si Si4 0.973027 0.403921 0.211950
Si Si5 0.054091 0.087253 0.944497
Si Si6 0.562224 0.597119 0.269641
Si Si7 0.295738 0.102810 0.620324
O O1 0.179678 0.250000 0.340526
O O2 0.976389 0.115915 0.275035
O O3 0.319845 0.992429 0.303183
O O4 0.879863 0.030894 0.379620
O O5 0.242627 0.750000 0.499895
O O6 0.407014 0.911879 0.416699
O O7 0.500000 0.000000 0.500000
O O8 0.000000 0.000000 0.500000
O O9 0.326336 0.750000 0.142270
O O10 0.230465 0.483887 0.177367
O O11 0.655216 0.557350 0.095239
O O12 0.168891 0.562715 0.086267
O O13 0.945041 0.250000 0.190009
O O14 0.734995 0.510632 0.218193
O O15 0.049052 0.250000 0.957878
O O16 0.000000 0.000000 0.000000
O O17 0.493835 0.750000 0.254166
O O18 0.717301 0.615186 0.315651
O O19 0.197731 0.250000 0.603029
#
# Coordination Sequence:
#
# PCOD9163242 Si02
#       7
#     4   4   4   4   4   4   4
#     4  10  21  36  57  87 121 154 197 253 305 362
#     4  11  25  45  68  97 132 170 217 273 330 393
#     4  10  22  39  60  89 121 158 201 249 300 362
#     4  10  22  38  55  84 121 156 199 249 303 361
#     4  10  22  40  62  88 119 154 202 252 302 358
#     4  10  20  36  60  85 115 158 201 246 302 368
#     4   9  21  40  60  84 116 159 207 251 307 377
#
# _framework density 22.478149999999999
#
# number of rings (size 3 to 8) (size 9 to 14) (size 15 to 20)
#    0.000    2.000    0.000    2.143    4.000    4.571 
#    0.000    0.000    0.000    0.000    0.000    0.000 
#    0.000    0.000    0.000    0.000    0.000    0.000 
#
# Total GULP energy -156247.427575 kJ/mol
# GULP energy per Si atom -5580.265271 kJ/mol
# Density = 2.242699 g / cm^3
# Si number density = 22.478150 Si / 1000 Ang^3
#
#
#
# Elastic Constant Matrix: (Units=GPa)
#
#
# Indices 1 2 3 4 5 6 
#
# 1 96.6642 55.3867 26.3526 0.0000 -17.4714 0.0000
# 2 55.3867 188.5527 49.3223 0.0000 -32.5326 0.0000
# 3 26.3526 49.3223 84.1554 0.0000 -15.2456 0.0000
# 4 0.0000 0.0000 0.0000 23.7807 0.0000 -4.1028
# 5 -17.4714 -32.5326 -15.2456 0.0000 37.1606 0.0000
# 6 0.0000 0.0000 0.0000 -4.1028 0.0000 22.6006
#
#
#
# Elastic Compliance Matrix: (Units=1/GPa)
#
#
# Indices 1 2 3 4 5 6 
#
# 1 0.013000 -0.002830 -0.001894 0.000000 0.002857 0.000000
# 2 -0.002830 0.007587 -0.002807 0.000000 0.004160 0.000000
# 3 -0.001894 -0.002807 0.014600 0.000000 0.002642 0.000000
# 4 0.000000 0.000000 0.000000 0.043411 0.000000 0.007881
# 5 0.002857 0.004160 0.002642 0.000000 0.032979 0.000000
# 6 0.000000 0.000000 0.000000 0.007881 0.000000 0.045677
#
#
# Mechanical properties :
#
#
# Convention : Reuss Voigt Hill
#
# Bulk Modulus (GPa) = 49.69328 70.16617 59.92973
# Shear Modulus (GPa) = 27.92936 32.59576 30.26256
#
# Velocity S-wave (km/s) = 3.52875 3.81216 3.67319
# Velocity P-wave (km/s) = 6.22560 7.11757 6.68648
#
# Compressibility (1/GPa) = 0.02012345
#
# Stress axis : x y z
#
# Youngs Moduli (GPa) = 76.92602 131.80780 68.49517
#
# Poissons Ratio (x) = 0.37302 0.12976
# Poissons Ratio (y) = 0.21770 0.19225
# Poissons Ratio (z) = 0.14573 0.36995
#
# Static dielectric constant tensor:
#      x y z
#    x 1.890050 0.000000 0.057230 
#    y 0.000000 1.925290 0.000000 
#    z 0.057230 0.000000 1.849160 
# 
# From -- ./inp_files/9701.got.cif
#   From: 2010.05.17/outbox.cif.g08.bks.cpg/sg11_5_cif.got.tgz:9701.got - 2010.06.03 12:22:45.
