data_PCOD9163857
_publ_section_title
;
Structure prediction by ZEFSAII (Michael W. Deem and Ramdas Pophale) SiO2 
 PCOD9163857
Probable space group: P 21/M
;
_chemical_formula_sum "Si O2"
_cell_formula_units_Z 24
_cell_length_a 7.830227
_cell_length_b 25.674414
_cell_length_c 6.553651
_cell_angle_alpha 90.000000
_cell_angle_beta 66.888483
_cell_angle_gamma 90.000000
_cell_volume 1211.782042
_symmetry_space_group_name_H-M "P 21/M"
_symmetry_group_IT_number 11
_symmetry_cell_setting 'monoclinic'
loop_
_space_group_symop_operation_xyz
x,y,z
-x,1/2+y,-z
-x,-y,-z
x,1/2-y,z
loop_
_atom_site_type_symbol
_atom_site_label
_atom_site_fract_x
_atom_site_fract_y
_atom_site_fract_z
Si Si1 0.118444 0.615349 0.683513
Si Si2 0.870895 0.864332 0.177003
Si Si3 0.171826 0.689105 0.303217
Si Si4 0.223493 0.429348 0.400013
Si Si5 0.463876 0.377615 0.955000
Si Si6 0.387802 0.965108 0.396137
O O1 0.150901 0.669105 0.546791
O O2 0.296257 0.579558 0.577400
O O3 0.966338 0.585320 0.620909
O O4 0.033487 0.619785 0.945245
O O5 0.800055 0.910679 0.356271
O O6 0.695594 0.850542 0.112922
O O7 0.978681 0.824267 0.275752
O O8 0.208932 0.750000 0.273399
O O9 0.347487 0.656156 0.132812
O O10 0.257348 0.490632 0.360165
O O11 0.376394 0.393437 0.213214
O O12 0.509529 0.432924 0.826888
O O13 0.500000 0.000000 0.500000
#
# Coordination Sequence:
#
# PCOD9163857 Si02
#       6
#     4   4   4   4   4   4
#     4   9  22  39  58  84 119 153 197 245 286 353
#     4  10  21  40  60  84 119 153 192 245 289 349
#     4  10  23  41  63  85 109 149 198 249 305 349
#     4  10  20  38  57  85 122 159 195 231 290 349
#     4  10  22  39  59  88 123 154 197 248 286 355
#     4  11  20  34  58  87 122 164 195 231 294 347
#
# _framework density 19.805541999999999
#
# number of rings (size 3 to 8) (size 9 to 14) (size 15 to 20)
#    0.000    2.000    1.667    1.000    2.333    2.000 
#    3.000    6.667    0.000    0.000    0.000    0.000 
#    0.000    0.000    0.000    0.000    0.000    0.000 
#
# Total GULP energy -133766.391395 kJ/mol
# GULP energy per Si atom -5573.599641 kJ/mol
# Density = 1.976046 g / cm^3
# Si number density = 19.805542 Si / 1000 Ang^3
#
#
#
# Elastic Constant Matrix: (Units=GPa)
#
#
# Indices 1 2 3 4 5 6 
#
# 1 58.6261 20.7608 9.6172 0.0000 2.6346 0.0000
# 2 20.7608 83.0032 12.5047 0.0000 8.8217 0.0000
# 3 9.6172 12.5047 96.0456 0.0000 -8.6596 0.0000
# 4 0.0000 0.0000 0.0000 5.3710 0.0000 -1.0329
# 5 2.6346 8.8217 -8.6596 0.0000 23.7851 0.0000
# 6 0.0000 0.0000 0.0000 -1.0329 0.0000 22.2423
#
#
#
# Elastic Compliance Matrix: (Units=1/GPa)
#
#
# Indices 1 2 3 4 5 6 
#
# 1 0.018893 -0.004411 -0.001405 0.000000 -0.000968 0.000000
# 2 -0.004411 0.014005 -0.001867 0.000000 -0.005385 0.000000
# 3 -0.001405 -0.001867 0.011241 0.000000 0.004941 0.000000
# 4 0.000000 0.000000 0.000000 0.187864 0.000000 0.008724
# 5 -0.000968 -0.005385 0.004941 0.000000 0.045946 0.000000
# 6 0.000000 0.000000 0.000000 0.008724 0.000000 0.045365
#
#
# Mechanical properties :
#
#
# Convention : Reuss Voigt Hill
#
# Bulk Modulus (GPa) = 34.75511 35.93781 35.34646
# Shear Modulus (GPa) = 14.35665 23.26582 18.81123
#
# Velocity S-wave (km/s) = 2.69528 3.43113 3.08522
# Velocity P-wave (km/s) = 5.22229 5.82079 5.52964
#
# Compressibility (1/GPa) = 0.02877275
#
# Stress axis : x y z
#
# Youngs Moduli (GPa) = 52.92891 71.40464 88.96047
#
# Poissons Ratio (x) = 0.31497 0.12497
# Poissons Ratio (y) = 0.23347 0.16611
# Poissons Ratio (z) = 0.07435 0.13333
#
# Static dielectric constant tensor:
#      x y z
#    x 1.804700 0.000000 0.008070 
#    y 0.000000 1.712180 0.000000 
#    z 0.008070 0.000000 1.731490 
# 
# From -- ./inp_files/2662.got.cif
#   From: 2010.05.17/outbox.cif.g08.bks.cpg/sg11_2_cif.got.tgz:2662.got - 2010.06.03 12:22:45.
