data_PCOD9163101
_publ_section_title
;
Structure prediction by ZEFSAII (Michael W. Deem and Ramdas Pophale) SiO2 
 PCOD9163101
Probable space group: P 21/M
;
_chemical_formula_sum "Si O2"
_cell_formula_units_Z 28
_cell_length_a 23.551083
_cell_length_b 13.169198
_cell_length_c 6.449161
_cell_angle_alpha 90.000000
_cell_angle_beta 45.571649
_cell_angle_gamma 90.000000
_cell_volume 1428.395618
_symmetry_space_group_name_H-M "P 21/M"
_symmetry_group_IT_number 11
_symmetry_cell_setting 'monoclinic'
loop_
_space_group_symop_operation_xyz
x,y,z
-x,1/2+y,-z
-x,-y,-z
x,1/2-y,z
loop_
_atom_site_type_symbol
_atom_site_label
_atom_site_fract_x
_atom_site_fract_y
_atom_site_fract_z
Si Si1 0.418778 0.134713 0.720130
Si Si2 0.295218 0.633051 0.505313
Si Si3 0.937959 0.137449 0.240231
Si Si4 0.550392 0.457087 0.679417
Si Si5 0.894113 0.557859 0.081158
Si Si6 0.831587 0.043026 0.859105
Si Si7 0.738974 0.548075 0.715739
O O1 0.423795 0.250000 0.632156
O O2 0.493101 0.108398 0.678047
O O3 0.419828 0.052510 0.533067
O O4 0.337696 0.116983 0.055424
O O5 0.293623 0.750000 0.444794
O O6 0.376060 0.606357 0.420032
O O7 0.287498 0.555337 0.333465
O O8 0.223030 0.607131 0.845372
O O9 0.919054 0.250000 0.213372
O O10 0.888660 0.111586 0.573154
O O11 0.913988 0.050924 0.137951
O O12 0.030976 0.126457 0.055204
O O13 0.500000 0.500000 0.000000
O O14 0.810895 0.592976 0.394288
O O15 0.881519 0.535198 0.872002
O O16 0.775898 0.982135 0.842209
#
# Coordination Sequence:
#
# PCOD9163101 Si02
#       7
#     4   4   4   4   4   4   4
#     4  11  24  42  65  90 121 163 202 247 302 356
#     4  11  22  37  61  89 119 160 199 246 305 352
#     4  10  20  36  58  86 114 151 198 240 292 354
#     4  11  23  44  62  89 123 154 204 256 295 357
#     4   9  21  37  58  84 119 155 188 247 293 340
#     4  10  20  37  58  83 122 154 192 247 296 349
#     4  10  21  40  58  87 123 152 201 246 290 359
#
# _framework density 19.602412000000001
#
# number of rings (size 3 to 8) (size 9 to 14) (size 15 to 20)
#    0.000    1.714    2.857    1.286    0.000    8.000 
#    0.000    0.714    0.000    0.000    0.000    0.000 
#    0.000    0.000    0.000    0.000    0.000    0.000 
#
# Total GULP energy -156448.462190 kJ/mol
# GULP energy per Si atom -5587.445078 kJ/mol
# Density = 1.955780 g / cm^3
# Si number density = 19.602412 Si / 1000 Ang^3
#
#
#
# Elastic Constant Matrix: (Units=GPa)
#
#
# Indices 1 2 3 4 5 6 
#
# 1 88.6918 2.6563 16.6092 0.0000 -2.0961 0.0000
# 2 2.6563 53.2053 15.3178 0.0000 -3.7014 0.0000
# 3 16.6092 15.3178 46.9117 0.0000 -10.5973 0.0000
# 4 0.0000 0.0000 0.0000 11.0379 0.0000 4.2794
# 5 -2.0961 -3.7014 -10.5973 0.0000 37.6483 0.0000
# 6 0.0000 0.0000 0.0000 4.2794 0.0000 9.1269
#
#
#
# Elastic Compliance Matrix: (Units=1/GPa)
#
#
# Indices 1 2 3 4 5 6 
#
# 1 0.012110 0.000692 -0.004641 0.000000 -0.000564 0.000000
# 2 0.000692 0.020786 -0.007007 0.000000 0.000110 0.000000
# 3 -0.004641 -0.007007 0.026734 0.000000 0.006578 0.000000
# 4 0.000000 0.000000 0.000000 0.110725 0.000000 -0.051916
# 5 -0.000564 0.000110 0.006578 0.000000 0.028393 0.000000
# 6 0.000000 0.000000 0.000000 -0.051916 0.000000 0.133908
#
#
# Mechanical properties :
#
#
# Convention : Reuss Voigt Hill
#
# Bulk Modulus (GPa) = 26.51305 28.66393 27.58849
# Shear Modulus (GPa) = 13.61880 21.84433 17.73156
#
# Velocity S-wave (km/s) = 2.63867 3.34184 3.01085
# Velocity P-wave (km/s) = 4.77894 5.43552 5.11777
#
# Compressibility (1/GPa) = 0.03771728
#
# Stress axis : x y z
#
# Youngs Moduli (GPa) = 82.57602 48.11026 37.40583
#
# Poissons Ratio (x) = -0.03331 0.17360
# Poissons Ratio (y) = -0.05717 0.26212
# Poissons Ratio (z) = 0.38324 0.33712
#
# Static dielectric constant tensor:
#      x y z
#    x 1.684830 0.000000 -0.019440 
#    y 0.000000 1.655080 0.000000 
#    z -0.019440 0.000000 1.686600 
# 
# From -- ./inp_files/9000.got.cif
#   From: 2010.05.17/outbox.cif.g08.bks.cpg/sg11_5_cif.got.tgz:9000.got - 2010.06.03 12:22:45.
