data_PCOD9163280
_publ_section_title
;
Structure prediction by ZEFSAII (Michael W. Deem and Ramdas Pophale) SiO2 
 PCOD9163280
Probable space group: P 21/M
;
_chemical_formula_sum "Si O2"
_cell_formula_units_Z 28
_cell_length_a 11.667076
_cell_length_b 14.552120
_cell_length_c 8.355358
_cell_angle_alpha 90.000000
_cell_angle_beta 69.152456
_cell_angle_gamma 90.000000
_cell_volume 1325.705090
_symmetry_space_group_name_H-M "P 21/M"
_symmetry_group_IT_number 11
_symmetry_cell_setting 'monoclinic'
loop_
_space_group_symop_operation_xyz
x,y,z
-x,1/2+y,-z
-x,-y,-z
x,1/2-y,z
loop_
_atom_site_type_symbol
_atom_site_label
_atom_site_fract_x
_atom_site_fract_y
_atom_site_fract_z
Si Si1 0.270069 0.654128 0.652093
Si Si2 0.534213 0.519391 0.217875
Si Si3 0.335190 0.465038 0.548063
Si Si4 0.978150 0.144153 0.076633
Si Si5 0.043409 0.039078 0.722921
Si Si6 0.858841 0.349920 0.629514
Si Si7 0.610903 0.141112 0.956776
O O1 0.336784 0.750000 0.629579
O O2 0.357949 0.570698 0.590082
O O3 0.170488 0.647377 0.841646
O O4 0.190569 0.651814 0.527050
O O5 0.414087 0.464602 0.348248
O O6 0.608261 0.576221 0.318535
O O7 0.487458 0.596699 0.117275
O O8 0.610093 0.437801 0.093485
O O9 0.188613 0.455975 0.609151
O O10 0.017624 0.250000 0.091841
O O11 0.001893 0.061054 0.190642
O O12 0.023532 0.107701 0.883911
O O13 0.957494 0.074741 0.624767
O O14 0.915544 0.250000 0.632832
O O15 0.740678 0.360438 0.800423
O O16 0.587730 0.250000 0.009086
#
# Coordination Sequence:
#
# PCOD9163280 Si02
#       7
#     4   4   4   4   4   4   4
#     4   9  18  34  57  87 114 147 197 244 288 340
#     4  10  22  41  62  86 120 154 204 242 284 354
#     4  10  21  38  59  87 119 159 192 244 295 348
#     4   9  19  34  52  80 116 150 189 234 284 352
#     4  10  21  35  58  86 117 153 191 237 304 346
#     4  10  20  36  60  88 116 149 194 246 294 350
#     4  10  22  41  64  87 113 154 200 248 294 345
#
# _framework density 21.120835
#
# number of rings (size 3 to 8) (size 9 to 14) (size 15 to 20)
#    0.000    2.286    1.429    0.429    6.000    2.857 
#    0.000    5.000    0.000    0.000    0.000    0.000 
#    0.000    0.000    0.000    0.000    0.000    0.000 
#
# Total GULP energy -155875.219418 kJ/mol
# GULP energy per Si atom -5566.972122 kJ/mol
# Density = 2.107276 g / cm^3
# Si number density = 21.120835 Si / 1000 Ang^3
#
#
#
# Elastic Constant Matrix: (Units=GPa)
#
#
# Indices 1 2 3 4 5 6 
#
# 1 52.6679 18.4754 9.0481 0.0000 2.2759 0.0000
# 2 18.4754 101.0105 15.9615 0.0000 -3.0833 0.0000
# 3 9.0481 15.9615 72.8023 0.0000 -18.1662 0.0000
# 4 0.0000 0.0000 0.0000 14.9393 0.0000 -8.2719
# 5 2.2759 -3.0833 -18.1662 0.0000 30.3206 0.0000
# 6 0.0000 0.0000 0.0000 -8.2719 0.0000 25.0269
#
#
#
# Elastic Compliance Matrix: (Units=1/GPa)
#
#
# Indices 1 2 3 4 5 6 
#
# 1 0.020829 -0.003490 -0.002707 0.000000 -0.003540 0.000000
# 2 -0.003490 0.010843 -0.001885 0.000000 0.000235 0.000000
# 3 -0.002707 -0.001885 0.017035 0.000000 0.010218 0.000000
# 4 0.000000 0.000000 0.000000 0.081932 0.000000 0.027080
# 5 -0.003540 0.000235 0.010218 0.000000 0.039393 0.000000
# 6 0.000000 0.000000 0.000000 0.027080 0.000000 0.048908
#
#
# Mechanical properties :
#
#
# Convention : Reuss Voigt Hill
#
# Bulk Modulus (GPa) = 30.72764 34.82784 32.77774
# Shear Modulus (GPa) = 20.32918 26.25706 23.29312
#
# Velocity S-wave (km/s) = 3.10581 3.52970 3.32452
# Velocity P-wave (km/s) = 5.23846 5.75651 5.50358
#
# Compressibility (1/GPa) = 0.03254399
#
# Stress axis : x y z
#
# Youngs Moduli (GPa) = 48.00945 92.22243 58.70211
#
# Poissons Ratio (x) = 0.32187 0.15890
# Poissons Ratio (y) = 0.16756 0.11064
# Poissons Ratio (z) = 0.12996 0.17383
#
# Static dielectric constant tensor:
#      x y z
#    x 1.784180 0.000000 0.081010 
#    y 0.000000 1.813650 0.000000 
#    z 0.081010 0.000000 1.858430 
# 
# From -- ./inp_files/17694.got.cif
#   From: 2010.05.17/outbox.cif.g08.bks.cpg/sg11_9_cif.got.tgz:17694.got - 2010.06.03 12:22:45.
