data_PCOD9163800
_publ_section_title
;
Structure prediction by ZEFSAII (Michael W. Deem and Ramdas Pophale) SiO2 
 PCOD9163800
Probable space group: P 21/M
;
_chemical_formula_sum "Si O2"
_cell_formula_units_Z 32
_cell_length_a 12.890149
_cell_length_b 8.182040
_cell_length_c 32.468138
_cell_angle_alpha 90.000000
_cell_angle_beta 27.975780
_cell_angle_gamma 90.000000
_cell_volume 1606.352161
_symmetry_space_group_name_H-M "P 21/M"
_symmetry_group_IT_number 11
_symmetry_cell_setting 'monoclinic'
loop_
_space_group_symop_operation_xyz
x,y,z
-x,1/2+y,-z
-x,-y,-z
x,1/2-y,z
loop_
_atom_site_type_symbol
_atom_site_label
_atom_site_fract_x
_atom_site_fract_y
_atom_site_fract_z
Si Si1 0.753099 0.062781 0.584930
Si Si2 0.226699 0.055366 0.695522
Si Si3 0.205933 0.447765 0.200960
Si Si4 0.110544 0.445903 0.828541
Si Si5 0.487090 0.935807 0.751146
Si Si6 0.872639 0.551782 0.677076
Si Si7 0.321852 0.059996 0.477088
Si Si8 0.392294 0.552597 0.994729
O O1 0.727745 0.250000 0.607862
O O2 0.618342 0.947242 0.662171
O O3 0.688972 0.048253 0.560173
O O4 0.000000 0.000000 0.500000
O O5 0.261044 0.250000 0.683175
O O6 0.210848 0.997221 0.749089
O O7 0.423411 0.972141 0.599989
O O8 0.991759 0.016667 0.757380
O O9 0.196186 0.250000 0.202310
O O10 0.172319 0.494678 0.260128
O O11 0.440868 0.500676 0.099748
O O12 0.105711 0.250000 0.826574
O O13 0.256909 0.485228 0.817422
O O14 0.859429 0.507764 0.920347
O O15 0.442694 0.750000 0.779137
O O16 0.665450 0.005519 0.721310
O O17 0.879879 0.750000 0.670888
O O18 0.112313 0.487767 0.578354
O O19 0.296871 0.250000 0.475210
O O20 0.383697 0.750000 0.997003
O O21 0.500000 0.500000 0.000000
#
# Coordination Sequence:
#
# PCOD9163800 Si02
#       8
#     4   4   4   4   4   4   4   4
#     4  12  22  34  54  83 117 153 196 247 294 344
#     4  11  22  37  59  88 124 157 190 245 304 354
#     4  10  22  41  64  87 116 156 201 246 297 362
#     4  10  21  36  57  89 125 154 187 243 307 355
#     4  11  22  36  58  85 118 159 202 247 293 347
#     4  10  23  42  60  82 118 162 204 247 294 347
#     4  12  24  37  58  87 118 158 204 246 294 352
#     4  10  20  37  63  92 119 150 190 242 303 359
#
# _framework density 19.920909999999999
#
# number of rings (size 3 to 8) (size 9 to 14) (size 15 to 20)
#    0.000    1.250    3.750    3.000    0.000    2.500 
#    0.000    0.625    0.000    0.000    0.000    0.000 
#    0.000    0.000    0.000    0.000    0.000    0.000 
#
# Total GULP energy -178559.061347 kJ/mol
# GULP energy per Si atom -5579.970667 kJ/mol
# Density = 1.987557 g / cm^3
# Si number density = 19.920910 Si / 1000 Ang^3
#
#
#
# Elastic Constant Matrix: (Units=GPa)
#
#
# Indices 1 2 3 4 5 6 
#
# 1 78.0057 15.6335 67.4474 0.0000 -6.6950 0.0000
# 2 15.6335 35.9231 14.3660 0.0000 -1.8907 0.0000
# 3 67.4474 14.3660 144.8287 0.0000 -20.8690 0.0000
# 4 0.0000 0.0000 0.0000 21.0367 0.0000 -7.0361
# 5 -6.6950 -1.8907 -20.8690 0.0000 36.7847 0.0000
# 6 0.0000 0.0000 0.0000 -7.0361 0.0000 21.3432
#
#
#
# Elastic Compliance Matrix: (Units=1/GPa)
#
#
# Indices 1 2 3 4 5 6 
#
# 1 0.022720 -0.005879 -0.010286 0.000000 -0.002003 0.000000
# 2 -0.005879 0.030509 -0.000236 0.000000 0.000364 0.000000
# 3 -0.010286 -0.000236 0.012466 0.000000 0.005188 0.000000
# 4 0.000000 0.000000 0.000000 0.053427 0.000000 0.017613
# 5 -0.002003 0.000364 0.005188 0.000000 0.029783 0.000000
# 6 0.000000 0.000000 0.000000 0.017613 0.000000 0.052660
#
#
# Mechanical properties :
#
#
# Convention : Reuss Voigt Hill
#
# Bulk Modulus (GPa) = 30.40195 50.40569 40.40382
# Shear Modulus (GPa) = 20.38056 26.58695 23.48376
#
# Velocity S-wave (km/s) = 3.20202 3.65722 3.43716
# Velocity P-wave (km/s) = 5.38192 6.57202 6.00652
#
# Compressibility (1/GPa) = 0.03289263
#
# Stress axis : x y z
#
# Youngs Moduli (GPa) = 44.01423 32.77678 80.21834
#
# Poissons Ratio (x) = 0.19271 0.82514
# Poissons Ratio (y) = 0.25878 0.01891
# Poissons Ratio (z) = 0.45274 0.00773
#
# Static dielectric constant tensor:
#      x y z
#    x 1.717410 0.000000 -0.045040 
#    y 0.000000 1.747490 0.000000 
#    z -0.045040 0.000000 1.726230 
# 
# From -- ./inp_files/73096.got.cif
#   From: 2010.05.17/outbox.cif.g08.bks.cpg/sg11_37_cif.got.tgz:73096.got - 2010.06.03 12:22:45.
