data_PCOD9163105
_publ_section_title
;
Structure prediction by ZEFSAII (Michael W. Deem and Ramdas Pophale) SiO2 
 PCOD9163105
Probable space group: P 21/M
;
_chemical_formula_sum "Si O2"
_cell_formula_units_Z 24
_cell_length_a 10.352888
_cell_length_b 8.747958
_cell_length_c 15.157259
_cell_angle_alpha 90.000000
_cell_angle_beta 80.205945
_cell_angle_gamma 90.000000
_cell_volume 1352.734907
_symmetry_space_group_name_H-M "P 21/M"
_symmetry_group_IT_number 11
_symmetry_cell_setting 'monoclinic'
loop_
_space_group_symop_operation_xyz
x,y,z
-x,1/2+y,-z
-x,-y,-z
x,1/2-y,z
loop_
_atom_site_type_symbol
_atom_site_label
_atom_site_fract_x
_atom_site_fract_y
_atom_site_fract_z
Si Si1 0.457602 0.066588 0.727409
Si Si2 0.883737 0.934373 0.072839
Si Si3 0.606177 0.932399 0.554987
Si Si4 0.170996 0.932866 0.731008
Si Si5 0.586763 0.566917 0.067716
Si Si6 0.106209 0.067058 0.554239
O O1 0.447502 0.250000 0.720825
O O2 0.468997 0.025701 0.829107
O O3 0.573387 0.004355 0.653445
O O4 0.320649 0.994537 0.710419
O O5 0.889193 0.750000 0.075418
O O6 0.740220 0.979196 0.050989
O O7 0.888126 0.999638 0.171689
O O8 0.000000 0.000000 0.000000
O O9 0.591266 0.750000 0.560840
O O10 0.750359 0.967557 0.502547
O O11 0.500000 0.000000 0.500000
O O12 0.170708 0.750000 0.733804
O O13 0.099592 0.993077 0.651873
O O14 0.584156 0.750000 0.061448
O O15 0.500000 0.500000 0.000000
O O16 0.093307 0.250000 0.563044
O O17 0.000000 0.000000 0.500000
#
# Coordination Sequence:
#
# PCOD9163105 Si02
#       6
#     4   4   4   4   4   4
#     4  10  20  36  58  86 117 150 194 240 284 342
#     4  10  21  39  61  87 116 151 194 241 287 345
#     4  11  22  36  60  88 115 150 193 239 285 343
#     4  11  21  36  61  87 114 153 195 238 291 347
#     4   9  20  37  58  84 116 150 186 234 287 337
#     4  11  24  41  59  84 119 156 194 239 291 346
#
# _framework density 17.741834999999998
#
# number of rings (size 3 to 8) (size 9 to 14) (size 15 to 20)
#    0.000    1.667    1.667    4.500    0.000    6.000 
#    3.000    0.000    0.000    0.000    0.000    0.000 
#    0.000    0.000    0.000    0.000    0.000    0.000 
#
# Total GULP energy -134062.410373 kJ/mol
# GULP energy per Si atom -5585.933766 kJ/mol
# Density = 1.770145 g / cm^3
# Si number density = 17.741835 Si / 1000 Ang^3
#
#
#
# Elastic Constant Matrix: (Units=GPa)
#
#
# Indices 1 2 3 4 5 6 
#
# 1 110.1173 62.9725 95.2457 0.0000 11.9221 0.0000
# 2 62.9725 84.8703 66.4054 0.0000 -1.5209 0.0000
# 3 95.2457 66.4054 164.5630 0.0000 6.5502 0.0000
# 4 0.0000 0.0000 0.0000 38.2857 0.0000 1.1028
# 5 11.9221 -1.5209 6.5502 0.0000 38.1877 0.0000
# 6 0.0000 0.0000 0.0000 1.1028 0.0000 31.1569
#
#
#
# Elastic Compliance Matrix: (Units=1/GPa)
#
#
# Indices 1 2 3 4 5 6 
#
# 1 0.023797 -0.010503 -0.009286 0.000000 -0.006255 0.000000
# 2 -0.010503 0.021992 -0.002981 0.000000 0.004666 0.000000
# 3 -0.009286 -0.002981 0.012629 0.000000 0.000614 0.000000
# 4 0.000000 0.000000 0.000000 0.026146 0.000000 -0.000925
# 5 -0.006255 0.004666 0.000614 0.000000 0.028220 0.000000
# 6 0.000000 0.000000 0.000000 -0.000925 0.000000 0.032128
#
#
# Mechanical properties :
#
#
# Convention : Reuss Voigt Hill
#
# Bulk Modulus (GPa) = 77.65070 89.86644 83.75857
# Shear Modulus (GPa) = 25.67461 30.52119 28.09790
#
# Velocity S-wave (km/s) = 3.80823 4.15214 3.98390
# Velocity P-wave (km/s) = 7.94977 8.58774 8.27491
#
# Compressibility (1/GPa) = 0.01287818
#
# Stress axis : x y z
#
# Youngs Moduli (GPa) = 42.02289 45.47091 79.17990
#
# Poissons Ratio (x) = 0.47760 0.73523
# Poissons Ratio (y) = 0.44138 0.23603
# Poissons Ratio (z) = 0.39021 0.13555
#
# Static dielectric constant tensor:
#      x y z
#    x 1.587500 0.000000 -0.007250 
#    y 0.000000 1.593060 0.000000 
#    z -0.007250 0.000000 1.609150 
# 
# From -- ./inp_files/20372.got.cif
#   From: 2010.05.17/outbox.cif.g08.bks.cpg/sg11_11_cif.got.tgz:20372.got - 2010.06.03 12:22:45.
