data_PCOD9163730
_publ_section_title
;
Structure prediction by ZEFSAII (Michael W. Deem and Ramdas Pophale) SiO2 
 PCOD9163730
Probable space group: P 21/M
;
_chemical_formula_sum "Si O2"
_cell_formula_units_Z 32
_cell_length_a 8.395775
_cell_length_b 19.295350
_cell_length_c 12.712793
_cell_angle_alpha 90.000000
_cell_angle_beta 134.166827
_cell_angle_gamma 90.000000
_cell_volume 1477.283387
_symmetry_space_group_name_H-M "P 21/M"
_symmetry_group_IT_number 11
_symmetry_cell_setting 'monoclinic'
loop_
_space_group_symop_operation_xyz
x,y,z
-x,1/2+y,-z
-x,-y,-z
x,1/2-y,z
loop_
_atom_site_type_symbol
_atom_site_label
_atom_site_fract_x
_atom_site_fract_y
_atom_site_fract_z
Si Si1 0.749069 0.825362 0.461150
Si Si2 0.753532 0.975391 0.916434
Si Si3 0.742945 0.028260 0.581037
Si Si4 0.764315 0.172466 0.703028
Si Si5 0.893955 0.174183 0.186353
Si Si6 0.887586 0.827564 0.944086
Si Si7 0.805506 0.473436 0.164969
Si Si8 0.690601 0.968474 0.338292
O O1 0.787437 0.750000 0.428373
O O2 0.493115 0.827868 0.380230
O O3 0.776695 0.891867 0.401132
O O4 0.911485 0.829748 0.636499
O O5 0.730119 0.894464 0.878228
O O6 0.717982 0.985898 0.024356
O O7 0.576775 0.024706 0.778651
O O8 0.000000 0.000000 0.000000
O O9 0.787187 0.106576 0.637700
O O10 0.500000 0.000000 0.500000
O O11 0.771778 0.017631 0.469616
O O12 0.926602 0.979805 0.720338
O O13 0.807748 0.250000 0.678364
O O14 0.928574 0.164575 0.878784
O O15 0.786407 0.250000 0.147846
O O16 0.742929 0.107052 0.131445
O O17 0.994874 0.169950 0.115637
O O18 0.788412 0.750000 0.908876
O O19 0.749992 0.505882 0.250698
#
# Coordination Sequence:
#
# PCOD9163730 Si02
#       8
#     4   4   4   4   4   4   4   4
#     4  10  21  38  60  90 125 162 210 253 309 381
#     4  12  23  41  67  94 122 163 216 260 307 372
#     4  12  22  39  65  93 122 164 213 258 310 363
#     4  10  20  37  61  94 124 159 212 267 309 360
#     4  10  21  37  61  90 123 166 208 254 313 376
#     4  10  21  38  62  93 123 160 209 267 316 356
#     4  12  24  42  62  92 133 163 208 260 314 375
#     4  12  26  40  63  94 130 169 206 257 321 372
#
# _framework density 21.661382
#
# number of rings (size 3 to 8) (size 9 to 14) (size 15 to 20)
#    0.000    1.000    5.000    2.250    1.750    0.000 
#    0.000    2.500    0.000    0.000    0.000    0.000 
#    0.000    0.000    0.000    0.000    0.000    0.000 
#
# Total GULP energy -178868.621473 kJ/mol
# GULP energy per Si atom -5589.644421 kJ/mol
# Density = 2.161208 g / cm^3
# Si number density = 21.661382 Si / 1000 Ang^3
#
#
#
# Elastic Constant Matrix: (Units=GPa)
#
#
# Indices 1 2 3 4 5 6 
#
# 1 42.6499 40.1723 23.0932 0.0000 -14.5440 0.0000
# 2 40.1723 226.3205 42.7336 0.0000 -37.3182 0.0000
# 3 23.0932 42.7336 84.5612 0.0000 -20.9768 0.0000
# 4 0.0000 0.0000 0.0000 36.6235 0.0000 -7.4553
# 5 -14.5440 -37.3182 -20.9768 0.0000 42.9733 0.0000
# 6 0.0000 0.0000 0.0000 -7.4553 0.0000 22.8063
#
#
#
# Elastic Compliance Matrix: (Units=1/GPa)
#
#
# Indices 1 2 3 4 5 6 
#
# 1 0.031628 -0.003790 -0.005556 0.000000 0.004701 0.000000
# 2 -0.003790 0.005835 -0.001109 0.000000 0.003243 0.000000
# 3 -0.005556 -0.001109 0.015017 0.000000 0.004486 0.000000
# 4 0.000000 0.000000 0.000000 0.029251 0.000000 0.009562
# 5 0.004701 0.003243 0.004486 0.000000 0.029868 0.000000
# 6 0.000000 0.000000 0.000000 0.009562 0.000000 0.046973
#
#
# Mechanical properties :
#
#
# Convention : Reuss Voigt Hill
#
# Bulk Modulus (GPa) = 31.67621 62.83663 47.25642
# Shear Modulus (GPa) = 26.31493 36.98278 31.64886
#
# Velocity S-wave (km/s) = 3.48922 4.13645 3.82654
# Velocity P-wave (km/s) = 5.55770 7.20314 6.43324
#
# Compressibility (1/GPa) = 0.03156943
#
# Stress axis : x y z
#
# Youngs Moduli (GPa) = 31.61779 171.36506 66.59275
#
# Poissons Ratio (x) = 0.64943 0.36999
# Poissons Ratio (y) = 0.11982 0.07388
# Poissons Ratio (z) = 0.17567 0.19012
#
# Static dielectric constant tensor:
#      x y z
#    x 1.825220 0.000000 0.048760 
#    y 0.000000 1.822520 0.000000 
#    z 0.048760 0.000000 1.803960 
# 
# From -- ./inp_files/32845.got.cif
#   From: 2010.05.17/outbox.cif.g08.bks.cpg/sg11_17_cif.got.tgz:32845.got - 2010.06.03 12:22:45.
