data_PCOD9163791
_publ_section_title
;
Structure prediction by ZEFSAII (Michael W. Deem and Ramdas Pophale) SiO2 
 PCOD9163791
Probable space group: P 21/M
;
_chemical_formula_sum "Si O2"
_cell_formula_units_Z 24
_cell_length_a 12.747492
_cell_length_b 16.217040
_cell_length_c 7.755659
_cell_angle_alpha 90.000000
_cell_angle_beta 42.696131
_cell_angle_gamma 90.000000
_cell_volume 1087.214454
_symmetry_space_group_name_H-M "P 21/M"
_symmetry_group_IT_number 11
_symmetry_cell_setting 'monoclinic'
loop_
_space_group_symop_operation_xyz
x,y,z
-x,1/2+y,-z
-x,-y,-z
x,1/2-y,z
loop_
_atom_site_type_symbol
_atom_site_label
_atom_site_fract_x
_atom_site_fract_y
_atom_site_fract_z
Si Si1 0.121061 0.419797 0.527780
Si Si2 0.540157 0.594057 0.991461
Si Si3 0.055511 0.427460 0.195018
Si Si4 0.421865 0.250000 0.456524
Si Si5 0.122831 0.250000 0.570731
Si Si6 0.606360 0.576543 0.311400
Si Si7 0.655764 0.250000 0.892973
Si Si8 0.996341 0.750000 0.656106
O O1 0.301293 0.397992 0.306871
O O2 0.081925 0.428794 0.371744
O O3 0.041089 0.337949 0.700868
O O4 0.074043 0.503644 0.677444
O O5 0.419403 0.665655 0.091315
O O6 0.500000 0.500000 0.000000
O O7 0.569642 0.597769 0.158082
O O8 0.017440 0.331855 0.213296
O O9 0.213436 0.449482 0.908255
O O10 0.279192 0.250000 0.493407
O O11 0.409966 0.163324 0.570837
O O12 0.590435 0.250000 0.164476
O O13 0.131144 0.250000 0.346966
O O14 0.500000 0.500000 0.500000
O O15 0.837437 0.250000 0.638618
#
# Coordination Sequence:
#
# PCOD9163791 Si02
#       8
#     4   4   4   2   2   4   2   2
#     4   9  17  34  61  93 117 164 223 277 312 376
#     4  11  21  38  66  97 130 168 225 277 322 391
#     4   9  19  37  63  90 128 168 221 273 332 382
#     4  12  24  43  67  97 139 176 215 272 354 407
#     4  10  20  37  63  88 128 171 216 268 332 394
#     4  11  25  42  66 100 141 179 213 276 349 408
#     4  12  23  39  72 101 125 172 235 282 322 402
#     4  10  21  39  68 100 124 169 234 286 320 379
#
# _framework density 22.074763999999998
#
# number of rings (size 3 to 8) (size 9 to 14) (size 15 to 20)
#    0.000    1.667    1.667    3.000    0.000    6.667 
#    0.000    0.833   14.667    0.000    0.000    0.000 
#    0.000    0.000    0.000    0.000    0.000    0.000 
#
# Total GULP energy -133875.833509 kJ/mol
# GULP energy per Si atom -5578.159730 kJ/mol
# Density = 2.202452 g / cm^3
# Si number density = 22.074764 Si / 1000 Ang^3
#
#
#
# Elastic Constant Matrix: (Units=GPa)
#
#
# Indices 1 2 3 4 5 6 
#
# 1 60.4826 48.6883 36.6829 0.0000 -3.2062 0.0000
# 2 48.6883 222.7058 70.4764 0.0000 -2.8296 0.0000
# 3 36.6829 70.4764 112.9841 0.0000 -13.4198 0.0000
# 4 0.0000 0.0000 0.0000 37.5516 0.0000 -1.4250
# 5 -3.2062 -2.8296 -13.4198 0.0000 20.4833 0.0000
# 6 0.0000 0.0000 0.0000 -1.4250 0.0000 35.6856
#
#
#
# Elastic Compliance Matrix: (Units=1/GPa)
#
#
# Indices 1 2 3 4 5 6 
#
# 1 0.022301 -0.003207 -0.005290 0.000000 -0.000418 0.000000
# 2 -0.003207 0.006107 -0.002958 0.000000 -0.001596 0.000000
# 3 -0.005290 -0.002958 0.013302 0.000000 0.007478 0.000000
# 4 0.000000 0.000000 0.000000 0.026670 0.000000 0.001065
# 5 -0.000418 -0.001596 0.007478 0.000000 0.053434 0.000000
# 6 0.000000 0.000000 0.000000 0.001065 0.000000 0.028065
#
#
# Mechanical properties :
#
#
# Convention : Reuss Voigt Hill
#
# Bulk Modulus (GPa) = 53.18950 78.65197 65.92074
# Shear Modulus (GPa) = 27.92431 34.76574 31.34503
#
# Velocity S-wave (km/s) = 3.56053 3.97282 3.77231
# Velocity P-wave (km/s) = 6.40707 7.53336 6.99293
#
# Compressibility (1/GPa) = 0.01880070
#
# Stress axis : x y z
#
# Youngs Moduli (GPa) = 44.84021 163.74522 75.17932
#
# Poissons Ratio (x) = 0.52510 0.39770
# Poissons Ratio (y) = 0.14380 0.22237
# Poissons Ratio (z) = 0.23720 0.48433
#
# Static dielectric constant tensor:
#      x y z
#    x 1.837930 0.000000 0.123920 
#    y 0.000000 1.890680 0.000000 
#    z 0.123920 0.000000 0.204200 
# 
# From -- ./inp_files/22042.got.cif
#   From: 2010.05.17/outbox.cif.g08.bks.cpg/sg11_12_cif.got.tgz:22042.got - 2010.06.03 12:22:45.
