data_PCOD9163882
_publ_section_title
;
Structure prediction by ZEFSAII (Michael W. Deem and Ramdas Pophale) SiO2 
 PCOD9163882
Probable space group: P 21/M
;
_chemical_formula_sum "Si O2"
_cell_formula_units_Z 26
_cell_length_a 7.643410
_cell_length_b 19.764447
_cell_length_c 8.633637
_cell_angle_alpha 90.000000
_cell_angle_beta 129.360163
_cell_angle_gamma 90.000000
_cell_volume 1008.424171
_symmetry_space_group_name_H-M "P 21/M"
_symmetry_group_IT_number 11
_symmetry_cell_setting 'monoclinic'
loop_
_space_group_symop_operation_xyz
x,y,z
-x,1/2+y,-z
-x,-y,-z
x,1/2-y,z
loop_
_atom_site_type_symbol
_atom_site_label
_atom_site_fract_x
_atom_site_fract_y
_atom_site_fract_z
Si Si1 0.877863 0.750000 0.444247
Si Si2 0.647387 0.065327 0.055887
Si Si3 0.243652 0.823097 0.072063
Si Si4 0.542150 0.669972 0.829859
Si Si5 0.031550 0.648737 0.268138
Si Si6 0.758505 0.642235 0.630464
Si Si7 0.906488 0.996940 0.623388
O O1 0.005117 0.691654 0.408086
O O2 0.757297 0.691423 0.484317
O O3 0.632638 0.116899 0.192952
O O4 0.886284 0.031206 0.159408
O O5 0.597795 0.115476 0.887852
O O6 0.500000 0.000000 0.000000
O O7 0.331333 0.750000 0.068622
O O8 0.183990 0.821597 0.217159
O O9 0.005830 0.837223 0.847064
O O10 0.494770 0.750000 0.827557
O O11 0.587926 0.657525 0.675010
O O12 0.776179 0.651427 0.051908
O O13 0.125231 0.573660 0.346769
O O14 0.735206 0.564174 0.561514
O O15 0.000000 0.000000 0.500000
#
# Coordination Sequence:
#
# PCOD9163882 Si02
#       7
#     2   4   4   4   4   4   4
#     4  12  18  36  62  94 118 152 206 252 310 364
#     4  11  24  38  61  89 126 161 207 250 305 370
#     4  10  20  38  59  92 115 160 212 259 292 356
#     4  11  21  40  61  90 120 166 209 251 304 365
#     4  11  21  35  66  90 121 157 211 258 307 366
#     4  10  21  35  64  88 121 158 211 250 298 374
#     4  11  23  39  61  93 124 163 202 262 313 359
#
# _framework density 25.782802
#
# number of rings (size 3 to 8) (size 9 to 14) (size 15 to 20)
#    0.000    1.231    6.154    1.385    2.154    1.846 
#    0.000    0.769    3.385    3.692    0.000    0.000 
#    0.000    0.000    0.000    0.000    0.000    0.000 
#
# Total GULP energy -144962.727551 kJ/mol
# GULP energy per Si atom -5575.489521 kJ/mol
# Density = 2.572412 g / cm^3
# Si number density = 25.782802 Si / 1000 Ang^3
#
#
#
# Elastic Constant Matrix: (Units=GPa)
#
#
# Indices 1 2 3 4 5 6 
#
# 1 71.7254 52.9592 37.7121 0.0000 -40.8739 0.0000
# 2 52.9592 281.2326 59.3388 0.0000 -34.3832 0.0000
# 3 37.7121 59.3388 82.0749 0.0000 -9.8695 0.0000
# 4 0.0000 0.0000 0.0000 12.0799 0.0000 -17.2486
# 5 -40.8739 -34.3832 -9.8695 0.0000 63.3846 0.0000
# 6 0.0000 0.0000 0.0000 -17.2486 0.0000 40.5785
#
#
#
# Elastic Compliance Matrix: (Units=1/GPa)
#
#
# Indices 1 2 3 4 5 6 
#
# 1 0.030540 -0.001319 -0.011003 0.000000 0.017265 0.000000
# 2 -0.001319 0.004474 -0.002486 0.000000 0.001190 0.000000
# 3 -0.011003 -0.002486 0.018365 0.000000 -0.005584 0.000000
# 4 0.000000 0.000000 0.000000 0.210610 0.000000 0.089523
# 5 0.017265 0.001190 -0.005584 0.000000 0.026686 0.000000
# 6 0.000000 0.000000 0.000000 0.089523 0.000000 0.062697
#
#
# Mechanical properties :
#
#
# Convention : Reuss Voigt Hill
#
# Bulk Modulus (GPa) = 42.07975 81.67257 61.87616
# Shear Modulus (GPa) = 12.79073 42.21012 27.50043
#
# Velocity S-wave (km/s) = 2.22974 4.05055 3.26946
# Velocity P-wave (km/s) = 4.79429 7.32270 6.18899
#
# Compressibility (1/GPa) = 0.02376440
#
# Stress axis : x y z
#
# Youngs Moduli (GPa) = 32.74423 223.51413 54.45029
#
# Poissons Ratio (x) = 0.29471 0.59912
# Poissons Ratio (y) = 0.04317 0.13535
# Poissons Ratio (z) = 0.36029 0.55559
#
# Static dielectric constant tensor:
#      x y z
#    x 2.116240 0.000000 0.147840 
#    y 0.000000 2.029140 0.000000 
#    z 0.147840 0.000000 2.149920 
# 
# From -- ./inp_files/13598.got.cif
#   From: 2010.05.17/outbox.cif.g08.bks.cpg/sg11_7_cif.got.tgz:13598.got - 2010.06.03 12:22:45.
