data_PCOD9163438
_publ_section_title
;
Structure prediction by ZEFSAII (Michael W. Deem and Ramdas Pophale) SiO2 
 PCOD9163438
Probable space group: P 21/M
;
_chemical_formula_sum "Si O2"
_cell_formula_units_Z 30
_cell_length_a 5.142946
_cell_length_b 27.035490
_cell_length_c 12.157832
_cell_angle_alpha 90.000000
_cell_angle_beta 51.418589
_cell_angle_gamma 90.000000
_cell_volume 1321.463433
_symmetry_space_group_name_H-M "P 21/M"
_symmetry_group_IT_number 11
_symmetry_cell_setting 'monoclinic'
loop_
_space_group_symop_operation_xyz
x,y,z
-x,1/2+y,-z
-x,-y,-z
x,1/2-y,z
loop_
_atom_site_type_symbol
_atom_site_label
_atom_site_fract_x
_atom_site_fract_y
_atom_site_fract_z
Si Si1 0.046166 0.865066 0.030026
Si Si2 0.440506 0.195126 0.966153
Si Si3 0.890100 0.750000 0.551358
Si Si4 0.301244 0.984673 0.341757
Si Si5 0.013848 0.322825 0.283877
Si Si6 0.271554 0.341268 0.515708
Si Si7 0.398931 0.404886 0.269904
Si Si8 0.898639 0.577030 0.273224
O O1 0.250306 0.823518 0.043361
O O2 0.688859 0.844435 0.088101
O O3 0.026696 0.910883 0.117890
O O4 0.268313 0.880763 0.867071
O O5 0.488314 0.250000 0.909962
O O6 0.137378 0.195887 0.134945
O O7 0.800625 0.792736 0.669158
O O8 0.973167 0.795803 0.444028
O O9 0.578131 0.957413 0.341211
O O10 0.163462 0.949321 0.282221
O O11 0.425752 0.036661 0.260391
O O12 0.000000 0.000000 0.500000
O O13 0.108018 0.380448 0.272027
O O14 0.630051 0.314022 0.413670
O O15 0.302746 0.384656 0.416012
O O16 0.204936 0.370736 0.644464
#
# Coordination Sequence:
#
# PCOD9163438 Si02
#       8
#     4   4   2   4   4   4   4   4
#     4  11  25  45  62 101 135 178 217 277 333 395
#     4  11  22  40  70  94 135 177 228 265 323 391
#     4  10  22  36  60  98 130 168 218 270 334 384
#     4  12  25  45  72 102 125 178 226 276 340 399
#     4  10  20  36  65  99 129 165 219 283 319 386
#     4  11  22  41  63  94 132 174 214 277 327 394
#     4  10  23  39  69  94 132 167 225 270 333 394
#     4  12  28  45  69  94 142 171 222 279 331 399
#
# _framework density 22.702102
#
# number of rings (size 3 to 8) (size 9 to 14) (size 15 to 20)
#    0.000    1.067    3.333    2.800    3.733    1.067 
#    2.400    0.000    0.000    0.000    0.000    0.000 
#    0.000    0.000    0.000    0.000    0.000    0.000 
#
# Total GULP energy -167152.123839 kJ/mol
# GULP energy per Si atom -5571.737461 kJ/mol
# Density = 2.265043 g / cm^3
# Si number density = 22.702102 Si / 1000 Ang^3
#
#
#
# Elastic Constant Matrix: (Units=GPa)
#
#
# Indices 1 2 3 4 5 6 
#
# 1 49.6286 14.3122 6.9727 0.0000 13.6847 0.0000
# 2 14.3122 121.3971 14.9181 0.0000 12.4149 0.0000
# 3 6.9727 14.9181 41.5515 0.0000 8.3840 0.0000
# 4 0.0000 0.0000 0.0000 30.6867 0.0000 54.0763
# 5 13.6847 12.4149 8.3840 0.0000 23.1388 0.0000
# 6 0.0000 0.0000 0.0000 54.0763 0.0000 150.8562
#
#
#
# Elastic Compliance Matrix: (Units=1/GPa)
#
#
# Indices 1 2 3 4 5 6 
#
# 1 0.024354 -0.001398 -0.000895 0.000000 -0.013329 0.000000
# 2 -0.001398 0.009015 -0.002366 0.000000 -0.003153 0.000000
# 3 -0.000895 -0.002366 0.026652 0.000000 -0.007858 0.000000
# 4 0.000000 0.000000 0.000000 0.088477 0.000000 -0.031716
# 5 -0.013329 -0.003153 -0.007858 0.000000 0.055639 0.000000
# 6 0.000000 0.000000 0.000000 -0.031716 0.000000 0.017998
#
#
# Mechanical properties :
#
#
# Convention : Reuss Voigt Hill
#
# Bulk Modulus (GPa) = 19.72305 31.66480 25.69392
# Shear Modulus (GPa) = 20.13246 52.69461 36.41354
#
# Velocity S-wave (km/s) = 2.98117 4.82304 4.00931
# Velocity P-wave (km/s) = 4.53392 6.70775 5.72496
#
# Compressibility (1/GPa) = 0.05070210
#
# Stress axis : x y z
#
# Youngs Moduli (GPa) = 41.06108 110.92059 37.52104
#
# Poissons Ratio (x) = 0.15508 0.03360
# Poissons Ratio (y) = 0.05741 0.08877
# Poissons Ratio (z) = 0.03677 0.26244
#
# Static dielectric constant tensor:
#      x y z
#    x 1.952540 0.000000 0.003220 
#    y 0.000000 1.867650 0.000000 
#    z 0.003220 0.000000 1.838970 
# 
# From -- ./inp_files/30337.got.cif
#   From: 2010.05.17/outbox.cif.g08.bks.cpg/sg11_16_cif.got.tgz:30337.got - 2010.06.03 12:22:45.
