data_PCOD9163446
_publ_section_title
;
Structure prediction by ZEFSAII (Michael W. Deem and Ramdas Pophale) SiO2 
 PCOD9163446
Probable space group: P 21/M
;
_chemical_formula_sum "Si O2"
_cell_formula_units_Z 32
_cell_length_a 16.436947
_cell_length_b 8.931239
_cell_length_c 24.986339
_cell_angle_alpha 90.000000
_cell_angle_beta 28.847660
_cell_angle_gamma 90.000000
_cell_volume 1769.770721
_symmetry_space_group_name_H-M "P 21/M"
_symmetry_group_IT_number 11
_symmetry_cell_setting 'monoclinic'
loop_
_space_group_symop_operation_xyz
x,y,z
-x,1/2+y,-z
-x,-y,-z
x,1/2-y,z
loop_
_atom_site_type_symbol
_atom_site_label
_atom_site_fract_x
_atom_site_fract_y
_atom_site_fract_z
Si Si1 0.080757 0.081608 0.503511
Si Si2 0.733721 0.081112 0.763876
Si Si3 0.236747 0.070124 0.666434
Si Si4 0.461198 0.070060 0.438269
Si Si5 0.872635 0.568298 0.896828
Si Si6 0.319074 0.073962 0.100119
Si Si7 0.561890 0.568556 0.149318
Si Si8 0.418220 0.929837 0.346282
O O1 0.143609 0.250000 0.455266
O O2 0.919084 0.095059 0.633889
O O3 0.229799 0.982516 0.440945
O O4 0.000000 0.000000 0.500000
O O5 0.677937 0.250000 0.812715
O O6 0.594335 0.027508 0.800505
O O7 0.758051 0.972655 0.799433
O O8 0.235841 0.250000 0.672249
O O9 0.296859 0.035411 0.570449
O O10 0.381073 0.999163 0.620675
O O11 0.057178 0.003881 0.787787
O O12 0.474890 0.250000 0.427810
O O13 0.459629 0.003313 0.379541
O O14 0.888945 0.750000 0.889106
O O15 0.781624 0.522755 0.893919
O O16 0.740757 0.523586 0.019884
O O17 0.334660 0.250000 0.086499
O O18 0.500000 0.000000 0.000000
O O19 0.559629 0.750000 0.151091
O O20 0.526682 0.522049 0.231015
O O21 0.429089 0.750000 0.344322
#
# Coordination Sequence:
#
# PCOD9163446 Si02
#       8
#     4   4   4   4   4   4   4   4
#     4  11  22  36  55  81 115 156 200 244 293 342
#     4  10  20  37  54  73 112 158 198 244 291 335
#     4  10  22  41  65  91 117 146 184 234 292 348
#     4  10  22  42  65  90 119 149 183 232 292 348
#     4  10  21  38  59  83 115 154 195 238 288 344
#     4  11  22  35  54  82 114 154 199 241 288 342
#     4   9  18  37  58  79 113 158 196 234 286 336
#     4  11  22  38  61  87 117 155 198 240 288 347
#
# _framework density 18.081437000000001
#
# number of rings (size 3 to 8) (size 9 to 14) (size 15 to 20)
#    0.000    1.750    2.500    1.875    1.750    3.500 
#    0.000    1.875    0.000    0.000    0.000    0.000 
#    0.000    0.000    0.000    0.000    0.000    0.000 
#
# Total GULP energy -178380.883044 kJ/mol
# GULP energy per Si atom -5574.402595 kJ/mol
# Density = 1.804028 g / cm^3
# Si number density = 18.081437 Si / 1000 Ang^3
#
#
#
# Elastic Constant Matrix: (Units=GPa)
#
#
# Indices 1 2 3 4 5 6 
#
# 1 117.6917 35.2701 69.3324 0.0000 17.6331 0.0000
# 2 35.2701 46.6653 40.9113 0.0000 5.4847 0.0000
# 3 69.3324 40.9113 150.9718 0.0000 10.2553 0.0000
# 4 0.0000 0.0000 0.0000 29.6207 0.0000 -2.7932
# 5 17.6331 5.4847 10.2553 0.0000 28.1744 0.0000
# 6 0.0000 0.0000 0.0000 -2.7932 0.0000 31.5037
#
#
#
# Elastic Compliance Matrix: (Units=1/GPa)
#
#
# Indices 1 2 3 4 5 6 
#
# 1 0.013657 -0.005882 -0.004281 0.000000 -0.005844 0.000000
# 2 -0.005882 0.030852 -0.005641 0.000000 -0.000271 0.000000
# 3 -0.004281 -0.005641 0.010112 0.000000 0.000097 0.000000
# 4 0.000000 0.000000 0.000000 0.034045 0.000000 0.003018
# 5 -0.005844 -0.000271 0.000097 0.000000 0.039168 0.000000
# 6 0.000000 0.000000 0.000000 0.003018 0.000000 0.032010
#
#
# Mechanical properties :
#
#
# Convention : Reuss Voigt Hill
#
# Bulk Modulus (GPa) = 43.45334 67.37294 55.41314
# Shear Modulus (GPa) = 25.11016 29.18076 27.14546
#
# Velocity S-wave (km/s) = 3.73060 4.02164 3.87885
# Velocity P-wave (km/s) = 6.52999 7.67505 7.12556
#
# Compressibility (1/GPa) = 0.02301319
#
# Stress axis : x y z
#
# Youngs Moduli (GPa) = 73.22234 32.41270 98.89533
#
# Poissons Ratio (x) = 0.19066 0.42336
# Poissons Ratio (y) = 0.43071 0.55784
# Poissons Ratio (z) = 0.31346 0.18283
#
# Static dielectric constant tensor:
#      x y z
#    x 2.037000 0.000000 0.481710 
#    y 0.000000 1.655940 0.000000 
#    z 0.481710 0.000000 2.092110 
# 
# From -- ./inp_files/69047.got.cif
#   From: 2010.05.17/outbox.cif.g08.bks.cpg/sg11_35_cif.got.tgz:69047.got - 2010.06.03 12:22:45.
