data_PCOD9163808
_publ_section_title
;
Structure prediction by ZEFSAII (Michael W. Deem and Ramdas Pophale) SiO2 
 PCOD9163808
Probable space group: P 21/M
;
_chemical_formula_sum "Si O2"
_cell_formula_units_Z 28
_cell_length_a 14.832530
_cell_length_b 8.792037
_cell_length_c 22.131113
_cell_angle_alpha 90.000000
_cell_angle_beta 30.666233
_cell_angle_gamma 90.000000
_cell_volume 1472.003684
_symmetry_space_group_name_H-M "P 21/M"
_symmetry_group_IT_number 11
_symmetry_cell_setting 'monoclinic'
loop_
_space_group_symop_operation_xyz
x,y,z
-x,1/2+y,-z
-x,-y,-z
x,1/2-y,z
loop_
_atom_site_type_symbol
_atom_site_label
_atom_site_fract_x
_atom_site_fract_y
_atom_site_fract_z
Si Si1 0.588009 0.431290 0.509406
Si Si2 0.733971 0.568811 0.632755
Si Si3 0.680424 0.068060 0.128458
Si Si4 0.039615 0.429681 0.379544
Si Si5 0.022811 0.430476 0.708279
Si Si6 0.251525 0.430976 0.783461
Si Si7 0.060599 0.068608 0.116647
O O1 0.500000 0.500000 0.500000
O O2 0.612581 0.250000 0.488024
O O3 0.775519 0.509548 0.411761
O O4 0.448239 0.456927 0.643782
O O5 0.754848 0.750000 0.609205
O O6 0.527899 0.531634 0.749793
O O7 0.852270 0.479280 0.516444
O O8 0.817094 0.537704 0.650852
O O9 0.701227 0.250000 0.113149
O O10 0.764510 0.006127 0.141868
O O11 0.775765 0.991243 0.016958
O O12 0.038182 0.250000 0.368217
O O13 0.068930 0.518991 0.300877
O O14 0.023003 0.250000 0.714870
O O15 0.938296 0.506160 0.816070
O O16 0.221421 0.250000 0.804472
O O17 0.113131 0.502593 0.816561
O O18 0.053541 0.250000 0.120726
#
# Coordination Sequence:
#
# PCOD9163808 Si02
#       7
#     4   4   4   4   4   4   4
#     4  11  22  36  58  86 119 154 192 238 288 342
#     4   9  20  39  63  91 121 153 191 239 293 348
#     4  11  23  40  61  85 116 154 197 242 291 346
#     4  10  20  37  63  93 122 152 191 239 292 350
#     4  12  24  39  59  86 121 158 197 240 294 353
#     4  11  23  39  59  86 118 155 197 240 290 346
#     4  12  25  41  60  82 114 155 200 246 293 347
#
# _framework density 19.021692000000002
#
# number of rings (size 3 to 8) (size 9 to 14) (size 15 to 20)
#    0.000    1.143    1.429    5.571    0.000    5.714 
#    0.000    0.714    0.000    0.000    0.000    0.000 
#    0.000    0.000    0.000    0.000    0.000    0.000 
#
# Total GULP energy -156662.225984 kJ/mol
# GULP energy per Si atom -5595.079499 kJ/mol
# Density = 1.897840 g / cm^3
# Si number density = 19.021692 Si / 1000 Ang^3
#
#
#
# Elastic Constant Matrix: (Units=GPa)
#
#
# Indices 1 2 3 4 5 6 
#
# 1 70.5312 33.8461 32.8041 0.0000 26.0274 0.0000
# 2 33.8461 96.1567 46.9748 0.0000 16.9754 0.0000
# 3 32.8041 46.9748 74.2152 0.0000 21.8466 0.0000
# 4 0.0000 0.0000 0.0000 33.4021 0.0000 4.5983
# 5 26.0274 16.9754 21.8466 0.0000 21.5460 0.0000
# 6 0.0000 0.0000 0.0000 4.5983 0.0000 30.8493
#
#
#
# Elastic Compliance Matrix: (Units=1/GPa)
#
#
# Indices 1 2 3 4 5 6 
#
# 1 0.027117 -0.003989 -0.001060 0.000000 -0.028539 0.000000
# 2 -0.003989 0.015792 -0.008536 0.000000 0.001032 0.000000
# 3 -0.001060 -0.008536 0.024217 0.000000 -0.016549 0.000000
# 4 0.000000 0.000000 0.000000 0.030565 0.000000 -0.004556
# 5 -0.028539 0.001032 -0.016549 0.000000 0.096855 0.000000
# 6 0.000000 0.000000 0.000000 -0.004556 0.000000 0.033095
#
#
# Mechanical properties :
#
#
# Convention : Reuss Voigt Hill
#
# Bulk Modulus (GPa) = 25.02746 52.01703 38.52224
# Shear Modulus (GPa) = 18.64770 25.64469 22.14619
#
# Velocity S-wave (km/s) = 3.13443 3.67574 3.41583
# Velocity P-wave (km/s) = 5.12693 6.73946 5.98773
#
# Compressibility (1/GPa) = 0.03995612
#
# Stress axis : x y z
#
# Youngs Moduli (GPa) = 36.87741 63.32510 41.29246
#
# Poissons Ratio (x) = 0.25257 0.04379
# Poissons Ratio (y) = 0.14709 0.35247
# Poissons Ratio (z) = 0.03910 0.54054
#
# Static dielectric constant tensor:
#      x y z
#    x 1.651510 0.000000 -0.000020 
#    y 0.000000 1.629990 0.000000 
#    z -0.000020 0.000000 1.647580 
# 
# From -- ./inp_files/65363.got.cif
#   From: 2010.05.17/outbox.cif.g08.bks.cpg/sg11_33_cif.got.tgz:65363.got - 2010.06.03 12:22:45.
