data_PCOD9163293
_publ_section_title
;
Structure prediction by ZEFSAII (Michael W. Deem and Ramdas Pophale) SiO2 
 PCOD9163293
Probable space group: P 21/M
;
_chemical_formula_sum "Si O2"
_cell_formula_units_Z 28
_cell_length_a 25.108736
_cell_length_b 9.002491
_cell_length_c 22.829019
_cell_angle_alpha 90.000000
_cell_angle_beta 163.109408
_cell_angle_gamma 90.000000
_cell_volume 1499.299244
_symmetry_space_group_name_H-M "P 21/M"
_symmetry_group_IT_number 11
_symmetry_cell_setting 'monoclinic'
loop_
_space_group_symop_operation_xyz
x,y,z
-x,1/2+y,-z
-x,-y,-z
x,1/2-y,z
loop_
_atom_site_type_symbol
_atom_site_label
_atom_site_fract_x
_atom_site_fract_y
_atom_site_fract_z
Si Si1 0.435939 0.581887 0.874042
Si Si2 0.803029 0.071973 0.806852
Si Si3 0.556700 0.928085 0.645852
Si Si4 0.974735 0.570621 0.286974
Si Si5 0.396195 0.427595 0.168681
Si Si6 0.370170 0.072994 0.686742
Si Si7 0.004390 0.584279 0.443779
O O1 0.507656 0.750000 0.946261
O O2 0.467785 0.493660 0.847607
O O3 0.217047 0.591013 0.649923
O O4 0.500000 0.500000 0.000000
O O5 0.822631 0.250000 0.830486
O O6 0.645669 0.036966 0.592675
O O7 0.710445 0.009478 0.768791
O O8 0.000000 0.000000 0.000000
O O9 0.582889 0.750000 0.667102
O O10 0.572373 0.965955 0.730590
O O11 0.005318 0.750000 0.321719
O O12 0.162677 0.489966 0.468397
O O13 0.915281 0.522517 0.290441
O O14 0.811791 0.542266 0.070447
O O15 0.427882 0.250000 0.194904
O O16 0.527820 0.514425 0.263286
O O17 0.368794 0.250000 0.688596
O O18 0.933883 0.750000 0.379786
O O19 0.000000 0.500000 0.500000
#
# Coordination Sequence:
#
# PCOD9163293 Si02
#       7
#     4   4   4   4   4   4   4
#     4  10  21  37  55  78 106 140 184 232 287 347
#     4  10  20  36  60  88 122 159 194 237 287 338
#     4   9  20  38  59  87 118 152 199 243 283 337
#     4   9  20  39  58  78 106 145 190 235 286 343
#     4  10  21  39  63  85 112 154 197 241 289 342
#     4  11  23  38  56  82 115 150 188 235 290 349
#     4   9  19  33  50  75 102 131 172 222 279 338
#
# _framework density 18.675391000000001
#
# number of rings (size 3 to 8) (size 9 to 14) (size 15 to 20)
#    0.000    2.286    0.000    3.000    2.000    5.714 
#    0.000    5.714    0.000    0.000    0.000    0.000 
#    0.000    0.000    0.000    0.000    0.000    0.000 
#
# Total GULP energy -156241.091045 kJ/mol
# GULP energy per Si atom -5580.038966 kJ/mol
# Density = 1.863288 g / cm^3
# Si number density = 18.675391 Si / 1000 Ang^3
#
#
#
# Elastic Constant Matrix: (Units=GPa)
#
#
# Indices 1 2 3 4 5 6 
#
# 1 169.9955 85.4406 96.5802 0.0000 -18.5092 0.0000
# 2 85.4406 94.5694 62.4808 0.0000 -3.1382 0.0000
# 3 96.5802 62.4808 117.8529 0.0000 -2.6262 0.0000
# 4 0.0000 0.0000 0.0000 22.8101 0.0000 1.5585
# 5 -18.5092 -3.1382 -2.6262 0.0000 37.8331 0.0000
# 6 0.0000 0.0000 0.0000 1.5585 0.0000 33.9263
#
#
#
# Elastic Compliance Matrix: (Units=1/GPa)
#
#
# Indices 1 2 3 4 5 6 
#
# 1 0.015268 -0.008331 -0.007957 0.000000 0.006226 0.000000
# 2 -0.008331 0.020842 -0.004281 0.000000 -0.002644 0.000000
# 3 -0.007957 -0.004281 0.017207 0.000000 -0.003053 0.000000
# 4 0.000000 0.000000 0.000000 0.043978 0.000000 -0.002020
# 5 0.006226 -0.002644 -0.003053 0.000000 0.029047 0.000000
# 6 0.000000 0.000000 0.000000 -0.002020 0.000000 0.029568
#
#
# Mechanical properties :
#
#
# Convention : Reuss Voigt Hill
#
# Bulk Modulus (GPa) = 82.10484 96.82455 89.46470
# Shear Modulus (GPa) = 24.86232 28.10833 26.48532
#
# Velocity S-wave (km/s) = 3.65264 3.88377 3.76998
# Velocity P-wave (km/s) = 7.86439 8.48942 8.18287
#
# Compressibility (1/GPa) = 0.01217955
#
# Stress axis : x y z
#
# Youngs Moduli (GPa) = 65.49695 47.98104 58.11434
#
# Poissons Ratio (x) = 0.39971 0.46240
# Poissons Ratio (y) = 0.54563 0.24881
# Poissons Ratio (z) = 0.52114 0.20543
#
# Static dielectric constant tensor:
#      x y z
#    x 1.632350 0.000000 -0.012790 
#    y 0.000000 1.642160 0.000000 
#    z -0.012790 0.000000 1.664990 
# 
# From -- ./inp_files/66751.got.cif
#   From: 2010.05.17/outbox.cif.g08.bks.cpg/sg11_34_cif.got.tgz:66751.got - 2010.06.03 12:22:45.
