data_PCOD9163805
_publ_section_title
;
Structure prediction by ZEFSAII (Michael W. Deem and Ramdas Pophale) SiO2 
 PCOD9163805
Probable space group: P 21/M
;
_chemical_formula_sum "Si O2"
_cell_formula_units_Z 32
_cell_length_a 13.093459
_cell_length_b 21.852163
_cell_length_c 9.126682
_cell_angle_alpha 90.000000
_cell_angle_beta 138.701878
_cell_angle_gamma 90.000000
_cell_volume 1723.417791
_symmetry_space_group_name_H-M "P 21/M"
_symmetry_group_IT_number 11
_symmetry_cell_setting 'monoclinic'
loop_
_space_group_symop_operation_xyz
x,y,z
-x,1/2+y,-z
-x,-y,-z
x,1/2-y,z
loop_
_atom_site_type_symbol
_atom_site_label
_atom_site_fract_x
_atom_site_fract_y
_atom_site_fract_z
Si Si1 0.249969 0.625270 0.999825
Si Si2 0.047583 0.678136 0.034547
Si Si3 0.542843 0.070220 0.526418
Si Si4 0.957357 0.070232 0.473913
Si Si5 0.788636 0.822331 0.215920
Si Si6 0.452024 0.678169 0.964754
Si Si7 0.750255 0.111853 0.500404
Si Si8 0.711175 0.677658 0.784277
O O1 0.157589 0.586297 0.781928
O O2 0.374572 0.662267 0.036760
O O3 0.124963 0.661987 0.962588
O O4 0.342755 0.586331 0.217938
O O5 0.052124 0.750000 0.058698
O O6 0.151979 0.650390 0.276683
O O7 0.867878 0.661152 0.864535
O O8 0.630820 0.073881 0.467019
O O9 0.415882 0.125338 0.385570
O O10 0.500000 0.000000 0.500000
O O11 0.870065 0.073972 0.534389
O O12 0.084377 0.125332 0.614230
O O13 0.000000 0.000000 0.500000
O O14 0.832171 0.750000 0.294127
O O15 0.631818 0.838790 0.135396
O O16 0.749965 0.824367 0.000150
O O17 0.447344 0.750000 0.939601
O O18 0.347855 0.650163 0.723045
O O19 0.667699 0.750000 0.706151
#
# Coordination Sequence:
#
# PCOD9163805 Si02
#       8
#     4   4   4   4   4   4   4   4
#     4  10  25  40  56  94 129 164 206 258 324 370
#     4  10  20  37  63  92 127 164 206 259 315 371
#     4  11  25  42  64  90 128 169 211 259 315 377
#     4  11  25  42  64  90 128 169 211 259 315 377
#     4  10  21  39  65  94 121 162 216 263 303 364
#     4  10  20  37  63  92 127 164 206 259 315 371
#     4  10  21  38  60  90 121 168 214 254 304 378
#     4  10  21  39  65  94 121 162 216 263 303 364
#
# _framework density 18.567754999999998
#
# number of rings (size 3 to 8) (size 9 to 14) (size 15 to 20)
#    0.000    1.750    2.500    0.750    1.750    8.000 
#    0.000    7.500    0.000    0.000    0.000    0.000 
#    0.000    0.000    0.000    0.000    0.000    0.000 
#
# Total GULP energy -178383.302500 kJ/mol
# GULP energy per Si atom -5574.478203 kJ/mol
# Density = 1.852549 g / cm^3
# Si number density = 18.567755 Si / 1000 Ang^3
#
#
#
# Elastic Constant Matrix: (Units=GPa)
#
#
# Indices 1 2 3 4 5 6 
#
# 1 180.1272 60.6969 34.1845 0.0000 7.7346 0.0000
# 2 60.6969 110.3850 42.9573 0.0000 24.1876 0.0000
# 3 34.1845 42.9573 57.4073 0.0000 1.5244 0.0000
# 4 0.0000 0.0000 0.0000 5.5384 0.0000 3.4788
# 5 7.7346 24.1876 1.5244 0.0000 30.5180 0.0000
# 6 0.0000 0.0000 0.0000 3.4788 0.0000 20.1956
#
#
#
# Elastic Compliance Matrix: (Units=1/GPa)
#
#
# Indices 1 2 3 4 5 6 
#
# 1 0.006969 -0.003433 -0.001609 0.000000 0.001035 0.000000
# 2 -0.003433 0.018135 -0.011182 0.000000 -0.012944 0.000000
# 3 -0.001609 -0.011182 0.026534 0.000000 0.007945 0.000000
# 4 0.000000 0.000000 0.000000 0.202464 0.000000 -0.034875
# 5 0.001035 -0.012944 0.007945 0.000000 0.042368 0.000000
# 6 0.000000 0.000000 0.000000 -0.034875 0.000000 0.055523
#
#
# Mechanical properties :
#
#
# Convention : Reuss Voigt Hill
#
# Bulk Modulus (GPa) = 52.10929 69.28855 60.69892
# Shear Modulus (GPa) = 12.79305 25.25578 19.02441
#
# Velocity S-wave (km/s) = 2.62771 3.69208 3.20440
# Velocity P-wave (km/s) = 6.10998 7.45472 6.81560
#
# Compressibility (1/GPa) = 0.01919044
#
# Stress axis : x y z
#
# Youngs Moduli (GPa) = 143.48729 55.14239 37.68763
#
# Poissons Ratio (x) = 0.18930 0.06063
# Poissons Ratio (y) = 0.49257 0.42143
# Poissons Ratio (z) = 0.23083 0.61661
#
# Static dielectric constant tensor:
#      x y z
#    x 1.133180 0.000000 0.454430 
#    y 0.000000 1.643280 0.000000 
#    z 0.454430 0.000000 1.312660 
# 
# From -- ./inp_files/19412.got.cif
#   From: 2010.05.17/outbox.cif.g08.bks.cpg/sg11_10_cif.got.tgz:19412.got - 2010.06.03 12:22:45.
