data_PCOD9163959
_publ_section_title
;
Structure prediction by ZEFSAII (Michael W. Deem and Ramdas Pophale) SiO2 
 PCOD9163959
Probable space group: P 21/M
;
_chemical_formula_sum "Si O2"
_cell_formula_units_Z 32
_cell_length_a 25.700437
_cell_length_b 8.362037
_cell_length_c 23.610473
_cell_angle_alpha 90.000000
_cell_angle_beta 17.345682
_cell_angle_gamma 90.000000
_cell_volume 1512.765870
_symmetry_space_group_name_H-M "P 21/M"
_symmetry_group_IT_number 11
_symmetry_cell_setting 'monoclinic'
loop_
_space_group_symop_operation_xyz
x,y,z
-x,1/2+y,-z
-x,-y,-z
x,1/2-y,z
loop_
_atom_site_type_symbol
_atom_site_label
_atom_site_fract_x
_atom_site_fract_y
_atom_site_fract_z
Si Si1 0.823459 0.438220 0.932249
Si Si2 0.728663 0.444781 0.417888
Si Si3 0.053744 0.056877 0.005874
Si Si4 0.639372 0.556621 0.237680
Si Si5 0.930379 0.441414 0.512276
Si Si6 0.738584 0.939074 0.904148
Si Si7 0.213661 0.560134 0.515345
Si Si8 0.605256 0.936381 0.785347
O O1 0.855961 0.250000 0.903506
O O2 0.712463 0.474011 0.991130
O O3 0.006838 0.528932 0.733228
O O4 0.730301 0.501980 0.085120
O O5 0.732125 0.250000 0.414963
O O6 0.907499 0.497758 0.202966
O O7 0.560493 0.497872 0.557210
O O8 0.714776 0.493395 0.497794
O O9 0.053479 0.250000 0.006048
O O10 0.241681 0.001669 0.833590
O O11 0.000000 0.000000 0.000000
O O12 0.638941 0.750000 0.238495
O O13 0.923846 0.250000 0.518320
O O14 0.741322 0.505898 0.691331
O O15 0.000000 0.500000 0.500000
O O16 0.077466 0.492246 0.313794
O O17 0.745935 0.750000 0.907134
O O18 0.579785 0.975191 0.026866
O O19 0.245985 0.750000 0.474410
O O20 0.298439 0.471387 0.374455
O O21 0.571862 0.750000 0.826927
#
# Coordination Sequence:
#
# PCOD9163959 Si02
#       8
#     4   4   4   4   4   4   4   4
#     4  12  23  36  60  94 128 159 197 253 312 363
#     4   9  19  36  60  86 112 150 199 242 290 359
#     4  10  21  38  57  82 113 152 200 247 298 357
#     4  10  20  38  62  84 114 157 199 243 299 368
#     4  11  25  45  69  93 124 168 217 264 314 370
#     4  11  24  43  67  93 126 171 214 250 307 381
#     4  11  20  37  63  90 123 165 204 243 303 377
#     4  12  25  41  65  98 133 164 205 263 318 369
#
# _framework density 21.153307000000002
#
# number of rings (size 3 to 8) (size 9 to 14) (size 15 to 20)
#    0.000    1.250    2.500    4.125    0.000    4.000 
#    0.000    1.250    0.000    0.000    0.000    0.000 
#    0.000    0.000    0.000    0.000    0.000    0.000 
#
# Total GULP energy -178977.378747 kJ/mol
# GULP energy per Si atom -5593.043086 kJ/mol
# Density = 2.110516 g / cm^3
# Si number density = 21.153307 Si / 1000 Ang^3
#
#
#
# Elastic Constant Matrix: (Units=GPa)
#
#
# Indices 1 2 3 4 5 6 
#
# 1 103.0001 0.1261 4.9154 0.0000 -35.5861 0.0000
# 2 0.1261 18.3175 -2.5978 0.0000 -5.6291 0.0000
# 3 4.9154 -2.5978 53.1777 0.0000 -35.4864 0.0000
# 4 0.0000 0.0000 0.0000 15.3089 0.0000 -6.1058
# 5 -35.5861 -5.6291 -35.4864 0.0000 36.6862 0.0000
# 6 0.0000 0.0000 0.0000 -6.1058 0.0000 31.8319
#
#
#
# Elastic Compliance Matrix: (Units=1/GPa)
#
#
# Indices 1 2 3 4 5 6 
#
# 1 -1.635706 -2.090701 -3.452165 0.000000 -5.246714 0.000000
# 2 -2.090701 -2.600946 -4.382011 0.000000 -6.665793 0.000000
# 3 -3.452165 -4.382011 -7.219788 0.000000-11.004684 0.000000
# 4 0.000000 0.000000 0.000000 0.070733 0.000000 0.013568
# 5 -5.246714 -6.665793-11.004684 0.000000-16.729695 0.000000
# 6 0.000000 0.000000 0.000000 0.013568 0.000000 0.034017
#
#
# Mechanical properties :
#
#
# Convention : Reuss Voigt Hill
#
# Bulk Modulus (GPa) = -0.03194 19.93140 9.94973
# Shear Modulus (GPa) = -0.26785 28.23551 13.98383
#
# Velocity S-wave (km/s) = -0.35623 3.65746 2.57392
# Velocity P-wave (km/s) = 0.42934 5.22291 3.68066
#
# Compressibility (1/GPa) = -31.30619571
#
# Stress axis : x y z
#
# Youngs Moduli (GPa) = -0.61136 -0.38448 -0.13851
#
# Poissons Ratio (x) = -0.80382 -0.47815
# Poissons Ratio (y) = -1.27816 -0.60694
# Poissons Ratio (z) = -2.11051 -1.68478
#
# Static dielectric constant tensor:
#      x y z
#    x 1.760170 0.000000 -0.025010 
#    y 0.000000 1.710850 0.000000 
#    z -0.025010 0.000000 1.757370 
# 
# From -- ./inp_files/69975.got.cif
#   From: 2010.05.17/outbox.cif.g08.bks.cpg/sg11_35_cif.got.tgz:69975.got - 2010.06.03 12:22:45.
