data_PCOD9163286
_publ_section_title
;
Structure prediction by ZEFSAII (Michael W. Deem and Ramdas Pophale) SiO2 
 PCOD9163286
Probable space group: P 21/M
;
_chemical_formula_sum "Si O2"
_cell_formula_units_Z 24
_cell_length_a 12.794185
_cell_length_b 8.807584
_cell_length_c 11.726354
_cell_angle_alpha 90.000000
_cell_angle_beta 88.653046
_cell_angle_gamma 90.000000
_cell_volume 1321.029149
_symmetry_space_group_name_H-M "P 21/M"
_symmetry_group_IT_number 11
_symmetry_cell_setting 'monoclinic'
loop_
_space_group_symop_operation_xyz
x,y,z
-x,1/2+y,-z
-x,-y,-z
x,1/2-y,z
loop_
_atom_site_type_symbol
_atom_site_label
_atom_site_fract_x
_atom_site_fract_y
_atom_site_fract_z
Si Si1 0.906831 0.569086 0.847557
Si Si2 0.127420 0.432119 0.887622
Si Si3 0.284140 0.569231 0.269360
Si Si4 0.615682 0.569948 0.508571
Si Si5 0.529798 0.930288 0.877566
Si Si6 0.338895 0.069695 0.750308
O O1 0.900334 0.750000 0.833812
O O2 0.830733 0.487707 0.761080
O O3 0.026217 0.513786 0.838570
O O4 0.869338 0.530757 0.977783
O O5 0.113266 0.250000 0.878820
O O6 0.234349 0.472278 0.821149
O O7 0.290034 0.750000 0.267304
O O8 0.322850 0.507606 0.390065
O O9 0.364075 0.500869 0.174252
O O10 0.500000 0.500000 0.500000
O O11 0.606925 0.750000 0.531106
O O12 0.670825 0.548499 0.384819
O O13 0.540691 0.750000 0.885976
O O14 0.436981 0.976053 0.794013
O O15 0.500000 0.000000 0.000000
O O16 0.359499 0.250000 0.769821
#
# Coordination Sequence:
#
# PCOD9163286 Si02
#       6
#     4   4   4   4   4   4
#     4  10  20  36  60  88 118 152 192 239 294 353
#     4   9  19  37  60  86 117 152 189 236 292 352
#     4  12  24  39  59  84 117 155 199 244 293 349
#     4  11  22  38  60  85 116 156 199 243 294 351
#     4  12  24  37  57  85 119 152 190 239 294 353
#     4  10  21  38  60  85 116 153 196 240 290 351
#
# _framework density 18.167653999999999
#
# number of rings (size 3 to 8) (size 9 to 14) (size 15 to 20)
#    0.000    1.333    1.667    5.000    0.000    3.333 
#    0.000    0.833    0.000    0.000    0.000    0.000 
#    0.000    0.000    0.000    0.000    0.000    0.000 
#
# Total GULP energy -134186.503183 kJ/mol
# GULP energy per Si atom -5591.104299 kJ/mol
# Density = 1.812630 g / cm^3
# Si number density = 18.167654 Si / 1000 Ang^3
#
#
#
# Elastic Constant Matrix: (Units=GPa)
#
#
# Indices 1 2 3 4 5 6 
#
# 1 63.9820 26.5466 3.7547 0.0000 19.0114 0.0000
# 2 26.5466 91.6269 23.1489 0.0000 20.1524 0.0000
# 3 3.7547 23.1489 41.1442 0.0000 23.1806 0.0000
# 4 0.0000 0.0000 0.0000 30.0747 0.0000 4.4304
# 5 19.0114 20.1524 23.1806 0.0000 36.0815 0.0000
# 6 0.0000 0.0000 0.0000 4.4304 0.0000 32.1330
#
#
#
# Elastic Compliance Matrix: (Units=1/GPa)
#
#
# Indices 1 2 3 4 5 6 
#
# 1 0.021549 -0.005419 0.009050 0.000000 -0.014141 0.000000
# 2 -0.005419 0.014451 -0.007362 0.000000 -0.000486 0.000000
# 3 0.009050 -0.007362 0.043870 0.000000 -0.028841 0.000000
# 4 0.000000 0.000000 0.000000 0.033940 0.000000 -0.004680
# 5 -0.014141 -0.000486 -0.028841 0.000000 0.053966 0.000000
# 6 0.000000 0.000000 0.000000 -0.004680 0.000000 0.031766
#
#
# Mechanical properties :
#
#
# Convention : Reuss Voigt Hill
#
# Bulk Modulus (GPa) = 13.81102 33.73928 23.77515
# Shear Modulus (GPa) = 21.63190 29.21135 25.42163
#
# Velocity S-wave (km/s) = 3.45437 4.01418 3.74475
# Velocity P-wave (km/s) = 4.85064 6.33216 5.64026
#
# Compressibility (1/GPa) = 0.07240593
#
# Stress axis : x y z
#
# Youngs Moduli (GPa) = 46.40645 69.20027 22.79469
#
# Poissons Ratio (x) = 0.37502 -0.20629
# Poissons Ratio (y) = 0.25149 0.16782
# Poissons Ratio (z) = -0.41997 0.50946
#
# Static dielectric constant tensor:
#      x y z
#    x 1.592230 0.000000 -0.002300 
#    y 0.000000 1.606110 0.000000 
#    z -0.002300 0.000000 1.618390 
# 
# From -- ./inp_files/33810.got.cif
#   From: 2010.05.17/outbox.cif.g08.bks.cpg/sg11_17_cif.got.tgz:33810.got - 2010.06.03 12:22:45.
