data_PCOD9163181
_publ_section_title
;
Structure prediction by ZEFSAII (Michael W. Deem and Ramdas Pophale) SiO2 
 PCOD9163181
Probable space group: P 21/M
;
_chemical_formula_sum "Si O2"
_cell_formula_units_Z 28
_cell_length_a 9.886663
_cell_length_b 8.568324
_cell_length_c 27.207574
_cell_angle_alpha 90.000000
_cell_angle_beta 141.582383
_cell_angle_gamma 90.000000
_cell_volume 1432.183920
_symmetry_space_group_name_H-M "P 21/M"
_symmetry_group_IT_number 11
_symmetry_cell_setting 'monoclinic'
loop_
_space_group_symop_operation_xyz
x,y,z
-x,1/2+y,-z
-x,-y,-z
x,1/2-y,z
loop_
_atom_site_type_symbol
_atom_site_label
_atom_site_fract_x
_atom_site_fract_y
_atom_site_fract_z
Si Si1 0.677733 0.437738 0.513399
Si Si2 0.964120 0.062517 0.861908
Si Si3 0.754180 0.438673 0.427752
Si Si4 0.861675 0.062406 0.192886
Si Si5 0.487030 0.937036 0.740347
Si Si6 0.412028 0.437759 0.026817
Si Si7 0.897821 0.563353 0.307605
O O1 0.500000 0.500000 0.500000
O O2 0.672131 0.250000 0.512625
O O3 0.643971 0.488530 0.447623
O O4 0.915202 0.486735 0.600744
O O5 0.960776 0.250000 0.858697
O O6 0.159868 0.012911 0.954841
O O7 0.730895 0.000612 0.811731
O O8 0.026721 0.999475 0.825262
O O9 0.761004 0.250000 0.428599
O O10 0.624935 0.491317 0.342754
O O11 0.000000 0.500000 0.500000
O O12 0.876712 0.250000 0.197072
O O13 0.957502 0.995844 0.270351
O O14 0.604316 0.014428 0.118454
O O15 0.493601 0.750000 0.742252
O O16 0.330032 0.994131 0.738935
O O17 0.412890 0.250000 0.026860
O O18 0.500000 0.500000 0.000000
O O19 0.885958 0.750000 0.304216
#
# Coordination Sequence:
#
# PCOD9163181 Si02
#       7
#     4   4   4   4   4   4   4
#     4  10  23  40  58  83 113 146 185 230 278 332
#     4  10  20  36  59  87 116 148 188 232 278 334
#     4  10  21  39  60  82 109 146 188 229 276 331
#     4  10  20  36  59  86 116 149 187 233 281 334
#     4  11  23  38  58  85 114 150 191 234 283 335
#     4   8  16  32  55  82 112 146 184 227 277 330
#     4  11  23  40  58  82 115 151 189 233 285 337
#
# _framework density 19.550560999999998
#
# number of rings (size 3 to 8) (size 9 to 14) (size 15 to 20)
#    0.000    2.000    1.429    1.714    2.000    3.429 
#    0.000    0.714    0.000    0.000    0.000    0.000 
#    0.000    0.000    0.000    0.000    0.000    0.000 
#
# Total GULP energy -156241.765854 kJ/mol
# GULP energy per Si atom -5580.063066 kJ/mol
# Density = 1.950606 g / cm^3
# Si number density = 19.550561 Si / 1000 Ang^3
#
#
#
# Elastic Constant Matrix: (Units=GPa)
#
#
# Indices 1 2 3 4 5 6 
#
# 1 70.6338 6.0551 -5.2999 0.0000 15.3615 0.0000
# 2 6.0551 26.2278 7.4399 0.0000 5.0781 0.0000
# 3 -5.2999 7.4399 30.5819 0.0000 15.2174 0.0000
# 4 0.0000 0.0000 0.0000 24.8736 0.0000 5.3174
# 5 15.3615 5.0781 15.2174 0.0000 39.6606 0.0000
# 6 0.0000 0.0000 0.0000 5.3174 0.0000 32.7068
#
#
#
# Elastic Compliance Matrix: (Units=1/GPa)
#
#
# Indices 1 2 3 4 5 6 
#
# 1 0.017287 -0.004665 0.008856 0.000000 -0.009497 0.000000
# 2 -0.004665 0.042312 -0.011501 0.000000 0.000802 0.000000
# 3 0.008856 -0.011501 0.046974 0.000000 -0.019981 0.000000
# 4 0.000000 0.000000 0.000000 0.041651 0.000000 -0.006771
# 5 -0.009497 0.000802 -0.019981 0.000000 0.036456 0.000000
# 6 0.000000 0.000000 0.000000 -0.006771 0.000000 0.031676
#
#
# Mechanical properties :
#
#
# Convention : Reuss Voigt Hill
#
# Bulk Modulus (GPa) = 10.87494 15.98153 13.42824
# Shear Modulus (GPa) = 19.11126 27.39808 23.25467
#
# Velocity S-wave (km/s) = 3.12994 3.74758 3.45260
# Velocity P-wave (km/s) = 4.31701 5.18826 4.77256
#
# Compressibility (1/GPa) = 0.09195453
#
# Stress axis : x y z
#
# Youngs Moduli (GPa) = 57.84620 23.63423 21.28817
#
# Poissons Ratio (x) = 0.11024 -0.18853
# Poissons Ratio (y) = 0.26983 0.24483
# Poissons Ratio (z) = -0.51229 0.27182
#
# Static dielectric constant tensor:
#      x y z
#    x 1.651790 0.000000 0.006810 
#    y 0.000000 1.655700 0.000000 
#    z 0.006810 0.000000 1.718430 
# 
# From -- ./inp_files/28235.got.cif
#   From: 2010.05.17/outbox.cif.g08.bks.cpg/sg11_15_cif.got.tgz:28235.got - 2010.06.03 12:22:45.
