data_PCOD9163091
_publ_section_title
;
Structure prediction by ZEFSAII (Michael W. Deem and Ramdas Pophale) SiO2 
 PCOD9163091
Probable space group: P 21/M
;
_chemical_formula_sum "Si O2"
_cell_formula_units_Z 32
_cell_length_a 12.656996
_cell_length_b 8.947840
_cell_length_c 29.176449
_cell_angle_alpha 90.000000
_cell_angle_beta 30.923309
_cell_angle_gamma 90.000000
_cell_volume 1698.054774
_symmetry_space_group_name_H-M "P 21/M"
_symmetry_group_IT_number 11
_symmetry_cell_setting 'monoclinic'
loop_
_space_group_symop_operation_xyz
x,y,z
-x,1/2+y,-z
-x,-y,-z
x,1/2-y,z
loop_
_atom_site_type_symbol
_atom_site_label
_atom_site_fract_x
_atom_site_fract_y
_atom_site_fract_z
Si Si1 0.757446 0.070303 0.680491
Si Si2 0.894186 0.576322 0.284170
Si Si3 0.013632 0.425801 0.854090
Si Si4 0.490894 0.425350 0.454232
Si Si5 0.529542 0.570243 0.293779
Si Si6 0.216474 0.428638 0.229148
Si Si7 0.435456 0.568537 0.975010
Si Si8 0.806837 0.926655 0.514017
O O1 0.776720 0.250000 0.678714
O O2 0.556199 0.039075 0.725143
O O3 0.957964 0.020423 0.576270
O O4 0.756273 0.996403 0.730646
O O5 0.872073 0.750000 0.304479
O O6 0.014492 0.492468 0.279303
O O7 0.005026 0.564354 0.194113
O O8 0.672907 0.503855 0.358907
O O9 0.021308 0.250000 0.863497
O O10 0.237364 0.487408 0.785179
O O11 0.794750 0.484708 0.952920
O O12 0.500000 0.500000 0.500000
O O13 0.530691 0.250000 0.443222
O O14 0.280780 0.445607 0.504967
O O15 0.531974 0.750000 0.299802
O O16 0.356847 0.505797 0.392258
O O17 0.203274 0.250000 0.237065
O O18 0.402576 0.468476 0.125183
O O19 0.432154 0.750000 0.981027
O O20 0.500000 0.500000 0.000000
O O21 0.804472 0.750000 0.525879
#
# Coordination Sequence:
#
# PCOD9163091 Si02
#       8
#     4   4   4   4   4   4   4   4
#     4  10  22  39  58  81 113 152 193 233 278 336
#     4  11  20  34  57  80 111 150 185 228 288 343
#     4   9  18  34  57  84 111 142 179 227 284 336
#     4  11  22  34  50  77 115 154 193 235 283 339
#     4  10  20  37  61  85 109 147 196 235 274 334
#     4  11  23  37  57  85 116 148 188 236 286 343
#     4  10  20  36  58  85 114 145 183 230 285 345
#     4  10  21  36  54  80 112 147 187 235 283 327
#
# _framework density 18.845092999999999
#
# number of rings (size 3 to 8) (size 9 to 14) (size 15 to 20)
#    0.000    1.750    2.500    2.250    0.000    3.000 
#    0.000    1.250    0.000    0.000    0.000    0.000 
#    0.000    0.000    0.000    0.000    0.000    0.000 
#
# Total GULP energy -178547.165769 kJ/mol
# GULP energy per Si atom -5579.598930 kJ/mol
# Density = 1.880220 g / cm^3
# Si number density = 18.845093 Si / 1000 Ang^3
#
#
#
# Elastic Constant Matrix: (Units=GPa)
#
#
# Indices 1 2 3 4 5 6 
#
# 1 100.2440 31.8708 43.2789 0.0000 -17.1040 0.0000
# 2 31.8708 23.7690 15.8666 0.0000 0.6308 0.0000
# 3 43.2789 15.8666 91.4376 0.0000 -19.8492 0.0000
# 4 0.0000 0.0000 0.0000 20.5377 0.0000 1.8946
# 5 -17.1040 0.6308 -19.8492 0.0000 23.3300 0.0000
# 6 0.0000 0.0000 0.0000 1.8946 0.0000 21.0400
#
#
#
# Elastic Compliance Matrix: (Units=1/GPa)
#
#
# Indices 1 2 3 4 5 6 
#
# 1 0.023233 -0.030003 -0.002351 0.000000 0.015844 0.000000
# 2 -0.030003 0.088392 -0.007888 0.000000 -0.031097 0.000000
# 3 -0.002351 -0.007888 0.016055 0.000000 0.012150 0.000000
# 4 0.000000 0.000000 0.000000 0.049099 0.000000 -0.004421
# 5 0.015844 -0.031097 0.012150 0.000000 0.065657 0.000000
# 6 0.000000 0.000000 0.000000 -0.004421 0.000000 0.047927
#
#
# Mechanical properties :
#
#
# Convention : Reuss Voigt Hill
#
# Bulk Modulus (GPa) = 21.18786 44.16479 32.67633
# Shear Modulus (GPa) = 12.93400 21.27717 17.10559
#
# Velocity S-wave (km/s) = 2.62264 3.36379 3.01607
# Velocity P-wave (km/s) = 4.52090 6.21074 5.43194
#
# Compressibility (1/GPa) = 0.04719683
#
# Stress axis : x y z
#
# Youngs Moduli (GPa) = 43.04223 11.31323 62.28508
#
# Poissons Ratio (x) = 0.33943 0.14642
# Poissons Ratio (y) = 1.29141 0.49128
# Poissons Ratio (z) = 0.10119 0.08923
#
# Static dielectric constant tensor:
#      x y z
#    x 1.651260 0.000000 -0.009150 
#    y 0.000000 1.637500 0.000000 
#    z -0.009150 0.000000 1.694640 
# 
# From -- ./inp_files/38164.got.cif
#   From: 2010.05.17/outbox.cif.g08.bks.cpg/sg11_20_cif.got.tgz:38164.got - 2010.06.03 12:22:45.
