data_PCOD9163092
_publ_section_title
;
Structure prediction by ZEFSAII (Michael W. Deem and Ramdas Pophale) SiO2 
 PCOD9163092
Probable space group: P 21/M
;
_chemical_formula_sum "Si O2"
_cell_formula_units_Z 28
_cell_length_a 14.939942
_cell_length_b 13.616375
_cell_length_c 9.390340
_cell_angle_alpha 90.000000
_cell_angle_beta 39.158083
_cell_angle_gamma 90.000000
_cell_volume 1206.254885
_symmetry_space_group_name_H-M "P 21/M"
_symmetry_group_IT_number 11
_symmetry_cell_setting 'monoclinic'
loop_
_space_group_symop_operation_xyz
x,y,z
-x,1/2+y,-z
-x,-y,-z
x,1/2-y,z
loop_
_atom_site_type_symbol
_atom_site_label
_atom_site_fract_x
_atom_site_fract_y
_atom_site_fract_z
Si Si1 0.181245 0.445670 0.886990
Si Si2 0.683474 0.927738 0.827882
Si Si3 0.528953 0.940514 0.290404
Si Si4 0.760588 0.141882 0.317023
Si Si5 0.733691 0.358231 0.692201
Si Si6 0.055392 0.363077 0.315908
Si Si7 0.639039 0.640066 0.566790
O O1 0.328401 0.446514 0.795679
O O2 0.153938 0.554262 0.860800
O O3 0.221103 0.378425 0.702906
O O4 0.070467 0.409151 0.139778
O O5 0.839241 0.914076 0.703594
O O6 0.673452 0.874004 0.690567
O O7 0.656952 0.044110 0.838291
O O8 0.574326 0.893646 0.083635
O O9 0.405197 0.877083 0.514401
O O10 0.463794 0.048848 0.345183
O O11 0.808136 0.250000 0.217480
O O12 0.756559 0.134468 0.493635
O O13 0.672954 0.250000 0.799637
O O14 0.892031 0.363193 0.561473
O O15 0.102485 0.250000 0.245363
O O16 0.585132 0.750000 0.606151
#
# Coordination Sequence:
#
# PCOD9163092 Si02
#       7
#     4   4   4   4   4   4   4
#     4  10  21  38  58  82 114 149 189 236 278 336
#     4  11  21  39  57  85 115 146 191 236 280 334
#     4  10  22  36  55  82 115 150 184 228 285 344
#     4  10  20  36  58  85 114 149 189 231 283 339
#     4  10  21  38  61  83 112 153 190 234 285 337
#     4  10  22  39  60  84 112 152 193 228 287 343
#     4  11  21  34  55  84 115 145 184 235 284 332
#
# _framework density 23.212340999999999
#
# number of rings (size 3 to 8) (size 9 to 14) (size 15 to 20)
#    0.000    1.714    2.857    3.429    0.000    6.286 
#    0.000    2.143    0.000    0.857    0.000    0.000 
#    0.000    0.000    0.000    0.000    0.000    0.000 
#
# Total GULP energy -156583.464933 kJ/mol
# GULP energy per Si atom -5592.266605 kJ/mol
# Density = 2.315951 g / cm^3
# Si number density = 23.212341 Si / 1000 Ang^3
#
#
#
# Elastic Constant Matrix: (Units=GPa)
#
#
# Indices 1 2 3 4 5 6 
#
# 1 57.9187 -1.8205 11.3422 0.0000 7.4987 0.0000
# 2 -1.8205 131.8782 14.3523 0.0000 10.9750 0.0000
# 3 11.3422 14.3523 50.4846 0.0000 15.1989 0.0000
# 4 0.0000 0.0000 0.0000 18.3325 0.0000 3.6107
# 5 7.4987 10.9750 15.1989 0.0000 33.6787 0.0000
# 6 0.0000 0.0000 0.0000 3.6107 0.0000 20.5496
#
#
#
# Elastic Compliance Matrix: (Units=1/GPa)
#
#
# Indices 1 2 3 4 5 6 
#
# 1 0.018344 0.000869 -0.003533 0.000000 -0.002773 0.000000
# 2 0.000869 0.007960 -0.001874 0.000000 -0.001942 0.000000
# 3 -0.003533 -0.001874 0.023971 0.000000 -0.009420 0.000000
# 4 0.000000 0.000000 0.000000 0.056503 0.000000 -0.009928
# 5 -0.002773 -0.001942 -0.009420 0.000000 0.035194 0.000000
# 6 0.000000 0.000000 0.000000 -0.009928 0.000000 0.050407
#
#
# Mechanical properties :
#
#
# Convention : Reuss Voigt Hill
#
# Bulk Modulus (GPa) = 24.27308 32.00327 28.13817
# Shear Modulus (GPa) = 23.23544 28.93932 26.08738
#
# Velocity S-wave (km/s) = 3.16728 3.53472 3.35604
# Velocity P-wave (km/s) = 4.88418 5.52052 5.21207
#
# Compressibility (1/GPa) = 0.04119791
#
# Stress axis : x y z
#
# Youngs Moduli (GPa) = 54.51431 125.62423 41.71777
#
# Poissons Ratio (x) = -0.10911 0.14740
# Poissons Ratio (y) = -0.04735 0.07816
# Poissons Ratio (z) = 0.19262 0.23536
#
# Static dielectric constant tensor:
#      x y z
#    x 1.924530 0.000000 -0.013040 
#    y 0.000000 1.867770 0.000000 
#    z -0.013040 0.000000 1.881470 
# 
# From -- ./inp_files/22113.got.cif
#   From: 2010.05.17/outbox.cif.g08.bks.cpg/sg11_12_cif.got.tgz:22113.got - 2010.06.03 12:22:45.
