data_PCOD9163269
_publ_section_title
;
Structure prediction by ZEFSAII (Michael W. Deem and Ramdas Pophale) SiO2 
 PCOD9163269
Probable space group: P 21/M
;
_chemical_formula_sum "Si O2"
_cell_formula_units_Z 32
_cell_length_a 14.573454
_cell_length_b 8.965148
_cell_length_c 12.569282
_cell_angle_alpha 90.000000
_cell_angle_beta 91.297018
_cell_angle_gamma 90.000000
_cell_volume 1641.795808
_symmetry_space_group_name_H-M "P 21/M"
_symmetry_group_IT_number 11
_symmetry_cell_setting 'monoclinic'
loop_
_space_group_symop_operation_xyz
x,y,z
-x,1/2+y,-z
-x,-y,-z
x,1/2-y,z
loop_
_atom_site_type_symbol
_atom_site_label
_atom_site_fract_x
_atom_site_fract_y
_atom_site_fract_z
Si Si1 0.900894 0.072731 0.973151
Si Si2 0.502486 0.426899 0.324350
Si Si3 0.148720 0.425541 0.478425
Si Si4 0.122917 0.576309 0.691651
Si Si5 0.455475 0.071562 0.894350
Si Si6 0.365725 0.075018 0.510811
Si Si7 0.918048 0.925812 0.757624
Si Si8 0.759802 0.927824 0.134218
O O1 0.907027 0.250000 0.985140
O O2 0.879654 0.024022 0.851878
O O3 0.823834 0.007742 0.049167
O O4 0.000000 0.000000 0.000000
O O5 0.504409 0.250000 0.306630
O O6 0.498874 0.509761 0.212180
O O7 0.591612 0.479164 0.393098
O O8 0.418819 0.462107 0.402708
O O9 0.125654 0.250000 0.491625
O O10 0.105470 0.520748 0.571833
O O11 0.257963 0.443401 0.493471
O O12 0.119639 0.468196 0.359083
O O13 0.147910 0.750000 0.692845
O O14 0.201305 0.480702 0.750928
O O15 0.028208 0.558663 0.753756
O O16 0.463959 0.250000 0.898910
O O17 0.346900 0.034365 0.883936
O O18 0.500000 0.000000 0.000000
O O19 0.384615 0.250000 0.534497
O O20 0.897481 0.750000 0.775358
O O21 0.770185 0.750000 0.125591
#
# Coordination Sequence:
#
# PCOD9163269 Si02
#       8
#     4   4   4   4   4   4   4   4
#     4  12  24  40  64  91 120 156 202 253 301 355
#     4  10  20  36  60  87 117 153 197 247 299 356
#     4  10  21  37  57  82 118 158 198 243 296 359
#     4  11  22  36  58  87 120 156 200 249 298 356
#     4  11  25  43  63  89 122 159 200 249 306 365
#     4   9  19  36  58  85 115 154 198 242 297 358
#     4  10  22  39  58  84 119 160 200 246 302 356
#     4  11  24  42  65  90 119 160 204 247 302 364
#
# _framework density 19.490853000000001
#
# number of rings (size 3 to 8) (size 9 to 14) (size 15 to 20)
#    0.000    1.500    1.250    3.750    0.000    8.000 
#    0.000    2.500    0.000    0.000    0.000    0.000 
#    0.000    0.000    0.000    0.000    0.000    0.000 
#
# Total GULP energy -178930.805587 kJ/mol
# GULP energy per Si atom -5591.587675 kJ/mol
# Density = 1.944649 g / cm^3
# Si number density = 19.490853 Si / 1000 Ang^3
#
#
#
# Elastic Constant Matrix: (Units=GPa)
#
#
# Indices 1 2 3 4 5 6 
#
# 1 22.5801 19.3981 17.6075 0.0000 1.0329 0.0000
# 2 19.3981 60.2120 43.1360 0.0000 -1.0707 0.0000
# 3 17.6075 43.1360 126.1502 0.0000 4.7948 0.0000
# 4 0.0000 0.0000 0.0000 40.6844 0.0000 -0.7583
# 5 1.0329 -1.0707 4.7948 0.0000 26.9385 0.0000
# 6 0.0000 0.0000 0.0000 -0.7583 0.0000 24.5387
#
#
#
# Elastic Compliance Matrix: (Units=1/GPa)
#
#
# Indices 1 2 3 4 5 6 
#
# 1 0.061975 -0.018398 -0.002256 0.000000 -0.002706 0.000000
# 2 -0.018398 0.027591 -0.006983 0.000000 0.003045 0.000000
# 3 -0.002256 -0.006983 0.010709 0.000000 -0.002097 0.000000
# 4 0.000000 0.000000 0.000000 0.024594 0.000000 0.000760
# 5 -0.002706 0.003045 -0.002097 0.000000 0.037720 0.000000
# 6 0.000000 0.000000 0.000000 0.000760 0.000000 0.040775
#
#
# Mechanical properties :
#
#
# Convention : Reuss Voigt Hill
#
# Bulk Modulus (GPa) = 22.22096 41.02507 31.62301
# Shear Modulus (GPa) = 18.27226 27.01903 22.64565
#
# Velocity S-wave (km/s) = 3.06515 3.72727 3.41230
# Velocity P-wave (km/s) = 4.89411 6.29424 5.63781
#
# Compressibility (1/GPa) = 0.04500256
#
# Stress axis : x y z
#
# Youngs Moduli (GPa) = 16.13551 36.24306 93.37643
#
# Poissons Ratio (x) = 0.66679 0.21070
# Poissons Ratio (y) = 0.29686 0.65200
# Poissons Ratio (z) = 0.03641 0.25307
#
# Static dielectric constant tensor:
#      x y z
#    x 1.671450 0.000000 -0.001760 
#    y 0.000000 1.649350 0.000000 
#    z -0.001760 0.000000 1.679110 
# 
# From -- ./inp_files/38061.got.cif
#   From: 2010.05.17/outbox.cif.g08.bks.cpg/sg11_20_cif.got.tgz:38061.got - 2010.06.03 12:22:45.
