data_PCOD9163358
_publ_section_title
;
Structure prediction by ZEFSAII (Michael W. Deem and Ramdas Pophale) SiO2 
 PCOD9163358
Probable space group: P 21/M
;
_chemical_formula_sum "Si O2"
_cell_formula_units_Z 24
_cell_length_a 15.096215
_cell_length_b 8.741267
_cell_length_c 10.302736
_cell_angle_alpha 90.000000
_cell_angle_beta 80.422841
_cell_angle_gamma 90.000000
_cell_volume 1340.600715
_symmetry_space_group_name_H-M "P 21/M"
_symmetry_group_IT_number 11
_symmetry_cell_setting 'monoclinic'
loop_
_space_group_symop_operation_xyz
x,y,z
-x,1/2+y,-z
-x,-y,-z
x,1/2-y,z
loop_
_atom_site_type_symbol
_atom_site_label
_atom_site_fract_x
_atom_site_fract_y
_atom_site_fract_z
Si Si1 0.073065 0.066643 0.883762
Si Si2 0.927414 0.933655 0.418620
Si Si3 0.269830 0.931934 0.836676
Si Si4 0.269091 0.568062 0.529141
Si Si5 0.547750 0.932660 0.114457
Si Si6 0.551569 0.567449 0.611533
O O1 0.075358 0.250000 0.893211
O O2 0.052379 0.027286 0.737634
O O3 0.171794 0.999849 0.889433
O O4 0.000000 0.000000 0.000000
O O5 0.923928 0.750000 0.429309
O O6 0.829941 0.004104 0.473066
O O7 0.000000 0.000000 0.500000
O O8 0.269897 0.750000 0.858163
O O9 0.286954 0.958601 0.678519
O O10 0.349990 0.009509 0.895873
O O11 0.272943 0.750000 0.505538
O O12 0.345272 0.482879 0.429395
O O13 0.545946 0.750000 0.113214
O O14 0.493714 0.995975 0.251199
O O15 0.500000 0.000000 0.000000
O O16 0.500000 0.500000 0.500000
O O17 0.542811 0.750000 0.615865
#
# Coordination Sequence:
#
# PCOD9163358 Si02
#       6
#     4   4   4   4   4   4
#     4  10  21  38  61  88 117 152 198 244 294 353
#     4  10  21  38  60  87 120 154 193 243 300 354
#     4  10  20  37  62  88 118 155 198 243 296 355
#     4  10  20  36  61  90 119 154 198 244 295 351
#     4  12  25  42  62  87 123 160 198 246 301 356
#     4  12  23  38  62  91 121 156 201 246 293 351
#
# _framework density 17.902424
#
# number of rings (size 3 to 8) (size 9 to 14) (size 15 to 20)
#    0.000    1.333    1.667    5.000    0.000    3.333 
#    3.000    0.000    0.000    0.000    0.000    0.000 
#    0.000    0.000    0.000    0.000    0.000    0.000 
#
# Total GULP energy -134166.719451 kJ/mol
# GULP energy per Si atom -5590.279977 kJ/mol
# Density = 1.786168 g / cm^3
# Si number density = 17.902424 Si / 1000 Ang^3
#
#
#
# Elastic Constant Matrix: (Units=GPa)
#
#
# Indices 1 2 3 4 5 6 
#
# 1 171.4617 84.8155 96.3376 0.0000 7.5714 0.0000
# 2 84.8155 133.2575 66.6649 0.0000 4.5486 0.0000
# 3 96.3376 66.6649 120.4913 0.0000 -1.3770 0.0000
# 4 0.0000 0.0000 0.0000 30.2010 0.0000 -1.9403
# 5 7.5714 4.5486 -1.3770 0.0000 37.2655 0.0000
# 6 0.0000 0.0000 0.0000 -1.9403 0.0000 40.6441
#
#
#
# Elastic Compliance Matrix: (Units=1/GPa)
#
#
# Indices 1 2 3 4 5 6 
#
# 1 0.012073 -0.003823 -0.007564 0.000000 -0.002266 0.000000
# 2 -0.003823 0.011669 -0.003408 0.000000 -0.000774 0.000000
# 3 -0.007564 -0.003408 0.016262 0.000000 0.002554 0.000000
# 4 0.000000 0.000000 0.000000 0.033213 0.000000 0.001586
# 5 -0.002266 -0.000774 0.002554 0.000000 0.027484 0.000000
# 6 0.000000 0.000000 0.000000 0.001586 0.000000 0.024680
#
#
# Mechanical properties :
#
#
# Convention : Reuss Voigt Hill
#
# Bulk Modulus (GPa) = 96.02632 102.31627 99.17129
# Shear Modulus (GPa) = 31.55739 33.44829 32.50284
#
# Velocity S-wave (km/s) = 4.20306 4.32715 4.26556
# Velocity P-wave (km/s) = 8.79258 9.06873 8.93172
#
# Compressibility (1/GPa) = 0.01041381
#
# Stress axis : x y z
#
# Youngs Moduli (GPa) = 82.82909 85.69666 61.49428
#
# Poissons Ratio (x) = 0.32762 0.46512
# Poissons Ratio (y) = 0.31666 0.20959
# Poissons Ratio (z) = 0.62648 0.29208
#
# Static dielectric constant tensor:
#      x y z
#    x 1.595180 0.000000 -0.003530 
#    y 0.000000 1.591290 0.000000 
#    z -0.003530 0.000000 1.587920 
# 
# From -- ./inp_files/20389.got.cif
#   From: 2010.05.17/outbox.cif.g08.bks.cpg/sg11_11_cif.got.tgz:20389.got - 2010.06.03 12:22:45.
