data_PCOD9163219
_publ_section_title
;
Structure prediction by ZEFSAII (Michael W. Deem and Ramdas Pophale) SiO2 
 PCOD9163219
Probable space group: P 21/M
;
_chemical_formula_sum "Si O2"
_cell_formula_units_Z 28
_cell_length_a 11.027523
_cell_length_b 8.887564
_cell_length_c 17.095202
_cell_angle_alpha 90.000000
_cell_angle_beta 58.356727
_cell_angle_gamma 90.000000
_cell_volume 1426.373860
_symmetry_space_group_name_H-M "P 21/M"
_symmetry_group_IT_number 11
_symmetry_cell_setting 'monoclinic'
loop_
_space_group_symop_operation_xyz
x,y,z
-x,1/2+y,-z
-x,-y,-z
x,1/2-y,z
loop_
_atom_site_type_symbol
_atom_site_label
_atom_site_fract_x
_atom_site_fract_y
_atom_site_fract_z
Si Si1 0.578056 0.929217 0.354572
Si Si2 0.881152 0.071859 0.984323
Si Si3 0.290751 0.571406 0.261221
Si Si4 0.733061 0.929492 0.565589
Si Si5 0.897957 0.928280 0.807825
Si Si6 0.188403 0.928054 0.614242
Si Si7 0.371089 0.425991 0.840615
O O1 0.556511 0.750000 0.372184
O O2 0.574036 0.989288 0.598678
O O3 0.650472 0.951841 0.244882
O O4 0.677911 0.996333 0.387380
O O5 0.899587 0.250000 0.975173
O O6 0.729724 0.028220 0.073354
O O7 0.894148 0.003299 0.893748
O O8 0.000000 0.000000 0.000000
O O9 0.265467 0.750000 0.274466
O O10 0.234841 0.493217 0.359273
O O11 0.217409 0.501704 0.210517
O O12 0.461468 0.548385 0.201097
O O13 0.736619 0.750000 0.564512
O O14 0.830107 0.996648 0.464103
O O15 0.873091 0.750000 0.823436
O O16 0.050580 0.950711 0.714768
O O17 0.213082 0.750000 0.596607
O O18 0.339833 0.250000 0.867256
#
# Coordination Sequence:
#
# PCOD9163219 Si02
#       7
#     4   4   4   4   4   4   4
#     4  10  20  36  59  88 121 155 195 245 297 351
#     4  12  25  41  64  92 123 157 193 239 293 350
#     4  10  22  42  65  89 119 154 196 245 293 345
#     4  11  22  37  60  87 118 157 198 243 294 351
#     4  11  25  43  63  87 118 156 199 246 292 347
#     4  11  23  38  57  84 118 157 200 246 297 350
#     4   9  20  39  63  89 119 156 196 241 293 349
#
# _framework density 19.630196000000002
#
# number of rings (size 3 to 8) (size 9 to 14) (size 15 to 20)
#    0.000    1.429    0.000    6.429    0.000    9.143 
#    0.000    0.000    0.000    0.000    0.000    0.000 
#    0.000    0.000    0.000    0.000    0.000    0.000 
#
# Total GULP energy -156657.958515 kJ/mol
# GULP energy per Si atom -5594.927090 kJ/mol
# Density = 1.958552 g / cm^3
# Si number density = 19.630196 Si / 1000 Ang^3
#
#
#
# Elastic Constant Matrix: (Units=GPa)
#
#
# Indices 1 2 3 4 5 6 
#
# 1 69.3052 46.5335 51.0342 0.0000 36.9536 0.0000
# 2 46.5335 144.1517 98.8705 0.0000 15.0020 0.0000
# 3 51.0342 98.8705 150.5697 0.0000 29.2237 0.0000
# 4 0.0000 0.0000 0.0000 37.2410 0.0000 6.0250
# 5 36.9536 15.0020 29.2237 0.0000 29.8355 0.0000
# 6 0.0000 0.0000 0.0000 6.0250 0.0000 31.3280
#
#
#
# Elastic Compliance Matrix: (Units=1/GPa)
#
#
# Indices 1 2 3 4 5 6 
#
# 1 0.056387 -0.012720 0.001919 0.000000 -0.065324 0.000000
# 2 -0.012720 0.015608 -0.009226 0.000000 0.016944 0.000000
# 3 0.001919 -0.009226 0.014335 0.000000 -0.011780 0.000000
# 4 0.000000 0.000000 0.000000 0.027714 0.000000 -0.005330
# 5 -0.065324 0.016944 -0.011780 0.000000 0.117444 0.000000
# 6 0.000000 0.000000 0.000000 -0.005330 0.000000 0.032945
#
#
# Mechanical properties :
#
#
# Convention : Reuss Voigt Hill
#
# Bulk Modulus (GPa) = 21.60930 84.10034 52.85482
# Shear Modulus (GPa) = 15.62921 30.85344 23.24133
#
# Velocity S-wave (km/s) = 2.82473 3.96881 3.44460
# Velocity P-wave (km/s) = 4.65520 7.99608 6.54248
#
# Compressibility (1/GPa) = 0.04627638
#
# Stress axis : x y z
#
# Youngs Moduli (GPa) = 17.73455 64.07003 69.75773
#
# Poissons Ratio (x) = 0.81500 -0.13389
# Poissons Ratio (y) = 0.22559 0.64358
# Poissons Ratio (z) = -0.03404 0.59111
#
# Static dielectric constant tensor:
#      x y z
#    x 1.671720 0.000000 -0.015700 
#    y 0.000000 1.652630 0.000000 
#    z -0.015700 0.000000 1.684450 
# 
# From -- ./inp_files/49184.got.cif
#   From: 2010.05.17/outbox.cif.g08.bks.cpg/sg11_25_cif.got.tgz:49184.got - 2010.06.03 12:22:45.
