data_PCOD9163086
_publ_section_title
;
Structure prediction by ZEFSAII (Michael W. Deem and Ramdas Pophale) SiO2 
 PCOD9163086
Probable space group: P 21/M
;
_chemical_formula_sum "Si O2"
_cell_formula_units_Z 16
_cell_length_a 6.827216
_cell_length_b 15.516795
_cell_length_c 12.133607
_cell_angle_alpha 90.000000
_cell_angle_beta 135.461241
_cell_angle_gamma 90.000000
_cell_volume 901.563144
_symmetry_space_group_name_H-M "P 21/M"
_symmetry_group_IT_number 11
_symmetry_cell_setting 'monoclinic'
loop_
_space_group_symop_operation_xyz
x,y,z
-x,1/2+y,-z
-x,-y,-z
x,1/2-y,z
loop_
_atom_site_type_symbol
_atom_site_label
_atom_site_fract_x
_atom_site_fract_y
_atom_site_fract_z
Si Si1 0.783101 0.921207 0.412224
Si Si2 0.709647 0.651771 0.620464
Si Si3 0.051511 0.652229 0.309280
Si Si4 0.154032 0.509674 0.177049
O O1 0.811325 0.868719 0.537287
O O2 0.852393 0.865392 0.332744
O O3 0.470235 0.957958 0.284463
O O4 0.000000 0.000000 0.500000
O O5 0.776041 0.750000 0.677778
O O6 0.372157 0.642319 0.480035
O O7 0.829331 0.580116 0.750110
O O8 0.021007 0.750000 0.256019
O O9 0.012676 0.581143 0.199317
O O10 0.000000 0.500000 0.000000
#
# Coordination Sequence:
#
# PCOD9163086 Si02
#       4
#     4   4   4   4
#     4  11  18  37  63  82 105 145 196 231 273 326
#     4  10  20  36  58  85 111 147 192 234 278 330
#     4  10  20  37  61  84 110 147 194 236 273 328
#     4  11  23  37  57  84 121 152 177 229 289 338
#
# _framework density 17.746956000000001
#
# number of rings (size 3 to 8) (size 9 to 14) (size 15 to 20)
#    0.000    1.500    5.000    2.250    0.000    3.000 
#    0.000    0.000    0.000    0.000    0.000    0.000 
#    0.000    0.000    0.000    0.000    0.000    0.000 
#
# Total GULP energy -89339.726843 kJ/mol
# GULP energy per Si atom -5583.732928 kJ/mol
# Density = 1.770656 g / cm^3
# Si number density = 17.746956 Si / 1000 Ang^3
#
#
#
# Elastic Constant Matrix: (Units=GPa)
#
#
# Indices 1 2 3 4 5 6 
#
# 1 115.7648 52.8879 36.1436 0.0000 -24.0851 0.0000
# 2 52.8879 167.6063 70.7210 0.0000 -35.0271 0.0000
# 3 36.1436 70.7210 88.9518 0.0000 -36.0704 0.0000
# 4 0.0000 0.0000 0.0000 1.5753 0.0000 1.6020
# 5 -24.0851 -35.0271 -36.0704 0.0000 26.0185 0.0000
# 6 0.0000 0.0000 0.0000 1.6020 0.0000 25.9607
#
#
#
# Elastic Compliance Matrix: (Units=1/GPa)
#
#
# Indices 1 2 3 4 5 6 
#
# 1 0.011116 -0.001948 0.000322 0.000000 0.008114 0.000000
# 2 -0.001948 0.009614 -0.005333 0.000000 0.003747 0.000000
# 3 0.000322 -0.005333 0.028688 0.000000 0.032890 0.000000
# 4 0.000000 0.000000 0.000000 0.677318 0.000000 -0.041797
# 5 0.008114 0.003747 0.032890 0.000000 0.096587 0.000000
# 6 0.000000 0.000000 0.000000 -0.041797 0.000000 0.041099
#
#
# Mechanical properties :
#
#
# Convention : Reuss Voigt Hill
#
# Bulk Modulus (GPa) = 28.16797 76.86977 52.51887
# Shear Modulus (GPa) = 5.61689 24.88226 15.24958
#
# Velocity S-wave (km/s) = 1.78097 3.74847 2.93453
# Velocity P-wave (km/s) = 4.48727 7.88309 6.41400
#
# Compressibility (1/GPa) = 0.03550131
#
# Stress axis : x y z
#
# Youngs Moduli (GPa) = 89.96349 104.01240 34.85741
#
# Poissons Ratio (x) = 0.20259 -0.01124
# Poissons Ratio (y) = 0.17523 0.18590
# Poissons Ratio (z) = -0.02901 0.55471
#
# Static dielectric constant tensor:
#      x y z
#    x 1.608570 0.000000 0.000710 
#    y 0.000000 1.617010 0.000000 
#    z 0.000710 0.000000 1.561850 
# 
# From -- ./inp_files/1476.got.cif
#   From: 2010.05.17/outbox.cif.g08.bks.cpg/sg11_1_cif.got.tgz:1476.got - 2010.06.03 12:22:45.
