data_PCOD9163828
_publ_section_title
;
Structure prediction by ZEFSAII (Michael W. Deem and Ramdas Pophale) SiO2 
 PCOD9163828
Probable space group: P 21/M
;
_chemical_formula_sum "Si O2"
_cell_formula_units_Z 32
_cell_length_a 14.790456
_cell_length_b 17.116669
_cell_length_c 11.132805
_cell_angle_alpha 90.000000
_cell_angle_beta 29.777918
_cell_angle_gamma 90.000000
_cell_volume 1399.737709
_symmetry_space_group_name_H-M "P 21/M"
_symmetry_group_IT_number 11
_symmetry_cell_setting 'monoclinic'
loop_
_space_group_symop_operation_xyz
x,y,z
-x,1/2+y,-z
-x,-y,-z
x,1/2-y,z
loop_
_atom_site_type_symbol
_atom_site_label
_atom_site_fract_x
_atom_site_fract_y
_atom_site_fract_z
Si Si1 0.536647 0.412594 0.406741
Si Si2 0.164703 0.839763 0.307762
Si Si3 0.249014 0.896146 0.617920
Si Si4 0.441676 0.414488 0.111999
Si Si5 0.410996 0.340545 0.908795
Si Si6 0.947541 0.880780 0.796926
Si Si7 0.109176 0.933520 0.142234
Si Si8 0.778560 0.921624 0.384359
O O1 0.500000 0.500000 0.500000
O O2 0.646221 0.367771 0.384212
O O3 0.348836 0.380959 0.567998
O O4 0.680626 0.423251 0.133797
O O5 0.153531 0.750000 0.282763
O O6 0.078726 0.894314 0.304977
O O7 0.062761 0.850319 0.551221
O O8 0.374452 0.865261 0.079928
O O9 0.405145 0.885568 0.337328
O O10 0.062437 0.859949 0.783388
O O11 0.209884 0.988575 0.673856
O O12 0.326033 0.419348 0.366983
O O13 0.500000 0.500000 0.000000
O O14 0.340112 0.374460 0.116604
O O15 0.454259 0.250000 0.872025
O O16 0.257382 0.351684 0.984615
O O17 0.936420 0.974857 0.801391
O O18 0.981825 0.896955 0.184757
#
# Coordination Sequence:
#
# PCOD9163828 Si02
#       8
#     4   4   4   4   4   4   4   4
#     4  10  21  38  63  94 125 160 215 272 314 360
#     4  12  24  40  63  94 133 171 202 254 328 390
#     4  10  22  39  60  89 125 162 204 266 313 364
#     4  12  20  38  65  92 126 159 203 254 313 380
#     4  12  24  38  61  91 127 168 205 255 320 382
#     4  11  22  39  63  94 126 165 209 257 315 376
#     4  11  22  40  66  94 125 167 211 264 315 371
#     4  10  20  37  64  96 118 157 203 262 317 366
#
# _framework density 22.861426000000002
#
# number of rings (size 3 to 8) (size 9 to 14) (size 15 to 20)
#    0.000    1.000    3.750    4.875    0.000    6.000 
#    0.000    1.250    0.000    1.500    0.000    0.000 
#    0.000    0.000    0.000    0.000    0.000    0.000 
#
# Total GULP energy -178902.844766 kJ/mol
# GULP energy per Si atom -5590.713899 kJ/mol
# Density = 2.280939 g / cm^3
# Si number density = 22.861426 Si / 1000 Ang^3
#
#
#
# Elastic Constant Matrix: (Units=GPa)
#
#
# Indices 1 2 3 4 5 6 
#
# 1 133.9577 3.7306 2.4743 0.0000 -24.4615 0.0000
# 2 3.7306 39.6622 -7.5647 0.0000 0.5033 0.0000
# 3 2.4743 -7.5647 58.0632 0.0000 -20.6264 0.0000
# 4 0.0000 0.0000 0.0000 3.8998 0.0000 4.6042
# 5 -24.4615 0.5033 -20.6264 0.0000 40.8739 0.0000
# 6 0.0000 0.0000 0.0000 4.6042 0.0000 -16.4346
#
#
#
# Elastic Compliance Matrix: (Units=1/GPa)
#
#
# Indices 1 2 3 4 5 6 
#
# 1 0.008539 -0.000558 0.001683 0.000000 0.005966 0.000000
# 2 -0.000558 0.025987 0.003871 0.000000 0.001300 0.000000
# 3 0.001683 0.003871 0.021927 0.000000 0.012025 0.000000
# 4 0.000000 0.000000 0.000000 0.192692 0.000000 0.053983
# 5 0.005966 0.001300 0.012025 0.000000 0.034088 0.000000
# 6 0.000000 0.000000 0.000000 0.053983 0.000000 -0.045724
#
#
# Mechanical properties :
#
#
# Convention : Reuss Voigt Hill
#
# Bulk Modulus (GPa) = 15.04993 25.44041 20.24517
# Shear Modulus (GPa) = 20.02683 21.20400 20.61541
#
# Velocity S-wave (km/s) = 2.96296 3.04879 3.00618
# Velocity P-wave (km/s) = 4.27819 4.85240 4.57431
#
# Compressibility (1/GPa) = 0.06644547
#
# Stress axis : x y z
#
# Youngs Moduli (GPa) = 117.10985 38.48041 45.60621
#
# Poissons Ratio (x) = 0.02147 -0.07675
# Poissons Ratio (y) = 0.06534 -0.17655
# Poissons Ratio (z) = -0.19709 -0.14896
#
# Static dielectric constant tensor:
#      x y z
#    x 2.012760 0.000000 -0.065150 
#    y 0.000000 1.933240 0.000000 
#    z -0.065150 0.000000 1.932960 
# 
# From -- ./inp_files/39964.got.cif
#   From: 2010.05.17/outbox.cif.g08.bks.cpg/sg11_20_cif.got.tgz:39964.got - 2010.06.03 12:22:45.
