data_PCOD9163697
_publ_section_title
;
Structure prediction by ZEFSAII (Michael W. Deem and Ramdas Pophale) SiO2 
 PCOD9163697
Probable space group: P 21/M
;
_chemical_formula_sum "Si O2"
_cell_formula_units_Z 30
_cell_length_a 15.515384
_cell_length_b 14.629364
_cell_length_c 21.478670
_cell_angle_alpha 90.000000
_cell_angle_beta 163.042227
_cell_angle_gamma 90.000000
_cell_volume 1421.943694
_symmetry_space_group_name_H-M "P 21/M"
_symmetry_group_IT_number 11
_symmetry_cell_setting 'monoclinic'
loop_
_space_group_symop_operation_xyz
x,y,z
-x,1/2+y,-z
-x,-y,-z
x,1/2-y,z
loop_
_atom_site_type_symbol
_atom_site_label
_atom_site_fract_x
_atom_site_fract_y
_atom_site_fract_z
Si Si1 0.452980 0.940597 0.305761
Si Si2 0.603367 0.856795 0.887322
Si Si3 0.353719 0.250000 0.539446
Si Si4 0.892103 0.470979 0.527378
Si Si5 0.799223 0.353506 0.277167
Si Si6 0.485000 0.142414 0.928579
Si Si7 0.976542 0.149389 0.175953
Si Si8 0.952458 0.011141 0.863907
O O1 0.489201 0.833826 0.315490
O O2 0.317679 0.956894 0.280396
O O3 0.744216 0.999008 0.490189
O O4 0.209156 0.979890 0.088985
O O5 0.621773 0.750000 0.882891
O O6 0.339844 0.907362 0.668400
O O7 0.490969 0.861787 0.880713
O O8 0.904831 0.908127 0.078818
O O9 0.187939 0.172216 0.380409
O O10 0.968090 0.567652 0.546586
O O11 0.200010 0.418133 0.743508
O O12 0.918788 0.250000 0.366781
O O13 0.697550 0.363958 0.135651
O O14 0.408147 0.250000 0.869242
O O15 0.670393 0.115613 0.995501
O O16 0.928889 0.250000 0.113566
O O17 0.109045 0.075346 0.221917
#
# Coordination Sequence:
#
# PCOD9163697 Si02
#       8
#     4   4   2   4   4   4   4   4
#     4  10  24  39  64  91 120 162 214 251 310 358
#     4  10  22  39  58  87 122 157 207 257 304 361
#     4  10  22  40  62  92 122 160 200 266 296 360
#     4  11  21  36  59  89 121 160 200 258 301 360
#     4  10  21  35  57  85 119 162 202 247 301 375
#     4  10  20  37  61  87 123 165 202 243 308 369
#     4   9  21  39  64  92 127 158 201 254 304 367
#     4  10  22  44  63  91 120 167 209 256 307 371
#
# _framework density 21.097882999999999
#
# number of rings (size 3 to 8) (size 9 to 14) (size 15 to 20)
#    0.400    1.600    0.000    2.800    4.667    2.667 
#    0.000    4.000    2.933    0.000    0.000    0.000 
#    0.000    0.000    0.000    0.000    0.000    0.000 
#
# Total GULP energy -167023.768748 kJ/mol
# GULP energy per Si atom -5567.458958 kJ/mol
# Density = 2.104986 g / cm^3
# Si number density = 21.097883 Si / 1000 Ang^3
#
#
#
# Elastic Constant Matrix: (Units=GPa)
#
#
# Indices 1 2 3 4 5 6 
#
# 1 66.6441 20.7437 5.6539 0.0000 15.0167 0.0000
# 2 20.7437 78.8066 17.4465 0.0000 7.4730 0.0000
# 3 5.6539 17.4465 30.0644 0.0000 14.6222 0.0000
# 4 0.0000 0.0000 0.0000 22.2957 0.0000 -11.2736
# 5 15.0167 7.4730 14.6222 0.0000 20.9676 0.0000
# 6 0.0000 0.0000 0.0000 -11.2736 0.0000 10.8051
#
#
#
# Elastic Compliance Matrix: (Units=1/GPa)
#
#
# Indices 1 2 3 4 5 6 
#
# 1 0.020077 -0.005372 0.008178 0.000000 -0.018167 0.000000
# 2 -0.005372 0.016013 -0.011164 0.000000 0.005926 0.000000
# 3 0.008178 -0.011164 0.059193 0.000000 -0.043157 0.000000
# 4 0.000000 0.000000 0.000000 0.094937 0.000000 0.099054
# 5 -0.018167 0.005926 -0.043157 0.000000 0.088688 0.000000
# 6 0.000000 0.000000 0.000000 0.099054 0.000000 0.195897
#
#
# Mechanical properties :
#
#
# Convention : Reuss Voigt Hill
#
# Bulk Modulus (GPa) = 12.72834 29.24481 20.98658
# Shear Modulus (GPa) = 9.65788 19.59177 14.62483
#
# Velocity S-wave (km/s) = 2.14187 3.05062 2.63571
# Velocity P-wave (km/s) = 3.48753 5.12835 4.38537
#
# Compressibility (1/GPa) = 0.07856482
#
# Stress axis : x y z
#
# Youngs Moduli (GPa) = 49.80809 62.44888 16.89394
#
# Poissons Ratio (x) = 0.33550 -0.13816
# Poissons Ratio (y) = 0.26759 0.18861
# Poissons Ratio (z) = -0.40732 0.69721
#
# Static dielectric constant tensor:
#      x y z
#    x 1.792220 0.000000 0.011120 
#    y 0.000000 1.771890 0.000000 
#    z 0.011120 0.000000 1.775770 
# 
# From -- ./inp_files/65705.got.cif
#   From: 2010.05.17/outbox.cif.g08.bks.cpg/sg11_33_cif.got.tgz:65705.got - 2010.06.03 12:22:45.
