data_PCOD9163763
_publ_section_title
;
Structure prediction by ZEFSAII (Michael W. Deem and Ramdas Pophale) SiO2 
 PCOD9163763
Probable space group: P 21/M
;
_chemical_formula_sum "Si O2"
_cell_formula_units_Z 32
_cell_length_a 8.581127
_cell_length_b 30.473554
_cell_length_c 11.912388
_cell_angle_alpha 90.000000
_cell_angle_beta 34.263028
_cell_angle_gamma 90.000000
_cell_volume 1753.755950
_symmetry_space_group_name_H-M "P 21/M"
_symmetry_group_IT_number 11
_symmetry_cell_setting 'monoclinic'
loop_
_space_group_symop_operation_xyz
x,y,z
-x,1/2+y,-z
-x,-y,-z
x,1/2-y,z
loop_
_atom_site_type_symbol
_atom_site_label
_atom_site_fract_x
_atom_site_fract_y
_atom_site_fract_z
Si Si1 0.252407 0.382695 0.220864
Si Si2 0.963758 0.799300 0.041747
Si Si3 0.901404 0.374194 0.206877
Si Si4 0.610844 0.701302 0.714159
Si Si5 0.806512 0.457501 0.106186
Si Si6 0.159975 0.459131 0.456906
Si Si7 0.297292 0.168682 0.584110
Si Si8 0.132410 0.589436 0.168841
O O1 0.046954 0.379639 0.239292
O O2 0.276831 0.337319 0.274879
O O3 0.171679 0.420153 0.358285
O O4 0.555534 0.395307 0.994096
O O5 0.937728 0.750000 0.008912
O O6 0.758029 0.805026 0.268900
O O7 0.939883 0.838588 0.966273
O O8 0.277221 0.803061 0.903597
O O9 0.872696 0.420675 0.160329
O O10 0.595651 0.354383 0.405616
O O11 0.677829 0.750000 0.715963
O O12 0.716864 0.695610 0.523292
O O13 0.478548 0.468738 0.302076
O O14 0.000000 0.500000 0.000000
O O15 0.863730 0.434228 0.953334
O O16 0.989332 0.442388 0.665031
O O17 0.000000 0.500000 0.500000
O O18 0.065838 0.131237 0.718051
#
# Coordination Sequence:
#
# PCOD9163763 Si02
#       8
#     4   4   4   4   4   4   4   4
#     4  11  24  40  61  90 125 160 194 248 309 353
#     4  10  20  38  64  89 116 158 203 243 297 359
#     4  11  24  39  60  91 127 156 195 253 303 351
#     4  10  20  37  62  90 118 155 201 246 292 356
#     4  11  25  41  61  92 122 159 203 250 302 357
#     4  11  25  42  63  90 120 160 205 249 297 362
#     4  11  18  40  64  88 114 159 203 242 294 352
#     4  11  21  42  66  82 123 159 199 245 294 359
#
# _framework density 18.246552999999999
#
# number of rings (size 3 to 8) (size 9 to 14) (size 15 to 20)
#    0.000    1.250    5.000    1.875    3.500    4.500 
#    0.000    0.000    0.000    0.000    0.000    0.000 
#    0.000    0.000    0.000    0.000    0.000    0.000 
#
# Total GULP energy -178738.240433 kJ/mol
# GULP energy per Si atom -5585.570014 kJ/mol
# Density = 1.820502 g / cm^3
# Si number density = 18.246553 Si / 1000 Ang^3
#
#
#
# Elastic Constant Matrix: (Units=GPa)
#
#
# Indices 1 2 3 4 5 6 
#
# 1 72.3727 27.2882 6.5864 0.0000 -5.5125 0.0000
# 2 27.2882 103.9519 12.5548 0.0000 -14.0396 0.0000
# 3 6.5864 12.5548 81.7399 0.0000 5.8359 0.0000
# 4 0.0000 0.0000 0.0000 21.6784 0.0000 5.2986
# 5 -5.5125 -14.0396 5.8359 0.0000 13.7265 0.0000
# 6 0.0000 0.0000 0.0000 5.2986 0.0000 -4.5973
#
#
#
# Elastic Compliance Matrix: (Units=1/GPa)
#
#
# Indices 1 2 3 4 5 6 
#
# 1 0.015465 -0.003548 -0.000913 0.000000 0.002970 0.000000
# 2 -0.003548 0.012543 -0.002532 0.000000 0.012480 0.000000
# 3 -0.000913 -0.002532 0.013311 0.000000 -0.008616 0.000000
# 4 0.000000 0.000000 0.000000 0.035990 0.000000 0.041480
# 5 0.002970 0.012480 -0.008616 0.000000 0.090472 0.000000
# 6 0.000000 0.000000 0.000000 0.041480 0.000000 -0.169710
#
#
# Mechanical properties :
#
#
# Convention : Reuss Voigt Hill
#
# Bulk Modulus (GPa) = 36.58622 38.99148 37.78885
# Shear Modulus (GPa) = 236.20560 20.27051 128.23805
#
# Velocity S-wave (km/s) = 11.39005 3.33667 8.39245
# Velocity P-wave (km/s) = 13.89504 6.02163 10.70823
#
# Compressibility (1/GPa) = 0.02733270
#
# Stress axis : x y z
#
# Youngs Moduli (GPa) = 64.66417 79.72860 75.12325
#
# Poissons Ratio (x) = 0.28289 0.06860
# Poissons Ratio (y) = 0.22944 0.19018
# Poissons Ratio (z) = 0.05905 0.20184
#
# Static dielectric constant tensor:
#      x y z
#    x 1.605300 0.000000 0.002890 
#    y 0.000000 1.638340 0.000000 
#    z 0.002890 0.000000 1.627840 
# 
# From -- ./inp_files/33191.got.cif
#   From: 2010.05.17/outbox.cif.g08.bks.cpg/sg11_17_cif.got.tgz:33191.got - 2010.06.03 12:22:45.
