data_PCOD9163489
_publ_section_title
;
Structure prediction by ZEFSAII (Michael W. Deem and Ramdas Pophale) SiO2 
 PCOD9163489
Probable space group: P 21/M
;
_chemical_formula_sum "Si O2"
_cell_formula_units_Z 32
_cell_length_a 12.154492
_cell_length_b 13.487946
_cell_length_c 17.601106
_cell_angle_alpha 90.000000
_cell_angle_beta 149.131207
_cell_angle_gamma 90.000000
_cell_volume 1480.479651
_symmetry_space_group_name_H-M "P 21/M"
_symmetry_group_IT_number 11
_symmetry_cell_setting 'monoclinic'
loop_
_space_group_symop_operation_xyz
x,y,z
-x,1/2+y,-z
-x,-y,-z
x,1/2-y,z
loop_
_atom_site_type_symbol
_atom_site_label
_atom_site_fract_x
_atom_site_fract_y
_atom_site_fract_z
Si Si1 0.286001 0.033966 0.831831
Si Si2 0.971143 0.368774 0.409730
Si Si3 0.289685 0.055867 0.180743
Si Si4 0.521055 0.641880 0.317580
Si Si5 0.741371 0.134510 0.429098
Si Si6 0.387356 0.858334 0.066524
Si Si7 0.999743 0.515796 0.870174
Si Si8 0.084490 0.866911 0.306696
O O1 0.386003 0.095082 0.821637
O O2 0.156171 0.109510 0.807585
O O3 0.150942 0.940661 0.721393
O O4 0.500000 0.000000 0.000000
O O5 0.922507 0.250000 0.371880
O O6 0.884178 0.399629 0.442380
O O7 0.226897 0.378348 0.548202
O O8 0.490161 0.116852 0.268072
O O9 0.396908 0.953171 0.274793
O O10 0.129919 0.039823 0.015045
O O11 0.155502 0.089617 0.174730
O O12 0.501948 0.750000 0.344859
O O13 0.405772 0.650154 0.167742
O O14 0.791280 0.250000 0.463606
O O15 0.787981 0.098474 0.542253
O O16 0.364031 0.750000 0.017523
O O17 0.179038 0.925080 0.928677
O O18 0.884274 0.437975 0.746686
O O19 0.117912 0.750000 0.311301
#
# Coordination Sequence:
#
# PCOD9163489 Si02
#       8
#     4   4   4   4   4   4   4   4
#     4  12  23  37  57  88 122 156 198 238 303 359
#     4  10  21  38  62  91 124 159 202 246 294 362
#     4  10  21  38  63  86 120 156 207 254 293 358
#     4   9  18  34  59  88 115 153 198 244 296 348
#     4  10  22  39  62  91 121 160 204 249 302 356
#     4  10  20  37  58  82 117 155 196 244 295 355
#     4  10  22  40  59  90 117 160 204 249 306 356
#     4  11  24  41  60  88 124 158 199 252 307 363
#
# _framework density 21.614618
#
# number of rings (size 3 to 8) (size 9 to 14) (size 15 to 20)
#    0.000    1.750    1.250    3.375    0.000    6.500 
#    0.000    2.500    0.000    1.500    0.000    0.000 
#    0.000    0.000    0.000    0.000    0.000    0.000 
#
# Total GULP energy -178399.880800 kJ/mol
# GULP energy per Si atom -5574.996275 kJ/mol
# Density = 2.156542 g / cm^3
# Si number density = 21.614618 Si / 1000 Ang^3
#
#
#
# Elastic Constant Matrix: (Units=GPa)
#
#
# Indices 1 2 3 4 5 6 
#
# 1 69.3621 8.2398 4.5200 0.0000 -0.6793 0.0000
# 2 8.2398 65.2887 5.7804 0.0000 -18.5969 0.0000
# 3 4.5200 5.7804 68.6001 0.0000 -15.9193 0.0000
# 4 0.0000 0.0000 0.0000 20.9223 0.0000 -3.5710
# 5 -0.6793 -18.5969 -15.9193 0.0000 21.5909 0.0000
# 6 0.0000 0.0000 0.0000 -3.5710 0.0000 19.6574
#
#
#
# Elastic Compliance Matrix: (Units=1/GPa)
#
#
# Indices 1 2 3 4 5 6 
#
# 1 0.014781 -0.002521 -0.001396 0.000000 -0.002736 0.000000
# 2 -0.002521 0.021192 0.003134 0.000000 0.020485 0.000000
# 3 -0.001396 0.003134 0.018122 0.000000 0.016017 0.000000
# 4 0.000000 0.000000 0.000000 0.049325 0.000000 0.008961
# 5 -0.002736 0.020485 0.016017 0.000000 0.075684 0.000000
# 6 0.000000 0.000000 0.000000 0.008961 0.000000 0.052499
#
#
# Mechanical properties :
#
#
# Convention : Reuss Voigt Hill
#
# Bulk Modulus (GPa) = 19.03723 26.70346 22.87035
# Shear Modulus (GPa) = 19.94573 24.74816 22.34694
#
# Velocity S-wave (km/s) = 3.04104 3.38742 3.21889
# Velocity P-wave (km/s) = 4.59970 5.26124 4.94155
#
# Compressibility (1/GPa) = 0.05252865
#
# Stress axis : x y z
#
# Youngs Moduli (GPa) = 67.65543 47.18692 55.18110
#
# Poissons Ratio (x) = 0.11896 0.07705
# Poissons Ratio (y) = 0.17057 -0.17295
# Poissons Ratio (z) = 0.09447 -0.14789
#
# Static dielectric constant tensor:
#      x y z
#    x 1.837430 0.000000 0.005840 
#    y 0.000000 1.880020 0.000000 
#    z 0.005840 0.000000 1.817720 
# 
# From -- ./inp_files/59501.got.cif
#   From: 2010.05.17/outbox.cif.g08.bks.cpg/sg11_30_cif.got.tgz:59501.got - 2010.06.03 12:22:45.
