data_PCOD9163174
_publ_section_title
;
Structure prediction by ZEFSAII (Michael W. Deem and Ramdas Pophale) SiO2 
 PCOD9163174
Probable space group: P 21/M
;
_chemical_formula_sum "Si O2"
_cell_formula_units_Z 28
_cell_length_a 23.543913
_cell_length_b 8.314560
_cell_length_c 8.526425
_cell_angle_alpha 90.000000
_cell_angle_beta 47.589490
_cell_angle_gamma 90.000000
_cell_volume 1232.356531
_symmetry_space_group_name_H-M "P 21/M"
_symmetry_group_IT_number 11
_symmetry_cell_setting 'monoclinic'
loop_
_space_group_symop_operation_xyz
x,y,z
-x,1/2+y,-z
-x,-y,-z
x,1/2-y,z
loop_
_atom_site_type_symbol
_atom_site_label
_atom_site_fract_x
_atom_site_fract_y
_atom_site_fract_z
Si Si1 0.038115 0.057633 0.688591
Si Si2 0.822867 0.057732 0.748731
Si Si3 0.889850 0.556502 0.115280
Si Si4 0.681198 0.053661 0.818313
Si Si5 0.396554 0.939465 0.358544
Si Si6 0.462489 0.938593 0.729088
Si Si7 0.256742 0.059014 0.788178
O O1 0.038932 0.250000 0.682928
O O2 0.079296 0.999453 0.773971
O O3 0.090382 0.992233 0.451667
O O4 0.950918 0.999741 0.870725
O O5 0.819125 0.250000 0.772047
O O6 0.766560 0.005435 0.710204
O O7 0.785476 0.979564 0.971168
O O8 0.889955 0.750000 0.116519
O O9 0.804616 0.502702 0.229321
O O10 0.680733 0.250000 0.815327
O O11 0.647268 0.999916 0.715123
O O12 0.620314 0.996391 0.063487
O O13 0.411372 0.750000 0.315883
O O14 0.476188 0.025650 0.248009
O O15 0.336964 0.970566 0.611270
O O16 0.453145 0.750000 0.728200
O O17 0.500000 0.000000 0.500000
O O18 0.269547 0.250000 0.750524
#
# Coordination Sequence:
#
# PCOD9163174 Si02
#       7
#     4   4   4   4   4   4   4
#     4  10  20  36  59  86 114 147 189 237 289 345
#     4  11  22  38  59  84 115 152 192 236 287 341
#     4   9  20  38  59  83 113 149 191 238 287 342
#     4   9  21  39  60  84 113 150 193 237 281 335
#     4  11  22  39  61  86 115 150 191 235 286 342
#     4  11  22  39  61  88 120 154 192 236 285 336
#     4  11  23  39  58  84 116 150 190 237 287 339
#
# _framework density 22.720697999999999
#
# number of rings (size 3 to 8) (size 9 to 14) (size 15 to 20)
#    0.000    1.714    0.000    4.286    0.000    3.429 
#    0.000    6.429    0.000    0.000    0.000    0.000 
#    0.000    0.000    0.000    0.000    0.000    0.000 
#
# Total GULP energy -156617.978604 kJ/mol
# GULP energy per Si atom -5593.499236 kJ/mol
# Density = 2.266898 g / cm^3
# Si number density = 22.720698 Si / 1000 Ang^3
#
#
#
# Elastic Constant Matrix: (Units=GPa)
#
#
# Indices 1 2 3 4 5 6 
#
# 1 41.9334 -5.2617 -8.1400 0.0000 -5.9206 0.0000
# 2 -5.2617 13.3728 -5.5678 0.0000 -2.6716 0.0000
# 3 -8.1400 -5.5678 93.3883 0.0000 -10.9449 0.0000
# 4 0.0000 0.0000 0.0000 27.2414 0.0000 0.2867
# 5 -5.9206 -2.6716 -10.9449 0.0000 41.9034 0.0000
# 6 0.0000 0.0000 0.0000 0.2867 0.0000 24.0226
#
#
#
# Elastic Compliance Matrix: (Units=1/GPa)
#
#
# Indices 1 2 3 4 5 6 
#
# 1 0.027069 0.013376 0.003822 0.000000 0.005676 0.000000
# 2 0.013376 0.084925 0.007309 0.000000 0.009214 0.000000
# 3 0.003822 0.007309 0.011961 0.000000 0.004130 0.000000
# 4 0.000000 0.000000 0.000000 0.036713 0.000000 -0.000438
# 5 0.005676 0.009214 0.004130 0.000000 0.026333 0.000000
# 6 0.000000 0.000000 0.000000 -0.000438 0.000000 0.041633
#
#
# Mechanical properties :
#
#
# Convention : Reuss Voigt Hill
#
# Bulk Modulus (GPa) = 5.78139 12.30618 9.04378
# Shear Modulus (GPa) = 21.07246 29.81107 25.44176
#
# Velocity S-wave (km/s) = 3.04872 3.62618 3.34991
# Velocity P-wave (km/s) = 3.86562 4.79168 4.35335
#
# Compressibility (1/GPa) = 0.17296888
#
# Stress axis : x y z
#
# Youngs Moduli (GPa) = 36.94259 11.77506 83.60567
#
# Poissons Ratio (x) = -0.15750 -0.31955
# Poissons Ratio (y) = -0.49414 -0.61106
# Poissons Ratio (z) = -0.14120 -0.08606
#
# Static dielectric constant tensor:
#      x y z
#    x 1.880240 0.000000 0.038930 
#    y 0.000000 1.768140 0.000000 
#    z 0.038930 0.000000 1.856300 
# 
# From -- ./inp_files/28306.got.cif
#   From: 2010.05.17/outbox.cif.g08.bks.cpg/sg11_15_cif.got.tgz:28306.got - 2010.06.03 12:22:45.
