data_PCOD9163554
_publ_section_title
;
Structure prediction by ZEFSAII (Michael W. Deem and Ramdas Pophale) SiO2 
 PCOD9163554
Probable space group: P 21/M
;
_chemical_formula_sum "Si O2"
_cell_formula_units_Z 32
_cell_length_a 10.915961
_cell_length_b 8.074352
_cell_length_c 30.878206
_cell_angle_alpha 90.000000
_cell_angle_beta 27.481677
_cell_angle_gamma 90.000000
_cell_volume 1255.915477
_symmetry_space_group_name_H-M "P 21/M"
_symmetry_group_IT_number 11
_symmetry_cell_setting 'monoclinic'
loop_
_space_group_symop_operation_xyz
x,y,z
-x,1/2+y,-z
-x,-y,-z
x,1/2-y,z
loop_
_atom_site_type_symbol
_atom_site_label
_atom_site_fract_x
_atom_site_fract_y
_atom_site_fract_z
Si Si1 0.705709 0.056781 0.988035
Si Si2 0.683616 0.556674 0.363360
Si Si3 0.434665 0.559419 0.154773
Si Si4 0.055912 0.934527 0.638661
Si Si5 0.789512 0.443911 0.116726
Si Si6 0.549218 0.450556 0.700837
Si Si7 0.120652 0.060921 0.525327
Si Si8 0.028882 0.451105 0.808571
O O1 0.640068 0.250000 0.005237
O O2 0.791118 0.987245 0.914032
O O3 0.979489 0.038855 0.929948
O O4 0.493446 0.970220 0.085681
O O5 0.265960 0.250000 0.644616
O O6 0.710721 0.463861 0.399961
O O7 0.392699 0.537170 0.434227
O O8 0.906943 0.493083 0.259874
O O9 0.367582 0.750000 0.182132
O O10 0.700329 0.517074 0.098793
O O11 0.204471 0.456355 0.249948
O O12 0.071608 0.750000 0.615682
O O13 0.066090 0.054046 0.594479
O O14 0.856953 0.250000 0.092236
O O15 0.532454 0.467029 0.228274
O O16 0.556278 0.250000 0.703827
O O17 0.304603 0.491200 0.746541
O O18 0.841371 0.503169 0.594011
O O19 0.164460 0.250000 0.498248
O O20 0.005868 0.250000 0.815131
#
# Coordination Sequence:
#
# PCOD9163554 Si02
#       8
#     4   4   4   4   4   4   4   4
#     4  10  20  37  59  85 118 157 198 240 288 343
#     4  11  23  41  63  86 116 157 202 245 295 349
#     4  12  23  37  57  86 119 153 193 240 297 354
#     4  12  25  42  62  87 118 152 198 248 298 351
#     4  11  20  32  53  85 122 158 195 236 290 349
#     4   9  18  35  59  86 120 158 195 240 294 346
#     4  11  22  38  62  91 122 154 193 242 300 355
#     4   8  18  38  62  86 117 158 200 243 289 342
#
# _framework density 25.479423000000001
#
# number of rings (size 3 to 8) (size 9 to 14) (size 15 to 20)
#    0.000    1.500    1.250    6.000    0.000    1.000 
#    0.000    6.875    0.000    0.000    0.000    0.000 
#    0.000    0.000    0.000    0.000    0.000    0.000 
#
# Total GULP energy -179157.383721 kJ/mol
# GULP energy per Si atom -5598.668241 kJ/mol
# Density = 2.542143 g / cm^3
# Si number density = 25.479423 Si / 1000 Ang^3
#
#
#
# Elastic Constant Matrix: (Units=GPa)
#
#
# Indices 1 2 3 4 5 6 
#
# 1 67.0983 2.5697 24.5928 0.0000 -2.0510 0.0000
# 2 2.5697 76.1950 -9.5220 0.0000 -1.3644 0.0000
# 3 24.5928 -9.5220 137.3767 0.0000 1.2668 0.0000
# 4 0.0000 0.0000 0.0000 27.2962 0.0000 -0.1404
# 5 -2.0510 -1.3644 1.2668 0.0000 52.4523 0.0000
# 6 0.0000 0.0000 0.0000 -0.1404 0.0000 18.1784
#
#
#
# Elastic Compliance Matrix: (Units=1/GPa)
#
#
# Indices 1 2 3 4 5 6 
#
# 1 0.016036 -0.000896 -0.002939 0.000000 0.000675 0.000000
# 2 -0.000896 0.013294 0.001079 0.000000 0.000285 0.000000
# 3 -0.002939 0.001079 0.007883 0.000000 -0.000277 0.000000
# 4 0.000000 0.000000 0.000000 0.036637 0.000000 0.000283
# 5 0.000675 0.000285 -0.000277 0.000000 0.019105 0.000000
# 6 0.000000 0.000000 0.000000 0.000283 0.000000 0.055012
#
#
# Mechanical properties :
#
#
# Convention : Reuss Voigt Hill
#
# Bulk Modulus (GPa) = 31.54441 35.10565 33.32503
# Shear Modulus (GPa) = 30.47928 37.12068 33.79998
#
# Velocity S-wave (km/s) = 3.46241 3.82106 3.64615
# Velocity P-wave (km/s) = 5.32838 5.76847 5.55279
#
# Compressibility (1/GPa) = 0.03170134
#
# Stress axis : x y z
#
# Youngs Moduli (GPa) = 62.36113 75.21956 126.85940
#
# Poissons Ratio (x) = 0.06740 0.37284
# Poissons Ratio (y) = 0.05588 -0.13691
# Poissons Ratio (z) = 0.18328 -0.08118
#
# Static dielectric constant tensor:
#      x y z
#    x 2.059410 0.000000 -0.025240 
#    y 0.000000 1.867650 0.000000 
#    z -0.025240 0.000000 2.055380 
# 
# From -- ./inp_files/73130.got.cif
#   From: 2010.05.17/outbox.cif.g08.bks.cpg/sg11_37_cif.got.tgz:73130.got - 2010.06.03 12:22:45.
