data_PCOD9163076
_publ_section_title
;
Structure prediction by ZEFSAII (Michael W. Deem and Ramdas Pophale) SiO2 
 PCOD9163076
Probable space group: P 21/M
;
_chemical_formula_sum "Si O2"
_cell_formula_units_Z 24
_cell_length_a 8.192286
_cell_length_b 8.116188
_cell_length_c 17.401306
_cell_angle_alpha 90.000000
_cell_angle_beta 89.839283
_cell_angle_gamma 90.000000
_cell_volume 1157.010604
_symmetry_space_group_name_H-M "P 21/M"
_symmetry_group_IT_number 11
_symmetry_cell_setting 'monoclinic'
loop_
_space_group_symop_operation_xyz
x,y,z
-x,1/2+y,-z
-x,-y,-z
x,1/2-y,z
loop_
_atom_site_type_symbol
_atom_site_label
_atom_site_fract_x
_atom_site_fract_y
_atom_site_fract_z
Si Si1 0.683814 0.550886 0.335018
Si Si2 0.812604 0.949050 0.498851
Si Si3 0.817220 0.948192 0.820591
Si Si4 0.171435 0.446271 0.822387
Si Si5 0.495675 0.947043 0.911769
Si Si6 0.684213 0.551566 0.662255
O O1 0.690497 0.750000 0.336170
O O2 0.734140 0.489894 0.419436
O O3 0.796439 0.491098 0.264856
O O4 0.500088 0.496821 0.318642
O O5 0.800780 0.750000 0.498673
O O6 0.730407 0.011448 0.577555
O O7 0.000000 0.000000 0.500000
O O8 0.808611 0.750000 0.819875
O O9 0.659681 0.008886 0.868308
O O10 0.796596 0.007708 0.732337
O O11 0.995120 0.994792 0.851045
O O12 0.166393 0.250000 0.820023
O O13 0.328536 0.495553 0.871937
O O14 0.498187 0.750000 0.907396
O O15 0.500000 0.000000 0.000000
O O16 0.695465 0.750000 0.659869
#
# Coordination Sequence:
#
# PCOD9163076 Si02
#       6
#     4   4   4   4   4   4
#     4  10  21  36  55  84 120 157 200 249 300 353
#     4  10  21  35  52  80 117 156 202 251 298 351
#     4  10  22  40  63  91 122 160 204 250 301 359
#     4  11  23  39  63  93 125 163 204 247 302 364
#     4  11  24  44  68  93 124 158 198 250 305 365
#     4  10  20  36  58  84 115 157 206 250 298 355
#
# _framework density 20.743112
#
# number of rings (size 3 to 8) (size 9 to 14) (size 15 to 20)
#    0.000    1.667    1.667    2.500    0.000    4.667 
#    0.000    0.000    0.000    0.000    0.000    0.000 
#    0.000    0.000    0.000    0.000    0.000    0.000 
#
# Total GULP energy -134083.497417 kJ/mol
# GULP energy per Si atom -5586.812392 kJ/mol
# Density = 2.069590 g / cm^3
# Si number density = 20.743112 Si / 1000 Ang^3
#
#
#
# Elastic Constant Matrix: (Units=GPa)
#
#
# Indices 1 2 3 4 5 6 
#
# 1 163.7092 3.2841 65.2131 0.0000 5.7520 0.0000
# 2 3.2841 12.2912 15.3495 0.0000 0.1492 0.0000
# 3 65.2131 15.3495 134.5411 0.0000 4.1597 0.0000
# 4 0.0000 0.0000 0.0000 14.7194 0.0000 -2.4708
# 5 5.7520 0.1492 4.1597 0.0000 14.0196 0.0000
# 6 0.0000 0.0000 0.0000 -2.4708 0.0000 28.5632
#
#
#
# Elastic Compliance Matrix: (Units=1/GPa)
#
#
# Indices 1 2 3 4 5 6 
#
# 1 0.007721 0.002982 -0.004020 0.000000 -0.002006 0.000000
# 2 0.002982 0.096097 -0.012454 0.000000 0.001449 0.000000
# 3 -0.004020 -0.012454 0.010847 0.000000 -0.001436 0.000000
# 4 0.000000 0.000000 0.000000 0.068938 0.000000 0.005963
# 5 -0.002006 0.001449 -0.001436 0.000000 0.072563 0.000000
# 6 0.000000 0.000000 0.000000 0.005963 0.000000 0.035526
#
#
# Mechanical properties :
#
#
# Convention : Reuss Voigt Hill
#
# Bulk Modulus (GPa) = 11.40504 53.13722 32.27113
# Shear Modulus (GPa) = 14.37185 26.57344 20.47264
#
# Velocity S-wave (km/s) = 2.63506 3.58309 3.14500
# Velocity P-wave (km/s) = 3.84294 6.54144 5.36464
#
# Compressibility (1/GPa) = 0.08768055
#
# Stress axis : x y z
#
# Youngs Moduli (GPa) = 129.52372 10.40612 92.19437
#
# Poissons Ratio (x) = -0.03103 0.37066
# Poissons Ratio (y) = -0.38628 1.14818
# Poissons Ratio (z) = 0.52074 0.12960
#
# Static dielectric constant tensor:
#      x y z
#    x 1.714900 0.000000 -0.015340 
#    y 0.000000 1.726140 0.000000 
#    z -0.015340 0.000000 1.773490 
# 
# From -- ./inp_files/57395.got.cif
#   From: 2010.05.17/outbox.cif.g08.bks.cpg/sg11_29_cif.got.tgz:57395.got - 2010.06.03 12:22:45.
