data_PCOD9163719
_publ_section_title
;
Structure prediction by ZEFSAII (Michael W. Deem and Ramdas Pophale) SiO2 
 PCOD9163719
Probable space group: P 21/M
;
_chemical_formula_sum "Si O2"
_cell_formula_units_Z 32
_cell_length_a 12.785065
_cell_length_b 7.876399
_cell_length_c 31.991682
_cell_angle_alpha 90.000000
_cell_angle_beta 151.506411
_cell_angle_gamma 90.000000
_cell_volume 1536.884082
_symmetry_space_group_name_H-M "P 21/M"
_symmetry_group_IT_number 11
_symmetry_cell_setting 'monoclinic'
loop_
_space_group_symop_operation_xyz
x,y,z
-x,1/2+y,-z
-x,-y,-z
x,1/2-y,z
loop_
_atom_site_type_symbol
_atom_site_label
_atom_site_fract_x
_atom_site_fract_y
_atom_site_fract_z
Si Si1 0.481563 0.060028 0.250070
Si Si2 0.397159 0.453529 0.008558
Si Si3 0.858354 0.447647 0.322754
Si Si4 0.218530 0.449618 0.796299
Si Si5 0.099159 0.952008 0.170542
Si Si6 0.247427 0.444224 0.581187
Si Si7 0.332063 0.053477 0.512220
Si Si8 0.210939 0.958083 0.303072
O O1 0.436475 0.250000 0.218872
O O2 0.658843 0.978707 0.280539
O O3 0.252289 0.981546 0.184172
O O4 0.609718 0.060308 0.339010
O O5 0.394229 0.250000 0.011297
O O6 0.556147 0.523406 0.100037
O O7 0.500000 0.500000 0.000000
O O8 0.147153 0.517929 0.922213
O O9 0.878620 0.250000 0.344025
O O10 0.792744 0.457321 0.251701
O O11 0.104605 0.522337 0.414750
O O12 0.189183 0.250000 0.777596
O O13 0.016270 0.504755 0.754644
O O14 0.082880 0.750000 0.170512
O O15 0.198028 0.014378 0.249898
O O16 0.283180 0.250000 0.607794
O O17 0.300964 0.448610 0.551359
O O18 0.000000 0.500000 0.500000
O O19 0.342154 0.250000 0.500753
O O20 0.578387 0.979935 0.596123
O O21 0.227201 0.750000 0.308334
#
# Coordination Sequence:
#
# PCOD9163719 Si02
#       8
#     4   4   4   4   4   4   4   4
#     4  11  22  36  56  87 121 155 200 248 295 350
#     4  11  22  39  65  94 121 152 191 239 301 361
#     4  10  22  40  57  79 117 164 204 238 288 349
#     4  11  23  40  61  87 117 153 201 247 294 354
#     4  10  20  37  61  90 121 151 186 238 305 360
#     4  11  19  31  53  81 114 154 198 245 296 346
#     4   9  17  32  55  80 114 157 193 232 290 346
#     4   9  17  33  57  86 118 151 187 237 296 350
#
# _framework density 20.821349000000001
#
# number of rings (size 3 to 8) (size 9 to 14) (size 15 to 20)
#    0.000    1.750    3.750    1.500    0.000    2.500 
#    0.000    0.625    0.000    0.000    0.000    0.000 
#    0.000    0.000    0.000    0.000    0.000    0.000 
#
# Total GULP energy -178480.194097 kJ/mol
# GULP energy per Si atom -5577.506066 kJ/mol
# Density = 2.077396 g / cm^3
# Si number density = 20.821349 Si / 1000 Ang^3
#
#
#
# Elastic Constant Matrix: (Units=GPa)
#
#
# Indices 1 2 3 4 5 6 
#
# 1 71.4251 -0.8367 65.0879 0.0000 12.1061 0.0000
# 2 -0.8367 28.5337 -4.8985 0.0000 0.9705 0.0000
# 3 65.0879 -4.8985 152.8864 0.0000 26.2081 0.0000
# 4 0.0000 0.0000 0.0000 17.0077 0.0000 -5.0717
# 5 12.1061 0.9705 26.2081 0.0000 38.3582 0.0000
# 6 0.0000 0.0000 0.0000 -5.0717 0.0000 10.2697
#
#
#
# Elastic Compliance Matrix: (Units=1/GPa)
#
#
# Indices 1 2 3 4 5 6 
#
# 1 0.022916 -0.000971 -0.009686 0.000000 -0.000590 0.000000
# 2 -0.000971 0.035402 0.001867 0.000000 -0.001865 0.000000
# 3 -0.009686 0.001867 0.011562 0.000000 -0.004890 0.000000
# 4 0.000000 0.000000 0.000000 0.068951 0.000000 0.034052
# 5 -0.000590 -0.001865 -0.004890 0.000000 0.029645 0.000000
# 6 0.000000 0.000000 0.000000 0.034052 0.000000 0.114190
#
#
# Mechanical properties :
#
#
# Convention : Reuss Voigt Hill
#
# Bulk Modulus (GPa) = 19.11994 41.28340 30.20167
# Shear Modulus (GPa) = 15.73917 26.02663 20.88290
#
# Velocity S-wave (km/s) = 2.75237 3.53937 3.17038
# Velocity P-wave (km/s) = 4.39358 6.04759 5.28568
#
# Compressibility (1/GPa) = 0.05230143
#
# Stress axis : x y z
#
# Youngs Moduli (GPa) = 43.63814 28.24712 86.48691
#
# Poissons Ratio (x) = 0.02742 0.83770
# Poissons Ratio (y) = 0.04236 -0.16149
# Poissons Ratio (z) = 0.42267 -0.05274
#
# Static dielectric constant tensor:
#      x y z
#    x 1.737700 0.000000 0.057480 
#    y 0.000000 1.779270 0.000000 
#    z 0.057480 0.000000 1.751270 
# 
# From -- ./inp_files/73143.got.cif
#   From: 2010.05.17/outbox.cif.g08.bks.cpg/sg11_37_cif.got.tgz:73143.got - 2010.06.03 12:22:45.
