data_PCOD9163513
_publ_section_title
;
Structure prediction by ZEFSAII (Michael W. Deem and Ramdas Pophale) SiO2 
 PCOD9163513
Probable space group: P 21/M
;
_chemical_formula_sum "Si O2"
_cell_formula_units_Z 30
_cell_length_a 14.513871
_cell_length_b 9.668032
_cell_length_c 11.971661
_cell_angle_alpha 90.000000
_cell_angle_beta 69.667359
_cell_angle_gamma 90.000000
_cell_volume 1575.199477
_symmetry_space_group_name_H-M "P 21/M"
_symmetry_group_IT_number 11
_symmetry_cell_setting 'monoclinic'
loop_
_space_group_symop_operation_xyz
x,y,z
-x,1/2+y,-z
-x,-y,-z
x,1/2-y,z
loop_
_atom_site_type_symbol
_atom_site_label
_atom_site_fract_x
_atom_site_fract_y
_atom_site_fract_z
Si Si1 0.547862 0.993215 0.826652
Si Si2 0.439942 0.913766 0.434242
Si Si3 0.531504 0.250000 0.004878
Si Si4 0.226693 0.410291 0.247376
Si Si5 0.110214 0.088458 0.831870
Si Si6 0.918802 0.590420 0.894487
Si Si7 0.225823 0.594814 0.628341
Si Si8 0.097851 0.910023 0.465499
O O1 0.544377 0.028686 0.697004
O O2 0.531624 0.129257 0.907016
O O3 0.657660 0.936785 0.809037
O O4 0.475249 0.872616 0.896108
O O5 0.464145 0.750000 0.426639
O O6 0.326216 0.927745 0.519019
O O7 0.500000 0.000000 0.500000
O O8 0.210148 0.250000 0.288633
O O9 0.169441 0.430894 0.154833
O O10 0.178154 0.516826 0.353533
O O11 0.105029 0.250000 0.807033
O O12 0.200722 0.016040 0.732607
O O13 0.115830 0.072780 0.963377
O O14 0.009959 0.011471 0.837483
O O15 0.952984 0.750000 0.867428
O O16 0.228301 0.750000 0.675463
O O17 0.139650 0.588701 0.572939
O O18 0.081679 0.750000 0.439841
O O19 0.000000 0.000000 0.500000
#
# Coordination Sequence:
#
# PCOD9163513 Si02
#       8
#     4   4   2   4   4   4   4   4
#     4  11  22  46  67  99 130 168 216 275 340 401
#     4  11  25  46  69  94 129 172 218 271 334 399
#     4  10  24  42  72  96 128 168 208 270 336 398
#     4  11  22  38  63  92 125 163 209 259 321 386
#     4  10  20  37  58  87 122 162 212 255 300 366
#     4   9  20  38  58  83 123 167 202 254 312 365
#     4  10  22  41  60  85 122 166 201 248 312 374
#     4  11  23  38  60  91 128 166 208 258 314 379
#
# _framework density 19.045207999999999
#
# number of rings (size 3 to 8) (size 9 to 14) (size 15 to 20)
#    0.000    1.600    2.667    1.600    1.867    5.867 
#    4.800    0.000    0.000    0.000    0.000    0.000 
#    0.000    0.000    0.000    0.000    0.000    0.000 
#
# Total GULP energy -167023.003524 kJ/mol
# GULP energy per Si atom -5567.433451 kJ/mol
# Density = 1.900186 g / cm^3
# Si number density = 19.045208 Si / 1000 Ang^3
#
#
#
# Elastic Constant Matrix: (Units=GPa)
#
#
# Indices 1 2 3 4 5 6 
#
# 1 36.7576 26.5535 21.7809 0.0000 15.9741 0.0000
# 2 26.5535 156.0309 78.1815 0.0000 8.4173 0.0000
# 3 21.7809 78.1815 107.2393 0.0000 13.2834 0.0000
# 4 0.0000 0.0000 0.0000 35.7613 0.0000 -5.4800
# 5 15.9741 8.4173 13.2834 0.0000 15.8948 0.0000
# 6 0.0000 0.0000 0.0000 -5.4800 0.0000 26.8700
#
#
#
# Elastic Compliance Matrix: (Units=1/GPa)
#
#
# Indices 1 2 3 4 5 6 
#
# 1 0.053927 -0.006462 0.000053 0.000000 -0.050818 0.000000
# 2 -0.006462 0.010884 -0.007488 0.000000 0.006989 0.000000
# 3 0.000053 -0.007488 0.015938 0.000000 -0.009408 0.000000
# 4 0.000000 0.000000 0.000000 0.028865 0.000000 0.005887
# 5 -0.050818 0.006989 -0.009408 0.000000 0.118147 0.000000
# 6 0.000000 0.000000 0.000000 0.005887 0.000000 0.038417
#
#
# Mechanical properties :
#
#
# Convention : Reuss Voigt Hill
#
# Bulk Modulus (GPa) = 18.88406 61.45106 40.16756
# Shear Modulus (GPa) = 16.04505 27.27268 21.65886
#
# Velocity S-wave (km/s) = 2.90569 3.78828 3.37595
# Velocity P-wave (km/s) = 4.60372 7.17431 6.02764
#
# Compressibility (1/GPa) = 0.05295470
#
# Stress axis : x y z
#
# Youngs Moduli (GPa) = 18.54369 91.88192 62.74231
#
# Poissons Ratio (x) = 0.59379 -0.00334
# Poissons Ratio (y) = 0.11984 0.46979
# Poissons Ratio (z) = -0.00099 0.68797
#
# Static dielectric constant tensor:
#      x y z
#    x 1.680970 0.000000 -0.023030 
#    y 0.000000 1.656950 0.000000 
#    z -0.023030 0.000000 1.663860 
# 
# From -- ./inp_files/38036.got.cif
#   From: 2010.05.17/outbox.cif.g08.bks.cpg/sg11_20_cif.got.tgz:38036.got - 2010.06.03 12:22:45.
