data_PCOD9163973
_publ_section_title
;
Structure prediction by ZEFSAII (Michael W. Deem and Ramdas Pophale) SiO2 
 PCOD9163973
Probable space group: P 21/M
;
_chemical_formula_sum "Si O2"
_cell_formula_units_Z 32
_cell_length_a 16.020659
_cell_length_b 7.898473
_cell_length_c 12.490477
_cell_angle_alpha 90.000000
_cell_angle_beta 89.789048
_cell_angle_gamma 90.000000
_cell_volume 1580.518541
_symmetry_space_group_name_H-M "P 21/M"
_symmetry_group_IT_number 11
_symmetry_cell_setting 'monoclinic'
loop_
_space_group_symop_operation_xyz
x,y,z
-x,1/2+y,-z
-x,-y,-z
x,1/2-y,z
loop_
_atom_site_type_symbol
_atom_site_label
_atom_site_fract_x
_atom_site_fract_y
_atom_site_fract_z
Si Si1 0.498059 0.045267 0.625505
Si Si2 0.096173 0.546451 0.498128
Si Si3 0.157288 0.545020 0.268401
Si Si4 0.344177 0.046111 0.774628
Si Si5 0.403761 0.047305 0.005608
Si Si6 0.655934 0.448959 0.763205
Si Si7 0.999082 0.451181 0.124642
Si Si8 0.845730 0.045527 0.272579
O O1 0.498035 0.250000 0.632382
O O2 0.414399 0.985519 0.689024
O O3 0.581064 0.982339 0.688412
O O4 0.500000 0.000000 0.500000
O O5 0.105172 0.750000 0.497779
O O6 0.133120 0.483060 0.386750
O O7 0.135363 0.481839 0.607848
O O8 0.000000 0.500000 0.500000
O O9 0.159573 0.750000 0.268491
O O10 0.250706 0.479879 0.247068
O O11 0.084629 0.499544 0.184973
O O12 0.350753 0.250000 0.775160
O O13 0.249127 0.999582 0.752185
O O14 0.364712 0.986117 0.894444
O O15 0.393672 0.250000 0.012646
O O16 0.368370 0.967654 0.113260
O O17 0.500000 0.000000 0.000000
O O18 0.661208 0.250000 0.735839
O O19 0.993602 0.250000 0.128724
O O20 0.917521 0.517967 0.190108
O O21 0.000000 0.500000 0.000000
O O22 0.851919 0.250000 0.273048
#
# Coordination Sequence:
#
# PCOD9163973 Si02
#       8
#     4   4   4   4   4   4   4   4
#     4  10  22  41  61  86 122 159 195 241 293 351
#     4  10  20  38  62  88 117 152 197 246 296 351
#     4  10  22  39  63  90 118 158 199 241 302 357
#     4  10  23  41  60  87 121 156 196 245 297 347
#     4  11  22  40  64  89 118 155 200 248 299 353
#     4  10  22  41  62  87 122 158 197 247 297 352
#     4  11  24  42  61  86 122 159 198 247 297 355
#     4  10  23  40  61  89 118 154 200 245 294 352
#
# _framework density 20.24652
#
# number of rings (size 3 to 8) (size 9 to 14) (size 15 to 20)
#    0.000    1.750    2.500    0.750    3.500    4.000 
#    0.000    0.000    0.000    0.000    0.000    0.000 
#    0.000    0.000    0.000    0.000    0.000    0.000 
#
# Total GULP energy -178642.681867 kJ/mol
# GULP energy per Si atom -5582.583808 kJ/mol
# Density = 2.020044 g / cm^3
# Si number density = 20.246520 Si / 1000 Ang^3
#
#
#
# Elastic Constant Matrix: (Units=GPa)
#
#
# Indices 1 2 3 4 5 6 
#
# 1 222.8391 1.7812 134.1629 0.0000 5.0270 0.0000
# 2 1.7812 21.0430 1.4907 0.0000 1.9572 0.0000
# 3 134.1629 1.4907 210.3413 0.0000 10.1573 0.0000
# 4 0.0000 0.0000 0.0000 26.3243 0.0000 0.6037
# 5 5.0270 1.9572 10.1573 0.0000 42.9278 0.0000
# 6 0.0000 0.0000 0.0000 0.6037 0.0000 19.9221
#
#
#
# Elastic Compliance Matrix: (Units=1/GPa)
#
#
# Indices 1 2 3 4 5 6 
#
# 1 0.007290 -0.000311 -0.004660 0.000000 0.000263 0.000000
# 2 -0.000311 0.047749 -0.000037 0.000000 -0.002132 0.000000
# 3 -0.004660 -0.000037 0.007789 0.000000 -0.001296 0.000000
# 4 0.000000 0.000000 0.000000 0.038014 0.000000 -0.001152
# 5 0.000263 -0.002132 -0.001296 0.000000 0.023668 0.000000
# 6 0.000000 0.000000 0.000000 -0.001152 0.000000 0.050230
#
#
# Mechanical properties :
#
#
# Convention : Reuss Voigt Hill
#
# Bulk Modulus (GPa) = 18.93528 81.01032 49.97280
# Shear Modulus (GPa) = 24.70827 38.95408 31.83117
#
# Velocity S-wave (km/s) = 3.49717 4.39109 3.96937
# Velocity P-wave (km/s) = 5.06750 8.11220 6.76341
#
# Compressibility (1/GPa) = 0.05281147
#
# Stress axis : x y z
#
# Youngs Moduli (GPa) = 137.17741 20.94282 128.37875
#
# Poissons Ratio (x) = 0.00652 0.59827
# Poissons Ratio (y) = 0.04272 0.00473
# Poissons Ratio (z) = 0.63928 0.00077
#
# Static dielectric constant tensor:
#      x y z
#    x 1.719640 0.000000 -0.018510 
#    y 0.000000 1.742000 0.000000 
#    z -0.018510 0.000000 1.707200 
# 
# From -- ./inp_files/38260.got.cif
#   From: 2010.05.17/outbox.cif.g08.bks.cpg/sg11_20_cif.got.tgz:38260.got - 2010.06.03 12:22:45.
