data_PCOD9163866
_publ_section_title
;
Structure prediction by ZEFSAII (Michael W. Deem and Ramdas Pophale) SiO2 
 PCOD9163866
Probable space group: P 21/M
;
_chemical_formula_sum "Si O2"
_cell_formula_units_Z 20
_cell_length_a 9.431577
_cell_length_b 26.034368
_cell_length_c 5.265606
_cell_angle_alpha 90.000000
_cell_angle_beta 55.209820
_cell_angle_gamma 90.000000
_cell_volume 1061.826394
_symmetry_space_group_name_H-M "P 21/M"
_symmetry_group_IT_number 11
_symmetry_cell_setting 'monoclinic'
loop_
_space_group_symop_operation_xyz
x,y,z
-x,1/2+y,-z
-x,-y,-z
x,1/2-y,z
loop_
_atom_site_type_symbol
_atom_site_label
_atom_site_fract_x
_atom_site_fract_y
_atom_site_fract_z
Si Si1 0.829177 0.191206 0.441835
Si Si2 0.051746 0.056685 0.522655
Si Si3 0.189065 0.353895 0.081634
Si Si4 0.252083 0.873409 0.975771
Si Si5 0.357937 0.113070 0.400442
O O1 0.773184 0.250000 0.477864
O O2 0.767954 0.165658 0.767121
O O3 0.767814 0.157642 0.265122
O O4 0.038400 0.187618 0.227081
O O5 0.232453 0.063923 0.487985
O O6 0.900578 0.085342 0.831651
O O7 0.086642 0.092355 0.239656
O O8 0.000000 0.000000 0.500000
O O9 0.296727 0.358627 0.716883
O O10 0.310173 0.351597 0.205730
O O11 0.440896 0.898379 0.796185
#
# Coordination Sequence:
#
# PCOD9163866 Si02
#       5
#     4   4   4   4   4
#     4  11  21  40  63  84 113 156 198 240 300 352
#     4   9  21  38  61  88 120 159 196 236 296 350
#     4   9  19  39  57  84 118 152 187 246 283 345
#     4  11  22  39  62  85 122 153 192 249 293 343
#     4  10  20  38  58  84 122 147 193 235 293 339
#
# _framework density 18.835470999999998
#
# number of rings (size 3 to 8) (size 9 to 14) (size 15 to 20)
#    1.200    0.800    2.000    1.800    0.000    1.600 
#    0.000    7.000    0.000    0.000    0.000    0.000 
#    0.000    0.000    0.000    0.000    0.000    0.000 
#
# Total GULP energy -111413.469596 kJ/mol
# GULP energy per Si atom -5570.673480 kJ/mol
# Density = 1.879260 g / cm^3
# Si number density = 18.835471 Si / 1000 Ang^3
#
#
#
# Elastic Constant Matrix: (Units=GPa)
#
#
# Indices 1 2 3 4 5 6 
#
# 1 82.0204 9.6709 20.3516 0.0000 5.1550 0.0000
# 2 9.6709 67.1663 -6.2610 0.0000 -4.7362 0.0000
# 3 20.3516 -6.2610 37.6935 0.0000 14.7177 0.0000
# 4 0.0000 0.0000 0.0000 4.0411 0.0000 4.2852
# 5 5.1550 -4.7362 14.7177 0.0000 46.6210 0.0000
# 6 0.0000 0.0000 0.0000 4.2852 0.0000 11.3844
#
#
#
# Elastic Compliance Matrix: (Units=1/GPa)
#
#
# Indices 1 2 3 4 5 6 
#
# 1 0.014637 -0.002860 -0.008705 0.000000 0.000839 0.000000
# 2 -0.002860 0.015711 0.003886 0.000000 0.000686 0.000000
# 3 -0.008705 0.003886 0.035752 0.000000 -0.009929 0.000000
# 4 0.000000 0.000000 0.000000 0.411831 0.000000 -0.155015
# 5 0.000839 0.000686 -0.009929 0.000000 0.024561 0.000000
# 6 0.000000 0.000000 0.000000 -0.155015 0.000000 0.146188
#
#
# Mechanical properties :
#
#
# Convention : Reuss Voigt Hill
#
# Bulk Modulus (GPa) = 19.70772 26.04482 22.87627
# Shear Modulus (GPa) = 7.34266 23.28389 15.31328
#
# Velocity S-wave (km/s) = 1.97656 3.51974 2.85441
# Velocity P-wave (km/s) = 3.96167 5.51141 4.79950
#
# Compressibility (1/GPa) = 0.05074154
#
# Stress axis : x y z
#
# Youngs Moduli (GPa) = 68.32206 63.65066 27.97013
#
# Poissons Ratio (x) = 0.18202 0.24349
# Poissons Ratio (y) = 0.19538 -0.10869
# Poissons Ratio (z) = 0.59477 -0.24734
#
# Static dielectric constant tensor:
#      x y z
#    x 1.681610 0.000000 -0.002320 
#    y 0.000000 1.627730 0.000000 
#    z -0.002320 0.000000 1.645050 
# 
# From -- ./inp_files/2606.got.cif
#   From: 2010.05.17/outbox.cif.g08.bks.cpg/sg11_2_cif.got.tgz:2606.got - 2010.06.03 12:22:45.
