data_PCOD9163041
_publ_section_title
;
Structure prediction by ZEFSAII (Michael W. Deem and Ramdas Pophale) SiO2 
 PCOD9163041
Probable space group: P 21/M
;
_chemical_formula_sum "Si O2"
_cell_formula_units_Z 32
_cell_length_a 8.710456
_cell_length_b 31.032454
_cell_length_c 12.057107
_cell_angle_alpha 90.000000
_cell_angle_beta 146.249847
_cell_angle_gamma 90.000000
_cell_volume 1810.676357
_symmetry_space_group_name_H-M "P 21/M"
_symmetry_group_IT_number 11
_symmetry_cell_setting 'monoclinic'
loop_
_space_group_symop_operation_xyz
x,y,z
-x,1/2+y,-z
-x,-y,-z
x,1/2-y,z
loop_
_atom_site_type_symbol
_atom_site_label
_atom_site_fract_x
_atom_site_fract_y
_atom_site_fract_z
Si Si1 0.481656 0.299138 0.201623
Si Si2 0.409125 0.870379 0.558517
Si Si3 0.730961 0.880003 0.523808
Si Si4 0.651214 0.414657 0.084583
Si Si5 0.284156 0.950977 0.633181
Si Si6 0.784074 0.663353 0.170615
Si Si7 0.868045 0.799001 0.457969
Si Si8 0.363439 0.452807 0.708664
O O1 0.446255 0.250000 0.218911
O O2 0.449438 0.333990 0.279393
O O3 0.798500 0.303668 0.348848
O O4 0.285993 0.309596 0.980733
O O5 0.557701 0.875471 0.531021
O O6 0.401177 0.915013 0.621635
O O7 0.093117 0.855259 0.352218
O O8 0.753782 0.834993 0.471841
O O9 0.608732 0.915720 0.366445
O O10 0.040955 0.895766 0.737997
O O11 0.634261 0.438966 0.191870
O O12 0.432722 0.375712 0.953428
O O13 0.574292 0.444837 0.935272
O O14 0.949206 0.949168 0.430197
O O15 0.380250 0.999501 0.668067
O O16 0.763100 0.690848 0.270752
O O17 0.802390 0.750000 0.450320
#
# Coordination Sequence:
#
# PCOD9163041 Si02
#       8
#     4   4   4   4   4   4   4   4
#     4  10  20  37  60  83 107 143 190 233 270 327
#     4  11  23  37  56  83 120 149 178 229 285 336
#     4  11  23  37  55  83 118 151 177 227 290 333
#     4  11  18  37  62  82 105 145 194 230 271 326
#     4  10  20  36  59  87 108 148 193 234 280 323
#     4  11  18  37  63  81 104 144 191 229 270 325
#     4  10  20  36  58  82 108 142 187 230 272 329
#     4  10  20  37  60  82 113 146 193 236 271 335
#
# _framework density 17.672953
#
# number of rings (size 3 to 8) (size 9 to 14) (size 15 to 20)
#    0.000    1.500    5.000    2.250    0.000    2.500 
#    0.000    0.625    0.000    0.000    0.000    0.000 
#    0.000    0.000    0.000    0.000    0.000    0.000 
#
# Total GULP energy -178691.310871 kJ/mol
# GULP energy per Si atom -5584.103465 kJ/mol
# Density = 1.763273 g / cm^3
# Si number density = 17.672953 Si / 1000 Ang^3
#
#
#
# Elastic Constant Matrix: (Units=GPa)
#
#
# Indices 1 2 3 4 5 6 
#
# 1 99.3939 65.7196 25.0233 0.0000 -16.6053 0.0000
# 2 65.7196 151.9630 29.9220 0.0000 -15.0457 0.0000
# 3 25.0233 29.9220 89.6605 0.0000 -20.6382 0.0000
# 4 0.0000 0.0000 0.0000 23.3751 0.0000 -2.1850
# 5 -16.6053 -15.0457 -20.6382 0.0000 13.3365 0.0000
# 6 0.0000 0.0000 0.0000 -2.1850 0.0000 1.2307
#
#
#
# Elastic Compliance Matrix: (Units=1/GPa)
#
#
# Indices 1 2 3 4 5 6 
#
# 1 0.016075 -0.005636 0.000836 0.000000 0.014950 0.000000
# 2 -0.005636 0.009426 -0.001150 0.000000 0.001837 0.000000
# 3 0.000836 -0.001150 0.017466 0.000000 0.026772 0.000000
# 4 0.000000 0.000000 0.000000 0.051293 0.000000 0.091064
# 5 0.014950 0.001837 0.026772 0.000000 0.137098 0.000000
# 6 0.000000 0.000000 0.000000 0.091064 0.000000 0.974211
#
#
# Mechanical properties :
#
#
# Convention : Reuss Voigt Hill
#
# Bulk Modulus (GPa) = 32.18911 64.70526 48.44718
# Shear Modulus (GPa) = 4.07224 22.27864 13.17544
#
# Velocity S-wave (km/s) = 1.51961 3.55435 2.73337
# Velocity P-wave (km/s) = 4.61869 7.31687 6.11837
#
# Compressibility (1/GPa) = 0.03106641
#
# Stress axis : x y z
#
# Youngs Moduli (GPa) = 62.20872 106.08471 57.25377
#
# Poissons Ratio (x) = 0.59793 -0.04785
# Poissons Ratio (y) = 0.35063 0.06584
# Poissons Ratio (z) = -0.05199 0.12199
#
# Static dielectric constant tensor:
#      x y z
#    x 1.555980 0.000000 -0.006980 
#    y 0.000000 1.614120 0.000000 
#    z -0.006980 0.000000 1.602930 
# 
# From -- ./inp_files/19878.got.cif
#   From: 2010.05.17/outbox.cif.g08.bks.cpg/sg11_10_cif.got.tgz:19878.got - 2010.06.03 12:22:45.
