data_PCOD9163504
_publ_section_title
;
Structure prediction by ZEFSAII (Michael W. Deem and Ramdas Pophale) SiO2 
 PCOD9163504
Probable space group: P 21/M
;
_chemical_formula_sum "Si O2"
_cell_formula_units_Z 32
_cell_length_a 22.315240
_cell_length_b 12.039119
_cell_length_c 15.654820
_cell_angle_alpha 90.000000
_cell_angle_beta 21.542569
_cell_angle_gamma 90.000000
_cell_volume 1544.322604
_symmetry_space_group_name_H-M "P 21/M"
_symmetry_group_IT_number 11
_symmetry_cell_setting 'monoclinic'
loop_
_space_group_symop_operation_xyz
x,y,z
-x,1/2+y,-z
-x,-y,-z
x,1/2-y,z
loop_
_atom_site_type_symbol
_atom_site_label
_atom_site_fract_x
_atom_site_fract_y
_atom_site_fract_z
Si Si1 0.029530 0.125829 0.679239
Si Si2 0.489760 0.373357 0.620994
Si Si3 0.223273 0.578751 0.630805
Si Si4 0.689866 0.451358 0.665668
Si Si5 0.925498 0.377684 0.624289
Si Si6 0.860063 0.874732 0.162801
Si Si7 0.420081 0.628684 0.008325
Si Si8 0.740721 0.473313 0.163846
O O1 0.090513 0.250000 0.614964
O O2 0.173942 0.037572 0.483321
O O3 0.939910 0.125055 0.706994
O O4 0.899830 0.089768 0.922147
O O5 0.421153 0.250000 0.712754
O O6 0.612949 0.388429 0.536645
O O7 0.607525 0.392955 0.383102
O O8 0.346848 0.462215 0.797621
O O9 0.237873 0.609313 0.512764
O O10 0.197368 0.446794 0.680219
O O11 0.057274 0.624875 0.893343
O O12 0.632108 0.380731 0.822781
O O13 0.539109 0.526358 0.833889
O O14 0.989399 0.250000 0.512212
O O15 0.742390 0.380373 0.832003
O O16 0.000000 0.500000 0.500000
O O17 0.799840 0.750000 0.245458
O O18 0.791242 0.939128 0.170802
O O19 0.495144 0.750000 0.893762
#
# Coordination Sequence:
#
# PCOD9163504 Si02
#       8
#     4   4   4   4   4   4   4   4
#     4  11  22  38  64  90 116 154 202 253 303 363
#     4  10  21  38  58  81 121 162 194 242 298 357
#     4  10  22  37  56  89 116 158 198 243 293 364
#     4  11  22  41  62  87 124 153 209 251 306 376
#     4  10  21  41  65  91 121 157 201 252 312 367
#     4  10  20  37  58  84 121 156 196 246 296 352
#     4  10  23  41  63  88 121 161 201 260 317 367
#     4  10  21  38  58  87 117 151 206 244 297 354
#
# _framework density 20.721059
#
# number of rings (size 3 to 8) (size 9 to 14) (size 15 to 20)
#    0.000    1.750    2.500    1.500    1.750    2.000 
#    0.000    1.875    0.000    0.000    0.000    0.000 
#    0.000    0.000    0.000    0.000    0.000    0.000 
#
# Total GULP energy -178565.776371 kJ/mol
# GULP energy per Si atom -5580.180512 kJ/mol
# Density = 2.067390 g / cm^3
# Si number density = 20.721059 Si / 1000 Ang^3
#
#
#
# Elastic Constant Matrix: (Units=GPa)
#
#
# Indices 1 2 3 4 5 6 
#
# 1 61.4029 8.4645 3.4650 0.0000 -15.6850 0.0000
# 2 8.4645 93.1914 1.7983 0.0000 -1.3300 0.0000
# 3 3.4650 1.7983 34.4474 0.0000 -6.7501 0.0000
# 4 0.0000 0.0000 0.0000 -16.9447 0.0000 -2.2386
# 5 -15.6850 -1.3300 -6.7501 0.0000 34.2524 0.0000
# 6 0.0000 0.0000 0.0000 -2.2386 0.0000 17.2491
#
#
#
# Elastic Compliance Matrix: (Units=1/GPa)
#
#
# Indices 1 2 3 4 5 6 
#
# 1 0.018672 -0.001573 -0.000138 0.000000 0.008462 0.000000
# 2 -0.001573 0.010877 -0.000487 0.000000 -0.000394 0.000000
# 3 -0.000138 -0.000487 0.030220 0.000000 0.005873 0.000000
# 4 0.000000 0.000000 0.000000 -0.058021 0.000000 -0.007530
# 5 0.008462 -0.000394 0.005873 0.000000 0.034212 0.000000
# 6 0.000000 0.000000 0.000000 -0.007530 0.000000 0.056997
#
#
# Mechanical properties :
#
#
# Convention : Reuss Voigt Hill
#
# Bulk Modulus (GPa) = 18.05880 24.05527 21.05703
# Shear Modulus (GPa) = 43.17405 18.59895 30.88650
#
# Velocity S-wave (km/s) = 4.56958 2.99923 3.86500
# Velocity P-wave (km/s) = 6.04777 4.86087 5.48651
#
# Compressibility (1/GPa) = 0.05537468
#
# Stress axis : x y z
#
# Youngs Moduli (GPa) = 53.55599 91.93535 33.09072
#
# Poissons Ratio (x) = 0.14457 0.00456
# Poissons Ratio (y) = 0.08422 0.01611
# Poissons Ratio (z) = 0.00739 0.04475
#
# Static dielectric constant tensor:
#      x y z
#    x 1.741470 0.000000 -0.006260 
#    y 0.000000 1.790890 0.000000 
#    z -0.006260 0.000000 1.708840 
# 
# From -- ./inp_files/61988.got.cif
#   From: 2010.05.17/outbox.cif.g08.bks.cpg/sg11_31_cif.got.tgz:61988.got - 2010.06.03 12:22:45.
