data_PCOD9163745
_publ_section_title
;
Structure prediction by ZEFSAII (Michael W. Deem and Ramdas Pophale) SiO2 
 PCOD9163745
Probable space group: P 21/M
;
_chemical_formula_sum "Si O2"
_cell_formula_units_Z 28
_cell_length_a 19.505453
_cell_length_b 15.247907
_cell_length_c 5.601061
_cell_angle_alpha 90.000000
_cell_angle_beta 53.041103
_cell_angle_gamma 90.000000
_cell_volume 1331.127921
_symmetry_space_group_name_H-M "P 21/M"
_symmetry_group_IT_number 11
_symmetry_cell_setting 'monoclinic'
loop_
_space_group_symop_operation_xyz
x,y,z
-x,1/2+y,-z
-x,-y,-z
x,1/2-y,z
loop_
_atom_site_type_symbol
_atom_site_label
_atom_site_fract_x
_atom_site_fract_y
_atom_site_fract_z
Si Si1 0.909227 0.015975 0.425127
Si Si2 0.420119 0.849151 0.648598
Si Si3 0.512235 0.604447 0.955528
Si Si4 0.824925 0.583533 0.227966
Si Si5 0.277081 0.505105 0.939368
Si Si6 0.032920 0.351494 0.393813
Si Si7 0.682011 0.653149 0.830395
O O1 0.814000 0.022543 0.739975
O O2 0.959930 0.104445 0.378900
O O3 0.890873 0.988286 0.193168
O O4 0.954612 0.927833 0.434515
O O5 0.389923 0.750000 0.729768
O O6 0.468013 0.859887 0.292914
O O7 0.474966 0.868050 0.775199
O O8 0.340137 0.914279 0.812843
O O9 0.500000 0.500000 0.000000
O O10 0.609803 0.636658 0.782240
O O11 0.777490 0.641846 0.523335
O O12 0.750592 0.527060 0.261876
O O13 0.877044 0.642990 0.936243
O O14 0.324815 0.424292 0.965891
O O15 0.016058 0.250000 0.497528
O O16 0.670954 0.750000 0.955410
#
# Coordination Sequence:
#
# PCOD9163745 Si02
#       7
#     4   4   4   4   4   4   4
#     4   9  21  39  58  88 123 156 204 256 312 383
#     4  12  26  45  68  99 135 178 227 278 330 393
#     4  12  25  46  69  96 132 178 226 280 335 391
#     4  10  21  38  59  88 123 162 203 257 321 379
#     4  10  23  40  61  88 125 169 208 262 325 383
#     4  10  20  37  62  88 118 158 201 254 315 383
#     4  11  23  38  60  91 124 162 212 266 323 386
#
# _framework density 21.034790999999998
#
# number of rings (size 3 to 8) (size 9 to 14) (size 15 to 20)
#    0.000    1.429    1.429    3.429    4.000    6.857 
#    0.000    0.714    0.000    0.000    0.000    0.000 
#    0.000    0.000    0.000    0.000    0.000    0.000 
#
# Total GULP energy -156312.060139 kJ/mol
# GULP energy per Si atom -5582.573576 kJ/mol
# Density = 2.098692 g / cm^3
# Si number density = 21.034791 Si / 1000 Ang^3
#
#
#
# Elastic Constant Matrix: (Units=GPa)
#
#
# Indices 1 2 3 4 5 6 
#
# 1 114.0285 50.1211 16.4494 0.0000 6.7422 0.0000
# 2 50.1211 166.5142 27.7690 0.0000 -6.2840 0.0000
# 3 16.4494 27.7690 64.9713 0.0000 -0.0048 0.0000
# 4 0.0000 0.0000 0.0000 23.0682 0.0000 -6.2145
# 5 6.7422 -6.2840 -0.0048 0.0000 31.9150 0.0000
# 6 0.0000 0.0000 0.0000 -6.2145 0.0000 10.7225
#
#
#
# Elastic Compliance Matrix: (Units=1/GPa)
#
#
# Indices 1 2 3 4 5 6 
#
# 1 0.010463 -0.003029 -0.001354 0.000000 -0.002807 0.000000
# 2 -0.003029 0.007396 -0.002394 0.000000 0.002096 0.000000
# 3 -0.001354 -0.002394 0.016757 0.000000 -0.000183 0.000000
# 4 0.000000 0.000000 0.000000 0.051370 0.000000 0.029773
# 5 -0.002807 0.002096 -0.000183 0.000000 0.032339 0.000000
# 6 0.000000 0.000000 0.000000 0.029773 0.000000 0.110517
#
#
# Mechanical properties :
#
#
# Convention : Reuss Voigt Hill
#
# Bulk Modulus (GPa) = 47.48194 59.35477 53.41836
# Shear Modulus (GPa) = 20.04672 29.88611 24.96641
#
# Velocity S-wave (km/s) = 3.09046 3.77343 3.44889
# Velocity P-wave (km/s) = 5.94615 6.87486 6.42730
#
# Compressibility (1/GPa) = 0.02106064
#
# Stress axis : x y z
#
# Youngs Moduli (GPa) = 95.57828 135.21497 59.67510
#
# Poissons Ratio (x) = 0.40961 0.08082
# Poissons Ratio (y) = 0.28954 0.14285
# Poissons Ratio (z) = 0.12945 0.32368
#
# Static dielectric constant tensor:
#      x y z
#    x 1.794640 0.000000 0.025420 
#    y 0.000000 1.720730 0.000000 
#    z 0.025420 0.000000 1.840010 
# 
# From -- ./inp_files/8030.got.cif
#   From: 2010.05.17/outbox.cif.g08.bks.cpg/sg11_5_cif.got.tgz:8030.got - 2010.06.03 12:22:45.
