data_PCOD9163932
_publ_section_title
;
Structure prediction by ZEFSAII (Michael W. Deem and Ramdas Pophale) SiO2 
 PCOD9163932
Probable space group: P 21/M
;
_chemical_formula_sum "Si O2"
_cell_formula_units_Z 32
_cell_length_a 14.849481
_cell_length_b 7.807948
_cell_length_c 26.339492
_cell_angle_alpha 90.000000
_cell_angle_beta 26.901655
_cell_angle_gamma 90.000000
_cell_volume 1381.771476
_symmetry_space_group_name_H-M "P 21/M"
_symmetry_group_IT_number 11
_symmetry_cell_setting 'monoclinic'
loop_
_space_group_symop_operation_xyz
x,y,z
-x,1/2+y,-z
-x,-y,-z
x,1/2-y,z
loop_
_atom_site_type_symbol
_atom_site_label
_atom_site_fract_x
_atom_site_fract_y
_atom_site_fract_z
Si Si1 0.693424 0.556268 0.964175
Si Si2 0.602576 0.948304 0.704574
Si Si3 0.167073 0.043502 0.956087
Si Si4 0.334215 0.046351 0.216505
Si Si5 0.497956 0.950845 0.648282
Si Si6 0.941425 0.939522 0.166566
Si Si7 0.328694 0.545363 0.545814
Si Si8 0.884219 0.960786 0.771832
O O1 0.624711 0.750000 0.994690
O O2 0.720458 0.476154 0.894746
O O3 0.928375 0.557593 0.862191
O O4 0.546442 0.478627 0.080456
O O5 0.669782 0.750000 0.667350
O O6 0.688307 0.025032 0.714634
O O7 0.602534 0.023381 0.647032
O O8 0.369832 0.962562 0.834980
O O9 0.187668 0.250000 0.953357
O O10 0.000000 0.000000 0.000000
O O11 0.085316 0.950164 0.046204
O O12 0.311891 0.250000 0.233402
O O13 0.175723 0.984619 0.254728
O O14 0.470671 0.750000 0.672001
O O15 0.277578 0.017225 0.743926
O O16 0.621986 0.977978 0.534962
O O17 0.934589 0.750000 0.192176
O O18 0.500000 0.500000 0.500000
O O19 0.323993 0.750000 0.545195
O O20 0.108609 0.484576 0.671103
O O21 0.875772 0.750000 0.777212
#
# Coordination Sequence:
#
# PCOD9163932 Si02
#       8
#     4   4   4   4   4   4   4   4
#     4  11  21  35  57  89 124 159 198 250 307 361
#     4  10  21  36  57  83 119 161 202 243 297 357
#     4  12  22  33  52  79 119 161 202 246 296 354
#     4  10  20  38  61  86 118 160 203 243 295 366
#     4  11  23  39  59  87 122 158 199 254 308 358
#     4  12  23  35  54  84 120 162 205 245 299 363
#     4  11  23  43  68  92 118 155 201 251 305 363
#     4   9  21  40  62  86 117 155 199 251 308 362
#
# _framework density 23.158677000000001
#
# number of rings (size 3 to 8) (size 9 to 14) (size 15 to 20)
#    0.000    1.250    2.500    4.500    0.000    1.500 
#    0.000    4.375    0.000    0.000    0.000    0.000 
#    0.000    0.000    0.000    0.000    0.000    0.000 
#
# Total GULP energy -178481.538492 kJ/mol
# GULP energy per Si atom -5577.548078 kJ/mol
# Density = 2.310597 g / cm^3
# Si number density = 23.158677 Si / 1000 Ang^3
#
#
#
# Elastic Constant Matrix: (Units=GPa)
#
#
# Indices 1 2 3 4 5 6 
#
# 1 134.3118 -3.7097 40.4910 0.0000 8.1898 0.0000
# 2 -3.7097 67.7460 -8.2600 0.0000 -3.0134 0.0000
# 3 40.4910 -8.2600 83.6304 0.0000 17.4294 0.0000
# 4 0.0000 0.0000 0.0000 18.8541 0.0000 0.4803
# 5 8.1898 -3.0134 17.4294 0.0000 40.4897 0.0000
# 6 0.0000 0.0000 0.0000 0.4803 0.0000 14.2526
#
#
#
# Elastic Compliance Matrix: (Units=1/GPa)
#
#
# Indices 1 2 3 4 5 6 
#
# 1 0.008718 -0.000037 -0.004237 0.000000 0.000058 0.000000
# 2 -0.000037 0.014951 0.001385 0.000000 0.000524 0.000000
# 3 -0.004237 0.001385 0.015320 0.000000 -0.005635 0.000000
# 4 0.000000 0.000000 0.000000 0.053084 0.000000 -0.001789
# 5 0.000058 0.000524 -0.005635 0.000000 0.027150 0.000000
# 6 0.000000 0.000000 0.000000 -0.001789 0.000000 0.070223
#
#
# Mechanical properties :
#
#
# Convention : Reuss Voigt Hill
#
# Bulk Modulus (GPa) = 30.10862 38.08119 34.09491
# Shear Modulus (GPa) = 24.23729 31.86375 28.05052
#
# Velocity S-wave (km/s) = 3.23859 3.71332 3.48405
# Velocity P-wave (km/s) = 5.19749 5.90460 5.56229
#
# Compressibility (1/GPa) = 0.03321308
#
# Stress axis : x y z
#
# Youngs Moduli (GPa) = 114.70455 66.88417 65.27536
#
# Poissons Ratio (x) = 0.00245 0.27655
# Poissons Ratio (y) = 0.00420 -0.09042
# Poissons Ratio (z) = 0.48596 -0.09265
#
# Static dielectric constant tensor:
#      x y z
#    x 1.024010 0.000000 0.122210 
#    y 0.000000 1.868520 0.000000 
#    z 0.122210 0.000000 1.825660 
# 
# From -- ./inp_files/68994.got.cif
#   From: 2010.05.17/outbox.cif.g08.bks.cpg/sg11_35_cif.got.tgz:68994.got - 2010.06.03 12:22:45.
