data_PCOD9163508
_publ_section_title
;
Structure prediction by ZEFSAII (Michael W. Deem and Ramdas Pophale) SiO2 
 PCOD9163508
Probable space group: P 21/M
;
_chemical_formula_sum "Si O2"
_cell_formula_units_Z 30
_cell_length_a 16.880836
_cell_length_b 9.323682
_cell_length_c 10.791979
_cell_angle_alpha 90.000000
_cell_angle_beta 110.462189
_cell_angle_gamma 90.000000
_cell_volume 1591.391995
_symmetry_space_group_name_H-M "P 21/M"
_symmetry_group_IT_number 11
_symmetry_cell_setting 'monoclinic'
loop_
_space_group_symop_operation_xyz
x,y,z
-x,1/2+y,-z
-x,-y,-z
x,1/2-y,z
loop_
_atom_site_type_symbol
_atom_site_label
_atom_site_fract_x
_atom_site_fract_y
_atom_site_fract_z
Si Si1 0.418418 0.419988 0.006189
Si Si2 0.209503 0.079914 0.519696
Si Si3 0.559688 0.917526 0.693877
Si Si4 0.958405 0.084186 0.592200
Si Si5 0.076382 0.016408 0.887028
Si Si6 0.974882 0.750000 0.945872
Si Si7 0.628481 0.080432 0.499238
Si Si8 0.766141 0.921253 0.175354
O O1 0.428474 0.250000 0.988797
O O2 0.412917 0.441120 0.150719
O O3 0.500000 0.500000 0.000000
O O4 0.330698 0.466944 0.896171
O O5 0.205835 0.250000 0.490598
O O6 0.208051 0.060825 0.667580
O O7 0.128204 0.997587 0.422527
O O8 0.294721 0.009423 0.514842
O O9 0.575240 0.750000 0.669077
O O10 0.458706 0.940845 0.624942
O O11 0.606537 0.020182 0.623268
O O12 0.942504 0.250000 0.549695
O O13 0.020520 0.080030 0.743351
O O14 0.000000 0.000000 0.500000
O O15 0.169578 0.999958 0.880771
O O16 0.074892 0.125351 0.000478
O O17 0.030606 0.873755 0.905322
O O18 0.647511 0.250000 0.511399
O O19 0.771130 0.750000 0.150628
#
# Coordination Sequence:
#
# PCOD9163508 Si02
#       8
#     4   4   4   4   4   2   4   4
#     4  10  21  38  60  89 119 158 199 247 300 359
#     4  11  23  38  60  90 118 159 200 252 311 373
#     4   9  19  37  59  84 118 161 200 245 303 368
#     4  12  24  40  64  91 125 157 205 261 312 370
#     4  11  22  45  64  94 125 167 216 255 313 373
#     4  10  24  42  68  88 126 172 208 258 312 376
#     4  10  20  37  58  85 121 155 199 251 307 364
#     4  10  20  39  63  85 120 157 202 253 305 368
#
# _framework density 18.851420999999998
#
# number of rings (size 3 to 8) (size 9 to 14) (size 15 to 20)
#    0.000    1.600    2.667    2.000    1.867    1.067 
#    7.200    0.000    0.000    0.000    0.000    0.000 
#    0.000    0.000    0.000    0.000    0.000    0.000 
#
# Total GULP energy -167025.535585 kJ/mol
# GULP energy per Si atom -5567.517853 kJ/mol
# Density = 1.880851 g / cm^3
# Si number density = 18.851421 Si / 1000 Ang^3
#
#
#
# Elastic Constant Matrix: (Units=GPa)
#
#
# Indices 1 2 3 4 5 6 
#
# 1 120.8570 38.7690 13.1717 0.0000 -5.3739 0.0000
# 2 38.7690 94.5927 5.1260 0.0000 -7.7814 0.0000
# 3 13.1717 5.1260 18.9909 0.0000 12.8032 0.0000
# 4 0.0000 0.0000 0.0000 19.5117 0.0000 -6.9718
# 5 -5.3739 -7.7814 12.8032 0.0000 20.8126 0.0000
# 6 0.0000 0.0000 0.0000 -6.9718 0.0000 23.3010
#
#
#
# Elastic Compliance Matrix: (Units=1/GPa)
#
#
# Indices 1 2 3 4 5 6 
#
# 1 0.011215 -0.002987 -0.013962 0.000000 0.010368 0.000000
# 2 -0.002987 0.012867 -0.007047 0.000000 0.008374 0.000000
# 3 -0.013962 -0.007047 0.116953 0.000000 -0.078185 0.000000
# 4 0.000000 0.000000 0.000000 0.057386 0.000000 0.017170
# 5 0.010368 0.008374 -0.078185 0.000000 0.101952 0.000000
# 6 0.000000 0.000000 0.000000 0.017170 0.000000 0.048054
#
#
# Mechanical properties :
#
#
# Convention : Reuss Voigt Hill
#
# Bulk Modulus (GPa) = 10.74776 38.73041 24.73909
# Shear Modulus (GPa) = 11.69770 24.55001 18.12386
#
# Velocity S-wave (km/s) = 2.49373 3.61264 3.10402
# Velocity P-wave (km/s) = 3.74236 6.16370 5.09885
#
# Compressibility (1/GPa) = 0.09304265
#
# Stress axis : x y z
#
# Youngs Moduli (GPa) = 89.16538 77.72030 8.55043
#
# Poissons Ratio (x) = 0.23215 0.11938
# Poissons Ratio (y) = 0.26634 0.06025
# Poissons Ratio (z) = 1.24494 0.54769
#
# Static dielectric constant tensor:
#      x y z
#    x 1.640790 0.000000 0.021780 
#    y 0.000000 1.644980 0.000000 
#    z 0.021780 0.000000 1.666400 
# 
# From -- ./inp_files/38358.got.cif
#   From: 2010.05.17/outbox.cif.g08.bks.cpg/sg11_20_cif.got.tgz:38358.got - 2010.06.03 12:22:45.
