data_PCOD9163983
_publ_section_title
;
Structure prediction by ZEFSAII (Michael W. Deem and Ramdas Pophale) SiO2 
 PCOD9163983
Probable space group: P 21/M
;
_chemical_formula_sum "Si O2"
_cell_formula_units_Z 26
_cell_length_a 10.144730
_cell_length_b 21.233734
_cell_length_c 9.148309
_cell_angle_alpha 90.000000
_cell_angle_beta 135.330100
_cell_angle_gamma 90.000000
_cell_volume 1385.402947
_symmetry_space_group_name_H-M "P 21/M"
_symmetry_group_IT_number 11
_symmetry_cell_setting 'monoclinic'
loop_
_space_group_symop_operation_xyz
x,y,z
-x,1/2+y,-z
-x,-y,-z
x,1/2-y,z
loop_
_atom_site_type_symbol
_atom_site_label
_atom_site_fract_x
_atom_site_fract_y
_atom_site_fract_z
Si Si1 0.158650 0.881780 0.936351
Si Si2 0.546569 0.938044 0.130935
Si Si3 0.720525 0.645226 0.013016
Si Si4 0.573873 0.250000 0.268696
Si Si5 0.151814 0.750000 0.772418
Si Si6 0.103498 0.016731 0.430409
Si Si7 0.993404 0.250000 0.655577
Si Si8 0.011787 0.564875 0.099121
O O1 0.135339 0.812106 0.855571
O O2 0.011781 0.927835 0.739034
O O3 0.361337 0.908209 0.052738
O O4 0.122106 0.887991 0.080355
O O5 0.642306 0.889261 0.094685
O O6 0.691740 0.959081 0.368912
O O7 0.500000 0.000000 0.000000
O O8 0.894173 0.690127 0.195432
O O9 0.808346 0.593524 0.974464
O O10 0.557186 0.688915 0.817262
O O11 0.650697 0.250000 0.161215
O O12 0.769733 0.250000 0.511890
O O13 0.005796 0.750000 0.521379
O O14 0.101488 0.955805 0.323851
O O15 0.000000 0.000000 0.500000
O O16 0.000000 0.500000 0.000000
#
# Coordination Sequence:
#
# PCOD9163983 Si02
#       8
#     4   4   4   2   2   4   2   4
#     4  11  23  41  59  91 132 164 204 264 322 380
#     4  12  21  34  64  94 119 167 214 258 313 376
#     4  11  20  38  64  89 123 163 211 258 308 369
#     4   9  21  37  62  96 110 157 216 264 288 370
#     4  10  20  38  62  88 121 158 203 264 317 361
#     4  11  21  38  65  93 120 167 214 262 311 368
#     4   9  21  37  62  96 113 155 219 274 291 363
#     4  10  23  41  60  92 133 163 201 258 326 378
#
# _framework density 18.767102999999999
#
# number of rings (size 3 to 8) (size 9 to 14) (size 15 to 20)
#    0.462    0.923    4.615    1.846    0.000    3.077 
#    0.000    3.077    0.000    1.846    0.000    0.000 
#    0.000    0.000    0.000    0.000    0.000    0.000 
#
# Total GULP energy -145082.931691 kJ/mol
# GULP energy per Si atom -5580.112757 kJ/mol
# Density = 1.872439 g / cm^3
# Si number density = 18.767103 Si / 1000 Ang^3
#
#
#
# Elastic Constant Matrix: (Units=GPa)
#
#
# Indices 1 2 3 4 5 6 
#
# 1 96.5491 24.0658 37.7881 0.0000 -0.4160 0.0000
# 2 24.0658 78.8031 35.3146 0.0000 8.3565 0.0000
# 3 37.7881 35.3146 95.9054 0.0000 20.5931 0.0000
# 4 0.0000 0.0000 0.0000 19.9294 0.0000 -1.3688
# 5 -0.4160 8.3565 20.5931 0.0000 34.8748 0.0000
# 6 0.0000 0.0000 0.0000 -1.3688 0.0000 43.1242
#
#
#
# Elastic Compliance Matrix: (Units=1/GPa)
#
#
# Indices 1 2 3 4 5 6 
#
# 1 0.012881 -0.002030 -0.005113 0.000000 0.003659 0.000000
# 2 -0.002030 0.015522 -0.004709 0.000000 -0.000963 0.000000
# 3 -0.005113 -0.004709 0.015971 0.000000 -0.008364 0.000000
# 4 0.000000 0.000000 0.000000 0.050287 0.000000 0.001596
# 5 0.003659 -0.000963 -0.008364 0.000000 0.033887 0.000000
# 6 0.000000 0.000000 0.000000 0.001596 0.000000 0.023240
#
#
# Mechanical properties :
#
#
# Convention : Reuss Voigt Hill
#
# Bulk Modulus (GPa) = 48.38091 51.73274 50.05682
# Shear Modulus (GPa) = 27.41494 31.19160 29.30327
#
# Velocity S-wave (km/s) = 3.82618 4.08123 3.95576
# Velocity P-wave (km/s) = 6.73463 7.05933 6.89889
#
# Compressibility (1/GPa) = 0.02066931
#
# Stress axis : x y z
#
# Youngs Moduli (GPa) = 77.63650 64.42370 62.61164
#
# Poissons Ratio (x) = 0.13079 0.32015
# Poissons Ratio (y) = 0.15762 0.29483
# Poissons Ratio (z) = 0.39698 0.30337
#
# Static dielectric constant tensor:
#      x y z
#    x 1.652270 0.000000 -0.004650 
#    y 0.000000 1.653160 0.000000 
#    z -0.004650 0.000000 1.647430 
# 
# From -- ./inp_files/14576.got.cif
#   From: 2010.05.17/outbox.cif.g08.bks.cpg/sg11_8_cif.got.tgz:14576.got - 2010.06.03 12:22:45.
