data_PCOD9163936
_publ_section_title
;
Structure prediction by ZEFSAII (Michael W. Deem and Ramdas Pophale) SiO2 
 PCOD9163936
Probable space group: P 21/M
;
_chemical_formula_sum "Si O2"
_cell_formula_units_Z 20
_cell_length_a 4.916111
_cell_length_b 24.035233
_cell_length_c 7.995805
_cell_angle_alpha 90.000000
_cell_angle_beta 118.876239
_cell_angle_gamma 90.000000
_cell_volume 827.313553
_symmetry_space_group_name_H-M "P 21/M"
_symmetry_group_IT_number 11
_symmetry_cell_setting 'monoclinic'
loop_
_space_group_symop_operation_xyz
x,y,z
-x,1/2+y,-z
-x,-y,-z
x,1/2-y,z
loop_
_atom_site_type_symbol
_atom_site_label
_atom_site_fract_x
_atom_site_fract_y
_atom_site_fract_z
Si Si1 0.880463 0.812295 0.255980
Si Si2 0.480608 0.917660 0.036172
Si Si3 0.479170 0.577126 0.664075
Si Si4 0.405882 0.187725 0.477272
Si Si5 0.125689 0.965942 0.241430
O O1 0.779821 0.750000 0.177089
O O2 0.668432 0.859851 0.115134
O O3 0.835644 0.817167 0.443155
O O4 0.249380 0.816550 0.337526
O O5 0.258990 0.930065 0.126098
O O6 0.757558 0.963078 0.126327
O O7 0.346461 0.917911 0.810394
O O8 0.622605 0.636330 0.655457
O O9 0.724693 0.526647 0.729163
O O10 0.230542 0.560334 0.448851
O O11 0.382094 0.250000 0.396531
#
# Coordination Sequence:
#
# PCOD9163936 Si02
#       5
#     4   4   4   4   4
#     4  10  20  38  61  86 123 159 201 259 308 355
#     4  12  23  42  64  92 126 165 209 252 311 370
#     4  11  24  41  68  91 126 168 206 254 310 371
#     4  10  21  40  62  88 122 161 204 255 308 361
#     4  11  26  42  60  97 130 161 205 258 310 363
#
# _framework density 24.174630000000001
#
# number of rings (size 3 to 8) (size 9 to 14) (size 15 to 20)
#    0.000    1.200    4.000    1.200    0.000    8.800 
#    0.000    0.000    0.000    7.200    0.000    0.000 
#    0.000    0.000    0.000    0.000    0.000    0.000 
#
# Total GULP energy -112087.835391 kJ/mol
# GULP energy per Si atom -5604.391770 kJ/mol
# Density = 2.411961 g / cm^3
# Si number density = 24.174630 Si / 1000 Ang^3
#
#
#
# Elastic Constant Matrix: (Units=GPa)
#
#
# Indices 1 2 3 4 5 6 
#
# 1 95.0313 1.3611 25.1482 0.0000 -3.1474 0.0000
# 2 1.3611 172.2536 46.3109 0.0000 -9.3318 0.0000
# 3 25.1482 46.3109 132.5263 0.0000 -23.7990 0.0000
# 4 0.0000 0.0000 0.0000 23.2543 0.0000 -1.8727
# 5 -3.1474 -9.3318 -23.7990 0.0000 18.2437 0.0000
# 6 0.0000 0.0000 0.0000 -1.8727 0.0000 32.7228
#
#
#
# Elastic Compliance Matrix: (Units=1/GPa)
#
#
# Indices 1 2 3 4 5 6 
#
# 1 0.011138 0.000523 -0.002486 0.000000 -0.001053 0.000000
# 2 0.000523 0.006435 -0.002273 0.000000 0.000416 0.000000
# 3 -0.002486 -0.002273 0.011134 0.000000 0.012933 0.000000
# 4 0.000000 0.000000 0.000000 0.043202 0.000000 0.002472
# 5 -0.001053 0.000416 0.012933 0.000000 0.071716 0.000000
# 6 0.000000 0.000000 0.000000 0.002472 0.000000 0.030701
#
#
# Mechanical properties :
#
#
# Convention : Reuss Voigt Hill
#
# Bulk Modulus (GPa) = 49.41616 60.60574 55.01095
# Shear Modulus (GPa) = 26.37924 36.64358 31.51141
#
# Velocity S-wave (km/s) = 3.30691 3.89753 3.61431
# Velocity P-wave (km/s) = 5.92170 6.73638 6.34213
#
# Compressibility (1/GPa) = 0.02023629
#
# Stress axis : x y z
#
# Youngs Moduli (GPa) = 89.78094 155.40086 89.81337
#
# Poissons Ratio (x) = -0.08130 0.22324
# Poissons Ratio (y) = -0.04697 0.20416
# Poissons Ratio (z) = 0.22316 0.35325
#
# Static dielectric constant tensor:
#      x y z
#    x 1.862660 0.000000 0.011670 
#    y 0.000000 1.983920 0.000000 
#    z 0.011670 0.000000 1.921620 
# 
# From -- ./inp_files/2627.got.cif
#   From: 2010.05.17/outbox.cif.g08.bks.cpg/sg11_2_cif.got.tgz:2627.got - 2010.06.03 12:22:45.
