data_PCOD9163727
_publ_section_title
;
Structure prediction by ZEFSAII (Michael W. Deem and Ramdas Pophale) SiO2 
 PCOD9163727
Probable space group: P 21/M
;
_chemical_formula_sum "Si O2"
_cell_formula_units_Z 28
_cell_length_a 17.251380
_cell_length_b 16.793095
_cell_length_c 5.225053
_cell_angle_alpha 90.000000
_cell_angle_beta 80.297874
_cell_angle_gamma 90.000000
_cell_volume 1492.068688
_symmetry_space_group_name_H-M "P 21/M"
_symmetry_group_IT_number 11
_symmetry_cell_setting 'monoclinic'
loop_
_space_group_symop_operation_xyz
x,y,z
-x,1/2+y,-z
-x,-y,-z
x,1/2-y,z
loop_
_atom_site_type_symbol
_atom_site_label
_atom_site_fract_x
_atom_site_fract_y
_atom_site_fract_z
Si Si1 0.910786 0.019538 0.986593
Si Si2 0.650179 0.343119 0.193142
Si Si3 0.345959 0.417508 0.273086
Si Si4 0.181607 0.994556 0.452010
Si Si5 0.179820 0.657614 0.149049
Si Si6 0.406163 0.157306 0.742317
Si Si7 0.425523 0.581328 0.269327
O O1 0.892428 0.113690 0.952423
O O2 0.879836 0.981759 0.738488
O O3 0.855453 0.993403 0.251083
O O4 0.000000 0.000000 0.000000
O O5 0.632247 0.250000 0.243476
O O6 0.626470 0.390411 0.459596
O O7 0.741706 0.350499 0.065985
O O8 0.602671 0.375588 0.974562
O O9 0.262701 0.459887 0.365504
O O10 0.366765 0.358951 0.491942
O O11 0.410712 0.488007 0.241002
O O12 0.350719 0.373705 0.000265
O O13 0.193662 0.900216 0.384540
O O14 0.168024 0.750000 0.215636
O O15 0.424804 0.250000 0.764940
O O16 0.486284 0.107046 0.717924
#
# Coordination Sequence:
#
# PCOD9163727 Si02
#       7
#     4   4   4   4   4   4   4
#     4  10  20  37  61  92 121 153 192 233 288 357
#     4  11  21  34  56  87 126 159 192 242 305 368
#     4  12  23  42  64  86 117 154 209 252 302 361
#     4  10  21  38  63  89 117 159 197 238 289 355
#     4   9  21  35  58  91 125 156 188 233 296 357
#     4  12  26  41  60  85 116 160 207 261 310 345
#     4  12  22  40  59  86 118 156 204 254 308 359
#
# _framework density 18.765889999999999
#
# number of rings (size 3 to 8) (size 9 to 14) (size 15 to 20)
#    0.857    0.286    1.429    6.429    0.000    0.571 
#    0.000    0.000    0.000    5.143    0.000    0.000 
#    0.000    0.000    0.000    0.000    0.000    0.000 
#
# Total GULP energy -156397.540342 kJ/mol
# GULP energy per Si atom -5585.626441 kJ/mol
# Density = 1.872318 g / cm^3
# Si number density = 18.765890 Si / 1000 Ang^3
#
#
#
# Elastic Constant Matrix: (Units=GPa)
#
#
# Indices 1 2 3 4 5 6 
#
# 1 70.7679 4.8081 -23.6439 0.0000 -3.7921 0.0000
# 2 4.8081 24.4641 -1.4301 0.0000 -2.5186 0.0000
# 3 -23.6439 -1.4301 35.2702 0.0000 9.1516 0.0000
# 4 0.0000 0.0000 0.0000 17.7647 0.0000 5.5846
# 5 -3.7921 -2.5186 9.1516 0.0000 27.3602 0.0000
# 6 0.0000 0.0000 0.0000 5.5846 0.0000 26.5520
#
#
#
# Elastic Compliance Matrix: (Units=1/GPa)
#
#
# Indices 1 2 3 4 5 6 
#
# 1 0.018511 -0.003096 0.012803 0.000000 -0.002002 0.000000
# 2 -0.003096 0.041803 -0.001388 0.000000 0.003883 0.000000
# 3 0.012803 -0.001388 0.039916 0.000000 -0.011705 0.000000
# 4 0.000000 0.000000 0.000000 0.060277 0.000000 -0.012678
# 5 -0.002002 0.003883 -0.011705 0.000000 0.040545 0.000000
# 6 0.000000 0.000000 0.000000 -0.012678 0.000000 0.040328
#
#
# Mechanical properties :
#
#
# Convention : Reuss Voigt Hill
#
# Bulk Modulus (GPa) = 8.55652 9.99672 9.27662
# Shear Modulus (GPa) = 18.96104 24.38657 21.67381
#
# Velocity S-wave (km/s) = 3.18213 3.60879 3.40215
# Velocity P-wave (km/s) = 4.25097 4.76478 4.51519
#
# Compressibility (1/GPa) = 0.11686998
#
# Stress axis : x y z
#
# Youngs Moduli (GPa) = 54.02078 23.92155 25.05251
#
# Poissons Ratio (x) = 0.07406 -0.32075
# Poissons Ratio (y) = 0.16724 0.03477
# Poissons Ratio (z) = -0.69164 0.03320
#
# Static dielectric constant tensor:
#      x y z
#    x 1.642880 0.000000 0.012670 
#    y 0.000000 1.649480 0.000000 
#    z 0.012670 0.000000 1.649880 
# 
# From -- ./inp_files/8006.got.cif
#   From: 2010.05.17/outbox.cif.g08.bks.cpg/sg11_5_cif.got.tgz:8006.got - 2010.06.03 12:22:45.
