data_PCOD9163698
_publ_section_title
;
Structure prediction by ZEFSAII (Michael W. Deem and Ramdas Pophale) SiO2 
 PCOD9163698
Probable space group: P 21/M
;
_chemical_formula_sum "Si O2"
_cell_formula_units_Z 32
_cell_length_a 12.058287
_cell_length_b 13.970006
_cell_length_c 16.401437
_cell_angle_alpha 90.000000
_cell_angle_beta 26.144137
_cell_angle_gamma 90.000000
_cell_volume 1217.415935
_symmetry_space_group_name_H-M "P 21/M"
_symmetry_group_IT_number 11
_symmetry_cell_setting 'monoclinic'
loop_
_space_group_symop_operation_xyz
x,y,z
-x,1/2+y,-z
-x,-y,-z
x,1/2-y,z
loop_
_atom_site_type_symbol
_atom_site_label
_atom_site_fract_x
_atom_site_fract_y
_atom_site_fract_z
Si Si1 0.034562 0.357785 0.944063
Si Si2 0.752728 0.359129 0.371390
Si Si3 0.820462 0.862939 0.655584
Si Si4 0.761851 0.359814 0.956560
Si Si5 0.478681 0.943780 0.321181
Si Si6 0.490401 0.358688 0.385315
Si Si7 0.668000 0.135195 0.757929
Si Si8 0.203788 0.045832 0.151929
O O1 0.146231 0.250000 0.874001
O O2 0.950081 0.375806 0.907055
O O3 0.225413 0.433136 0.855705
O O4 0.773861 0.352296 0.164265
O O5 0.810114 0.250000 0.313954
O O6 0.640811 0.372260 0.534546
O O7 0.539274 0.387352 0.447093
O O8 0.016203 0.412563 0.206553
O O9 0.851461 0.750000 0.653369
O O10 0.032267 0.885629 0.448504
O O11 0.528319 0.875908 0.823532
O O12 0.856775 0.918001 0.717288
O O13 0.779300 0.250000 0.918661
O O14 0.817571 0.433395 0.849011
O O15 0.424128 0.906764 0.267872
O O16 0.382140 0.049448 0.409990
O O17 0.380261 0.250000 0.450599
O O18 0.636126 0.250000 0.785536
O O19 0.480259 0.084946 0.945447
#
# Coordination Sequence:
#
# PCOD9163698 Si02
#       8
#     4   4   4   4   4   4   4   4
#     4  10  20  37  61  87 123 166 209 257 316 379
#     4  11  22  37  60  92 130 164 206 267 322 373
#     4  10  22  43  67  95 131 164 212 272 323 378
#     4  10  23  42  65  91 127 176 217 262 317 381
#     4  12  21  37  61  92 128 166 209 257 323 383
#     4  10  22  37  55  85 124 167 212 256 307 379
#     4  11  23  39  67 101 128 163 211 267 330 384
#     4  12  22  40  68  97 129 167 213 268 328 380
#
# _framework density 26.285181999999999
#
# number of rings (size 3 to 8) (size 9 to 14) (size 15 to 20)
#    0.000    1.250    1.250    5.625    0.000    1.500 
#    0.000    1.875    2.750    0.750    0.000    0.000 
#    0.000    0.000    0.000    0.000    0.000    0.000 
#
# Total GULP energy -179317.826454 kJ/mol
# GULP energy per Si atom -5603.682077 kJ/mol
# Density = 2.622536 g / cm^3
# Si number density = 26.285182 Si / 1000 Ang^3
#
#
#
# Elastic Constant Matrix: (Units=GPa)
#
#
# Indices 1 2 3 4 5 6 
#
# 1 79.4240 32.7627 9.7627 0.0000 5.6920 0.0000
# 2 32.7627 122.1111 11.1418 0.0000 4.1332 0.0000
# 3 9.7627 11.1418 116.4996 0.0000 1.5772 0.0000
# 4 0.0000 0.0000 0.0000 25.7637 0.0000 8.1762
# 5 5.6920 4.1332 1.5772 0.0000 36.4607 0.0000
# 6 0.0000 0.0000 0.0000 8.1762 0.0000 15.4745
#
#
#
# Elastic Compliance Matrix: (Units=1/GPa)
#
#
# Indices 1 2 3 4 5 6 
#
# 1 0.014352 -0.003715 -0.000823 0.000000 -0.001784 0.000000
# 2 -0.003715 0.009253 -0.000568 0.000000 -0.000444 0.000000
# 3 -0.000823 -0.000568 0.008709 0.000000 -0.000184 0.000000
# 4 0.000000 0.000000 0.000000 0.046634 0.000000 -0.024640
# 5 -0.001784 -0.000444 -0.000184 0.000000 0.027764 0.000000
# 6 0.000000 0.000000 0.000000 -0.024640 0.000000 0.077641
#
#
# Mechanical properties :
#
#
# Convention : Reuss Voigt Hill
#
# Bulk Modulus (GPa) = 45.24381 47.26323 46.25352
# Shear Modulus (GPa) = 24.76070 33.16428 28.96249
#
# Velocity S-wave (km/s) = 3.07254 3.55591 3.32302
# Velocity P-wave (km/s) = 5.46236 5.90587 5.68844
#
# Compressibility (1/GPa) = 0.02210247
#
# Stress axis : x y z
#
# Youngs Moduli (GPa) = 69.67555 108.07421 114.81742
#
# Poissons Ratio (x) = 0.40152 0.09452
# Poissons Ratio (y) = 0.25886 0.06517
# Poissons Ratio (z) = 0.05736 0.06134
#
# Static dielectric constant tensor:
#      x y z
#    x 2.100230 0.000000 -0.043510 
#    y 0.000000 2.052030 0.000000 
#    z -0.043510 0.000000 2.110650 
# 
# From -- ./inp_files/65728.got.cif
#   From: 2010.05.17/outbox.cif.g08.bks.cpg/sg11_33_cif.got.tgz:65728.got - 2010.06.03 12:22:45.
