data_PCOD9163699
_publ_section_title
;
Structure prediction by ZEFSAII (Michael W. Deem and Ramdas Pophale) SiO2 
 PCOD9163699
Probable space group: P 21/M
;
_chemical_formula_sum "Si O2"
_cell_formula_units_Z 28
_cell_length_a 27.959892
_cell_length_b 7.656706
_cell_length_c 9.666755
_cell_angle_alpha 90.000000
_cell_angle_beta 34.072077
_cell_angle_gamma 90.000000
_cell_volume 1159.387731
_symmetry_space_group_name_H-M "P 21/M"
_symmetry_group_IT_number 11
_symmetry_cell_setting 'monoclinic'
loop_
_space_group_symop_operation_xyz
x,y,z
-x,1/2+y,-z
-x,-y,-z
x,1/2-y,z
loop_
_atom_site_type_symbol
_atom_site_label
_atom_site_fract_x
_atom_site_fract_y
_atom_site_fract_z
Si Si1 0.726505 0.045102 0.425677
Si Si2 0.375094 0.461908 0.077046
Si Si3 0.164221 0.464607 0.242907
Si Si4 0.906385 0.951442 0.875616
Si Si5 0.641520 0.538758 0.200335
Si Si6 0.045990 0.057711 0.750725
Si Si7 0.440523 0.546988 0.326377
O O1 0.735226 0.250000 0.370976
O O2 0.643205 0.969382 0.545857
O O3 0.813818 0.957779 0.170387
O O4 0.702962 0.024227 0.642656
O O5 0.375007 0.250000 0.079026
O O6 0.371571 0.516668 0.926174
O O7 0.465204 0.526298 0.925134
O O8 0.162082 0.250000 0.248730
O O9 0.124518 0.531014 0.482073
O O10 0.108992 0.518838 0.242670
O O11 0.262279 0.514345 0.989042
O O12 0.934768 0.750000 0.803467
O O13 0.973083 0.055603 0.807855
O O14 0.635912 0.750000 0.219374
O O15 0.576767 0.464825 0.467879
O O16 0.077912 0.250000 0.707807
O O17 0.000000 0.000000 0.000000
O O18 0.442781 0.750000 0.280903
#
# Coordination Sequence:
#
# PCOD9163699 Si02
#       7
#     4   4   4   4   4   4   4
#     4  11  23  38  58  87 122 158 202 252 301 355
#     4  10  22  37  58  86 121 162 203 248 304 361
#     4   9  20  39  63  89 119 156 201 247 293 355
#     4  11  22  41  66  89 117 158 203 246 301 359
#     4  10  20  37  61  88 116 157 204 246 296 357
#     4  11  24  42  64  95 129 158 196 244 297 356
#     4  10  21  38  57  86 122 158 201 253 304 355
#
# _framework density 24.150680000000001
#
# number of rings (size 3 to 8) (size 9 to 14) (size 15 to 20)
#    0.000    1.714    1.429    2.571    2.000    1.714 
#    0.000    3.571    0.000    0.000    0.000    0.000 
#    0.000    0.000    0.000    0.000    0.000    0.000 
#
# Total GULP energy -156606.372241 kJ/mol
# GULP energy per Si atom -5593.084723 kJ/mol
# Density = 2.409571 g / cm^3
# Si number density = 24.150680 Si / 1000 Ang^3
#
#
#
# Elastic Constant Matrix: (Units=GPa)
#
#
# Indices 1 2 3 4 5 6 
#
# 1 48.6622 -4.0597 -4.4261 0.0000 9.7104 0.0000
# 2 -4.0597 57.7740 -5.4945 0.0000 1.6551 0.0000
# 3 -4.4261 -5.4945 134.3402 0.0000 19.3162 0.0000
# 4 0.0000 0.0000 0.0000 20.8271 0.0000 5.3858
# 5 9.7104 1.6551 19.3162 0.0000 36.9326 0.0000
# 6 0.0000 0.0000 0.0000 5.3858 0.0000 9.1464
#
#
#
# Elastic Compliance Matrix: (Units=1/GPa)
#
#
# Indices 1 2 3 4 5 6 
#
# 1 0.022247 0.001932 0.001801 0.000000 -0.006878 0.000000
# 2 0.001932 0.017597 0.001049 0.000000 -0.001845 0.000000
# 3 0.001801 0.001049 0.008241 0.000000 -0.004830 0.000000
# 4 0.000000 0.000000 0.000000 0.056639 0.000000 -0.033351
# 5 -0.006878 -0.001845 -0.004830 0.000000 0.031494 0.000000
# 6 0.000000 0.000000 0.000000 -0.033351 0.000000 0.128971
#
#
# Mechanical properties :
#
#
# Convention : Reuss Voigt Hill
#
# Bulk Modulus (GPa) = 17.34691 23.64619 20.49655
# Shear Modulus (GPa) = 18.19226 30.36502 24.27864
#
# Velocity S-wave (km/s) = 2.74757 3.54971 3.17408
# Velocity P-wave (km/s) = 4.15499 5.15877 4.68385
#
# Compressibility (1/GPa) = 0.05764715
#
# Stress axis : x y z
#
# Youngs Moduli (GPa) = 44.94944 56.82746 121.35109
#
# Poissons Ratio (x) = -0.10977 -0.21854
# Poissons Ratio (y) = -0.08682 -0.12725
# Poissons Ratio (z) = -0.08095 -0.05959
#
# Static dielectric constant tensor:
#      x y z
#    x 1.935690 0.000000 0.014040 
#    y 0.000000 2.000430 0.000000 
#    z 0.014040 0.000000 1.910350 
# 
# From -- ./inp_files/28267.got.cif
#   From: 2010.05.17/outbox.cif.g08.bks.cpg/sg11_15_cif.got.tgz:28267.got - 2010.06.03 12:22:45.
