data_PCOD9163352
_publ_section_title
;
Structure prediction by ZEFSAII (Michael W. Deem and Ramdas Pophale) SiO2 
 PCOD9163352
Probable space group: P 21/M
;
_chemical_formula_sum "Si O2"
_cell_formula_units_Z 28
_cell_length_a 22.277696
_cell_length_b 8.800218
_cell_length_c 14.871623
_cell_angle_alpha 90.000000
_cell_angle_beta 30.420230
_cell_angle_gamma 90.000000
_cell_volume 1476.259903
_symmetry_space_group_name_H-M "P 21/M"
_symmetry_group_IT_number 11
_symmetry_cell_setting 'monoclinic'
loop_
_space_group_symop_operation_xyz
x,y,z
-x,1/2+y,-z
-x,-y,-z
x,1/2-y,z
loop_
_atom_site_type_symbol
_atom_site_label
_atom_site_fract_x
_atom_site_fract_y
_atom_site_fract_z
Si Si1 0.008859 0.931142 0.088397
Si Si2 0.855645 0.067607 0.771928
Si Si3 0.741281 0.569281 0.216171
Si Si4 0.127155 0.068777 0.445642
Si Si5 0.790844 0.069664 0.481197
Si Si6 0.380588 0.068117 0.436728
Si Si7 0.364286 0.932462 0.816449
O O1 0.999992 0.750000 0.096180
O O2 0.136540 0.981894 0.960118
O O3 0.000000 0.000000 0.000000
O O4 0.902928 0.995977 0.285034
O O5 0.853438 0.250000 0.760904
O O6 0.987141 0.029047 0.638089
O O7 0.840122 0.986579 0.696288
O O8 0.750995 0.028533 0.975430
O O9 0.760378 0.750000 0.186870
O O10 0.695772 0.532435 0.375104
O O11 0.647341 0.517174 0.263125
O O12 0.138510 0.250000 0.438285
O O13 0.202468 0.989138 0.425684
O O14 0.800608 0.250000 0.465669
O O15 0.675759 0.015307 0.575205
O O16 0.372968 0.250000 0.432443
O O17 0.515833 0.028919 0.285456
O O18 0.365227 0.750000 0.799773
#
# Coordination Sequence:
#
# PCOD9163352 Si02
#       7
#     4   4   4   4   4   4   4
#     4  12  23  37  57  83 116 151 190 235 286 340
#     4   9  19  37  60  87 115 145 187 238 290 345
#     4  11  22  36  57  85 117 155 197 241 288 343
#     4  10  20  36  61  89 118 150 183 233 294 351
#     4  12  24  38  59  86 117 155 194 237 290 347
#     4  10  22  39  57  80 116 158 199 242 287 342
#     4  10  21  38  60  84 114 155 198 243 292 341
#
# _framework density 18.966850999999998
#
# number of rings (size 3 to 8) (size 9 to 14) (size 15 to 20)
#    0.000    1.429    1.429    4.714    0.000    3.429 
#    0.000    0.714    0.000    0.000    0.000    0.000 
#    0.000    0.000    0.000    0.000    0.000    0.000 
#
# Total GULP energy -156568.420581 kJ/mol
# GULP energy per Si atom -5591.729306 kJ/mol
# Density = 1.892368 g / cm^3
# Si number density = 18.966851 Si / 1000 Ang^3
#
#
#
# Elastic Constant Matrix: (Units=GPa)
#
#
# Indices 1 2 3 4 5 6 
#
# 1 144.4596 59.0721 18.4388 0.0000 -10.9599 0.0000
# 2 59.0721 74.2622 15.5061 0.0000 -3.6780 0.0000
# 3 18.4388 15.5061 28.6876 0.0000 -8.7124 0.0000
# 4 0.0000 0.0000 0.0000 21.6033 0.0000 -0.4140
# 5 -10.9599 -3.6780 -8.7124 0.0000 21.0053 0.0000
# 6 0.0000 0.0000 0.0000 -0.4140 0.0000 37.5315
#
#
#
# Elastic Compliance Matrix: (Units=1/GPa)
#
#
# Indices 1 2 3 4 5 6 
#
# 1 0.010643 -0.007989 -0.001443 0.000000 0.003556 0.000000
# 2 -0.007989 0.021188 -0.007388 0.000000 -0.003522 0.000000
# 3 -0.001443 -0.007388 0.044801 0.000000 0.016536 0.000000
# 4 0.000000 0.000000 0.000000 0.046299 0.000000 0.000511
# 5 0.003556 -0.003522 0.016536 0.000000 0.055704 0.000000
# 6 0.000000 0.000000 0.000000 0.000511 0.000000 0.026650
#
#
# Mechanical properties :
#
#
# Convention : Reuss Voigt Hill
#
# Bulk Modulus (GPa) = 23.25917 48.16036 35.70976
# Shear Modulus (GPa) = 19.74293 26.32084 23.03188
#
# Velocity S-wave (km/s) = 3.22983 3.72926 3.48849
# Velocity P-wave (km/s) = 5.11847 6.63251 5.92406
#
# Compressibility (1/GPa) = 0.04299380
#
# Stress axis : x y z
#
# Youngs Moduli (GPa) = 93.95866 47.19542 22.32103
#
# Poissons Ratio (x) = 0.37703 0.03221
# Poissons Ratio (y) = 0.75060 0.16490
# Poissons Ratio (z) = 0.13557 0.34867
#
# Static dielectric constant tensor:
#      x y z
#    x 1.656810 0.000000 -0.017470 
#    y 0.000000 1.619970 0.000000 
#    z -0.017470 0.000000 1.647580 
# 
# From -- ./inp_files/37423.got.cif
#   From: 2010.05.17/outbox.cif.g08.bks.cpg/sg11_19_cif.got.tgz:37423.got - 2010.06.03 12:22:45.
