data_PCOD9163109
_publ_section_title
;
Structure prediction by ZEFSAII (Michael W. Deem and Ramdas Pophale) SiO2 
 PCOD9163109
Probable space group: P 21/M
;
_chemical_formula_sum "Si O2"
_cell_formula_units_Z 32
_cell_length_a 27.995167
_cell_length_b 8.187662
_cell_length_c 11.997470
_cell_angle_alpha 90.000000
_cell_angle_beta 146.342822
_cell_angle_gamma 90.000000
_cell_volume 1524.111642
_symmetry_space_group_name_H-M "P 21/M"
_symmetry_group_IT_number 11
_symmetry_cell_setting 'monoclinic'
loop_
_space_group_symop_operation_xyz
x,y,z
-x,1/2+y,-z
-x,-y,-z
x,1/2-y,z
loop_
_atom_site_type_symbol
_atom_site_label
_atom_site_fract_x
_atom_site_fract_y
_atom_site_fract_z
Si Si1 0.583941 0.555600 0.093133
Si Si2 0.616809 0.051504 0.661310
Si Si3 0.442591 0.943020 0.211865
Si Si4 0.902188 0.442310 0.975597
Si Si5 0.193721 0.948934 0.996714
Si Si6 0.769460 0.941899 0.540471
Si Si7 0.919432 0.446295 0.416955
Si Si8 0.914267 0.056403 0.659326
O O1 0.586685 0.750000 0.105940
O O2 0.674667 0.494549 0.322299
O O3 0.500000 0.500000 0.000000
O O4 0.577984 0.512358 0.950088
O O5 0.610200 0.250000 0.646610
O O6 0.607849 0.999604 0.774073
O O7 0.709032 0.999934 0.794034
O O8 0.540569 0.980845 0.438523
O O9 0.428834 0.750000 0.177152
O O10 0.921137 0.250000 0.017326
O O11 0.873377 0.506355 0.040887
O O12 0.819055 0.469244 0.737042
O O13 0.989512 0.529148 0.106500
O O14 0.192231 0.750000 0.998683
O O15 0.163365 0.997589 0.815181
O O16 0.762738 0.750000 0.554444
O O17 0.837388 0.966415 0.572330
O O18 0.920560 0.250000 0.425079
O O19 0.919497 0.506267 0.542677
O O20 0.000000 0.500000 0.500000
O O21 0.895706 0.250000 0.626678
#
# Coordination Sequence:
#
# PCOD9163109 Si02
#       8
#     4   4   4   4   4   4   4   4
#     4  11  26  46  67  91 122 159 203 256 313 373
#     4   9  19  37  62  90 123 162 204 250 298 360
#     4  10  21  38  63  92 125 160 199 249 307 365
#     4  11  22  39  64  90 124 165 209 256 305 360
#     4   9  19  35  58  88 119 158 201 245 298 355
#     4  11  26  45  64  89 122 158 205 258 308 364
#     4  10  20  36  58  86 121 157 197 241 292 353
#     4  11  23  39  64  93 124 163 206 253 305 363
#
# _framework density 20.995837000000002
#
# number of rings (size 3 to 8) (size 9 to 14) (size 15 to 20)
#    0.000    1.750    1.250    2.250    3.500    3.000 
#    0.000    1.250    0.000    0.000    0.000    0.000 
#    0.000    0.000    0.000    0.000    0.000    0.000 
#
# Total GULP energy -178674.495567 kJ/mol
# GULP energy per Si atom -5583.577986 kJ/mol
# Density = 2.094805 g / cm^3
# Si number density = 20.995837 Si / 1000 Ang^3
#
#
#
# Elastic Constant Matrix: (Units=GPa)
#
#
# Indices 1 2 3 4 5 6 
#
# 1 64.4091 -5.1225 38.9561 0.0000 1.9499 0.0000
# 2 -5.1225 21.0157 -7.0362 0.0000 -1.6717 0.0000
# 3 38.9561 -7.0362 98.3830 0.0000 2.5162 0.0000
# 4 0.0000 0.0000 0.0000 16.0147 0.0000 1.7947
# 5 1.9499 -1.6717 2.5162 0.0000 42.5547 0.0000
# 6 0.0000 0.0000 0.0000 1.7947 0.0000 24.6593
#
#
#
# Elastic Compliance Matrix: (Units=1/GPa)
#
#
# Indices 1 2 3 4 5 6 
#
# 1 0.020532 0.002311 -0.007955 0.000000 -0.000380 0.000000
# 2 0.002311 0.049136 0.002556 0.000000 0.001673 0.000000
# 3 -0.007955 0.002556 0.013506 0.000000 -0.000334 0.000000
# 4 0.000000 0.000000 0.000000 0.062956 0.000000 -0.004582
# 5 -0.000380 0.001673 -0.000334 0.000000 0.023602 0.000000
# 6 0.000000 0.000000 0.000000 -0.004582 0.000000 0.040886
#
#
# Mechanical properties :
#
#
# Convention : Reuss Voigt Hill
#
# Bulk Modulus (GPa) = 12.98731 26.37806 19.68269
# Shear Modulus (GPa) = 20.62199 27.11310 23.86755
#
# Velocity S-wave (km/s) = 3.13740 3.59744 3.37527
# Velocity P-wave (km/s) = 4.39584 5.46317 4.95831
#
# Compressibility (1/GPa) = 0.07699824
#
# Stress axis : x y z
#
# Youngs Moduli (GPa) = 48.70335 20.35179 74.04314
#
# Poissons Ratio (x) = -0.04703 0.58902
# Poissons Ratio (y) = -0.11256 -0.18927
# Poissons Ratio (z) = 0.38744 -0.05202
#
# Static dielectric constant tensor:
#      x y z
#    x 1.767510 0.000000 -0.017480 
#    y 0.000000 1.729370 0.000000 
#    z -0.017480 0.000000 1.775110 
# 
# From -- ./inp_files/45339.got.cif
#   From: 2010.05.17/outbox.cif.g08.bks.cpg/sg11_23_cif.got.tgz:45339.got - 2010.06.03 12:22:45.
