data_PCOD9163166
_publ_section_title
;
Structure prediction by ZEFSAII (Michael W. Deem and Ramdas Pophale) SiO2 
 PCOD9163166
Probable space group: P 21/M
;
_chemical_formula_sum "Si O2"
_cell_formula_units_Z 32
_cell_length_a 5.175687
_cell_length_b 18.794419
_cell_length_c 15.991173
_cell_angle_alpha 90.000000
_cell_angle_beta 62.527943
_cell_angle_gamma 90.000000
_cell_volume 1380.118405
_symmetry_space_group_name_H-M "P 21/M"
_symmetry_group_IT_number 11
_symmetry_cell_setting 'monoclinic'
loop_
_space_group_symop_operation_xyz
x,y,z
-x,1/2+y,-z
-x,-y,-z
x,1/2-y,z
loop_
_atom_site_type_symbol
_atom_site_label
_atom_site_fract_x
_atom_site_fract_y
_atom_site_fract_z
Si Si1 0.853608 0.673726 0.841968
Si Si2 0.871954 0.833461 0.593819
Si Si3 0.542728 0.666853 0.467806
Si Si4 0.253764 0.431197 0.713704
Si Si5 0.351199 0.940842 0.918322
Si Si6 0.065203 0.172966 0.974389
Si Si7 0.425742 0.911974 0.158408
Si Si8 0.337993 0.584605 0.729874
O O1 0.727195 0.750000 0.835577
O O2 0.623934 0.611302 0.875235
O O3 0.128250 0.651481 0.745418
O O4 0.951435 0.680031 0.923373
O O5 0.836411 0.750000 0.622885
O O6 0.747489 0.840583 0.517968
O O7 0.664195 0.886072 0.676932
O O8 0.211500 0.851520 0.541817
O O9 0.543314 0.750000 0.442378
O O10 0.649564 0.618455 0.376299
O O11 0.464457 0.420829 0.762203
O O12 0.280215 0.514489 0.684986
O O13 0.921757 0.412830 0.788319
O O14 0.247898 0.940616 0.836912
O O15 0.454464 0.021463 0.915136
O O16 0.125247 0.898886 0.011665
O O17 0.969738 0.250000 0.952872
O O18 0.397083 0.156041 0.900781
#
# Coordination Sequence:
#
# PCOD9163166 Si02
#       8
#     4   4   4   4   4   4   4   4
#     4  10  20  36  59  85 122 160 195 247 307 358
#     4  10  22  39  63  92 122 157 199 247 302 367
#     4  10  23  42  62  89 123 160 201 250 306 356
#     4  11  24  42  64  89 121 161 205 252 305 356
#     4  10  21  39  59  87 125 163 193 252 304 363
#     4  10  23  39  58  90 121 159 209 253 300 357
#     4  11  24  41  64  90 120 162 209 252 299 359
#     4  10  22  38  58  91 124 154 204 242 302 365
#
# _framework density 23.186419000000001
#
# number of rings (size 3 to 8) (size 9 to 14) (size 15 to 20)
#    0.000    1.750    1.250    1.875    3.500    4.000 
#    0.000    0.000    0.000    0.000    0.000    0.000 
#    0.000    0.000    0.000    0.000    0.000    0.000 
#
# Total GULP energy -178870.334713 kJ/mol
# GULP energy per Si atom -5589.697960 kJ/mol
# Density = 2.313365 g / cm^3
# Si number density = 23.186419 Si / 1000 Ang^3
#
#
#
# Elastic Constant Matrix: (Units=GPa)
#
#
# Indices 1 2 3 4 5 6 
#
# 1 72.6211 -1.4512 20.6687 0.0000 -9.2077 0.0000
# 2 -1.4512 86.4931 41.7557 0.0000 -10.2787 0.0000
# 3 20.6687 41.7557 94.8380 0.0000 -11.2432 0.0000
# 4 0.0000 0.0000 0.0000 25.0165 0.0000 -13.0425
# 5 -9.2077 -10.2787 -11.2432 0.0000 36.9401 0.0000
# 6 0.0000 0.0000 0.0000 -13.0425 0.0000 28.6157
#
#
#
# Elastic Compliance Matrix: (Units=1/GPa)
#
#
# Indices 1 2 3 4 5 6 
#
# 1 0.015421 0.002649 -0.004133 0.000000 0.003323 0.000000
# 2 0.002649 0.015311 -0.006987 0.000000 0.002794 0.000000
# 3 -0.004133 -0.006987 0.014699 0.000000 0.001499 0.000000
# 4 0.000000 0.000000 0.000000 0.052433 0.000000 0.023898
# 5 0.003323 0.002794 0.001499 0.000000 0.029133 0.000000
# 6 0.000000 0.000000 0.000000 0.023898 0.000000 0.045838
#
#
# Mechanical properties :
#
#
# Convention : Reuss Voigt Hill
#
# Bulk Modulus (GPa) = 35.10237 41.76650 38.43443
# Shear Modulus (GPa) = 25.09104 30.97973 28.03539
#
# Velocity S-wave (km/s) = 3.29316 3.65926 3.48103
# Velocity P-wave (km/s) = 5.44353 5.99216 5.72442
#
# Compressibility (1/GPa) = 0.02848811
#
# Stress axis : x y z
#
# Youngs Moduli (GPa) = 64.84813 65.31108 68.03075
#
# Poissons Ratio (x) = -0.17300 0.28117
# Poissons Ratio (y) = -0.17178 0.47536
# Poissons Ratio (z) = 0.26802 0.45635
#
# Static dielectric constant tensor:
#      x y z
#    x 1.924430 0.000000 0.035870 
#    y 0.000000 1.901900 0.000000 
#    z 0.035870 0.000000 1.846310 
# 
# From -- ./inp_files/57229.got.cif
#   From: 2010.05.17/outbox.cif.g08.bks.cpg/sg11_29_cif.got.tgz:57229.got - 2010.06.03 12:22:45.
