data_PCOD9163630
_publ_section_title
;
Structure prediction by ZEFSAII (Michael W. Deem and Ramdas Pophale) SiO2 
 PCOD9163630
Probable space group: P 21/M
;
_chemical_formula_sum "Si O2"
_cell_formula_units_Z 28
_cell_length_a 12.959199
_cell_length_b 8.553763
_cell_length_c 14.978923
_cell_angle_alpha 90.000000
_cell_angle_beta 58.539033
_cell_angle_gamma 90.000000
_cell_volume 1416.324979
_symmetry_space_group_name_H-M "P 21/M"
_symmetry_group_IT_number 11
_symmetry_cell_setting 'monoclinic'
loop_
_space_group_symop_operation_xyz
x,y,z
-x,1/2+y,-z
-x,-y,-z
x,1/2-y,z
loop_
_atom_site_type_symbol
_atom_site_label
_atom_site_fract_x
_atom_site_fract_y
_atom_site_fract_z
Si Si1 0.999141 0.561887 0.771967
Si Si2 0.464616 0.936945 0.919291
Si Si3 0.814214 0.437540 0.001768
Si Si4 0.222602 0.559469 0.782004
Si Si5 0.912381 0.937731 0.616475
Si Si6 0.490878 0.937946 0.604227
Si Si7 0.648169 0.435583 0.689081
O O1 0.002668 0.750000 0.766160
O O2 0.957226 0.505189 0.693735
O O3 0.131238 0.507989 0.745629
O O4 0.904707 0.514062 0.891060
O O5 0.481107 0.750000 0.907511
O O6 0.324206 0.970245 0.963242
O O7 0.549824 0.014399 0.807130
O O8 0.500000 0.000000 0.000000
O O9 0.831682 0.250000 0.991070
O O10 0.826511 0.490995 0.098946
O O11 0.223628 0.750000 0.782938
O O12 0.360740 0.511063 0.703395
O O13 0.915530 0.750000 0.615271
O O14 0.776700 0.992816 0.657841
O O15 0.000000 0.000000 0.500000
O O16 0.494265 0.750000 0.603549
O O17 0.500000 0.000000 0.500000
O O18 0.597722 0.002075 0.617890
O O19 0.659221 0.250000 0.680719
#
# Coordination Sequence:
#
# PCOD9163630 Si02
#       7
#     4   4   4   4   4   4   4
#     4  10  22  39  62  91 124 164 206 254 312 377
#     4  11  22  38  61  91 127 168 212 263 322 383
#     4  10  20  37  60  88 124 164 203 251 312 375
#     4   9  19  39  63  89 126 165 198 250 317 377
#     4  11  25  44  66  93 127 166 213 267 322 381
#     4  11  23  42  67  96 130 167 211 265 325 386
#     4  12  25  43  66  93 127 169 217 266 321 382
#
# _framework density 19.769476000000001
#
# number of rings (size 3 to 8) (size 9 to 14) (size 15 to 20)
#    0.000    1.429    1.429    3.857    2.000    4.571 
#    0.000    1.429    0.000    0.000    0.000    0.000 
#    0.000    0.000    0.000    0.000    0.000    0.000 
#
# Total GULP energy -156563.813837 kJ/mol
# GULP energy per Si atom -5591.564780 kJ/mol
# Density = 1.972448 g / cm^3
# Si number density = 19.769476 Si / 1000 Ang^3
#
#
#
# Elastic Constant Matrix: (Units=GPa)
#
#
# Indices 1 2 3 4 5 6 
#
# 1 152.1613 30.5566 38.3902 0.0000 26.7037 0.0000
# 2 30.5566 45.4137 6.5324 0.0000 3.5832 0.0000
# 3 38.3902 6.5324 75.5163 0.0000 24.2246 0.0000
# 4 0.0000 0.0000 0.0000 36.5836 0.0000 -0.0468
# 5 26.7037 3.5832 24.2246 0.0000 39.0551 0.0000
# 6 0.0000 0.0000 0.0000 -0.0468 0.0000 23.0121
#
#
#
# Elastic Compliance Matrix: (Units=1/GPa)
#
#
# Indices 1 2 3 4 5 6 
#
# 1 0.009068 -0.005377 -0.002889 0.000000 -0.003915 0.000000
# 2 -0.005377 0.025521 0.000122 0.000000 0.001259 0.000000
# 3 -0.002889 0.000122 0.017565 0.000000 -0.008931 0.000000
# 4 0.000000 0.000000 0.000000 0.027335 0.000000 0.000056
# 5 -0.003915 0.001259 -0.008931 0.000000 0.033706 0.000000
# 6 0.000000 0.000000 0.000000 0.000056 0.000000 0.043455
#
#
# Mechanical properties :
#
#
# Convention : Reuss Voigt Hill
#
# Bulk Modulus (GPa) = 27.88160 47.11664 37.49912
# Shear Modulus (GPa) = 27.04281 32.90431 29.97356
#
# Velocity S-wave (km/s) = 3.70254 4.08413 3.89801
# Velocity P-wave (km/s) = 5.69318 6.79153 6.26647
#
# Compressibility (1/GPa) = 0.03586595
#
# Stress axis : x y z
#
# Youngs Moduli (GPa) = 110.28315 39.18397 56.93077
#
# Poissons Ratio (x) = 0.21068 0.16446
# Poissons Ratio (y) = 0.59296 -0.00693
# Poissons Ratio (z) = 0.31858 -0.00477
#
# Static dielectric constant tensor:
#      x y z
#    x 1.688260 0.000000 0.010620 
#    y 0.000000 1.686810 0.000000 
#    z 0.010620 0.000000 1.659830 
# 
# From -- ./inp_files/49131.got.cif
#   From: 2010.05.17/outbox.cif.g08.bks.cpg/sg11_25_cif.got.tgz:49131.got - 2010.06.03 12:22:45.
