data_PCOD9163228
_publ_section_title
;
Structure prediction by ZEFSAII (Michael W. Deem and Ramdas Pophale) SiO2 
 PCOD9163228
Probable space group: P 21/M
;
_chemical_formula_sum "Si O2"
_cell_formula_units_Z 28
_cell_length_a 21.173430
_cell_length_b 13.296146
_cell_length_c 9.121207
_cell_angle_alpha 90.000000
_cell_angle_beta 146.446533
_cell_angle_gamma 90.000000
_cell_volume 1419.287841
_symmetry_space_group_name_H-M "P 21/M"
_symmetry_group_IT_number 11
_symmetry_cell_setting 'monoclinic'
loop_
_space_group_symop_operation_xyz
x,y,z
-x,1/2+y,-z
-x,-y,-z
x,1/2-y,z
loop_
_atom_site_type_symbol
_atom_site_label
_atom_site_fract_x
_atom_site_fract_y
_atom_site_fract_z
Si Si1 0.036188 0.370438 0.709437
Si Si2 0.818729 0.008970 0.225133
Si Si3 0.722918 0.635222 0.290235
Si Si4 0.641527 0.132327 0.677240
Si Si5 0.768782 0.630273 0.709367
Si Si6 0.467489 0.135360 0.587086
Si Si7 0.505047 0.453399 0.170913
O O1 0.042722 0.250000 0.705723
O O2 0.906965 0.408228 0.457336
O O3 0.104868 0.428184 0.715530
O O4 0.109568 0.402791 0.993656
O O5 0.767425 0.943372 0.257363
O O6 0.729498 0.066175 0.944297
O O7 0.766434 0.750000 0.356258
O O8 0.743853 0.595433 0.496512
O O9 0.586951 0.634444 0.006761
O O10 0.674812 0.250000 0.740347
O O11 0.517487 0.126037 0.520443
O O12 0.618449 0.089957 0.469392
O O13 0.774485 0.750000 0.704637
O O14 0.665670 0.617483 0.628641
O O15 0.492760 0.250000 0.682777
O O16 0.529896 0.049573 0.798817
O O17 0.500000 0.500000 0.000000
#
# Coordination Sequence:
#
# PCOD9163228 Si02
#       7
#     4   4   4   4   4   4   4
#     4  10  22  41  64  88 117 158 211 263 308 363
#     4  11  23  39  64  91 120 165 204 255 316 370
#     4  11  23  38  59  92 126 160 207 258 306 365
#     4  11  24  40  61  93 131 162 201 253 306 367
#     4   9  19  36  59  87 121 160 199 250 301 352
#     4  10  20  36  59  90 126 159 199 247 301 361
#     4  12  23  37  60  89 126 169 202 245 302 371
#
# _framework density 19.728204000000002
#
# number of rings (size 3 to 8) (size 9 to 14) (size 15 to 20)
#    0.000    1.429    2.857    2.571    2.000    1.143 
#    0.000    0.000    0.000    0.000    0.000    0.000 
#    0.000    0.000    0.000    0.000    0.000    0.000 
#
# Total GULP energy -155957.648913 kJ/mol
# GULP energy per Si atom -5569.916033 kJ/mol
# Density = 1.968330 g / cm^3
# Si number density = 19.728204 Si / 1000 Ang^3
#
#
#
# Elastic Constant Matrix: (Units=GPa)
#
#
# Indices 1 2 3 4 5 6 
#
# 1 53.1625 30.3287 46.2108 0.0000 -1.0243 0.0000
# 2 30.3287 124.2646 43.1781 0.0000 -1.6575 0.0000
# 3 46.2108 43.1781 142.0155 0.0000 -9.2591 0.0000
# 4 0.0000 0.0000 0.0000 33.6811 0.0000 -0.6444
# 5 -1.0243 -1.6575 -9.2591 0.0000 16.0802 0.0000
# 6 0.0000 0.0000 0.0000 -0.6444 0.0000 15.9979
#
#
#
# Elastic Compliance Matrix: (Units=1/GPa)
#
#
# Indices 1 2 3 4 5 6 
#
# 1 0.028147 -0.004088 -0.008132 0.000000 -0.003311 0.000000
# 2 -0.004088 0.009599 -0.001601 0.000000 -0.000193 0.000000
# 3 -0.008132 -0.001601 0.010525 0.000000 0.005377 0.000000
# 4 0.000000 0.000000 0.000000 0.029713 0.000000 0.001197
# 5 -0.003311 -0.000193 0.005377 0.000000 0.065054 0.000000
# 6 0.000000 0.000000 0.000000 0.001197 0.000000 0.062556
#
#
# Mechanical properties :
#
#
# Convention : Reuss Voigt Hill
#
# Bulk Modulus (GPa) = 48.47488 62.09752 55.28620
# Shear Modulus (GPa) = 20.82360 26.46684 23.64522
#
# Velocity S-wave (km/s) = 3.25241 3.66672 3.46576
# Velocity P-wave (km/s) = 6.22326 7.03359 6.64079
#
# Compressibility (1/GPa) = 0.02062924
#
# Stress axis : x y z
#
# Youngs Moduli (GPa) = 35.52744 104.17992 95.01436
#
# Poissons Ratio (x) = 0.42593 0.77263
# Poissons Ratio (y) = 0.14525 0.15208
# Poissons Ratio (z) = 0.28890 0.16675
#
# Static dielectric constant tensor:
#      x y z
#    x 1.728480 0.000000 -0.005400 
#    y 0.000000 1.694710 0.000000 
#    z -0.005400 0.000000 1.734860 
# 
# From -- ./inp_files/26950.got.cif
#   From: 2010.05.17/outbox.cif.g08.bks.cpg/sg11_14_cif.got.tgz:26950.got - 2010.06.03 12:22:45.
