data_PCOD9163095
_publ_section_title
;
Structure prediction by ZEFSAII (Michael W. Deem and Ramdas Pophale) SiO2 
 PCOD9163095
Probable space group: P 21/M
;
_chemical_formula_sum "Si O2"
_cell_formula_units_Z 28
_cell_length_a 15.757528
_cell_length_b 8.557771
_cell_length_c 15.432078
_cell_angle_alpha 90.000000
_cell_angle_beta 37.708106
_cell_angle_gamma 90.000000
_cell_volume 1272.823863
_symmetry_space_group_name_H-M "P 21/M"
_symmetry_group_IT_number 11
_symmetry_cell_setting 'monoclinic'
loop_
_space_group_symop_operation_xyz
x,y,z
-x,1/2+y,-z
-x,-y,-z
x,1/2-y,z
loop_
_atom_site_type_symbol
_atom_site_label
_atom_site_fract_x
_atom_site_fract_y
_atom_site_fract_z
Si Si1 0.597564 0.063899 0.498533
Si Si2 0.089549 0.568061 0.506835
Si Si3 0.385792 0.936384 0.799494
Si Si4 0.895828 0.562380 0.012608
Si Si5 0.316936 0.075071 0.222990
Si Si6 0.351885 0.929398 0.019231
Si Si7 0.904444 0.440508 0.302112
O O1 0.601037 0.250000 0.486036
O O2 0.756993 0.007511 0.379473
O O3 0.500000 0.000000 0.500000
O O4 0.518634 0.016139 0.650451
O O5 0.058228 0.750000 0.537177
O O6 0.246546 0.539804 0.347605
O O7 0.075541 0.502061 0.615401
O O8 0.000000 0.500000 0.500000
O O9 0.407812 0.750000 0.786177
O O10 0.345135 0.994406 0.928148
O O11 0.250784 0.979571 0.853670
O O12 0.880257 0.750000 0.028839
O O13 0.967904 0.518134 0.863028
O O14 0.000000 0.500000 0.000000
O O15 0.267312 0.250000 0.281277
O O16 0.482567 0.074355 0.097140
O O17 0.283177 0.026038 0.151788
O O18 0.301390 0.750000 0.062766
O O19 0.897826 0.250000 0.310304
#
# Coordination Sequence:
#
# PCOD9163095 Si02
#       7
#     4   4   4   4   4   4   4
#     4  11  22  40  66  95 124 162 205 257 320 382
#     4  11  23  40  60  86 120 162 208 257 305 367
#     4  11  23  39  60  90 125 159 203 255 304 368
#     4  11  23  42  65  92 124 164 207 257 316 377
#     4  10  20  36  58  85 118 156 198 248 303 359
#     4   9  20  37  58  85 118 156 199 249 300 355
#     4   9  22  42  64  89 125 165 208 256 313 376
#
# _framework density 21.998329999999999
#
# number of rings (size 3 to 8) (size 9 to 14) (size 15 to 20)
#    0.000    1.714    0.000    3.857    2.000    2.857 
#    0.000    6.429    0.000    0.000    0.000    0.000 
#    0.000    0.000    0.000    0.000    0.000    0.000 
#
# Total GULP energy -156461.447096 kJ/mol
# GULP energy per Si atom -5587.908825 kJ/mol
# Density = 2.194826 g / cm^3
# Si number density = 21.998330 Si / 1000 Ang^3
#
#
#
# Elastic Constant Matrix: (Units=GPa)
#
#
# Indices 1 2 3 4 5 6 
#
# 1 68.9628 12.1305 9.1289 0.0000 11.9549 0.0000
# 2 12.1305 27.5212 1.7814 0.0000 0.4772 0.0000
# 3 9.1289 1.7814 73.5944 0.0000 1.9704 0.0000
# 4 0.0000 0.0000 0.0000 28.4164 0.0000 2.4495
# 5 11.9549 0.4772 1.9704 0.0000 38.4702 0.0000
# 6 0.0000 0.0000 0.0000 2.4495 0.0000 26.9774
#
#
#
# Elastic Compliance Matrix: (Units=1/GPa)
#
#
# Indices 1 2 3 4 5 6 
#
# 1 0.016889 -0.007241 -0.001784 0.000000 -0.005067 0.000000
# 2 -0.007241 0.039503 -0.000105 0.000000 0.001765 0.000000
# 3 -0.001784 -0.000105 0.013816 0.000000 -0.000152 0.000000
# 4 0.000000 0.000000 0.000000 0.035469 0.000000 -0.003220
# 5 -0.005067 0.001765 -0.000152 0.000000 0.027555 0.000000
# 6 0.000000 0.000000 0.000000 -0.003220 0.000000 0.037360
#
#
# Mechanical properties :
#
#
# Convention : Reuss Voigt Hill
#
# Bulk Modulus (GPa) = 19.25003 24.01776 21.63390
# Shear Modulus (GPa) = 24.25212 28.57531 26.41371
#
# Velocity S-wave (km/s) = 3.32392 3.60804 3.46889
# Velocity P-wave (km/s) = 4.84778 5.31968 5.08920
#
# Compressibility (1/GPa) = 0.05194797
#
# Stress axis : x y z
#
# Youngs Moduli (GPa) = 59.21103 25.31435 72.38036
#
# Poissons Ratio (x) = 0.18329 0.12913
# Poissons Ratio (y) = 0.42873 0.00762
# Poissons Ratio (z) = 0.10563 0.00267
#
# Static dielectric constant tensor:
#      x y z
#    x 1.742350 0.000000 0.032340 
#    y 0.000000 1.763960 0.000000 
#    z 0.032340 0.000000 1.798760 
# 
# From -- ./inp_files/51908.got.cif
#   From: 2010.05.17/outbox.cif.g08.bks.cpg/sg11_26_cif.got.tgz:51908.got - 2010.06.03 12:22:45.
