data_PCOD9163561
_publ_section_title
;
Structure prediction by ZEFSAII (Michael W. Deem and Ramdas Pophale) SiO2 
 PCOD9163561
Probable space group: P 21/M
;
_chemical_formula_sum "Si O2"
_cell_formula_units_Z 32
_cell_length_a 10.231561
_cell_length_b 27.388543
_cell_length_c 5.226882
_cell_angle_alpha 90.000000
_cell_angle_beta 98.634449
_cell_angle_gamma 90.000000
_cell_volume 1448.115665
_symmetry_space_group_name_H-M "P 21/M"
_symmetry_group_IT_number 11
_symmetry_cell_setting 'monoclinic'
loop_
_space_group_symop_operation_xyz
x,y,z
-x,1/2+y,-z
-x,-y,-z
x,1/2-y,z
loop_
_atom_site_type_symbol
_atom_site_label
_atom_site_fract_x
_atom_site_fract_y
_atom_site_fract_z
Si Si1 0.603909 0.876496 0.138525
Si Si2 0.853045 0.586090 0.455414
Si Si3 0.580732 0.529347 0.813053
Si Si4 0.183480 0.804634 0.972630
Si Si5 0.876225 0.135805 0.543662
Si Si6 0.399219 0.598417 0.460640
Si Si7 0.532180 0.195514 0.188438
Si Si8 0.138883 0.472397 0.039133
O O1 0.717592 0.883436 0.381737
O O2 0.458920 0.891691 0.199645
O O3 0.629983 0.918180 0.938482
O O4 0.591151 0.823245 0.015029
O O5 0.879221 0.570043 0.752408
O O6 0.979449 0.614014 0.382911
O O7 0.838837 0.541014 0.253192
O O8 0.478007 0.549873 0.572946
O O9 0.723109 0.503509 0.819135
O O10 0.500000 0.500000 0.000000
O O11 0.129350 0.750000 0.929831
O O12 0.155814 0.825093 0.244959
O O13 0.129279 0.839934 0.736855
O O14 0.339386 0.801917 0.955600
O O15 0.756855 0.097003 0.539581
O O16 0.440747 0.649593 0.615812
O O17 0.515835 0.250000 0.296332
O O18 0.000000 0.500000 0.000000
#
# Coordination Sequence:
#
# PCOD9163561 Si02
#       8
#     4   4   4   4   4   4   4   4
#     4  10  20  40  60  84 124 159 194 250 309 358
#     4  11  24  42  63  85 125 162 197 249 310 358
#     4  10  23  39  60  89 121 159 200 257 304 355
#     4  10  20  37  60  90 122 153 199 254 301 350
#     4  11  22  37  62  90 115 164 203 243 300 365
#     4  10  20  37  59  87 120 154 207 249 303 355
#     4   9  19  35  60  89 118 155 201 250 300 360
#     4  11  24  43  62  88 119 162 204 250 304 366
#
# _framework density 22.09768
#
# number of rings (size 3 to 8) (size 9 to 14) (size 15 to 20)
#    0.000    1.750    2.500    1.500    1.750    2.500 
#    0.000    1.250    0.000    0.000    0.000    0.000 
#    0.000    0.000    0.000    0.000    0.000    0.000 
#
# Total GULP energy -178421.507855 kJ/mol
# GULP energy per Si atom -5575.672120 kJ/mol
# Density = 2.204739 g / cm^3
# Si number density = 22.097680 Si / 1000 Ang^3
#
#
#
# Elastic Constant Matrix: (Units=GPa)
#
#
# Indices 1 2 3 4 5 6 
#
# 1 99.4366 14.6615 -8.0175 0.0000 6.5014 0.0000
# 2 14.6615 71.2047 3.0981 0.0000 2.9282 0.0000
# 3 -8.0175 3.0981 49.4862 0.0000 -0.5926 0.0000
# 4 0.0000 0.0000 0.0000 25.8584 0.0000 -7.9181
# 5 6.5014 2.9282 -0.5926 0.0000 33.3687 0.0000
# 6 0.0000 0.0000 0.0000 -7.9181 0.0000 15.0354
#
#
#
# Elastic Compliance Matrix: (Units=1/GPa)
#
#
# Indices 1 2 3 4 5 6 
#
# 1 0.010650 -0.002197 0.001841 0.000000 -0.001850 0.000000
# 2 -0.002197 0.014588 -0.001280 0.000000 -0.000875 0.000000
# 3 0.001841 -0.001280 0.020587 0.000000 0.000119 0.000000
# 4 0.000000 0.000000 0.000000 0.046107 0.000000 0.024282
# 5 -0.001850 -0.000875 0.000119 0.000000 0.030407 0.000000
# 6 0.000000 0.000000 0.000000 0.024282 0.000000 0.079297
#
#
# Mechanical properties :
#
#
# Convention : Reuss Voigt Hill
#
# Bulk Modulus (GPa) = 23.49964 26.62352 25.06158
# Shear Modulus (GPa) = 22.82131 28.87819 25.84975
#
# Velocity S-wave (km/s) = 3.21712 3.61895 3.42394
# Velocity P-wave (km/s) = 4.94544 5.43476 5.19587
#
# Compressibility (1/GPa) = 0.04255385
#
# Stress axis : x y z
#
# Youngs Moduli (GPa) = 93.89721 68.54931 48.57331
#
# Poissons Ratio (x) = 0.15060 -0.08942
# Poissons Ratio (y) = 0.20629 0.06216
# Poissons Ratio (z) = -0.17285 0.08772
#
# Static dielectric constant tensor:
#      x y z
#    x 1.869720 0.000000 0.059950 
#    y 0.000000 1.892320 0.000000 
#    z 0.059950 0.000000 1.878940 
# 
# From -- ./inp_files/3423.got.cif
#   From: 2010.05.17/outbox.cif.g08.bks.cpg/sg11_2_cif.got.tgz:3423.got - 2010.06.03 12:22:45.
