data_PCOD9163337
_publ_section_title
;
Structure prediction by ZEFSAII (Michael W. Deem and Ramdas Pophale) SiO2 
 PCOD9163337
Probable space group: P 21/M
;
_chemical_formula_sum "Si O2"
_cell_formula_units_Z 32
_cell_length_a 12.233313
_cell_length_b 16.155451
_cell_length_c 19.290429
_cell_angle_alpha 90.000000
_cell_angle_beta 27.598410
_cell_angle_gamma 90.000000
_cell_volume 1766.202884
_symmetry_space_group_name_H-M "P 21/M"
_symmetry_group_IT_number 11
_symmetry_cell_setting 'monoclinic'
loop_
_space_group_symop_operation_xyz
x,y,z
-x,1/2+y,-z
-x,-y,-z
x,1/2-y,z
loop_
_atom_site_type_symbol
_atom_site_label
_atom_site_fract_x
_atom_site_fract_y
_atom_site_fract_z
Si Si1 0.347468 0.655863 0.947423
Si Si2 0.349475 0.062389 0.629724
Si Si3 0.926479 0.497278 0.961155
Si Si4 0.016226 0.846830 0.261065
Si Si5 0.137912 0.098954 0.366700
Si Si6 0.344262 0.846572 0.428457
Si Si7 0.607603 0.656105 0.133674
Si Si8 0.134183 0.906457 0.343394
O O1 0.277043 0.750000 0.966832
O O2 0.628345 0.647051 0.786138
O O3 0.234335 0.583860 0.963680
O O4 0.242468 0.641861 0.083447
O O5 0.203238 0.122991 0.661599
O O6 0.522996 0.110286 0.583572
O O7 0.500000 0.000000 0.500000
O O8 0.156117 0.014847 0.784754
O O9 0.788760 0.581579 0.019618
O O10 0.000000 0.500000 0.000000
O O11 0.995700 0.750000 0.289349
O O12 0.039750 0.896575 0.319116
O O13 0.910415 0.116443 0.447158
O O14 0.054048 0.120371 0.492046
O O15 0.191208 0.001402 0.330571
O O16 0.313875 0.750000 0.459666
O O17 0.506487 0.854536 0.268578
O O18 0.700140 0.750000 0.074349
O O19 0.375532 0.644462 0.216709
#
# Coordination Sequence:
#
# PCOD9163337 Si02
#       8
#     4   4   4   4   4   4   4   4
#     4  10  22  39  59  89 122 157 202 247 298 356
#     4  11  23  40  59  85 119 159 200 239 301 364
#     4  11  22  40  63  85 118 155 203 252 299 350
#     4  10  22  39  59  85 119 161 199 240 296 363
#     4  10  20  36  62  93 119 150 201 250 300 346
#     4  10  20  36  61  87 117 159 200 243 295 357
#     4  10  20  37  61  90 117 154 203 249 299 354
#     4  10  20  36  61  87 122 158 193 243 299 359
#
# _framework density 18.117963
#
# number of rings (size 3 to 8) (size 9 to 14) (size 15 to 20)
#    0.000    1.750    2.500    1.875    0.000    4.000 
#    2.250    1.250    0.000    0.000    0.000    0.000 
#    0.000    0.000    0.000    0.000    0.000    0.000 
#
# Total GULP energy -178646.406975 kJ/mol
# GULP energy per Si atom -5582.700218 kJ/mol
# Density = 1.807673 g / cm^3
# Si number density = 18.117963 Si / 1000 Ang^3
#
#
#
# Elastic Constant Matrix: (Units=GPa)
#
#
# Indices 1 2 3 4 5 6 
#
# 1 112.5543 27.5343 36.8045 0.0000 6.5425 0.0000
# 2 27.5343 83.5992 26.4869 0.0000 -1.8521 0.0000
# 3 36.8045 26.4869 72.6485 0.0000 -8.7298 0.0000
# 4 0.0000 0.0000 0.0000 16.2368 0.0000 -2.0477
# 5 6.5425 -1.8521 -8.7298 0.0000 14.2861 0.0000
# 6 0.0000 0.0000 0.0000 -2.0477 0.0000 24.7555
#
#
#
# Elastic Compliance Matrix: (Units=1/GPa)
#
#
# Indices 1 2 3 4 5 6 
#
# 1 0.012117 -0.002136 -0.006540 0.000000 -0.009822 0.000000
# 2 -0.002136 0.013925 -0.003950 0.000000 0.000370 0.000000
# 3 -0.006540 -0.003950 0.020308 0.000000 0.014892 0.000000
# 4 0.000000 0.000000 0.000000 0.062238 0.000000 0.005148
# 5 -0.009822 0.000370 0.014892 0.000000 0.083645 0.000000
# 6 0.000000 0.000000 0.000000 0.005148 0.000000 0.040821
#
#
# Mechanical properties :
#
#
# Convention : Reuss Voigt Hill
#
# Bulk Modulus (GPa) = 47.40048 50.05039 48.72543
# Shear Modulus (GPa) = 18.84387 22.92077 20.88232
#
# Velocity S-wave (km/s) = 3.22850 3.56066 3.39864
# Velocity P-wave (km/s) = 6.33377 6.67751 6.50791
#
# Compressibility (1/GPa) = 0.02109683
#
# Stress axis : x y z
#
# Youngs Moduli (GPa) = 82.53119 71.81215 49.24201
#
# Poissons Ratio (x) = 0.15341 0.32203
# Poissons Ratio (y) = 0.17631 0.19452
# Poissons Ratio (z) = 0.53974 0.28368
#
# Static dielectric constant tensor:
#      x y z
#    x 1.520570 0.000000 0.053940 
#    y 0.000000 1.631900 0.000000 
#    z 0.053940 0.000000 1.567980 
# 
# From -- ./inp_files/41640.got.cif
#   From: 2010.05.17/outbox.cif.g08.bks.cpg/sg11_21_cif.got.tgz:41640.got - 2010.06.03 12:22:45.
