data_PCOD9163925
_publ_section_title
;
Structure prediction by ZEFSAII (Michael W. Deem and Ramdas Pophale) SiO2 
 PCOD9163925
Probable space group: P 21/M
;
_chemical_formula_sum "Si O2"
_cell_formula_units_Z 32
_cell_length_a 12.712697
_cell_length_b 8.928623
_cell_length_c 29.064845
_cell_angle_alpha 90.000000
_cell_angle_beta 150.369817
_cell_angle_gamma 90.000000
_cell_volume 1631.054662
_symmetry_space_group_name_H-M "P 21/M"
_symmetry_group_IT_number 11
_symmetry_cell_setting 'monoclinic'
loop_
_space_group_symop_operation_xyz
x,y,z
-x,1/2+y,-z
-x,-y,-z
x,1/2-y,z
loop_
_atom_site_type_symbol
_atom_site_label
_atom_site_fract_x
_atom_site_fract_y
_atom_site_fract_z
Si Si1 0.188392 0.071969 0.258990
Si Si2 0.176068 0.931715 0.006731
Si Si3 0.753811 0.071232 0.818911
Si Si4 0.564767 0.427906 0.475579
Si Si5 0.919258 0.578543 0.230698
Si Si6 0.443060 0.919601 0.024795
Si Si7 0.440657 0.070942 0.778006
Si Si8 0.002508 0.572507 0.644599
O O1 0.149756 0.250000 0.241328
O O2 0.385042 0.045541 0.368734
O O3 0.234224 0.006998 0.226068
O O4 0.994213 0.988665 0.210709
O O5 0.152687 0.750000 0.998772
O O6 0.262921 0.980924 0.989532
O O7 0.365545 0.970218 0.113814
O O8 0.949241 0.010139 0.924339
O O9 0.775300 0.250000 0.822369
O O10 0.536035 0.040365 0.763717
O O11 0.500000 0.500000 0.500000
O O12 0.585328 0.250000 0.489910
O O13 0.788771 0.496416 0.544423
O O14 0.996314 0.750000 0.264836
O O15 0.664411 0.582272 0.136833
O O16 0.997804 0.475302 0.301815
O O17 0.383414 0.750000 0.990968
O O18 0.500000 0.000000 0.000000
O O19 0.407161 0.250000 0.770329
O O20 0.221168 0.989392 0.706196
O O21 0.992047 0.750000 0.636249
#
# Coordination Sequence:
#
# PCOD9163925 Si02
#       8
#     4   4   4   4   4   4   4   4
#     4  11  24  41  62  91 125 161 204 250 305 371
#     4  10  20  38  61  85 119 162 207 255 305 359
#     4  11  24  40  62  91 122 162 208 256 311 364
#     4  11  23  40  65  94 125 161 201 250 305 367
#     4  11  21  37  60  85 121 162 200 247 304 362
#     4  10  21  34  51  79 116 160 199 240 298 356
#     4  10  22  43  65  87 121 164 212 259 304 358
#     4  12  24  38  62  95 124 156 200 249 307 368
#
# _framework density 19.619208
#
# number of rings (size 3 to 8) (size 9 to 14) (size 15 to 20)
#    0.000    1.250    2.500    3.750    0.000    6.500 
#    0.000    0.625    0.000    0.000    0.000    0.000 
#    0.000    0.000    0.000    0.000    0.000    0.000 
#
# Total GULP energy -178841.084031 kJ/mol
# GULP energy per Si atom -5588.783876 kJ/mol
# Density = 1.957455 g / cm^3
# Si number density = 19.619208 Si / 1000 Ang^3
#
#
#
# Elastic Constant Matrix: (Units=GPa)
#
#
# Indices 1 2 3 4 5 6 
#
# 1 113.6186 44.9198 37.0804 0.0000 18.8460 0.0000
# 2 44.9198 81.6510 43.7606 0.0000 11.0709 0.0000
# 3 37.0804 43.7606 96.6388 0.0000 16.8106 0.0000
# 4 0.0000 0.0000 0.0000 30.0947 0.0000 2.6482
# 5 18.8460 11.0709 16.8106 0.0000 30.1280 0.0000
# 6 0.0000 0.0000 0.0000 2.6482 0.0000 23.3262
#
#
#
# Elastic Compliance Matrix: (Units=1/GPa)
#
#
# Indices 1 2 3 4 5 6 
#
# 1 0.012157 -0.005258 -0.001436 0.000000 -0.004871 0.000000
# 2 -0.005258 0.018562 -0.006394 0.000000 0.000036 0.000000
# 3 -0.001436 -0.006394 0.014651 0.000000 -0.004927 0.000000
# 4 0.000000 0.000000 0.000000 0.033564 0.000000 -0.003811
# 5 -0.004871 0.000036 -0.004927 0.000000 0.038975 0.000000
# 6 0.000000 0.000000 0.000000 -0.003811 0.000000 0.043303
#
#
# Mechanical properties :
#
#
# Convention : Reuss Voigt Hill
#
# Bulk Modulus (GPa) = 52.10084 60.38111 56.24098
# Shear Modulus (GPa) = 25.80171 27.78627 26.79399
#
# Velocity S-wave (km/s) = 3.63040 3.76743 3.69955
# Velocity P-wave (km/s) = 6.64731 7.05465 6.85401
#
# Compressibility (1/GPa) = 0.01919355
#
# Stress axis : x y z
#
# Youngs Moduli (GPa) = 82.25879 53.87415 68.25251
#
# Poissons Ratio (x) = 0.28325 0.09804
# Poissons Ratio (y) = 0.43249 0.43642
# Poissons Ratio (z) = 0.11816 0.34448
#
# Static dielectric constant tensor:
#      x y z
#    x 1.695780 0.000000 -0.009500 
#    y 0.000000 1.660380 0.000000 
#    z -0.009500 0.000000 1.714670 
# 
# From -- ./inp_files/45145.got.cif
#   From: 2010.05.17/outbox.cif.g08.bks.cpg/sg11_23_cif.got.tgz:45145.got - 2010.06.03 12:22:45.
