data_PCOD9163133
_publ_section_title
;
Structure prediction by ZEFSAII (Michael W. Deem and Ramdas Pophale) SiO2 
 PCOD9163133
Probable space group: P 21/M
;
_chemical_formula_sum "Si O2"
_cell_formula_units_Z 20
_cell_length_a 20.995413
_cell_length_b 9.546382
_cell_length_c 5.506351
_cell_angle_alpha 90.000000
_cell_angle_beta 50.798420
_cell_angle_gamma 90.000000
_cell_volume 855.239890
_symmetry_space_group_name_H-M "P 21/M"
_symmetry_group_IT_number 11
_symmetry_cell_setting 'monoclinic'
loop_
_space_group_symop_operation_xyz
x,y,z
-x,1/2+y,-z
-x,-y,-z
x,1/2-y,z
loop_
_atom_site_type_symbol
_atom_site_label
_atom_site_fract_x
_atom_site_fract_y
_atom_site_fract_z
Si Si1 0.658910 0.095411 0.598282
Si Si2 0.562158 0.908264 0.510876
Si Si3 0.819097 0.099580 0.915533
Si Si4 0.976042 0.416717 0.810490
Si Si5 0.264482 0.404108 0.191714
O O1 0.631764 0.250000 0.733539
O O2 0.724581 0.110449 0.223550
O O3 0.585685 0.995070 0.693710
O O4 0.711263 0.020019 0.675086
O O5 0.532447 0.750000 0.622152
O O6 0.500000 0.000000 0.500000
O O7 0.651055 0.892837 0.165969
O O8 0.842590 0.250000 0.740875
O O9 0.877340 0.084675 0.007094
O O10 0.814792 0.962060 0.760816
O O11 0.001055 0.250000 0.754114
O O12 0.000000 0.500000 0.500000
O O13 0.000000 0.500000 0.000000
O O14 0.248261 0.250000 0.335402
#
# Coordination Sequence:
#
# PCOD9163133 Si02
#       5
#     4   4   4   4   4
#     4  10  20  36  59  84 111 151 196 241 299 364
#     4  10  21  37  55  79 113 149 191 242 296 356
#     4   9  21  40  61  84 117 158 201 249 303 370
#     4  11  25  45  68  99 137 178 224 276 335 400
#     4  10  21  36  57  86 115 147 192 247 302 358
#
# _framework density 23.385252999999999
#
# number of rings (size 3 to 8) (size 9 to 14) (size 15 to 20)
#    0.000    2.000    0.000    2.400    2.800    5.600 
#    0.000    0.000    0.000    0.000    0.000    0.000 
#    0.000    0.000    0.000    0.000    0.000    0.000 
#
# Total GULP energy -111494.420326 kJ/mol
# GULP energy per Si atom -5574.721016 kJ/mol
# Density = 2.333203 g / cm^3
# Si number density = 23.385253 Si / 1000 Ang^3
#
#
#
# Elastic Constant Matrix: (Units=GPa)
#
#
# Indices 1 2 3 4 5 6 
#
# 1 146.1702 88.9763 6.5290 0.0000 16.6187 0.0000
# 2 88.9763 238.5614 35.2777 0.0000 23.7537 0.0000
# 3 6.5290 35.2777 50.8830 0.0000 1.5729 0.0000
# 4 0.0000 0.0000 0.0000 17.8987 0.0000 9.4773
# 5 16.6187 23.7537 1.5729 0.0000 31.8967 0.0000
# 6 0.0000 0.0000 0.0000 9.4773 0.0000 41.5992
#
#
#
# Elastic Compliance Matrix: (Units=1/GPa)
#
#
# Indices 1 2 3 4 5 6 
#
# 1 0.009081 -0.003338 0.001220 0.000000 -0.002306 0.000000
# 2 -0.003338 0.006278 -0.003839 0.000000 -0.002747 0.000000
# 3 0.001220 -0.003839 0.022123 0.000000 0.001133 0.000000
# 4 0.000000 0.000000 0.000000 0.063534 0.000000 -0.014475
# 5 -0.002306 -0.002747 0.001133 0.000000 0.034542 0.000000
# 6 0.000000 0.000000 0.000000 -0.014475 0.000000 0.027337
#
#
# Mechanical properties :
#
#
# Convention : Reuss Voigt Hill
#
# Bulk Modulus (GPa) = 39.11133 77.46452 58.28792
# Shear Modulus (GPa) = 27.27302 38.60104 32.93703
#
# Velocity S-wave (km/s) = 3.41874 4.06724 3.75701
# Velocity P-wave (km/s) = 5.68725 7.43329 6.61811
#
# Compressibility (1/GPa) = 0.02556804
#
# Stress axis : x y z
#
# Youngs Moduli (GPa) = 110.12384 159.28883 45.20139
#
# Poissons Ratio (x) = 0.53165 -0.05515
# Poissons Ratio (y) = 0.36756 0.17354
# Poissons Ratio (z) = -0.13437 0.61157
#
# Static dielectric constant tensor:
#      x y z
#    x 1.871100 0.000000 -0.007620 
#    y 0.000000 1.940500 0.000000 
#    z -0.007620 0.000000 2.029300 
# 
# From -- ./inp_files/7448.got.cif
#   From: 2010.05.17/outbox.cif.g08.bks.cpg/sg11_4_cif.got.tgz:7448.got - 2010.06.03 12:22:45.
