data_PCOD9163671
_publ_section_title
;
Structure prediction by ZEFSAII (Michael W. Deem and Ramdas Pophale) SiO2 
 PCOD9163671
Probable space group: P 21/M
;
_chemical_formula_sum "Si O2"
_cell_formula_units_Z 28
_cell_length_a 25.231913
_cell_length_b 8.972842
_cell_length_c 8.475383
_cell_angle_alpha 90.000000
_cell_angle_beta 137.126203
_cell_angle_gamma 90.000000
_cell_volume 1305.553771
_symmetry_space_group_name_H-M "P 21/M"
_symmetry_group_IT_number 11
_symmetry_cell_setting 'monoclinic'
loop_
_space_group_symop_operation_xyz
x,y,z
-x,1/2+y,-z
-x,-y,-z
x,1/2-y,z
loop_
_atom_site_type_symbol
_atom_site_label
_atom_site_fract_x
_atom_site_fract_y
_atom_site_fract_z
Si Si1 0.671840 0.929143 0.438990
Si Si2 0.882163 0.572206 0.419882
Si Si3 0.614398 0.921200 0.838804
Si Si4 0.824826 0.571152 0.950517
Si Si5 0.037044 0.573076 0.926332
Si Si6 0.473713 0.075628 0.689084
Si Si7 0.254466 0.925642 0.709417
O O1 0.669860 0.750000 0.415261
O O2 0.585586 0.975726 0.304726
O O3 0.705439 0.003760 0.356516
O O4 0.735375 0.962022 0.714034
O O5 0.869395 0.750000 0.404629
O O6 0.852620 0.522390 0.184064
O O7 0.829649 0.493218 0.436770
O O8 0.972880 0.544286 0.649476
O O9 0.636921 0.750000 0.917402
O O10 0.576187 0.929416 0.582722
O O11 0.548604 0.975583 0.818566
O O12 0.688739 0.024747 0.024237
O O13 0.834096 0.750000 0.962262
O O14 0.881480 0.497079 0.946659
O O15 0.044764 0.750000 0.964831
O O16 0.000000 0.500000 0.000000
O O17 0.495618 0.250000 0.761169
O O18 0.250109 0.750000 0.684727
#
# Coordination Sequence:
#
# PCOD9163671 Si02
#       7
#     4   4   4   4   4   4   4
#     4  10  21  38  59  82 112 150 188 232 287 340
#     4  10  22  41  62  84 113 151 192 234 286 342
#     4  10  20  37  61  86 115 150 187 232 287 342
#     4  10  21  39  63  87 113 148 191 236 284 340
#     4  11  23  38  59  87 120 155 190 232 283 338
#     4   9  19  37  61  87 113 146 191 236 280 336
#     4  12  25  38  56  84 116 150 191 237 282 335
#
# _framework density 21.446836000000001
#
# number of rings (size 3 to 8) (size 9 to 14) (size 15 to 20)
#    0.000    1.714    0.000    4.286    0.000    9.714 
#    0.000    1.429    0.000    0.000    0.000    0.000 
#    0.000    0.000    0.000    0.000    0.000    0.000 
#
# Total GULP energy -156634.729596 kJ/mol
# GULP energy per Si atom -5594.097486 kJ/mol
# Density = 2.139802 g / cm^3
# Si number density = 21.446836 Si / 1000 Ang^3
#
#
#
# Elastic Constant Matrix: (Units=GPa)
#
#
# Indices 1 2 3 4 5 6 
#
# 1 100.8823 12.5876 -7.8074 0.0000 9.5591 0.0000
# 2 12.5876 10.5311 5.6387 0.0000 5.3839 0.0000
# 3 -7.8074 5.6387 44.0777 0.0000 1.6739 0.0000
# 4 0.0000 0.0000 0.0000 26.8383 0.0000 4.0048
# 5 9.5591 5.3839 1.6739 0.0000 36.3926 0.0000
# 6 0.0000 0.0000 0.0000 4.0048 0.0000 27.5283
#
#
#
# Elastic Compliance Matrix: (Units=1/GPa)
#
#
# Indices 1 2 3 4 5 6 
#
# 1 0.012428 -0.016687 0.004374 0.000000 -0.000997 0.000000
# 2 -0.016687 0.132609 -0.019375 0.000000 -0.014344 0.000000
# 3 0.004374 -0.019375 0.025921 0.000000 0.000525 0.000000
# 4 0.000000 0.000000 0.000000 0.038087 0.000000 -0.005541
# 5 -0.000997 -0.014344 0.000525 0.000000 0.029838 0.000000
# 6 0.000000 0.000000 0.000000 -0.005541 0.000000 0.037132
#
#
# Mechanical properties :
#
#
# Convention : Reuss Voigt Hill
#
# Bulk Modulus (GPa) = 9.29526 19.59210 14.44368
# Shear Modulus (GPa) = 13.32441 27.82333 20.57387
#
# Velocity S-wave (km/s) = 2.49525 3.60574 3.10061
# Velocity P-wave (km/s) = 3.55600 5.14686 4.42353
#
# Compressibility (1/GPa) = 0.10758169
#
# Stress axis : x y z
#
# Youngs Moduli (GPa) = 80.46632 7.54094 38.57946
#
# Poissons Ratio (x) = 0.12583 -0.16874
# Poissons Ratio (y) = 1.34271 0.74748
# Poissons Ratio (z) = -0.35194 0.14611
#
# Static dielectric constant tensor:
#      x y z
#    x 1.749180 0.000000 -0.028040 
#    y 0.000000 1.707340 0.000000 
#    z -0.028040 0.000000 1.828530 
# 
# From -- ./inp_files/28573.got.cif
#   From: 2010.05.17/outbox.cif.g08.bks.cpg/sg11_15_cif.got.tgz:28573.got - 2010.06.03 12:22:45.
