data_PCOD9163852
_publ_section_title
;
Structure prediction by ZEFSAII (Michael W. Deem and Ramdas Pophale) SiO2 
 PCOD9163852
Probable space group: P 21/M
;
_chemical_formula_sum "Si O2"
_cell_formula_units_Z 28
_cell_length_a 10.681199
_cell_length_b 23.876572
_cell_length_c 5.272946
_cell_angle_alpha 90.000000
_cell_angle_beta 87.575540
_cell_angle_gamma 90.000000
_cell_volume 1343.557870
_symmetry_space_group_name_H-M "P 21/M"
_symmetry_group_IT_number 11
_symmetry_cell_setting 'monoclinic'
loop_
_space_group_symop_operation_xyz
x,y,z
-x,1/2+y,-z
-x,-y,-z
x,1/2-y,z
loop_
_atom_site_type_symbol
_atom_site_label
_atom_site_fract_x
_atom_site_fract_y
_atom_site_fract_z
Si Si1 0.265950 0.457551 0.423784
Si Si2 0.620291 0.419677 0.533130
Si Si3 0.889407 0.750000 0.246169
Si Si4 0.521449 0.933558 0.959410
Si Si5 0.977235 0.550085 0.814518
Si Si6 0.125360 0.632215 0.525736
Si Si7 0.946912 0.250000 0.267748
Si Si8 0.135805 0.128176 0.779860
O O1 0.339871 0.514356 0.479465
O O2 0.342020 0.430846 0.182117
O O3 0.122989 0.474115 0.372313
O O4 0.237156 0.411460 0.638546
O O5 0.568085 0.409147 0.255347
O O6 0.740560 0.382577 0.601227
O O7 0.516583 0.410797 0.761358
O O8 0.819623 0.691787 0.208647
O O9 0.942539 0.750000 0.528784
O O10 0.999974 0.750000 0.022704
O O11 0.500000 0.000000 0.000000
O O12 0.102449 0.579528 0.713031
O O13 0.905005 0.601600 0.952889
O O14 0.000000 0.500000 0.000000
O O15 0.124761 0.692134 0.665207
O O16 0.998656 0.629965 0.363605
#
# Coordination Sequence:
#
# PCOD9163852 Si02
#       8
#     4   4   2   4   4   4   2   4
#     4  10  22  36  54  85 114 153 190 232 286 344
#     4  11  23  37  59  83 118 150 194 237 281 342
#     4  10  20  38  56  82 113 149 196 224 281 342
#     4  10  23  38  57  82 112 158 195 231 275 341
#     4  11  21  31  56  84 123 147 178 232 292 349
#     4  10  22  36  55  87 114 151 189 234 293 336
#     4  10  20  38  58  80 115 151 192 232 275 352
#     4  10  21  35  57  82 116 150 186 236 285 347
#
# _framework density 20.840188000000001
#
# number of rings (size 3 to 8) (size 9 to 14) (size 15 to 20)
#    0.000    1.714    1.429    3.429   12.000    2.286 
#    0.000    0.000    0.000    1.714    0.000    0.000 
#    0.000    0.000    0.000    0.000    0.000    0.000 
#
# Total GULP energy -156138.557621 kJ/mol
# GULP energy per Si atom -5576.377058 kJ/mol
# Density = 2.079275 g / cm^3
# Si number density = 20.840188 Si / 1000 Ang^3
#
#
#
# Elastic Constant Matrix: (Units=GPa)
#
#
# Indices 1 2 3 4 5 6 
#
# 1 82.7255 4.3145 15.3043 0.0000 -13.7422 0.0000
# 2 4.3145 80.9871 5.5467 0.0000 1.6578 0.0000
# 3 15.3043 5.5467 73.0287 0.0000 -11.4898 0.0000
# 4 0.0000 0.0000 0.0000 24.2779 0.0000 -0.9091
# 5 -13.7422 1.6578 -11.4898 0.0000 34.2341 0.0000
# 6 0.0000 0.0000 0.0000 -0.9091 0.0000 16.0384
#
#
#
# Elastic Compliance Matrix: (Units=1/GPa)
#
#
# Indices 1 2 3 4 5 6 
#
# 1 0.013271 -0.000667 -0.001992 0.000000 0.004691 0.000000
# 2 -0.000667 0.012476 -0.000998 0.000000 -0.001207 0.000000
# 3 -0.001992 -0.000998 0.014853 0.000000 0.004233 0.000000
# 4 0.000000 0.000000 0.000000 0.041277 0.000000 0.002340
# 5 0.004691 -0.001207 0.004233 0.000000 0.032573 0.000000
# 6 0.000000 0.000000 0.000000 0.002340 0.000000 0.062483
#
#
# Mechanical properties :
#
#
# Convention : Reuss Voigt Hill
#
# Bulk Modulus (GPa) = 30.04261 31.89691 30.96976
# Shear Modulus (GPa) = 25.59618 29.01513 27.30565
#
# Velocity S-wave (km/s) = 3.50839 3.73536 3.62365
# Velocity P-wave (km/s) = 5.55506 5.82603 5.69216
#
# Compressibility (1/GPa) = 0.03328606
#
# Stress axis : x y z
#
# Youngs Moduli (GPa) = 75.35367 80.15266 67.32817
#
# Poissons Ratio (x) = 0.05343 0.13415
# Poissons Ratio (y) = 0.05023 0.06718
# Poissons Ratio (z) = 0.15014 0.07997
#
# Static dielectric constant tensor:
#      x y z
#    x 1.778630 0.000000 0.054010 
#    y 0.000000 1.742610 0.000000 
#    z 0.054010 0.000000 1.837030 
# 
# From -- ./inp_files/5231.got.cif
#   From: 2010.05.17/outbox.cif.g08.bks.cpg/sg11_3_cif.got.tgz:5231.got - 2010.06.03 12:22:45.
