data_PCOD9163247
_publ_section_title
;
Structure prediction by ZEFSAII (Michael W. Deem and Ramdas Pophale) SiO2 
 PCOD9163247
Probable space group: P 21/M
;
_chemical_formula_sum "Si O2"
_cell_formula_units_Z 28
_cell_length_a 16.411255
_cell_length_b 8.700455
_cell_length_c 12.934991
_cell_angle_alpha 90.000000
_cell_angle_beta 124.195383
_cell_angle_gamma 90.000000
_cell_volume 1527.641654
_symmetry_space_group_name_H-M "P 21/M"
_symmetry_group_IT_number 11
_symmetry_cell_setting 'monoclinic'
loop_
_space_group_symop_operation_xyz
x,y,z
-x,1/2+y,-z
-x,-y,-z
x,1/2-y,z
loop_
_atom_site_type_symbol
_atom_site_label
_atom_site_fract_x
_atom_site_fract_y
_atom_site_fract_z
Si Si1 0.415543 0.066388 0.801910
Si Si2 0.372013 0.435241 0.001330
Si Si3 0.731192 0.066240 0.468520
Si Si4 0.956997 0.434314 0.574847
Si Si5 0.002836 0.933111 0.825539
Si Si6 0.793261 0.934279 0.954362
Si Si7 0.208183 0.934477 0.262653
O O1 0.421219 0.250000 0.805570
O O2 0.525454 0.999006 0.881561
O O3 0.350930 0.010710 0.660198
O O4 0.366821 0.017348 0.877137
O O5 0.375970 0.250000 0.006725
O O6 0.280492 0.483153 0.006660
O O7 0.718447 0.250000 0.455407
O O8 0.840370 0.031866 0.502102
O O9 0.734362 0.020417 0.591550
O O10 0.969753 0.250000 0.589932
O O11 0.007781 0.512587 0.709899
O O12 0.000000 0.500000 0.500000
O O13 0.993971 0.750000 0.826482
O O14 0.904383 0.010947 0.800343
O O15 0.100313 0.990988 0.951801
O O16 0.802726 0.750000 0.962434
O O17 0.754311 0.989325 0.815471
O O18 0.209700 0.750000 0.255578
#
# Coordination Sequence:
#
# PCOD9163247 Si02
#       7
#     4   4   4   4   4   4   4
#     4  10  20  36  60  86 110 142 183 228 279 337
#     4   9  21  39  57  82 113 145 179 228 284 333
#     4   9  20  37  57  79 109 148 183 224 280 333
#     4  10  21  36  53  80 115 150 189 233 277 329
#     4  11  22  36  55  81 113 153 192 229 279 333
#     4  11  22  37  58  83 113 148 189 235 283 333
#     4  10  21  39  58  81 113 150 191 234 279 331
#
# _framework density 18.328904999999999
#
# number of rings (size 3 to 8) (size 9 to 14) (size 15 to 20)
#    0.000    2.000    0.000    4.286    2.000    5.143 
#    0.000    0.714    0.000    0.000    0.000    0.000 
#    0.000    0.000    0.000    0.000    0.000    0.000 
#
# Total GULP energy -156383.965480 kJ/mol
# GULP energy per Si atom -5585.141624 kJ/mol
# Density = 1.828719 g / cm^3
# Si number density = 18.328905 Si / 1000 Ang^3
#
#
#
# Elastic Constant Matrix: (Units=GPa)
#
#
# Indices 1 2 3 4 5 6 
#
# 1 37.8126 2.4138 27.6108 0.0000 -8.0023 0.0000
# 2 2.4138 28.4630 14.7888 0.0000 3.3364 0.0000
# 3 27.6108 14.7888 111.8799 0.0000 5.4152 0.0000
# 4 0.0000 0.0000 0.0000 34.7366 0.0000 -1.8808
# 5 -8.0023 3.3364 5.4152 0.0000 18.7108 0.0000
# 6 0.0000 0.0000 0.0000 -1.8808 0.0000 26.3588
#
#
#
# Elastic Compliance Matrix: (Units=1/GPa)
#
#
# Indices 1 2 3 4 5 6 
#
# 1 0.038065 -0.000132 -0.010310 0.000000 0.019287 0.000000
# 2 -0.000132 0.038262 -0.004759 0.000000 -0.005502 0.000000
# 3 -0.010310 -0.004759 0.012458 0.000000 -0.007167 0.000000
# 4 0.000000 0.000000 0.000000 0.028900 0.000000 0.002062
# 5 0.019287 -0.005502 -0.007167 0.000000 0.064749 0.000000
# 6 0.000000 0.000000 0.000000 0.002062 0.000000 0.038085
#
#
# Mechanical properties :
#
#
# Convention : Reuss Voigt Hill
#
# Bulk Modulus (GPa) = 17.12808 29.75358 23.44083
# Shear Modulus (GPa) = 18.49233 24.85071 21.67152
#
# Velocity S-wave (km/s) = 3.17979 3.68614 3.44229
# Velocity P-wave (km/s) = 4.77981 5.86389 5.34938
#
# Compressibility (1/GPa) = 0.05838367
#
# Stress axis : x y z
#
# Youngs Moduli (GPa) = 26.27097 26.13554 80.26649
#
# Poissons Ratio (x) = 0.00345 0.82756
# Poissons Ratio (y) = 0.00347 0.38197
# Poissons Ratio (z) = 0.27086 0.12437
#
# Static dielectric constant tensor:
#      x y z
#    x 1.618680 0.000000 -0.026600 
#    y 0.000000 1.613050 0.000000 
#    z -0.026600 0.000000 1.632890 
# 
# From -- ./inp_files/38452.got.cif
#   From: 2010.05.17/outbox.cif.g08.bks.cpg/sg11_20_cif.got.tgz:38452.got - 2010.06.03 12:22:45.
