data_PCOD9163100
_publ_section_title
;
Structure prediction by ZEFSAII (Michael W. Deem and Ramdas Pophale) SiO2 
 PCOD9163100
Probable space group: P 21/M
;
_chemical_formula_sum "Si O2"
_cell_formula_units_Z 28
_cell_length_a 15.106812
_cell_length_b 9.311051
_cell_length_c 20.433022
_cell_angle_alpha 90.000000
_cell_angle_beta 152.464213
_cell_angle_gamma 90.000000
_cell_volume 1328.710670
_symmetry_space_group_name_H-M "P 21/M"
_symmetry_group_IT_number 11
_symmetry_cell_setting 'monoclinic'
loop_
_space_group_symop_operation_xyz
x,y,z
-x,1/2+y,-z
-x,-y,-z
x,1/2-y,z
loop_
_atom_site_type_symbol
_atom_site_label
_atom_site_fract_x
_atom_site_fract_y
_atom_site_fract_z
Si Si1 0.405630 0.078112 0.608445
Si Si2 0.804159 0.580016 0.893920
Si Si3 0.654176 0.410737 0.183463
Si Si4 0.966785 0.586013 0.137263
Si Si5 0.222921 0.091257 0.847180
Si Si6 0.805632 0.578380 0.395877
Si Si7 0.314808 0.081449 0.402798
O O1 0.443971 0.250000 0.637089
O O2 0.274654 0.039494 0.585004
O O3 0.298137 0.049739 0.469507
O O4 0.608774 0.995176 0.742471
O O5 0.808669 0.750000 0.879618
O O6 0.000000 0.500000 0.000000
O O7 0.813512 0.569469 0.979370
O O8 0.708185 0.250000 0.239720
O O9 0.795447 0.471894 0.220352
O O10 0.654486 0.520462 0.243460
O O11 0.445385 0.403865 0.014369
O O12 0.040999 0.750000 0.180584
O O13 0.138178 0.475073 0.244889
O O14 0.883488 0.566280 0.154825
O O15 0.170643 0.250000 0.787066
O O16 0.826672 0.750000 0.406517
O O17 0.000000 0.500000 0.500000
O O18 0.337281 0.250000 0.409667
O O19 0.500000 0.000000 0.500000
#
# Coordination Sequence:
#
# PCOD9163100 Si02
#       7
#     4   4   4   4   4   4   4
#     4  10  24  44  64  90 128 166 209 262 315 371
#     4  11  23  40  65  95 127 162 206 257 315 378
#     4  10  20  36  58  85 120 156 197 247 299 355
#     4  10  22  39  60  88 121 155 199 252 302 361
#     4   9  19  36  58  85 116 154 197 245 300 357
#     4  11  24  41  61  87 122 164 210 259 310 368
#     4  11  24  42  63  90 123 161 204 253 310 371
#
# _framework density 21.073059000000001
#
# number of rings (size 3 to 8) (size 9 to 14) (size 15 to 20)
#    0.000    1.714    0.000    3.429    2.000    9.143 
#    0.000    0.000    0.000    0.000    0.000    0.000 
#    0.000    0.000    0.000    0.000    0.000    0.000 
#
# Total GULP energy -156428.291719 kJ/mol
# GULP energy per Si atom -5586.724704 kJ/mol
# Density = 2.102510 g / cm^3
# Si number density = 21.073059 Si / 1000 Ang^3
#
#
#
# Elastic Constant Matrix: (Units=GPa)
#
#
# Indices 1 2 3 4 5 6 
#
# 1 72.4980 38.2061 -2.3178 0.0000 -2.3497 0.0000
# 2 38.2061 66.3984 23.6077 0.0000 3.5192 0.0000
# 3 -2.3178 23.6077 54.2406 0.0000 -1.3441 0.0000
# 4 0.0000 0.0000 0.0000 35.0031 0.0000 -1.5635
# 5 -2.3497 3.5192 -1.3441 0.0000 30.7947 0.0000
# 6 0.0000 0.0000 0.0000 -1.5635 0.0000 30.4306
#
#
#
# Elastic Compliance Matrix: (Units=1/GPa)
#
#
# Indices 1 2 3 4 5 6 
#
# 1 0.022683 -0.016137 0.008090 0.000000 0.003928 0.000000
# 2 -0.016137 0.029473 -0.013646 0.000000 -0.005195 0.000000
# 3 0.008090 -0.013646 0.024802 0.000000 0.003259 0.000000
# 4 0.000000 0.000000 0.000000 0.028635 0.000000 0.001471
# 5 0.003928 -0.005195 0.003259 0.000000 0.033509 0.000000
# 6 0.000000 0.000000 0.000000 0.001471 0.000000 0.032937
#
#
# Mechanical properties :
#
#
# Convention : Reuss Voigt Hill
#
# Bulk Modulus (GPa) = 29.78597 34.68099 32.23348
# Shear Modulus (GPa) = 22.06378 28.15511 25.10944
#
# Velocity S-wave (km/s) = 3.23927 3.65920 3.45562
# Velocity P-wave (km/s) = 5.30620 5.86056 5.59026
#
# Compressibility (1/GPa) = 0.03357285
#
# Stress axis : x y z
#
# Youngs Moduli (GPa) = 44.08503 33.92939 40.31908
#
# Poissons Ratio (x) = 0.54751 -0.32618
# Poissons Ratio (y) = 0.71139 0.55020
# Poissons Ratio (z) = -0.35665 0.46300
#
# Static dielectric constant tensor:
#      x y z
#    x 1.807030 0.000000 -0.007920 
#    y 0.000000 1.731660 0.000000 
#    z -0.007920 0.000000 1.767660 
# 
# From -- ./inp_files/65389.got.cif
#   From: 2010.05.17/outbox.cif.g08.bks.cpg/sg11_33_cif.got.tgz:65389.got - 2010.06.03 12:22:45.
