data_PCOD9163244
_publ_section_title
;
Structure prediction by ZEFSAII (Michael W. Deem and Ramdas Pophale) SiO2 
 PCOD9163244
Probable space group: P 21/M
;
_chemical_formula_sum "Si O2"
_cell_formula_units_Z 28
_cell_length_a 20.521738
_cell_length_b 9.386519
_cell_length_c 7.966570
_cell_angle_alpha 90.000000
_cell_angle_beta 125.957678
_cell_angle_gamma 90.000000
_cell_volume 1242.168792
_symmetry_space_group_name_H-M "P 21/M"
_symmetry_group_IT_number 11
_symmetry_cell_setting 'monoclinic'
loop_
_space_group_symop_operation_xyz
x,y,z
-x,1/2+y,-z
-x,-y,-z
x,1/2-y,z
loop_
_atom_site_type_symbol
_atom_site_label
_atom_site_fract_x
_atom_site_fract_y
_atom_site_fract_z
Si Si1 0.163176 0.084322 0.179469
Si Si2 0.107376 0.909894 0.557839
Si Si3 0.601505 0.584557 0.015798
Si Si4 0.319342 0.411017 0.233647
Si Si5 0.545170 0.079609 0.415901
Si Si6 0.263869 0.584692 0.609482
Si Si7 0.971372 0.086041 0.193985
O O1 0.152528 0.250000 0.205261
O O2 0.223944 0.076323 0.111482
O O3 0.213566 0.002046 0.396375
O O4 0.079789 0.009061 0.010420
O O5 0.084814 0.750000 0.464118
O O6 0.202601 0.922010 0.675910
O O7 0.077691 0.920684 0.703524
O O8 0.057965 0.022819 0.373233
O O9 0.603836 0.750000 0.073953
O O10 0.651780 0.485449 0.214695
O O11 0.648667 0.575598 0.907334
O O12 0.509814 0.545207 0.828667
O O13 0.341161 0.250000 0.322718
O O14 0.365276 0.521241 0.424192
O O15 0.542680 0.250000 0.432168
O O16 0.500000 0.000000 0.500000
O O17 0.274124 0.750000 0.578154
O O18 0.975289 0.250000 0.146534
#
# Coordination Sequence:
#
# PCOD9163244 Si02
#       7
#     4   4   4   4   4   4   4
#     4  11  23  38  55  77 110 147 179 218 269 319
#     4   9  20  38  58  82 110 138 173 219 268 315
#     4   9  18  34  55  80 108 137 173 218 269 319
#     4   9  19  35  56  81 107 139 180 223 268 318
#     4   9  17  30  52  81 110 139 175 221 269 317
#     4  11  23  37  54  78 108 143 182 220 261 315
#     4  10  20  36  60  86 108 135 176 221 265 318
#
# _framework density 22.541222000000001
#
# number of rings (size 3 to 8) (size 9 to 14) (size 15 to 20)
#    0.000    2.286    0.000    3.429    0.000    6.286 
#    0.000    0.714    0.000    0.000    0.000    0.000 
#    0.000    0.000    0.000    0.000    0.000    0.000 
#
# Total GULP energy -156503.198404 kJ/mol
# GULP energy per Si atom -5589.399943 kJ/mol
# Density = 2.248992 g / cm^3
# Si number density = 22.541222 Si / 1000 Ang^3
#
#
#
# Elastic Constant Matrix: (Units=GPa)
#
#
# Indices 1 2 3 4 5 6 
#
# 1 68.9138 3.5975 2.2436 0.0000 13.2496 0.0000
# 2 3.5975 155.5416 96.9343 0.0000 21.8841 0.0000
# 3 2.2436 96.9343 114.3217 0.0000 23.8717 0.0000
# 4 0.0000 0.0000 0.0000 46.6633 0.0000 8.5435
# 5 13.2496 21.8841 23.8717 0.0000 36.1527 0.0000
# 6 0.0000 0.0000 0.0000 8.5435 0.0000 19.0968
#
#
#
# Elastic Compliance Matrix: (Units=1/GPa)
#
#
# Indices 1 2 3 4 5 6 
#
# 1 0.015720 -0.000219 0.001221 0.000000 -0.006435 0.000000
# 2 -0.000219 0.013652 -0.011440 0.000000 -0.000630 0.000000
# 3 0.001221 -0.011440 0.019801 0.000000 -0.006597 0.000000
# 4 0.000000 0.000000 0.000000 0.023342 0.000000 -0.010443
# 5 -0.006435 -0.000630 -0.006597 0.000000 0.034756 0.000000
# 6 0.000000 0.000000 0.000000 -0.010443 0.000000 0.057037
#
#
# Mechanical properties :
#
#
# Convention : Reuss Voigt Hill
#
# Bulk Modulus (GPa) = 35.34013 60.48088 47.91051
# Shear Modulus (GPa) = 25.69154 36.11601 30.90378
#
# Velocity S-wave (km/s) = 3.37969 4.00712 3.70670
# Velocity P-wave (km/s) = 5.56254 6.94973 6.29447
#
# Compressibility (1/GPa) = 0.02829644
#
# Stress axis : x y z
#
# Youngs Moduli (GPa) = 63.61434 73.24732 50.50250
#
# Poissons Ratio (x) = 0.01605 -0.06166
# Poissons Ratio (y) = 0.01394 0.57776
# Poissons Ratio (z) = -0.07767 0.83796
#
# Static dielectric constant tensor:
#      x y z
#    x 1.921070 0.000000 -0.024660 
#    y 0.000000 1.774900 0.000000 
#    z -0.024660 0.000000 1.786560 
# 
# From -- ./inp_files/28578.got.cif
#   From: 2010.05.17/outbox.cif.g08.bks.cpg/sg11_15_cif.got.tgz:28578.got - 2010.06.03 12:22:45.
