data_PCOD9163284
_publ_section_title
;
Structure prediction by ZEFSAII (Michael W. Deem and Ramdas Pophale) SiO2 
 PCOD9163284
Probable space group: P 21/M
;
_chemical_formula_sum "Si O2"
_cell_formula_units_Z 32
_cell_length_a 14.209089
_cell_length_b 8.288011
_cell_length_c 12.541115
_cell_angle_alpha 90.000000
_cell_angle_beta 90.198589
_cell_angle_gamma 90.000000
_cell_volume 1476.896614
_symmetry_space_group_name_H-M "P 21/M"
_symmetry_group_IT_number 11
_symmetry_cell_setting 'monoclinic'
loop_
_space_group_symop_operation_xyz
x,y,z
-x,1/2+y,-z
-x,-y,-z
x,1/2-y,z
loop_
_atom_site_type_symbol
_atom_site_label
_atom_site_fract_x
_atom_site_fract_y
_atom_site_fract_z
Si Si1 0.107414 0.055425 0.480218
Si Si2 0.607537 0.056065 0.479454
Si Si3 0.208735 0.935639 0.118710
Si Si4 0.566803 0.056431 0.249642
Si Si5 0.847157 0.941570 0.294455
Si Si6 0.945576 0.560649 0.745049
Si Si7 0.651823 0.558533 0.703237
Si Si8 0.283269 0.058475 0.895556
O O1 0.114033 0.250000 0.484399
O O2 0.162653 0.991366 0.584402
O O3 0.119359 0.008523 0.356861
O O4 0.000000 0.000000 0.500000
O O5 0.612136 0.250000 0.483473
O O6 0.622352 0.001786 0.357344
O O7 0.500000 0.000000 0.500000
O O8 0.665417 0.984930 0.578551
O O9 0.182090 0.750000 0.117254
O O10 0.115095 0.032940 0.150011
O O11 0.283779 0.968997 0.212137
O O12 0.254472 0.983713 0.007206
O O13 0.575069 0.250000 0.242794
O O14 0.456985 0.020643 0.267938
O O15 0.612238 0.979076 0.145930
O O16 0.828659 0.750000 0.299319
O O17 0.782907 0.008862 0.199906
O O18 0.955904 0.968700 0.261623
O O19 0.966289 0.750000 0.732283
O O20 0.667124 0.750000 0.714867
O O21 0.270818 0.250000 0.904493
#
# Coordination Sequence:
#
# PCOD9163284 Si02
#       8
#     4   4   4   4   4   4   4   4
#     4   8  15  30  54  84 115 144 177 221 274 334
#     4   9  17  32  56  88 122 154 190 231 281 341
#     4  12  26  42  59  80 111 151 195 243 291 345
#     4   9  20  38  60  87 119 152 186 231 285 339
#     4   9  19  37  59  85 116 149 186 228 279 336
#     4  10  20  36  60  88 117 149 185 229 283 341
#     4  10  21  39  62  87 117 151 190 239 290 343
#     4  11  24  40  59  83 112 150 198 245 285 336
#
# _framework density 21.667055000000001
#
# number of rings (size 3 to 8) (size 9 to 14) (size 15 to 20)
#    0.000    2.250    0.000    3.375    0.000    6.500 
#    0.000    1.250    0.000    0.000    0.000    0.000 
#    0.000    0.000    0.000    0.000    0.000    0.000 
#
# Total GULP energy -178671.132631 kJ/mol
# GULP energy per Si atom -5583.472895 kJ/mol
# Density = 2.161774 g / cm^3
# Si number density = 21.667055 Si / 1000 Ang^3
#
#
#
# Elastic Constant Matrix: (Units=GPa)
#
#
# Indices 1 2 3 4 5 6 
#
# 1 35.1405 -4.9561 17.7827 0.0000 -3.6712 0.0000
# 2 -4.9561 17.8815 2.6928 0.0000 3.8979 0.0000
# 3 17.7827 2.6928 106.5488 0.0000 -21.9697 0.0000
# 4 0.0000 0.0000 0.0000 29.1096 0.0000 -0.1028
# 5 -3.6712 3.8979 -21.9697 0.0000 29.9099 0.0000
# 6 0.0000 0.0000 0.0000 -0.1028 0.0000 20.2560
#
#
#
# Elastic Compliance Matrix: (Units=1/GPa)
#
#
# Indices 1 2 3 4 5 6 
#
# 1 0.032833 0.010419 -0.006119 0.000000 -0.001822 0.000000
# 2 0.010419 0.062019 -0.005550 0.000000 -0.010880 0.000000
# 3 -0.006119 -0.005550 0.012423 0.000000 0.009097 0.000000
# 4 0.000000 0.000000 0.000000 0.034353 0.000000 0.000174
# 5 -0.001822 -0.010880 0.009097 0.000000 0.041310 0.000000
# 6 0.000000 0.000000 0.000000 0.000174 0.000000 0.049369
#
#
# Mechanical properties :
#
#
# Convention : Reuss Voigt Hill
#
# Bulk Modulus (GPa) = 9.54428 21.17884 15.36156
# Shear Modulus (GPa) = 18.53702 25.45855 21.99778
#
# Velocity S-wave (km/s) = 2.92813 3.43153 3.18978
# Velocity P-wave (km/s) = 3.98077 5.04940 4.54659
#
# Compressibility (1/GPa) = 0.10477475
#
# Stress axis : x y z
#
# Youngs Moduli (GPa) = 30.45750 16.12412 80.49879
#
# Poissons Ratio (x) = -0.16799 0.49255
# Poissons Ratio (y) = -0.31733 0.44674
# Poissons Ratio (z) = 0.18636 0.08948
#
# Static dielectric constant tensor:
#      x y z
#    x 1.796850 0.000000 0.013850 
#    y 0.000000 1.742020 0.000000 
#    z 0.013850 0.000000 1.800580 
# 
# From -- ./inp_files/38180.got.cif
#   From: 2010.05.17/outbox.cif.g08.bks.cpg/sg11_20_cif.got.tgz:38180.got - 2010.06.03 12:22:45.
