data_PCOD9163498
_publ_section_title
;
Structure prediction by ZEFSAII (Michael W. Deem and Ramdas Pophale) SiO2 
 PCOD9163498
Probable space group: P 21/M
;
_chemical_formula_sum "Si O2"
_cell_formula_units_Z 28
_cell_length_a 9.258566
_cell_length_b 17.700821
_cell_length_c 16.255376
_cell_angle_alpha 90.000000
_cell_angle_beta 146.177926
_cell_angle_gamma 90.000000
_cell_volume 1482.824067
_symmetry_space_group_name_H-M "P 21/M"
_symmetry_group_IT_number 11
_symmetry_cell_setting 'monoclinic'
loop_
_space_group_symop_operation_xyz
x,y,z
-x,1/2+y,-z
-x,-y,-z
x,1/2-y,z
loop_
_atom_site_type_symbol
_atom_site_label
_atom_site_fract_x
_atom_site_fract_y
_atom_site_fract_z
Si Si1 0.808360 0.162281 0.990486
Si Si2 0.569527 0.990973 0.628515
Si Si3 0.298506 0.518886 0.785773
Si Si4 0.869910 0.331980 0.362681
Si Si5 0.830814 0.489974 0.092242
Si Si6 0.652741 0.905022 0.334499
Si Si7 0.590736 0.834088 0.724022
O O1 0.757675 0.250000 0.988716
O O2 0.788653 0.099844 0.054097
O O3 0.109911 0.157585 0.105435
O O4 0.601778 0.134439 0.824759
O O5 0.530058 0.903885 0.635995
O O6 0.873806 0.007959 0.786980
O O7 0.500000 0.000000 0.500000
O O8 0.416148 0.045443 0.617895
O O9 0.154945 0.597688 0.709017
O O10 0.225680 0.487904 0.840607
O O11 0.238049 0.462334 0.683211
O O12 0.610556 0.529145 0.932996
O O13 0.878346 0.250000 0.326541
O O14 0.617621 0.336495 0.301641
O O15 0.126413 0.345593 0.537825
O O16 0.571814 0.750000 0.676705
#
# Coordination Sequence:
#
# PCOD9163498 Si02
#       7
#     4   4   4   4   4   4   4
#     4   9  19  37  58  82 113 148 184 230 283 336
#     4  11  22  36  58  86 116 150 194 236 289 329
#     4  10  20  37  58  84 114 146 189 234 280 335
#     4  11  22  35  56  84 112 148 189 235 286 337
#     4   9  21  35  57  86 113 149 186 232 280 339
#     4  11  22  35  60  84 114 146 191 238 277 340
#     4   9  20  37  57  81 113 150 186 228 286 343
#
# _framework density 18.882888000000001
#
# number of rings (size 3 to 8) (size 9 to 14) (size 15 to 20)
#    0.000    2.000    1.429    1.714    4.000    2.286 
#    0.000    4.286    0.000    0.857    0.000    0.000 
#    0.000    0.000    0.000    0.000    0.000    0.000 
#
# Total GULP energy -156145.296587 kJ/mol
# GULP energy per Si atom -5576.617735 kJ/mol
# Density = 1.883991 g / cm^3
# Si number density = 18.882888 Si / 1000 Ang^3
#
#
#
# Elastic Constant Matrix: (Units=GPa)
#
#
# Indices 1 2 3 4 5 6 
#
# 1 45.1318 10.0831 7.7875 0.0000 5.6428 0.0000
# 2 10.0831 82.6658 26.7145 0.0000 3.5458 0.0000
# 3 7.7875 26.7145 58.2796 0.0000 9.2011 0.0000
# 4 0.0000 0.0000 0.0000 19.9225 0.0000 4.8386
# 5 5.6428 3.5458 9.2011 0.0000 25.9478 0.0000
# 6 0.0000 0.0000 0.0000 4.8386 0.0000 17.5279
#
#
#
# Elastic Compliance Matrix: (Units=1/GPa)
#
#
# Indices 1 2 3 4 5 6 
#
# 1 0.023435 -0.002208 -0.001443 0.000000 -0.004283 0.000000
# 2 -0.002208 0.014412 -0.006436 0.000000 0.000793 0.000000
# 3 -0.001443 -0.006436 0.021306 0.000000 -0.006362 0.000000
# 4 0.000000 0.000000 0.000000 0.053802 0.000000 -0.014852
# 5 -0.004283 0.000793 -0.006362 0.000000 0.041618 0.000000
# 6 0.000000 0.000000 0.000000 -0.014852 0.000000 0.061152
#
#
# Mechanical properties :
#
#
# Convention : Reuss Voigt Hill
#
# Bulk Modulus (GPa) = 25.65556 30.58302 28.11929
# Shear Modulus (GPa) = 20.08892 22.11245 21.10068
#
# Velocity S-wave (km/s) = 3.26524 3.42575 3.34645
# Velocity P-wave (km/s) = 5.27559 5.64615 5.46401
#
# Compressibility (1/GPa) = 0.03897791
#
# Stress axis : x y z
#
# Youngs Moduli (GPa) = 42.67080 69.38523 46.93456
#
# Poissons Ratio (x) = 0.15323 0.06773
# Poissons Ratio (y) = 0.09424 0.30209
# Poissons Ratio (z) = 0.06157 0.44660
#
# Static dielectric constant tensor:
#      x y z
#    x 1.643990 0.000000 0.028260 
#    y 0.000000 1.662240 0.000000 
#    z 0.028260 0.000000 1.677230 
# 
# From -- ./inp_files/48018.got.cif
#   From: 2010.05.17/outbox.cif.g08.bks.cpg/sg11_25_cif.got.tgz:48018.got - 2010.06.03 12:22:45.
