data_PCOD9163311
_publ_section_title
;
Structure prediction by ZEFSAII (Michael W. Deem and Ramdas Pophale) SiO2 
 PCOD9163311
Probable space group: P 21/M
;
_chemical_formula_sum "Si O2"
_cell_formula_units_Z 32
_cell_length_a 11.269483
_cell_length_b 16.372626
_cell_length_c 14.502630
_cell_angle_alpha 90.000000
_cell_angle_beta 149.333394
_cell_angle_gamma 90.000000
_cell_volume 1364.818083
_symmetry_space_group_name_H-M "P 21/M"
_symmetry_group_IT_number 11
_symmetry_cell_setting 'monoclinic'
loop_
_space_group_symop_operation_xyz
x,y,z
-x,1/2+y,-z
-x,-y,-z
x,1/2-y,z
loop_
_atom_site_type_symbol
_atom_site_label
_atom_site_fract_x
_atom_site_fract_y
_atom_site_fract_z
Si Si1 0.082110 0.601230 0.269280
Si Si2 0.614045 0.106508 0.988520
Si Si3 0.383162 0.348390 0.565160
Si Si4 0.101286 0.843465 0.080090
Si Si5 0.561889 0.912197 0.937776
Si Si6 0.901011 0.586072 0.779498
Si Si7 0.146231 0.155577 0.581204
Si Si8 0.712658 0.151679 0.410056
O O1 0.087581 0.654468 0.180873
O O2 0.101742 0.508971 0.246212
O O3 0.265663 0.619422 0.471778
O O4 0.824125 0.612774 0.138343
O O5 0.395948 0.152674 0.798417
O O6 0.558495 0.010409 0.935387
O O7 0.606880 0.119490 0.094030
O O8 0.862602 0.123419 0.108520
O O9 0.386694 0.250000 0.572034
O O10 0.638796 0.376573 0.765044
O O11 0.314266 0.374507 0.417247
O O12 0.197035 0.381899 0.514636
O O13 0.079400 0.750000 0.033724
O O14 0.920603 0.895997 0.900619
O O15 0.495892 0.878418 0.793736
O O16 0.080993 0.250000 0.523047
O O17 0.941659 0.120351 0.506877
O O18 0.712124 0.250000 0.414474
#
# Coordination Sequence:
#
# PCOD9163311 Si02
#       8
#     4   4   4   4   4   4   4   4
#     4  11  25  42  62  92 125 164 206 258 305 365
#     4  10  20  39  62  95 127 159 201 251 307 364
#     4  10  22  39  61  92 122 157 203 256 313 364
#     4  11  24  43  63  85 122 163 206 260 310 366
#     4  10  23  40  62  93 126 166 204 245 305 371
#     4  11  23  39  67  94 120 160 206 258 312 369
#     4  10  20  36  60  89 124 160 198 250 306 360
#     4  11  24  40  61  90 124 167 209 249 305 369
#
# _framework density 23.446348
#
# number of rings (size 3 to 8) (size 9 to 14) (size 15 to 20)
#    0.000    1.500    2.500    1.875    1.750    4.000 
#    0.000    0.000    0.000    0.000    0.000    0.000 
#    0.000    0.000    0.000    0.000    0.000    0.000 
#
# Total GULP energy -178965.273164 kJ/mol
# GULP energy per Si atom -5592.664786 kJ/mol
# Density = 2.339298 g / cm^3
# Si number density = 23.446348 Si / 1000 Ang^3
#
#
#
# Elastic Constant Matrix: (Units=GPa)
#
#
# Indices 1 2 3 4 5 6 
#
# 1 64.3498 9.7974 3.5614 0.0000 -25.1226 0.0000
# 2 9.7974 19.0564 15.5370 0.0000 -6.8465 0.0000
# 3 3.5614 15.5370 106.9668 0.0000 -41.4122 0.0000
# 4 0.0000 0.0000 0.0000 25.9847 0.0000 -8.9555
# 5 -25.1226 -6.8465 -41.4122 0.0000 41.8881 0.0000
# 6 0.0000 0.0000 0.0000 -8.9555 0.0000 19.6074
#
#
#
# Elastic Compliance Matrix: (Units=1/GPa)
#
#
# Indices 1 2 3 4 5 6 
#
# 1 0.026245 -0.013326 0.010227 0.000000 0.023673 0.000000
# 2 -0.013326 0.066386 -0.013111 0.000000 -0.010103 0.000000
# 3 0.010227 -0.013111 0.020182 0.000000 0.023944 0.000000
# 4 0.000000 0.000000 0.000000 0.045674 0.000000 0.020861
# 5 0.023673 -0.010103 0.023944 0.000000 0.060092 0.000000
# 6 0.000000 0.000000 0.000000 0.020861 0.000000 0.060529
#
#
# Mechanical properties :
#
#
# Convention : Reuss Voigt Hill
#
# Bulk Modulus (GPa) = 12.43872 27.57386 20.00629
# Shear Modulus (GPa) = 14.77862 28.26119 21.51990
#
# Velocity S-wave (km/s) = 2.51333 3.47559 3.03287
# Velocity P-wave (km/s) = 3.70664 5.28131 4.56242
#
# Compressibility (1/GPa) = 0.08039415
#
# Stress axis : x y z
#
# Youngs Moduli (GPa) = 38.10218 15.06332 49.54822
#
# Poissons Ratio (x) = 0.20074 -0.50673
# Poissons Ratio (y) = 0.50776 0.64960
# Poissons Ratio (z) = -0.38967 0.19749
#
# Static dielectric constant tensor:
#      x y z
#    x 1.965170 0.000000 0.015500 
#    y 0.000000 1.851210 0.000000 
#    z 0.015500 0.000000 1.842630 
# 
# From -- ./inp_files/50744.got.cif
#   From: 2010.05.17/outbox.cif.g08.bks.cpg/sg11_26_cif.got.tgz:50744.got - 2010.06.03 12:22:45.
