data_PCOD9163797
_publ_section_title
;
Structure prediction by ZEFSAII (Michael W. Deem and Ramdas Pophale) SiO2 
 PCOD9163797
Probable space group: P 21/M
;
_chemical_formula_sum "Si O2"
_cell_formula_units_Z 32
_cell_length_a 15.535593
_cell_length_b 8.794130
_cell_length_c 11.802718
_cell_angle_alpha 90.000000
_cell_angle_beta 94.373128
_cell_angle_gamma 90.000000
_cell_volume 1607.816601
_symmetry_space_group_name_H-M "P 21/M"
_symmetry_group_IT_number 11
_symmetry_cell_setting 'monoclinic'
loop_
_space_group_symop_operation_xyz
x,y,z
-x,1/2+y,-z
-x,-y,-z
x,1/2-y,z
loop_
_atom_site_type_symbol
_atom_site_label
_atom_site_fract_x
_atom_site_fract_y
_atom_site_fract_z
Si Si1 0.916445 0.072701 0.931622
Si Si2 0.540067 0.431463 0.325111
Si Si3 0.186631 0.430510 0.470638
Si Si4 0.156015 0.570198 0.699615
Si Si5 0.424178 0.068280 0.916220
Si Si6 0.373953 0.067709 0.442791
Si Si7 0.969581 0.073580 0.676722
Si Si8 0.771189 0.931926 0.061273
O O1 0.911363 0.250000 0.963402
O O2 0.931275 0.062527 0.799200
O O3 0.830658 0.988980 0.964953
O O4 0.000000 0.000000 0.000000
O O5 0.547941 0.250000 0.314566
O O6 0.568254 0.508103 0.211411
O O7 0.594045 0.486991 0.439376
O O8 0.440883 0.469544 0.349520
O O9 0.172332 0.250000 0.463349
O O10 0.201114 0.482222 0.601068
O O11 0.274105 0.469317 0.411763
O O12 0.103504 0.516932 0.415696
O O13 0.169088 0.750000 0.691103
O O14 0.190836 0.509016 0.822033
O O15 0.055112 0.527495 0.680499
O O16 0.431222 0.250000 0.916170
O O17 0.329723 0.028588 0.956113
O O18 0.500000 0.000000 0.000000
O O19 0.379389 0.250000 0.462019
O O20 0.992633 0.250000 0.656807
O O21 0.779360 0.750000 0.072630
#
# Coordination Sequence:
#
# PCOD9163797 Si02
#       8
#     4   4   4   4   4   4   4   4
#     4  11  23  40  65  92 122 159 204 255 303 359
#     4  10  20  37  63  91 120 155 200 250 301 361
#     4  11  23  39  59  85 122 161 200 246 301 363
#     4  12  24  39  62  89 120 158 202 249 302 362
#     4  11  25  43  63  89 124 164 204 253 310 367
#     4   9  20  38  60  88 120 158 199 244 301 362
#     4  11  24  41  60  86 121 158 199 248 302 360
#     4  11  24  42  65  92 123 161 206 254 307 366
#
# _framework density 19.902767000000001
#
# number of rings (size 3 to 8) (size 9 to 14) (size 15 to 20)
#    0.000    1.250    1.250    4.500    0.000    9.000 
#    0.000    3.750    0.000    0.000    0.000    0.000 
#    0.000    0.000    0.000    0.000    0.000    0.000 
#
# Total GULP energy -178986.510878 kJ/mol
# GULP energy per Si atom -5593.328465 kJ/mol
# Density = 1.985747 g / cm^3
# Si number density = 19.902767 Si / 1000 Ang^3
#
#
#
# Elastic Constant Matrix: (Units=GPa)
#
#
# Indices 1 2 3 4 5 6 
#
# 1 116.4774 25.3739 11.5107 0.0000 -14.5055 0.0000
# 2 25.3739 50.2739 14.9862 0.0000 -3.2483 0.0000
# 3 11.5107 14.9862 33.7289 0.0000 -12.0779 0.0000
# 4 0.0000 0.0000 0.0000 33.3867 0.0000 -0.8506
# 5 -14.5055 -3.2483 -12.0779 0.0000 25.4339 0.0000
# 6 0.0000 0.0000 0.0000 -0.8506 0.0000 29.5036
#
#
#
# Elastic Compliance Matrix: (Units=1/GPa)
#
#
# Indices 1 2 3 4 5 6 
#
# 1 0.010311 -0.005060 0.000728 0.000000 0.005580 0.000000
# 2 -0.005060 0.025524 -0.011422 0.000000 -0.005050 0.000000
# 3 0.000728 -0.011422 0.041088 0.000000 0.018468 0.000000
# 4 0.000000 0.000000 0.000000 0.029974 0.000000 0.000864
# 5 0.005580 -0.005050 0.018468 0.000000 0.050625 0.000000
# 6 0.000000 0.000000 0.000000 0.000864 0.000000 0.033919
#
#
# Mechanical properties :
#
#
# Convention : Reuss Voigt Hill
#
# Bulk Modulus (GPa) = 22.02023 33.80244 27.91134
# Shear Modulus (GPa) = 21.00074 27.57215 24.28644
#
# Velocity S-wave (km/s) = 3.25186 3.72606 3.49700
# Velocity P-wave (km/s) = 5.01870 5.96087 5.50996
#
# Compressibility (1/GPa) = 0.04541278
#
# Stress axis : x y z
#
# Youngs Moduli (GPa) = 96.98689 39.17949 24.33806
#
# Poissons Ratio (x) = 0.19826 -0.01771
# Poissons Ratio (y) = 0.49079 0.27799
# Poissons Ratio (z) = -0.07057 0.44751
#
# Static dielectric constant tensor:
#      x y z
#    x 1.713420 0.000000 -0.021880 
#    y 0.000000 1.673520 0.000000 
#    z -0.021880 0.000000 1.678970 
# 
# From -- ./inp_files/38060.got.cif
#   From: 2010.05.17/outbox.cif.g08.bks.cpg/sg11_20_cif.got.tgz:38060.got - 2010.06.03 12:22:45.
