data_PCOD9163714
_publ_section_title
;
Structure prediction by ZEFSAII (Michael W. Deem and Ramdas Pophale) SiO2 
 PCOD9163714
Probable space group: P 21/M
;
_chemical_formula_sum "Si O2"
_cell_formula_units_Z 20
_cell_length_a 5.023100
_cell_length_b 10.437214
_cell_length_c 18.424381
_cell_angle_alpha 90.000000
_cell_angle_beta 114.712222
_cell_angle_gamma 90.000000
_cell_volume 877.476586
_symmetry_space_group_name_H-M "P 21/M"
_symmetry_group_IT_number 11
_symmetry_cell_setting 'monoclinic'
loop_
_space_group_symop_operation_xyz
x,y,z
-x,1/2+y,-z
-x,-y,-z
x,1/2-y,z
loop_
_atom_site_type_symbol
_atom_site_label
_atom_site_fract_x
_atom_site_fract_y
_atom_site_fract_z
Si Si1 0.298151 0.391437 0.383160
Si Si2 0.870254 0.103492 0.541636
Si Si3 0.806947 0.615349 0.008177
Si Si4 0.414941 0.104227 0.232529
Si Si5 0.746905 0.024318 0.138500
O O1 0.144658 0.250000 0.363223
O O2 0.128306 0.521548 0.383900
O O3 0.541047 0.379982 0.473500
O O4 0.451865 0.409198 0.322977
O O5 0.993620 0.250000 0.558147
O O6 0.000000 0.000000 0.500000
O O7 0.946100 0.750000 0.004475
O O8 0.778153 0.599500 0.091216
O O9 0.490076 0.604839 0.934764
O O10 0.000000 0.500000 0.000000
O O11 0.492690 0.250000 0.221122
O O12 0.603243 0.014535 0.201410
O O13 0.068583 0.084021 0.180620
#
# Coordination Sequence:
#
# PCOD9163714 Si02
#       5
#     4   4   4   4   4
#     4   9  21  38  61  89 119 157 206 257 306 362
#     4  10  20  37  61  89 121 161 204 251 304 368
#     4  11  24  43  68  95 126 168 212 261 314 378
#     4  11  22  39  65  96 127 163 210 264 315 370
#     4  11  24  41  63  96 125 165 208 263 314 373
#
# _framework density 22.792631
#
# number of rings (size 3 to 8) (size 9 to 14) (size 15 to 20)
#    0.000    1.600    2.000    2.400    2.800    4.800 
#    0.000    2.000    0.000    0.000    0.000    0.000 
#    0.000    0.000    0.000    0.000    0.000    0.000 
#
# Total GULP energy -111581.388241 kJ/mol
# GULP energy per Si atom -5579.069412 kJ/mol
# Density = 2.274075 g / cm^3
# Si number density = 22.792631 Si / 1000 Ang^3
#
#
#
# Elastic Constant Matrix: (Units=GPa)
#
#
# Indices 1 2 3 4 5 6 
#
# 1 96.1465 43.1416 25.5466 0.0000 -6.8894 0.0000
# 2 43.1416 186.5590 35.2679 0.0000 -25.4366 0.0000
# 3 25.5466 35.2679 106.6587 0.0000 -21.6255 0.0000
# 4 0.0000 0.0000 0.0000 7.7323 0.0000 -10.8076
# 5 -6.8894 -25.4366 -21.6255 0.0000 45.6696 0.0000
# 6 0.0000 0.0000 0.0000 -10.8076 0.0000 23.1595
#
#
#
# Elastic Compliance Matrix: (Units=1/GPa)
#
#
# Indices 1 2 3 4 5 6 
#
# 1 0.012041 -0.002450 -0.002193 0.000000 -0.000586 0.000000
# 2 -0.002450 0.006494 -0.000998 0.000000 0.002775 0.000000
# 3 -0.002193 -0.000998 0.011119 0.000000 0.004378 0.000000
# 4 0.000000 0.000000 0.000000 0.371903 0.000000 0.173552
# 5 -0.000586 0.002775 0.004378 0.000000 0.025427 0.000000
# 6 0.000000 0.000000 0.000000 0.173552 0.000000 0.124169
#
#
# Mechanical properties :
#
#
# Convention : Reuss Voigt Hill
#
# Bulk Modulus (GPa) = 54.43053 66.36404 60.39729
# Shear Modulus (GPa) = 8.79420 34.33949 21.56685
#
# Velocity S-wave (km/s) = 1.96640 3.88571 3.07941
# Velocity P-wave (km/s) = 5.39335 7.02220 6.26097
#
# Compressibility (1/GPa) = 0.01837204
#
# Stress axis : x y z
#
# Youngs Moduli (GPa) = 83.05190 153.99499 89.93951
#
# Poissons Ratio (x) = 0.37726 0.19722
# Poissons Ratio (y) = 0.20346 0.08975
# Poissons Ratio (z) = 0.18211 0.15367
#
# Static dielectric constant tensor:
#      x y z
#    x 1.892500 0.000000 -0.018460 
#    y 0.000000 1.920410 0.000000 
#    z -0.018460 0.000000 1.881350 
# 
# From -- ./inp_files/56674.got.cif
#   From: 2010.05.17/outbox.cif.g08.bks.cpg/sg11_29_cif.got.tgz:56674.got - 2010.06.03 12:22:45.
