data_PCOD9163873
_publ_section_title
;
Structure prediction by ZEFSAII (Michael W. Deem and Ramdas Pophale) SiO2 
 PCOD9163873
Probable space group: P 21/M
;
_chemical_formula_sum "Si O2"
_cell_formula_units_Z 28
_cell_length_a 15.150017
_cell_length_b 9.401920
_cell_length_c 22.275566
_cell_angle_alpha 90.000000
_cell_angle_beta 152.443292
_cell_angle_gamma 90.000000
_cell_volume 1467.873859
_symmetry_space_group_name_H-M "P 21/M"
_symmetry_group_IT_number 11
_symmetry_cell_setting 'monoclinic'
loop_
_space_group_symop_operation_xyz
x,y,z
-x,1/2+y,-z
-x,-y,-z
x,1/2-y,z
loop_
_atom_site_type_symbol
_atom_site_label
_atom_site_fract_x
_atom_site_fract_y
_atom_site_fract_z
Si Si1 0.256757 0.587717 0.663763
Si Si2 0.641055 0.409498 0.045082
Si Si3 0.685278 0.591238 0.955815
Si Si4 0.694843 0.077064 0.640690
Si Si5 0.914866 0.585357 0.672215
Si Si6 0.947834 0.417208 0.907102
Si Si7 0.940251 0.580473 0.559067
O O1 0.193080 0.750000 0.611774
O O2 0.483209 0.587605 0.800826
O O3 0.179844 0.481499 0.567918
O O4 0.158550 0.550974 0.668815
O O5 0.567662 0.250000 0.998374
O O6 0.857521 0.408064 0.198885
O O7 0.500000 0.500000 0.000000
O O8 0.665870 0.475020 0.994773
O O9 0.705375 0.750000 0.995227
O O10 0.863732 0.569095 0.020480
O O11 0.680240 0.250000 0.628362
O O12 0.772759 0.042086 0.755586
O O13 0.500000 0.000000 0.500000
O O14 0.850117 0.014566 0.687322
O O15 0.849009 0.750000 0.642903
O O16 0.857356 0.526383 0.572218
O O17 0.920265 0.250000 0.904922
O O18 0.000000 0.500000 0.000000
O O19 0.923932 0.750000 0.553947
#
# Coordination Sequence:
#
# PCOD9163873 Si02
#       7
#     4   4   4   4   4   4   4
#     4   9  18  33  54  79 113 155 195 241 295 352
#     4  11  22  35  57  88 122 159 197 240 295 359
#     4  10  20  38  59  82 115 150 194 250 303 360
#     4  11  24  43  66  93 124 161 206 262 322 384
#     4  10  21  38  59  85 118 156 198 249 304 360
#     4  10  23  42  65  91 122 159 205 265 326 383
#     4   9  18  33  52  78 115 154 194 240 290 353
#
# _framework density 19.075208
#
# number of rings (size 3 to 8) (size 9 to 14) (size 15 to 20)
#    0.000    2.000    1.429    1.714    0.000    6.857 
#    0.000    5.714    0.000    0.000    0.000    0.000 
#    0.000    0.000    0.000    0.000    0.000    0.000 
#
# Total GULP energy -155963.761404 kJ/mol
# GULP energy per Si atom -5570.134336 kJ/mol
# Density = 1.903179 g / cm^3
# Si number density = 19.075208 Si / 1000 Ang^3
#
#
#
# Elastic Constant Matrix: (Units=GPa)
#
#
# Indices 1 2 3 4 5 6 
#
# 1 71.2762 52.0473 36.0338 0.0000 -21.2528 0.0000
# 2 52.0473 83.5989 37.9293 0.0000 -9.4978 0.0000
# 3 36.0338 37.9293 83.0786 0.0000 -10.6241 0.0000
# 4 0.0000 0.0000 0.0000 25.9565 0.0000 0.9760
# 5 -21.2528 -9.4978 -10.6241 0.0000 32.3526 0.0000
# 6 0.0000 0.0000 0.0000 0.9760 0.0000 32.8764
#
#
#
# Elastic Compliance Matrix: (Units=1/GPa)
#
#
# Indices 1 2 3 4 5 6 
#
# 1 0.033330 -0.016821 -0.004810 0.000000 0.015377 0.000000
# 2 -0.016821 0.023737 -0.004241 0.000000 -0.005474 0.000000
# 3 -0.004810 -0.004241 0.016175 0.000000 0.000907 0.000000
# 4 0.000000 0.000000 0.000000 0.038569 0.000000 -0.001145
# 5 0.015377 -0.005474 0.000907 0.000000 0.039701 0.000000
# 6 0.000000 0.000000 0.000000 -0.001145 0.000000 0.030451
#
#
# Mechanical properties :
#
#
# Convention : Reuss Voigt Hill
#
# Bulk Modulus (GPa) = 46.51810 54.44164 50.47987
# Shear Modulus (GPa) = 20.75773 25.69999 23.22886
#
# Velocity S-wave (km/s) = 3.30237 3.67454 3.49342
# Velocity P-wave (km/s) = 6.24344 6.82682 6.54163
#
# Compressibility (1/GPa) = 0.02149701
#
# Stress axis : x y z
#
# Youngs Moduli (GPa) = 30.00306 42.12871 61.82252
#
# Poissons Ratio (x) = 0.70866 0.29738
# Poissons Ratio (y) = 0.50469 0.26220
# Poissons Ratio (z) = 0.14432 0.17867
#
# Static dielectric constant tensor:
#      x y z
#    x 1.667140 0.000000 0.006420 
#    y 0.000000 1.677860 0.000000 
#    z 0.006420 0.000000 1.791190 
# 
# From -- ./inp_files/38483.got.cif
#   From: 2010.05.17/outbox.cif.g08.bks.cpg/sg11_20_cif.got.tgz:38483.got - 2010.06.03 12:22:45.
