data_PCOD9163332
_publ_section_title
;
Structure prediction by ZEFSAII (Michael W. Deem and Ramdas Pophale) SiO2 
 PCOD9163332
Probable space group: P 21/M
;
_chemical_formula_sum "Si O2"
_cell_formula_units_Z 16
_cell_length_a 6.820488
_cell_length_b 17.210258
_cell_length_c 7.788547
_cell_angle_alpha 90.000000
_cell_angle_beta 93.319250
_cell_angle_gamma 90.000000
_cell_volume 912.704306
_symmetry_space_group_name_H-M "P 21/M"
_symmetry_group_IT_number 11
_symmetry_cell_setting 'monoclinic'
loop_
_space_group_symop_operation_xyz
x,y,z
-x,1/2+y,-z
-x,-y,-z
x,1/2-y,z
loop_
_atom_site_type_symbol
_atom_site_label
_atom_site_fract_x
_atom_site_fract_y
_atom_site_fract_z
Si Si1 0.598900 0.958041 0.342062
Si Si2 0.191360 0.921387 0.177764
Si Si3 0.940452 0.841544 0.458780
Si Si4 0.923893 0.070859 0.202082
O O1 0.737164 0.019991 0.253081
O O2 0.500000 0.000000 0.500000
O O3 0.423715 0.926917 0.214593
O O4 0.094795 0.869973 0.322177
O O5 0.741531 0.889213 0.410878
O O6 0.124025 0.894501 0.986235
O O7 0.100464 0.008223 0.194150
O O8 0.911259 0.750000 0.450433
O O9 0.021265 0.869004 0.647303
#
# Coordination Sequence:
#
# PCOD9163332 Si02
#       4
#     4   4   4   4
#     4  11  18  37  62  85 110 147 195 236 276 332
#     4  10  20  37  61  83 110 144 192 238 278 328
#     4  11  23  37  54  82 119 152 184 233 293 342
#     4  10  20  36  61  85 107 147 191 234 277 339
#
# _framework density 17.530322000000002
#
# number of rings (size 3 to 8) (size 9 to 14) (size 15 to 20)
#    0.000    1.500    5.000    2.250    0.000    2.000 
#    0.000    0.000    0.000    0.000    0.000    0.000 
#    0.000    0.000    0.000    0.000    0.000    0.000 
#
# Total GULP energy -89344.949018 kJ/mol
# GULP energy per Si atom -5584.059314 kJ/mol
# Density = 1.749042 g / cm^3
# Si number density = 17.530322 Si / 1000 Ang^3
#
#
#
# Elastic Constant Matrix: (Units=GPa)
#
#
# Indices 1 2 3 4 5 6 
#
# 1 105.8689 18.0484 15.1925 0.0000 13.5361 0.0000
# 2 18.0484 65.3676 18.3838 0.0000 10.1616 0.0000
# 3 15.1925 18.3838 99.4939 0.0000 23.9714 0.0000
# 4 0.0000 0.0000 0.0000 1.5184 0.0000 1.7746
# 5 13.5361 10.1616 23.9714 0.0000 20.9904 0.0000
# 6 0.0000 0.0000 0.0000 1.7746 0.0000 10.3950
#
#
#
# Elastic Compliance Matrix: (Units=1/GPa)
#
#
# Indices 1 2 3 4 5 6 
#
# 1 0.010535 -0.002029 0.000230 0.000000 -0.006074 0.000000
# 2 -0.002029 0.017110 -0.001616 0.000000 -0.005129 0.000000
# 3 0.000230 -0.001616 0.014019 0.000000 -0.015376 0.000000
# 4 0.000000 0.000000 0.000000 0.822749 0.000000 -0.140454
# 5 -0.006074 -0.005129 -0.015376 0.000000 0.071600 0.000000
# 6 0.000000 0.000000 0.000000 -0.140454 0.000000 0.120178
#
#
# Mechanical properties :
#
#
# Convention : Reuss Voigt Hill
#
# Bulk Modulus (GPa) = 28.70818 41.55334 35.13076
# Shear Modulus (GPa) = 4.65275 21.18779 12.92027
#
# Velocity S-wave (km/s) = 1.63091 3.48032 2.71776
# Velocity P-wave (km/s) = 4.46748 6.31706 5.47100
#
# Compressibility (1/GPa) = 0.03483327
#
# Stress axis : x y z
#
# Youngs Moduli (GPa) = 94.91978 58.44481 71.33244
#
# Poissons Ratio (x) = 0.11860 -0.01638
# Poissons Ratio (y) = 0.19261 0.11526
# Poissons Ratio (z) = -0.02179 0.09444
#
# Static dielectric constant tensor:
#      x y z
#    x 1.593140 0.000000 0.003370 
#    y 0.000000 1.549390 0.000000 
#    z 0.003370 0.000000 1.614010 
# 
# From -- ./inp_files/1515.got.cif
#   From: 2010.05.17/outbox.cif.g08.bks.cpg/sg11_1_cif.got.tgz:1515.got - 2010.06.03 12:22:45.
