data_PCOD9163190
_publ_section_title
;
Structure prediction by ZEFSAII (Michael W. Deem and Ramdas Pophale) SiO2 
 PCOD9163190
Probable space group: P 21/M
;
_chemical_formula_sum "Si O2"
_cell_formula_units_Z 32
_cell_length_a 31.092278
_cell_length_b 7.911185
_cell_length_c 12.980703
_cell_angle_alpha 90.000000
_cell_angle_beta 151.836448
_cell_angle_gamma 90.000000
_cell_volume 1507.041213
_symmetry_space_group_name_H-M "P 21/M"
_symmetry_group_IT_number 11
_symmetry_cell_setting 'monoclinic'
loop_
_space_group_symop_operation_xyz
x,y,z
-x,1/2+y,-z
-x,-y,-z
x,1/2-y,z
loop_
_atom_site_type_symbol
_atom_site_label
_atom_site_fract_x
_atom_site_fract_y
_atom_site_fract_z
Si Si1 0.873429 0.456384 0.981628
Si Si2 0.604445 0.951773 0.236417
Si Si3 0.895597 0.452005 0.794211
Si Si4 0.039089 0.046160 0.471015
Si Si5 0.243455 0.454202 0.854985
Si Si6 0.271142 0.447919 0.685641
Si Si7 0.323827 0.952795 0.387342
Si Si8 0.404572 0.548964 0.349223
O O1 0.875049 0.250000 0.986220
O O2 0.867912 0.507648 0.850783
O O3 0.780865 0.513536 0.841852
O O4 0.965668 0.514861 0.231468
O O5 0.613268 0.750000 0.254091
O O6 0.664214 0.021866 0.267103
O O7 0.639463 0.010310 0.421454
O O8 0.500000 0.000000 0.000000
O O9 0.884777 0.250000 0.764273
O O10 0.830919 0.535676 0.573375
O O11 0.000000 0.500000 0.000000
O O12 0.041728 0.250000 0.469627
O O13 0.142005 0.983634 0.669841
O O14 0.000000 0.000000 0.500000
O O15 0.237895 0.250000 0.836732
O O16 0.273432 0.519771 0.805516
O O17 0.319405 0.497468 0.098815
O O18 0.295330 0.250000 0.745797
O O19 0.320628 0.750000 0.371593
O O20 0.385974 0.019111 0.425433
O O21 0.500000 0.500000 0.500000
O O22 0.405572 0.750000 0.357794
#
# Coordination Sequence:
#
# PCOD9163190 Si02
#       8
#     4   4   4   4   4   4   4   4
#     4   9  18  35  59  84 114 155 196 236 292 354
#     4  11  24  40  63  93 125 159 202 256 309 368
#     4  11  21  35  58  86 120 161 202 247 297 357
#     4  10  20  36  59  86 118 158 202 248 297 354
#     4  10  22  41  63  88 125 166 205 250 306 366
#     4  10  22  41  62  88 123 162 203 250 303 361
#     4  10  21  41  65  89 121 160 204 252 305 365
#     4  11  25  43  66  92 121 158 205 258 310 367
#
# _framework density 21.233658999999999
#
# number of rings (size 3 to 8) (size 9 to 14) (size 15 to 20)
#    0.000    1.750    1.250    2.625    1.750    5.500 
#    0.000    3.125    0.000    0.000    0.000    0.000 
#    0.000    0.000    0.000    0.000    0.000    0.000 
#
# Total GULP energy -178821.086174 kJ/mol
# GULP energy per Si atom -5588.158943 kJ/mol
# Density = 2.118533 g / cm^3
# Si number density = 21.233659 Si / 1000 Ang^3
#
#
#
# Elastic Constant Matrix: (Units=GPa)
#
#
# Indices 1 2 3 4 5 6 
#
# 1 179.0232 16.0573 64.7588 0.0000 8.3913 0.0000
# 2 16.0573 24.5853 -1.3864 0.0000 -0.2062 0.0000
# 3 64.7588 -1.3864 116.8092 0.0000 13.3807 0.0000
# 4 0.0000 0.0000 0.0000 30.2140 0.0000 -1.1475
# 5 8.3913 -0.2062 13.3807 0.0000 39.5229 0.0000
# 6 0.0000 0.0000 0.0000 -1.1475 0.0000 22.8662
#
#
#
# Elastic Compliance Matrix: (Units=1/GPa)
#
#
# Indices 1 2 3 4 5 6 
#
# 1 0.007600 -0.005206 -0.004252 0.000000 -0.000201 0.000000
# 2 -0.005206 0.044267 0.003390 0.000000 0.000189 0.000000
# 3 -0.004252 0.003390 0.011291 0.000000 -0.002902 0.000000
# 4 0.000000 0.000000 0.000000 0.033160 0.000000 0.001664
# 5 -0.000201 0.000189 -0.002902 0.000000 0.026328 0.000000
# 6 0.000000 0.000000 0.000000 0.001664 0.000000 0.043816
#
#
# Mechanical properties :
#
#
# Convention : Reuss Voigt Hill
#
# Bulk Modulus (GPa) = 19.59923 53.25301 36.42612
# Shear Modulus (GPa) = 25.56140 34.58648 30.07394
#
# Velocity S-wave (km/s) = 3.47337 4.04028 3.76750
# Velocity P-wave (km/s) = 5.03349 6.84829 6.00979
#
# Compressibility (1/GPa) = 0.05102242
#
# Stress axis : x y z
#
# Youngs Moduli (GPa) = 131.57126 22.59008 88.56468
#
# Poissons Ratio (x) = 0.11759 0.37661
# Poissons Ratio (y) = 0.68490 -0.30021
# Poissons Ratio (z) = 0.55950 -0.07657
#
# Static dielectric constant tensor:
#      x y z
#    x 1.782860 0.000000 -0.015570 
#    y 0.000000 1.778200 0.000000 
#    z -0.015570 0.000000 1.662460 
# 
# From -- ./inp_files/45249.got.cif
#   From: 2010.05.17/outbox.cif.g08.bks.cpg/sg11_23_cif.got.tgz:45249.got - 2010.06.03 12:22:45.
