data_PCOD9163599
_publ_section_title
;
Structure prediction by ZEFSAII (Michael W. Deem and Ramdas Pophale) SiO2 
 PCOD9163599
Probable space group: P 21/M
;
_chemical_formula_sum "Si O2"
_cell_formula_units_Z 28
_cell_length_a 9.427301
_cell_length_b 8.644558
_cell_length_c 29.971947
_cell_angle_alpha 90.000000
_cell_angle_beta 37.888774
_cell_angle_gamma 90.000000
_cell_volume 1500.050386
_symmetry_space_group_name_H-M "P 21/M"
_symmetry_group_IT_number 11
_symmetry_cell_setting 'monoclinic'
loop_
_space_group_symop_operation_xyz
x,y,z
-x,1/2+y,-z
-x,-y,-z
x,1/2-y,z
loop_
_atom_site_type_symbol
_atom_site_label
_atom_site_fract_x
_atom_site_fract_y
_atom_site_fract_z
Si Si1 0.240684 0.563535 0.067033
Si Si2 0.680219 0.435816 0.363841
Si Si3 0.922479 0.434727 0.067062
Si Si4 0.068953 0.564089 0.207124
Si Si5 0.017403 0.064122 0.360793
Si Si6 0.589808 0.435889 0.797339
Si Si7 0.850789 0.563748 0.496378
O O1 0.244838 0.750000 0.064459
O O2 0.131081 0.514893 0.141780
O O3 0.089469 0.499953 0.063931
O O4 0.500000 0.500000 0.000000
O O5 0.682922 0.250000 0.360518
O O6 0.415857 0.487171 0.431668
O O7 0.829320 0.500229 0.285849
O O8 0.817842 0.480093 0.374685
O O9 0.935575 0.250000 0.063230
O O10 0.661450 0.489745 0.140697
O O11 0.000000 0.500000 0.000000
O O12 0.058106 0.750000 0.210496
O O13 0.269720 0.518475 0.192507
O O14 0.034272 0.250000 0.357819
O O15 0.252559 0.993757 0.282596
O O16 0.951371 0.999599 0.425173
O O17 0.570449 0.250000 0.801301
O O18 0.856339 0.750000 0.494536
O O19 0.000000 0.500000 0.500000
#
# Coordination Sequence:
#
# PCOD9163599 Si02
#       7
#     4   4   4   4   4   4   4
#     4  11  23  40  61  88 120 156 196 242 292 347
#     4   9  20  37  59  84 112 146 189 235 284 340
#     4  12  25  41  61  87 118 156 198 243 293 349
#     4   9  20  37  60  87 115 146 186 233 286 344
#     4  10  20  37  60  86 113 148 191 236 286 345
#     4  10  20  38  62  89 118 150 189 237 289 346
#     4  11  23  38  55  81 115 152 191 238 289 341
#
# _framework density 18.666041
#
# number of rings (size 3 to 8) (size 9 to 14) (size 15 to 20)
#    0.000    1.714    0.000    4.286    0.000    5.714 
#    0.000    2.857    0.000    0.000    0.000    0.000 
#    0.000    0.000    0.000    0.000    0.000    0.000 
#
# Total GULP energy -156511.360146 kJ/mol
# GULP energy per Si atom -5589.691434 kJ/mol
# Density = 1.862356 g / cm^3
# Si number density = 18.666041 Si / 1000 Ang^3
#
#
#
# Elastic Constant Matrix: (Units=GPa)
#
#
# Indices 1 2 3 4 5 6 
#
# 1 141.3919 52.6018 132.7175 0.0000 1.3042 0.0000
# 2 52.6018 77.6195 61.4893 0.0000 0.7676 0.0000
# 3 132.7175 61.4893 205.1827 0.0000 6.5777 0.0000
# 4 0.0000 0.0000 0.0000 38.1327 0.0000 -0.7799
# 5 1.3042 0.7676 6.5777 0.0000 37.9550 0.0000
# 6 0.0000 0.0000 0.0000 -0.7799 0.0000 31.6461
#
#
#
# Elastic Compliance Matrix: (Units=1/GPa)
#
#
# Indices 1 2 3 4 5 6 
#
# 1 0.019021 -0.004095 -0.011119 0.000000 0.001356 0.000000
# 2 -0.004095 0.017787 -0.002690 0.000000 0.000247 0.000000
# 3 -0.011119 -0.002690 0.012930 0.000000 -0.001804 0.000000
# 4 0.000000 0.000000 0.000000 0.026237 0.000000 0.000647
# 5 0.001356 0.000247 -0.001804 0.000000 0.026608 0.000000
# 6 0.000000 0.000000 0.000000 0.000647 0.000000 0.031615
#
#
# Mechanical properties :
#
#
# Convention : Reuss Voigt Hill
#
# Bulk Modulus (GPa) = 71.78996 101.97904 86.88450
# Shear Modulus (GPa) = 28.62887 33.37243 31.00065
#
# Velocity S-wave (km/s) = 3.92055 4.23291 4.07972
# Velocity P-wave (km/s) = 7.68362 8.86804 8.29699
#
# Compressibility (1/GPa) = 0.01392952
#
# Stress axis : x y z
#
# Youngs Moduli (GPa) = 52.57449 56.22211 77.34028
#
# Poissons Ratio (x) = 0.23022 0.85998
# Poissons Ratio (y) = 0.21528 0.20801
# Poissons Ratio (z) = 0.58460 0.15121
#
# Static dielectric constant tensor:
#      x y z
#    x 1.623120 0.000000 0.000650 
#    y 0.000000 1.627470 0.000000 
#    z 0.000650 0.000000 1.618570 
# 
# From -- ./inp_files/28178.got.cif
#   From: 2010.05.17/outbox.cif.g08.bks.cpg/sg11_15_cif.got.tgz:28178.got - 2010.06.03 12:22:45.
