data_PCOD9163324
_publ_section_title
;
Structure prediction by ZEFSAII (Michael W. Deem and Ramdas Pophale) SiO2 
 PCOD9163324
Probable space group: P 21/M
;
_chemical_formula_sum "Si O2"
_cell_formula_units_Z 32
_cell_length_a 13.391739
_cell_length_b 15.127426
_cell_length_c 19.797372
_cell_angle_alpha 90.000000
_cell_angle_beta 19.700760
_cell_angle_gamma 90.000000
_cell_volume 1352.004975
_symmetry_space_group_name_H-M "P 21/M"
_symmetry_group_IT_number 11
_symmetry_cell_setting 'monoclinic'
loop_
_space_group_symop_operation_xyz
x,y,z
-x,1/2+y,-z
-x,-y,-z
x,1/2-y,z
loop_
_atom_site_type_symbol
_atom_site_label
_atom_site_fract_x
_atom_site_fract_y
_atom_site_fract_z
Si Si1 0.211116 0.149640 0.025452
Si Si2 0.159597 0.473282 0.546452
Si Si3 0.402483 0.848749 0.796883
Si Si4 0.290861 0.349288 0.722227
Si Si5 0.692530 0.149528 0.600495
Si Si6 0.398243 0.846108 0.944645
Si Si7 0.547924 0.101040 0.947096
Si Si8 0.874953 0.513233 0.273680
O O1 0.100921 0.250000 0.090729
O O2 0.465677 0.138069 0.807165
O O3 0.358220 0.132885 0.005054
O O4 0.958281 0.076046 0.181672
O O5 0.462822 0.426392 0.332343
O O6 0.109230 0.561445 0.533722
O O7 0.896045 0.401369 0.706621
O O8 0.177102 0.497769 0.613880
O O9 0.450293 0.750000 0.738450
O O10 0.564516 0.853257 0.767479
O O11 0.050137 0.858287 0.034338
O O12 0.333184 0.250000 0.667915
O O13 0.498763 0.354689 0.655130
O O14 0.336132 0.422986 0.635620
O O15 0.819526 0.250000 0.524632
O O16 0.244876 0.750000 0.036638
O O17 0.529834 0.847208 0.935287
O O18 0.175569 0.927585 0.084347
O O19 0.500000 0.000000 0.000000
#
# Coordination Sequence:
#
# PCOD9163324 Si02
#       8
#     4   4   4   4   4   4   4   4
#     4  11  23  41  62  84 120 164 207 248 294 361
#     4  11  23  36  61  89 125 153 192 261 301 349
#     4   9  19  35  59  93 120 148 196 250 300 352
#     4   9  19  40  67  88 120 163 202 240 294 365
#     4  10  23  42  62  90 122 161 201 245 302 357
#     4   9  17  34  59  83 113 152 195 244 295 351
#     4  11  22  41  59  84 113 161 204 240 297 365
#     4  10  20  36  60  91 120 155 205 242 299 351
#
# _framework density 23.668551000000001
#
# number of rings (size 3 to 8) (size 9 to 14) (size 15 to 20)
#    0.000    2.000    2.500    3.000    0.000    6.500 
#    0.000    0.000    0.000    3.000    0.000    0.000 
#    0.000    0.000    0.000    0.000    0.000    0.000 
#
# Total GULP energy -178695.396840 kJ/mol
# GULP energy per Si atom -5584.231151 kJ/mol
# Density = 2.361468 g / cm^3
# Si number density = 23.668551 Si / 1000 Ang^3
#
#
#
# Elastic Constant Matrix: (Units=GPa)
#
#
# Indices 1 2 3 4 5 6 
#
# 1 54.5071 2.5163 -7.1018 0.0000 12.1762 0.0000
# 2 2.5163 138.3051 41.3803 0.0000 26.8502 0.0000
# 3 -7.1018 41.3803 59.0371 0.0000 12.1053 0.0000
# 4 0.0000 0.0000 0.0000 -66.1709 0.0000 29.1477
# 5 12.1762 26.8502 12.1053 0.0000 31.6350 0.0000
# 6 0.0000 0.0000 0.0000 29.1477 0.0000 27.6785
#
#
#
# Elastic Compliance Matrix: (Units=1/GPa)
#
#
# Indices 1 2 3 4 5 6 
#
# 1 0.021157 0.000237 0.004438 0.000000 -0.010042 0.000000
# 2 0.000237 0.010235 -0.005801 0.000000 -0.006558 0.000000
# 3 0.004438 -0.005801 0.022657 0.000000 -0.005455 0.000000
# 4 0.000000 0.000000 0.000000 -0.010324 0.000000 0.010872
# 5 -0.010042 -0.006558 -0.005455 0.000000 0.043130 0.000000
# 6 0.000000 0.000000 0.000000 0.010872 0.000000 0.024681
#
#
# Mechanical properties :
#
#
# Convention : Reuss Voigt Hill
#
# Bulk Modulus (GPa) = 19.30604 36.15988 27.73296
# Shear Modulus (GPa) = 38.15293 12.96549 25.55921
#
# Velocity S-wave (km/s) = 4.01929 2.34304 3.28972
# Velocity P-wave (km/s) = 5.45106 4.75716 5.11589
#
# Compressibility (1/GPa) = 0.05179726
#
# Stress axis : x y z
#
# Youngs Moduli (GPa) = 47.26588 97.70585 44.13730
#
# Poissons Ratio (x) = -0.02314 -0.19589
# Poissons Ratio (y) = -0.01119 0.25602
# Poissons Ratio (z) = -0.20978 0.56675
#
# Static dielectric constant tensor:
#      x y z
#    x 1.937150 0.000000 -0.084470 
#    y 0.000000 1.931020 0.000000 
#    z -0.084470 0.000000 1.986100 
# 
# From -- ./inp_files/65748.got.cif
#   From: 2010.05.17/outbox.cif.g08.bks.cpg/sg11_33_cif.got.tgz:65748.got - 2010.06.03 12:22:45.
