data_PCOD9163901
_publ_section_title
;
Structure prediction by ZEFSAII (Michael W. Deem and Ramdas Pophale) SiO2 
 PCOD9163901
Probable space group: P 21/M
;
_chemical_formula_sum "Si O2"
_cell_formula_units_Z 28
_cell_length_a 8.277751
_cell_length_b 22.902152
_cell_length_c 13.709222
_cell_angle_alpha 90.000000
_cell_angle_beta 153.259444
_cell_angle_gamma 90.000000
_cell_volume 1169.410312
_symmetry_space_group_name_H-M "P 21/M"
_symmetry_group_IT_number 11
_symmetry_cell_setting 'monoclinic'
loop_
_space_group_symop_operation_xyz
x,y,z
-x,1/2+y,-z
-x,-y,-z
x,1/2-y,z
loop_
_atom_site_type_symbol
_atom_site_label
_atom_site_fract_x
_atom_site_fract_y
_atom_site_fract_z
Si Si1 0.465427 0.610025 0.129077
Si Si2 0.384494 0.180422 0.606038
Si Si3 0.426838 0.812140 0.746614
Si Si4 0.195452 0.011308 0.004064
Si Si5 0.670310 0.094805 0.599753
Si Si6 0.702590 0.072687 0.411194
Si Si7 0.234203 0.185384 0.862595
O O1 0.392288 0.649602 0.185164
O O2 0.242145 0.552521 0.984212
O O3 0.466528 0.652323 0.037439
O O4 0.872077 0.584732 0.362123
O O5 0.482800 0.250000 0.638014
O O6 0.416463 0.131437 0.536960
O O7 0.977905 0.183749 0.428124
O O8 0.467987 0.750000 0.718285
O O9 0.500990 0.866955 0.720830
O O10 0.675447 0.813259 0.975349
O O11 0.577970 0.034903 0.250813
O O12 0.967839 0.057268 0.819269
O O13 0.000000 0.000000 0.000000
O O14 0.581954 0.055206 0.456170
O O15 0.877756 0.148543 0.660961
O O16 0.197660 0.250000 0.803628
#
# Coordination Sequence:
#
# PCOD9163901 Si02
#       7
#     4   4   4   4   4   4   4
#     4  10  22  40  63  89 123 164 202 255 308 361
#     4  10  20  38  60  88 123 160 200 250 312 368
#     4   9  19  38  63  90 124 157 200 254 302 365
#     4  12  24  43  61  90 129 160 212 253 301 363
#     4  11  23  40  64  93 120 167 199 255 310 360
#     4  10  23  41  63  90 121 162 207 248 309 359
#     4  10  20  38  65  95 121 156 207 254 306 367
#
# _framework density 23.943691999999999
#
# number of rings (size 3 to 8) (size 9 to 14) (size 15 to 20)
#    0.000    1.714    2.857    1.286    0.000    8.000 
#    5.143    0.000    0.000    0.000    0.000    0.000 
#    0.000    0.000    0.000    0.000    0.000    0.000 
#
# Total GULP energy -156154.140496 kJ/mol
# GULP energy per Si atom -5576.933589 kJ/mol
# Density = 2.388919 g / cm^3
# Si number density = 23.943692 Si / 1000 Ang^3
#
#
#
# Elastic Constant Matrix: (Units=GPa)
#
#
# Indices 1 2 3 4 5 6 
#
# 1 41.7769 1.3929 -7.0212 0.0000 -23.4044 0.0000
# 2 1.3929 85.5687 5.5703 0.0000 -13.4309 0.0000
# 3 -7.0212 5.5703 56.1735 0.0000 -15.3633 0.0000
# 4 0.0000 0.0000 0.0000 17.8886 0.0000 0.6958
# 5 -23.4044 -13.4309 -15.3633 0.0000 34.2124 0.0000
# 6 0.0000 0.0000 0.0000 0.6958 0.0000 30.8750
#
#
#
# Elastic Compliance Matrix: (Units=1/GPa)
#
#
# Indices 1 2 3 4 5 6 
#
# 1 0.053362 0.005290 0.019035 0.000000 0.047129 0.000000
# 2 0.005290 0.012979 0.002003 0.000000 0.009613 0.000000
# 3 0.019035 0.002003 0.027086 0.000000 0.025971 0.000000
# 4 0.000000 0.000000 0.000000 0.055950 0.000000 -0.001261
# 5 0.047129 0.009613 0.025971 0.000000 0.076906 0.000000
# 6 0.000000 0.000000 0.000000 -0.001261 0.000000 0.032417
#
#
# Mechanical properties :
#
#
# Convention : Reuss Voigt Hill
#
# Bulk Modulus (GPa) = 6.84547 20.37814 13.61181
# Shear Modulus (GPa) = 19.62798 28.83368 24.23083
#
# Velocity S-wave (km/s) = 2.86624 3.47396 3.18463
# Velocity P-wave (km/s) = 3.71739 4.96191 4.38404
#
# Compressibility (1/GPa) = 0.14608193
#
# Stress axis : x y z
#
# Youngs Moduli (GPa) = 18.73992 77.04810 36.92012
#
# Poissons Ratio (x) = -0.40755 -0.70277
# Poissons Ratio (y) = -0.09913 -0.07396
# Poissons Ratio (z) = -0.35671 -0.15435
#
# Static dielectric constant tensor:
#      x y z
#    x 1.956540 0.000000 -0.009280 
#    y 0.000000 2.095600 0.000000 
#    z -0.009280 0.000000 2.042420 
# 
# From -- ./inp_files/23167.got.cif
#   From: 2010.05.17/outbox.cif.g08.bks.cpg/sg11_12_cif.got.tgz:23167.got - 2010.06.03 12:22:45.
