data_PCOD9163364
_publ_section_title
;
Structure prediction by ZEFSAII (Michael W. Deem and Ramdas Pophale) SiO2 
 PCOD9163364
Probable space group: P 21/M
;
_chemical_formula_sum "Si O2"
_cell_formula_units_Z 28
_cell_length_a 5.351008
_cell_length_b 26.843799
_cell_length_c 9.480360
_cell_angle_alpha 90.000000
_cell_angle_beta 68.388767
_cell_angle_gamma 90.000000
_cell_volume 1266.045301
_symmetry_space_group_name_H-M "P 21/M"
_symmetry_group_IT_number 11
_symmetry_cell_setting 'monoclinic'
loop_
_space_group_symop_operation_xyz
x,y,z
-x,1/2+y,-z
-x,-y,-z
x,1/2-y,z
loop_
_atom_site_type_symbol
_atom_site_label
_atom_site_fract_x
_atom_site_fract_y
_atom_site_fract_z
Si Si1 0.616530 0.375192 0.251340
Si Si2 0.066676 0.120397 0.940293
Si Si3 0.314411 0.196103 0.484710
Si Si4 0.080757 0.888371 0.335973
Si Si5 0.519897 0.693960 0.226751
Si Si6 0.208744 0.024719 0.064370
Si Si7 0.041415 0.070464 0.363121
O O1 0.517538 0.321304 0.322497
O O2 0.349202 0.409131 0.305134
O O3 0.828211 0.394645 0.324133
O O4 0.775275 0.375853 0.072464
O O5 0.051823 0.098360 0.785344
O O6 0.199630 0.174822 0.897445
O O7 0.225427 0.081875 0.006747
O O8 0.194427 0.250000 0.481099
O O9 0.094326 0.153676 0.547652
O O10 0.450580 0.197119 0.610163
O O11 0.081176 0.931530 0.453549
O O12 0.336605 0.854801 0.242078
O O13 0.441003 0.750000 0.194521
O O14 0.078474 0.024866 0.247096
O O15 0.500000 0.000000 0.000000
O O16 0.000000 0.000000 0.000000
#
# Coordination Sequence:
#
# PCOD9163364 Si02
#       7
#     4   4   4   4   4   4   4
#     4  10  20  37  60  89 121 167 211 257 316 371
#     4  10  24  38  64  92 132 165 217 274 331 380
#     4   9  18  34  55  86 122 167 218 258 304 380
#     4  10  20  37  62  90 125 175 212 260 322 383
#     4  10  20  36  61  90 130 172 211 259 324 389
#     4  11  24  44  69  95 127 170 217 271 336 395
#     4  10  21  40  65  91 121 167 210 258 316 388
#
# _framework density 22.116114
#
# number of rings (size 3 to 8) (size 9 to 14) (size 15 to 20)
#    0.000    2.000    1.429    2.143    6.000    1.143 
#    0.000    1.429    0.000    0.000    0.000    0.000 
#    0.000    0.000    0.000    0.000    0.000    0.000 
#
# Total GULP energy -156062.718431 kJ/mol
# GULP energy per Si atom -5573.668515 kJ/mol
# Density = 2.206578 g / cm^3
# Si number density = 22.116114 Si / 1000 Ang^3
#
#
#
# Elastic Constant Matrix: (Units=GPa)
#
#
# Indices 1 2 3 4 5 6 
#
# 1 88.5638 9.2178 24.8855 0.0000 -3.0798 0.0000
# 2 9.2178 60.9145 39.1978 0.0000 1.3448 0.0000
# 3 24.8855 39.1978 116.4828 0.0000 -0.5629 0.0000
# 4 0.0000 0.0000 0.0000 7.5935 0.0000 4.7625
# 5 -3.0798 1.3448 -0.5629 0.0000 26.9683 0.0000
# 6 0.0000 0.0000 0.0000 4.7625 0.0000 18.5025
#
#
#
# Elastic Compliance Matrix: (Units=1/GPa)
#
#
# Indices 1 2 3 4 5 6 
#
# 1 0.012063 -0.000256 -0.002484 0.000000 0.001338 0.000000
# 2 -0.000256 0.020998 -0.007017 0.000000 -0.001223 0.000000
# 3 -0.002484 -0.007017 0.011479 0.000000 0.000306 0.000000
# 4 0.000000 0.000000 0.000000 0.157045 0.000000 -0.040423
# 5 0.001338 -0.001223 0.000306 0.000000 0.037301 0.000000
# 6 0.000000 0.000000 0.000000 -0.040423 0.000000 0.064452
#
#
# Mechanical properties :
#
#
# Convention : Reuss Voigt Hill
#
# Bulk Modulus (GPa) = 39.96272 45.84039 42.90155
# Shear Modulus (GPa) = 15.09694 23.45686 19.27690
#
# Velocity S-wave (km/s) = 2.61554 3.26025 2.95553
# Velocity P-wave (km/s) = 5.21825 5.91139 5.57560
#
# Compressibility (1/GPa) = 0.02502332
#
# Stress axis : x y z
#
# Youngs Moduli (GPa) = 82.90094 47.62433 87.11909
#
# Poissons Ratio (x) = 0.01220 0.21644
# Poissons Ratio (y) = 0.02124 0.61133
# Poissons Ratio (z) = 0.20596 0.33419
#
# Static dielectric constant tensor:
#      x y z
#    x 1.882810 0.000000 -0.015370 
#    y 0.000000 1.622970 0.000000 
#    z -0.015370 0.000000 1.825570 
# 
# From -- ./inp_files/10706.got.cif
#   From: 2010.05.17/outbox.cif.g08.bks.cpg/sg11_6_cif.got.tgz:10706.got - 2010.06.03 12:22:45.
