data_PCOD9163923
_publ_section_title
;
Structure prediction by ZEFSAII (Michael W. Deem and Ramdas Pophale) SiO2 
 PCOD9163923
Probable space group: P 21/M
;
_chemical_formula_sum "Si O2"
_cell_formula_units_Z 20
_cell_length_a 7.171088
_cell_length_b 16.294772
_cell_length_c 9.002755
_cell_angle_alpha 90.000000
_cell_angle_beta 110.322875
_cell_angle_gamma 90.000000
_cell_volume 986.497537
_symmetry_space_group_name_H-M "P 21/M"
_symmetry_group_IT_number 11
_symmetry_cell_setting 'monoclinic'
loop_
_space_group_symop_operation_xyz
x,y,z
-x,1/2+y,-z
-x,-y,-z
x,1/2-y,z
loop_
_atom_site_type_symbol
_atom_site_label
_atom_site_fract_x
_atom_site_fract_y
_atom_site_fract_z
Si Si1 0.708858 0.540417 0.005478
Si Si2 0.070100 0.064779 0.225200
Si Si3 0.136268 0.661456 0.605784
Si Si4 0.774630 0.842858 0.284069
Si Si5 0.311791 0.001055 0.551677
O O1 0.759985 0.622263 0.113891
O O2 0.672117 0.583303 0.346782
O O3 0.500000 0.500000 0.000000
O O4 0.751800 0.561707 0.844722
O O5 0.002551 0.148416 0.287102
O O6 0.129173 0.011494 0.385968
O O7 0.877792 0.025818 0.095187
O O8 0.237456 0.750000 0.640767
O O9 0.277336 0.582583 0.631511
O O10 0.991762 0.660982 0.421603
O O11 0.692993 0.750000 0.273319
O O12 0.500000 0.000000 0.500000
#
# Coordination Sequence:
#
# PCOD9163923 Si02
#       5
#     4   4   4   4   4
#     4  11  21  37  61  88 120 166 201 244 301 359
#     4  10  21  37  59  88 120 156 204 245 304 360
#     4  10  20  38  62  88 120 160 205 259 310 358
#     4  10  20  38  61  85 117 155 203 253 303 358
#     4  11  20  37  63  90 121 160 199 259 308 362
#
# _framework density 20.273745000000002
#
# number of rings (size 3 to 8) (size 9 to 14) (size 15 to 20)
#    0.000    1.600    4.000    2.400    0.000    1.600 
#    0.000    1.000    0.000    0.000    0.000    0.000 
#    0.000    0.000    0.000    0.000    0.000    0.000 
#
# Total GULP energy -111414.811672 kJ/mol
# GULP energy per Si atom -5570.740584 kJ/mol
# Density = 2.022760 g / cm^3
# Si number density = 20.273745 Si / 1000 Ang^3
#
#
#
# Elastic Constant Matrix: (Units=GPa)
#
#
# Indices 1 2 3 4 5 6 
#
# 1 93.8119 38.5921 20.5954 0.0000 -18.8011 0.0000
# 2 38.5921 178.8459 40.4613 0.0000 -28.2616 0.0000
# 3 20.5954 40.4613 105.5415 0.0000 -24.6698 0.0000
# 4 0.0000 0.0000 0.0000 15.7263 0.0000 2.7333
# 5 -18.8011 -28.2616 -24.6698 0.0000 35.1982 0.0000
# 6 0.0000 0.0000 0.0000 2.7333 0.0000 3.3282
#
#
#
# Elastic Compliance Matrix: (Units=1/GPa)
#
#
# Indices 1 2 3 4 5 6 
#
# 1 0.012497 -0.001797 -0.000630 0.000000 0.004791 0.000000
# 2 -0.001797 0.006867 -0.001456 0.000000 0.003533 0.000000
# 3 -0.000630 -0.001456 0.011725 0.000000 0.006712 0.000000
# 4 0.000000 0.000000 0.000000 0.074175 0.000000 -0.060917
# 5 0.004791 0.003533 0.006712 0.000000 0.038511 0.000000
# 6 0.000000 0.000000 0.000000 -0.060917 0.000000 0.350494
#
#
# Mechanical properties :
#
#
# Convention : Reuss Voigt Hill
#
# Bulk Modulus (GPa) = 42.87568 64.16632 53.52100
# Shear Modulus (GPa) = 9.80757 29.42057 19.61407
#
# Velocity S-wave (km/s) = 2.20183 3.81355 3.11378
# Velocity P-wave (km/s) = 5.25912 7.14909 6.27566
#
# Compressibility (1/GPa) = 0.02332325
#
# Stress axis : x y z
#
# Youngs Moduli (GPa) = 80.01669 145.62563 85.28767
#
# Poissons Ratio (x) = 0.26171 0.05372
# Poissons Ratio (y) = 0.14380 0.12418
# Poissons Ratio (z) = 0.05040 0.21203
#
# Static dielectric constant tensor:
#      x y z
#    x 1.750470 0.000000 0.020300 
#    y 0.000000 1.726950 0.000000 
#    z 0.020300 0.000000 1.796450 
# 
# From -- ./inp_files/12224.got.cif
#   From: 2010.05.17/outbox.cif.g08.bks.cpg/sg11_7_cif.got.tgz:12224.got - 2010.06.03 12:22:45.
