data_PCOD9163849
_publ_section_title
;
Structure prediction by ZEFSAII (Michael W. Deem and Ramdas Pophale) SiO2 
 PCOD9163849
Probable space group: P 21/M
;
_chemical_formula_sum "Si O2"
_cell_formula_units_Z 24
_cell_length_a 12.893982
_cell_length_b 12.246130
_cell_length_c 10.101597
_cell_angle_alpha 90.000000
_cell_angle_beta 146.728354
_cell_angle_gamma 90.000000
_cell_volume 875.062349
_symmetry_space_group_name_H-M "P 21/M"
_symmetry_group_IT_number 11
_symmetry_cell_setting 'monoclinic'
loop_
_space_group_symop_operation_xyz
x,y,z
-x,1/2+y,-z
-x,-y,-z
x,1/2-y,z
loop_
_atom_site_type_symbol
_atom_site_label
_atom_site_fract_x
_atom_site_fract_y
_atom_site_fract_z
Si Si1 0.175927 0.874827 0.414105
Si Si2 0.083115 0.407365 0.211509
Si Si3 0.624909 0.572090 0.256374
Si Si4 0.360336 0.140464 0.289796
Si Si5 0.912928 0.877101 0.368659
Si Si6 0.342950 0.906877 0.164454
O O1 0.221802 0.750000 0.429608
O O2 0.982256 0.874304 0.291743
O O3 0.137846 0.962749 0.257690
O O4 0.326719 0.942796 0.665679
O O5 0.217924 0.375757 0.477674
O O6 0.170390 0.359108 0.173316
O O7 0.873477 0.381706 0.035864
O O8 0.699234 0.606892 0.192547
O O9 0.428398 0.612752 0.109567
O O10 0.375621 0.250000 0.225281
O O11 0.523518 0.137633 0.576248
O O12 0.371435 0.035190 0.214804
O O13 0.969472 0.750000 0.473167
O O14 0.000000 0.000000 0.500000
#
# Coordination Sequence:
#
# PCOD9163849 Si02
#       6
#     4   4   4   4   4   4
#     4   8  16  32  54  80 110 147 183 222 277 329
#     4   9  19  35  55  80 109 139 184 227 272 330
#     4   8  18  32  53  82 107 143 179 229 270 328
#     4  10  22  38  54  76 107 143 181 225 279 335
#     4   9  16  32  57  82 112 154 187 225 278 333
#     4  10  20  38  54  81 107 138 183 229 275 333
#
# _framework density 27.426618000000001
#
# number of rings (size 3 to 8) (size 9 to 14) (size 15 to 20)
#    1.000    2.000    0.000    0.500    0.000    4.667 
#    0.000    0.833    0.000    0.000    0.000    0.000 
#    0.000    0.000    0.000    0.000    0.000    0.000 
#
# Total GULP energy -133803.813292 kJ/mol
# GULP energy per Si atom -5575.158887 kJ/mol
# Density = 2.736419 g / cm^3
# Si number density = 27.426618 Si / 1000 Ang^3
#
#
#
# Elastic Constant Matrix: (Units=GPa)
#
#
# Indices 1 2 3 4 5 6 
#
# 1 153.5135 21.3822 42.1525 0.0000 60.4373 0.0000
# 2 21.3822 246.1954 1.1146 0.0000 4.5659 0.0000
# 3 42.1525 1.1146 101.3086 0.0000 38.9038 0.0000
# 4 0.0000 0.0000 0.0000 -1.8391 0.0000 -38.2288
# 5 60.4373 4.5659 38.9038 0.0000 50.0977 0.0000
# 6 0.0000 0.0000 0.0000 -38.2288 0.0000 63.1276
#
#
#
# Elastic Compliance Matrix: (Units=1/GPa)
#
#
# Indices 1 2 3 4 5 6 
#
# 1 0.012614 -0.000807 0.000821 0.000000 -0.015781 0.000000
# 2 -0.000807 0.004122 0.000087 0.000000 0.000530 0.000000
# 3 0.000821 0.000087 0.014123 0.000000 -0.011965 0.000000
# 4 0.000000 0.000000 0.000000 -0.040017 0.000000 -0.024233
# 5 -0.015781 0.000530 -0.011965 0.000000 0.048243 0.000000
# 6 0.000000 0.000000 0.000000 -0.024233 0.000000 0.001166
#
#
# Mechanical properties :
#
#
# Convention : Reuss Voigt Hill
#
# Bulk Modulus (GPa) = 32.19523 70.03512 51.11517
# Shear Modulus (GPa) = 99.19992 51.36846 75.28419
#
# Velocity S-wave (km/s) = 6.02061 4.33244 5.24489
# Velocity P-wave (km/s) = 7.75206 7.11461 7.44017
#
# Compressibility (1/GPa) = 0.03106051
#
# Stress axis : x y z
#
# Youngs Moduli (GPa) = 79.27647 242.62164 70.80486
#
# Poissons Ratio (x) = 0.19569 -0.05810
# Poissons Ratio (y) = 0.06394 -0.00614
# Poissons Ratio (z) = -0.06506 -0.02103
#
# Static dielectric constant tensor:
#      x y z
#    x 2.075450 0.000000 -0.051780 
#    y 0.000000 2.220690 0.000000 
#    z -0.051780 0.000000 2.221190 
# 
# From -- ./inp_files/52180.got.cif
#   From: 2010.05.17/outbox.cif.g08.bks.cpg/sg11_27_cif.got.tgz:52180.got - 2010.06.03 12:22:45.
