data_PCOD9163854
_publ_section_title
;
Structure prediction by ZEFSAII (Michael W. Deem and Ramdas Pophale) SiO2 
 PCOD9163854
Probable space group: P 21/M
;
_chemical_formula_sum "Si O2"
_cell_formula_units_Z 32
_cell_length_a 8.450163
_cell_length_b 23.818310
_cell_length_c 7.255847
_cell_angle_alpha 90.000000
_cell_angle_beta 63.627252
_cell_angle_gamma 90.000000
_cell_volume 1308.383028
_symmetry_space_group_name_H-M "P 21/M"
_symmetry_group_IT_number 11
_symmetry_cell_setting 'monoclinic'
loop_
_space_group_symop_operation_xyz
x,y,z
-x,1/2+y,-z
-x,-y,-z
x,1/2-y,z
loop_
_atom_site_type_symbol
_atom_site_label
_atom_site_fract_x
_atom_site_fract_y
_atom_site_fract_z
Si Si1 0.691965 0.084924 0.481263
Si Si2 0.930309 0.621781 0.684127
Si Si3 0.366346 0.148942 0.616885
Si Si4 0.787830 0.530454 0.326605
Si Si5 0.691837 0.108229 0.031937
Si Si6 0.608303 0.688908 0.768419
Si Si7 0.006450 0.184781 0.964066
Si Si8 0.194301 0.492833 0.115195
O O1 0.530762 0.121570 0.638280
O O2 0.693364 0.093898 0.254102
O O3 0.875214 0.103760 0.478945
O O4 0.683604 0.017476 0.492235
O O5 0.810118 0.668751 0.654675
O O6 0.815159 0.564846 0.767014
O O7 0.975557 0.650589 0.855979
O O8 0.273650 0.091932 0.587476
O O9 0.448259 0.187078 0.415272
O O10 0.207231 0.181891 0.789882
O O11 0.994395 0.516577 0.242146
O O12 0.769299 0.526023 0.114571
O O13 0.520200 0.144235 0.074156
O O14 0.864740 0.148103 0.921116
O O15 0.691674 0.049209 0.924015
O O16 0.593715 0.750000 0.859623
O O17 0.950965 0.250000 0.010252
#
# Coordination Sequence:
#
# PCOD9163854 Si02
#       8
#     4   4   4   4   4   4   4   4
#     4   8  18  31  56  84 111 141 177 219 275 335
#     4  10  20  38  57  79 112 147 182 225 277 333
#     4  11  19  34  56  85 109 141 184 228 268 314
#     4   9  14  29  56  86 113 136 172 227 274 324
#     4   9  18  35  58  80 106 143 185 227 273 330
#     4  11  24  39  52  75 115 153 183 220 276 334
#     4  11  20  34  59  83 103 142 195 232 261 316
#     4   9  15  31  58  88 108 132 181 235 277 318
#
# _framework density 24.45767
#
# number of rings (size 3 to 8) (size 9 to 14) (size 15 to 20)
#    0.000    2.250    2.500    3.000    0.000    0.500 
#    0.000    5.625    0.000    0.000    0.000    0.000 
#    0.000    0.000    0.000    0.000    0.000    0.000 
#
# Total GULP energy -178640.597873 kJ/mol
# GULP energy per Si atom -5582.518684 kJ/mol
# Density = 2.440200 g / cm^3
# Si number density = 24.457670 Si / 1000 Ang^3
#
#
#
# Elastic Constant Matrix: (Units=GPa)
#
#
# Indices 1 2 3 4 5 6 
#
# 1 45.6268 30.4175 12.4509 0.0000 -6.7147 0.0000
# 2 30.4175 161.8330 12.7757 0.0000 -8.2340 0.0000
# 3 12.4509 12.7757 46.1728 0.0000 -0.1899 0.0000
# 4 0.0000 0.0000 0.0000 16.0861 0.0000 -14.7623
# 5 -6.7147 -8.2340 -0.1899 0.0000 30.1496 0.0000
# 6 0.0000 0.0000 0.0000 -14.7623 0.0000 21.7487
#
#
#
# Elastic Compliance Matrix: (Units=1/GPa)
#
#
# Indices 1 2 3 4 5 6 
#
# 1 0.027219 -0.004388 -0.006106 0.000000 0.004825 0.000000
# 2 -0.004388 0.007115 -0.000781 0.000000 0.000961 0.000000
# 3 -0.006106 -0.000781 0.023515 0.000000 -0.001425 0.000000
# 4 0.000000 0.000000 0.000000 0.164853 0.000000 0.111897
# 5 0.004825 0.000961 -0.001425 0.000000 0.034496 0.000000
# 6 0.000000 0.000000 0.000000 0.111897 0.000000 0.121931
#
#
# Mechanical properties :
#
#
# Convention : Reuss Voigt Hill
#
# Bulk Modulus (GPa) = 28.33088 40.54675 34.43881
# Shear Modulus (GPa) = 12.09352 26.79613 19.44483
#
# Velocity S-wave (km/s) = 2.22607 3.31359 2.82270
# Velocity P-wave (km/s) = 4.26802 5.59055 4.97344
#
# Compressibility (1/GPa) = 0.03529717
#
# Stress axis : x y z
#
# Youngs Moduli (GPa) = 36.73943 140.55617 42.52687
#
# Poissons Ratio (x) = 0.61682 0.25966
# Poissons Ratio (y) = 0.16123 0.03322
# Poissons Ratio (z) = 0.22432 0.10981
#
# Static dielectric constant tensor:
#      x y z
#    x 2.023070 0.000000 0.023610 
#    y 0.000000 1.944150 0.000000 
#    z 0.023610 0.000000 2.001980 
# 
# From -- ./inp_files/32994.got.cif
#   From: 2010.05.17/outbox.cif.g08.bks.cpg/sg11_17_cif.got.tgz:32994.got - 2010.06.03 12:22:45.
