data_PCOD9163486
_publ_section_title
;
Structure prediction by ZEFSAII (Michael W. Deem and Ramdas Pophale) SiO2 
 PCOD9163486
Probable space group: P 21/M
;
_chemical_formula_sum "Si O2"
_cell_formula_units_Z 18
_cell_length_a 9.625112
_cell_length_b 18.918203
_cell_length_c 5.035396
_cell_angle_alpha 90.000000
_cell_angle_beta 44.265399
_cell_angle_gamma 90.000000
_cell_volume 639.976634
_symmetry_space_group_name_H-M "P 21/M"
_symmetry_group_IT_number 11
_symmetry_cell_setting 'monoclinic'
loop_
_space_group_symop_operation_xyz
x,y,z
-x,1/2+y,-z
-x,-y,-z
x,1/2-y,z
loop_
_atom_site_type_symbol
_atom_site_label
_atom_site_fract_x
_atom_site_fract_y
_atom_site_fract_z
Si Si1 0.077914 0.750000 0.934249
Si Si2 0.329751 0.390748 0.255014
Si Si3 0.632687 0.028832 0.072793
Si Si4 0.920618 0.097691 0.099737
Si Si5 0.000000 0.000000 0.500000
Si Si6 0.199828 0.250000 0.184427
O O1 0.894606 0.750000 0.976018
O O2 0.178991 0.674009 0.750276
O O3 0.989429 0.750000 0.352596
O O4 0.535495 0.392738 0.135600
O O5 0.221010 0.451460 0.205887
O O6 0.317525 0.320613 0.095993
O O7 0.151401 0.390043 0.716210
O O8 0.848492 0.052789 0.936848
O O9 0.500000 0.000000 0.500000
O O10 0.500000 0.000000 0.000000
O O11 0.899236 0.050394 0.388011
#
# Coordination Sequence:
#
# PCOD9163486 Si02
#       6
#     2   4   4   4   2   2
#     4  10  20  37  58  81 117 154 187 243 286 339
#     4   9  15  29  52  79 112 146 185 234 280 338
#     4   8  14  27  53  81 109 146 187 232 282 335
#     4   8  15  29  52  77 111 143 190 227 284 335
#     4   6  12  26  46  80 102 140 178 226 268 334
#     4  10  22  35  58  85 113 154 193 231 294 343
#
# _framework density 28.126027000000001
#
# number of rings (size 3 to 8) (size 9 to 14) (size 15 to 20)
#    1.333    2.222    0.000    0.000    0.000    0.889 
#    0.000    1.111    0.000   54.667    0.000    0.000 
#    0.000    0.000    0.000    0.000    0.000    0.000 
#
# Total GULP energy -100491.802451 kJ/mol
# GULP energy per Si atom -5582.877914 kJ/mol
# Density = 2.806201 g / cm^3
# Si number density = 28.126027 Si / 1000 Ang^3
#
#
#
# Elastic Constant Matrix: (Units=GPa)
#
#
# Indices 1 2 3 4 5 6 
#
# 1 247.3811 96.9366 66.2505 0.0000 -8.3644 0.0000
# 2 96.9366 265.3503 40.9159 0.0000 25.3214 0.0000
# 3 66.2505 40.9159 128.0784 0.0000 7.5269 0.0000
# 4 0.0000 0.0000 0.0000 27.4260 0.0000 18.2913
# 5 -8.3644 25.3214 7.5269 0.0000 96.1600 0.0000
# 6 0.0000 0.0000 0.0000 18.2913 0.0000 51.5022
#
#
#
# Elastic Compliance Matrix: (Units=1/GPa)
#
#
# Indices 1 2 3 4 5 6 
#
# 1 0.005364 -0.001711 -0.002292 0.000000 0.001096 0.000000
# 2 -0.001711 0.004598 -0.000506 0.000000 -0.001320 0.000000
# 3 -0.002292 -0.000506 0.009201 0.000000 -0.000786 0.000000
# 4 0.000000 0.000000 0.000000 0.047779 0.000000 -0.016969
# 5 0.001096 -0.001320 -0.000786 0.000000 0.010904 0.000000
# 6 0.000000 0.000000 0.000000 -0.016969 0.000000 0.025443
#
#
# Mechanical properties :
#
#
# Convention : Reuss Voigt Hill
#
# Bulk Modulus (GPa) = 98.58050 116.55732 107.56891
# Shear Modulus (GPa) = 43.21949 64.13142 53.67546
#
# Velocity S-wave (km/s) = 3.92425 4.78027 4.37325
# Velocity P-wave (km/s) = 7.46047 8.48522 7.98929
#
# Compressibility (1/GPa) = 0.01014399
#
# Stress axis : x y z
#
# Youngs Moduli (GPa) = 186.44102 217.50857 108.67843
#
# Poissons Ratio (x) = 0.37206 0.24913
# Poissons Ratio (y) = 0.31892 0.05503
# Poissons Ratio (z) = 0.42740 0.11013
#
# Static dielectric constant tensor:
#      x y z
#    x 1.879840 0.000000 0.095210 
#    y 0.000000 1.884110 0.000000 
#    z 0.095210 0.000000 2.051770 
# 
# From -- ./inp_files/2113.got.cif
#   From: 2010.05.17/outbox.cif.g08.bks.cpg/sg11_2_cif.got.tgz:2113.got - 2010.06.03 12:22:45.
