data_PCOD9163371
_publ_section_title
;
Structure prediction by ZEFSAII (Michael W. Deem and Ramdas Pophale) SiO2 
 PCOD9163371
Probable space group: P 21/M
;
_chemical_formula_sum "Si O2"
_cell_formula_units_Z 28
_cell_length_a 22.011040
_cell_length_b 9.116376
_cell_length_c 24.261944
_cell_angle_alpha 90.000000
_cell_angle_beta 17.910813
_cell_angle_gamma 90.000000
_cell_volume 1497.216592
_symmetry_space_group_name_H-M "P 21/M"
_symmetry_group_IT_number 11
_symmetry_cell_setting 'monoclinic'
loop_
_space_group_symop_operation_xyz
x,y,z
-x,1/2+y,-z
-x,-y,-z
x,1/2-y,z
loop_
_atom_site_type_symbol
_atom_site_label
_atom_site_fract_x
_atom_site_fract_y
_atom_site_fract_z
Si Si1 0.704453 0.925353 0.992085
Si Si2 0.369977 0.417924 0.067072
Si Si3 0.387203 0.074483 0.523420
Si Si4 0.202901 0.426539 0.801774
Si Si5 0.115371 0.078798 0.654141
Si Si6 0.344052 0.421045 0.341716
Si Si7 0.947148 0.081324 0.489304
O O1 0.697189 0.750000 0.998241
O O2 0.637422 0.977899 0.988633
O O3 0.921815 0.980670 0.817762
O O4 0.549962 0.994981 0.167271
O O5 0.440344 0.250000 0.004040
O O6 0.145435 0.418173 0.281897
O O7 0.500000 0.500000 0.000000
O O8 0.427419 0.250000 0.489319
O O9 0.254099 0.042544 0.692804
O O10 0.260069 0.039012 0.579197
O O11 0.596755 0.990444 0.343293
O O12 0.189721 0.250000 0.819925
O O13 0.000000 0.500000 0.000000
O O14 0.058027 0.250000 0.711050
O O15 0.227759 0.066474 0.499189
O O16 0.374315 0.250000 0.303197
O O17 0.217418 0.496407 0.402893
O O18 0.887958 0.250000 0.550522
O O19 0.000000 0.000000 0.500000
#
# Coordination Sequence:
#
# PCOD9163371 Si02
#       7
#     4   4   4   4   4   4   4
#     4  11  23  40  60  84 116 154 194 243 299 356
#     4  10  22  37  55  79 109 144 185 236 291 350
#     4   9  20  39  61  87 120 161 204 247 292 345
#     4  10  20  36  61  91 125 161 200 246 295 346
#     4  10  22  41  63  86 118 159 203 247 294 353
#     4  11  23  39  60  86 114 151 195 243 297 354
#     4  11  22  38  57  82 113 147 191 241 297 356
#
# _framework density 18.701369
#
# number of rings (size 3 to 8) (size 9 to 14) (size 15 to 20)
#    0.000    1.714    1.429    2.571    0.000    7.429 
#    0.000    5.714    0.000    0.000    0.000    0.000 
#    0.000    0.000    0.000    0.000    0.000    0.000 
#
# Total GULP energy -156366.175002 kJ/mol
# GULP energy per Si atom -5584.506250 kJ/mol
# Density = 1.865880 g / cm^3
# Si number density = 18.701369 Si / 1000 Ang^3
#
#
#
# Elastic Constant Matrix: (Units=GPa)
#
#
# Indices 1 2 3 4 5 6 
#
# 1 101.7377 59.1257 39.8825 0.0000 -22.3817 0.0000
# 2 59.1257 101.7323 72.5533 0.0000 -13.5019 0.0000
# 3 39.8825 72.5533 132.5283 0.0000 -10.0422 0.0000
# 4 0.0000 0.0000 0.0000 38.3545 0.0000 -5.3388
# 5 -22.3817 -13.5019 -10.0422 0.0000 19.1024 0.0000
# 6 0.0000 0.0000 0.0000 -5.3388 0.0000 26.0508
#
#
#
# Elastic Compliance Matrix: (Units=1/GPa)
#
#
# Indices 1 2 3 4 5 6 
#
# 1 0.018154 -0.008948 0.000591 0.000000 0.015257 0.000000
# 2 -0.008948 0.021498 -0.009082 0.000000 -0.000062 0.000000
# 3 0.000591 -0.009082 0.012399 0.000000 0.000792 0.000000
# 4 0.000000 0.000000 0.000000 0.026838 0.000000 0.005500
# 5 0.015257 -0.000062 0.000792 0.000000 0.070598 0.000000
# 6 0.000000 0.000000 0.000000 0.005500 0.000000 0.039514
#
#
# Mechanical properties :
#
#
# Convention : Reuss Voigt Hill
#
# Bulk Modulus (GPa) = 58.22069 75.45792 66.83931
# Shear Modulus (GPa) = 21.77678 27.66398 24.72038
#
# Velocity S-wave (km/s) = 3.41610 3.85027 3.63967
# Velocity P-wave (km/s) = 6.83806 7.75903 7.31306
#
# Compressibility (1/GPa) = 0.01717602
#
# Stress axis : x y z
#
# Youngs Moduli (GPa) = 55.08489 46.51491 80.64947
#
# Poissons Ratio (x) = 0.41620 -0.04770
# Poissons Ratio (y) = 0.49288 0.73242
# Poissons Ratio (z) = -0.03258 0.42243
#
# Static dielectric constant tensor:
#      x y z
#    x 1.634920 0.000000 0.018730 
#    y 0.000000 1.638800 0.000000 
#    z 0.018730 0.000000 1.653410 
# 
# From -- ./inp_files/69762.got.cif
#   From: 2010.05.17/outbox.cif.g08.bks.cpg/sg11_35_cif.got.tgz:69762.got - 2010.06.03 12:22:45.
