data_PCOD9163847
_publ_section_title
;
Structure prediction by ZEFSAII (Michael W. Deem and Ramdas Pophale) SiO2 
 PCOD9163847
Probable space group: P 21/M
;
_chemical_formula_sum "Si O2"
_cell_formula_units_Z 28
_cell_length_a 9.924010
_cell_length_b 18.977642
_cell_length_c 8.705781
_cell_angle_alpha 90.000000
_cell_angle_beta 140.814177
_cell_angle_gamma 90.000000
_cell_volume 1035.959084
_symmetry_space_group_name_H-M "P 21/M"
_symmetry_group_IT_number 11
_symmetry_cell_setting 'monoclinic'
loop_
_space_group_symop_operation_xyz
x,y,z
-x,1/2+y,-z
-x,-y,-z
x,1/2-y,z
loop_
_atom_site_type_symbol
_atom_site_label
_atom_site_fract_x
_atom_site_fract_y
_atom_site_fract_z
Si Si1 0.778327 0.390138 0.149663
Si Si2 0.800669 0.863863 0.641897
Si Si3 0.246549 0.750000 0.371476
Si Si4 0.247506 0.586893 0.346216
Si Si5 0.356417 0.322408 0.813051
Si Si6 0.545008 0.485537 0.741678
Si Si7 0.954049 0.568934 0.353441
Si Si8 0.254687 0.250000 0.140339
O O1 0.879726 0.381605 0.406447
O O2 0.957510 0.385241 0.178204
O O3 0.600722 0.331539 0.985594
O O4 0.652626 0.462787 0.996437
O O5 0.755664 0.819509 0.449736
O O6 0.644308 0.929883 0.468930
O O7 0.767335 0.818896 0.765163
O O8 0.263115 0.669499 0.319383
O O9 0.484897 0.750000 0.670254
O O10 0.979936 0.750000 0.158818
O O11 0.439350 0.561328 0.630609
O O12 0.286066 0.534146 0.239836
O O13 0.033840 0.568055 0.250949
O O14 0.317044 0.250000 0.864150
O O15 0.265915 0.390392 0.819565
O O16 0.000000 0.500000 0.500000
#
# Coordination Sequence:
#
# PCOD9163847 Si02
#       8
#     4   4   2   4   4   4   4   2
#     4  10  22  41  71 101 135 187 244 303 367 436
#     4  10  20  37  69 104 141 183 236 305 365 427
#     4  12  28  50  67 112 153 208 239 304 384 466
#     4  11  24  47  72  99 151 184 244 304 380 444
#     4  10  22  38  62 100 140 179 242 294 364 437
#     4  10  22  45  71 107 135 183 246 308 366 443
#     4  11  25  47  68  98 140 187 243 308 369 445
#     4  12  24  44  73 104 159 198 249 304 380 456
#
# _framework density 27.028095
#
# number of rings (size 3 to 8) (size 9 to 14) (size 15 to 20)
#    0.000    1.429    2.143    3.429    4.000    2.857 
#    7.714    4.286    0.000    0.000    0.000    0.000 
#    0.000    0.000    0.000    0.000    0.000    0.000 
#
# Total GULP energy -156094.358830 kJ/mol
# GULP energy per Si atom -5574.798530 kJ/mol
# Density = 2.696658 g / cm^3
# Si number density = 27.028095 Si / 1000 Ang^3
#
#
#
# Elastic Constant Matrix: (Units=GPa)
#
#
# Indices 1 2 3 4 5 6 
#
# 1 111.4446 20.1129 25.8061 0.0000 35.4643 0.0000
# 2 20.1129 138.6899 11.6887 0.0000 10.1872 0.0000
# 3 25.8061 11.6887 148.3100 0.0000 9.4561 0.0000
# 4 0.0000 0.0000 0.0000 -16.6123 0.0000 -6.2528
# 5 35.4643 10.1872 9.4561 0.0000 30.8435 0.0000
# 6 0.0000 0.0000 0.0000 -6.2528 0.0000 1.2256
#
#
#
# Elastic Compliance Matrix: (Units=1/GPa)
#
#
# Indices 1 2 3 4 5 6 
#
# 1 0.014553 -0.000812 -0.001447 0.000000 -0.016022 0.000000
# 2 -0.000812 0.007463 -0.000356 0.000000 -0.001422 0.000000
# 3 -0.001447 -0.000356 0.007047 0.000000 -0.000379 0.000000
# 4 0.000000 0.000000 0.000000 -0.020613 0.000000 -0.105163
# 5 -0.016022 -0.001422 -0.000379 0.000000 0.051430 0.000000
# 6 0.000000 0.000000 0.000000 -0.105163 0.000000 0.279396
#
#
# Mechanical properties :
#
#
# Convention : Reuss Voigt Hill
#
# Bulk Modulus (GPa) = 41.95893 57.07333 49.51613
# Shear Modulus (GPa) = 14.18650 25.81383 20.00016
#
# Velocity S-wave (km/s) = 2.29351 3.09378 2.72320
# Velocity P-wave (km/s) = 4.75095 5.82444 5.31487
#
# Compressibility (1/GPa) = 0.02383283
#
# Stress axis : x y z
#
# Youngs Moduli (GPa) = 68.71417 134.00272 141.91200
#
# Poissons Ratio (x) = 0.10877 0.20531
# Poissons Ratio (y) = 0.05578 0.05055
# Poissons Ratio (z) = 0.09941 0.04773
#
# Static dielectric constant tensor:
#      x y z
#    x 2.123780 0.000000 -0.002580 
#    y 0.000000 2.092240 0.000000 
#    z -0.002580 0.000000 2.197560 
# 
# From -- ./inp_files/36432.got.cif
#   From: 2010.05.17/outbox.cif.g08.bks.cpg/sg11_19_cif.got.tgz:36432.got - 2010.06.03 12:22:45.
