data_PCOD9163895
_publ_section_title
;
Structure prediction by ZEFSAII (Michael W. Deem and Ramdas Pophale) SiO2 
 PCOD9163895
Probable space group: P 21/M
;
_chemical_formula_sum "Si O2"
_cell_formula_units_Z 32
_cell_length_a 9.457592
_cell_length_b 14.511239
_cell_length_c 13.333408
_cell_angle_alpha 90.000000
_cell_angle_beta 116.323848
_cell_angle_gamma 90.000000
_cell_volume 1640.138685
_symmetry_space_group_name_H-M "P 21/M"
_symmetry_group_IT_number 11
_symmetry_cell_setting 'monoclinic'
loop_
_space_group_symop_operation_xyz
x,y,z
-x,1/2+y,-z
-x,-y,-z
x,1/2-y,z
loop_
_atom_site_type_symbol
_atom_site_label
_atom_site_fract_x
_atom_site_fract_y
_atom_site_fract_z
Si Si1 0.436870 0.598256 0.018120
Si Si2 0.311034 0.482658 0.150079
Si Si3 0.256027 0.148388 0.961999
Si Si4 0.769556 0.354587 0.616573
Si Si5 0.174798 0.642673 0.772739
Si Si6 0.488856 0.046704 0.605437
Si Si7 0.818707 0.034984 0.432781
Si Si8 0.982299 0.009653 0.813909
O O1 0.599663 0.652984 0.070845
O O2 0.316309 0.637237 0.898417
O O3 0.500000 0.500000 0.000000
O O4 0.354982 0.571959 0.096511
O O5 0.326651 0.390519 0.088814
O O6 0.421474 0.486466 0.282057
O O7 0.132087 0.490874 0.129620
O O8 0.185431 0.250000 0.951004
O O9 0.134262 0.069737 0.890793
O O10 0.824310 0.250000 0.641486
O O11 0.599962 0.365249 0.619104
O O12 0.774651 0.389053 0.503373
O O13 0.883580 0.426773 0.707366
O O14 0.142681 0.750000 0.740247
O O15 0.208253 0.582621 0.683529
O O16 0.033123 0.586504 0.780779
O O17 0.500000 0.000000 0.500000
O O18 0.307593 0.047053 0.584613
O O19 0.000000 0.000000 0.500000
#
# Coordination Sequence:
#
# PCOD9163895 Si02
#       8
#     4   4   4   4   4   4   4   4
#     4  10  20  38  60  84 122 163 202 253 314 373
#     4  10  21  39  63  82 124 170 202 246 314 370
#     4  11  22  37  61  94 122 159 211 257 310 378
#     4  10  21  41  64  90 127 171 212 255 316 385
#     4  12  24  39  63  95 127 167 213 260 320 387
#     4   9  21  39  64  88 120 164 209 253 316 374
#     4  11  21  39  68  92 125 170 206 269 326 368
#     4  11  22  40  61  89 129 167 203 267 311 363
#
# _framework density 19.510546000000001
#
# number of rings (size 3 to 8) (size 9 to 14) (size 15 to 20)
#    0.000    1.500    3.750    3.000    0.000    0.500 
#    0.000    9.375    0.000    0.750    0.000    0.000 
#    0.000    0.000    0.000    0.000    0.000    0.000 
#
# Total GULP energy -178312.133266 kJ/mol
# GULP energy per Si atom -5572.254165 kJ/mol
# Density = 1.946614 g / cm^3
# Si number density = 19.510546 Si / 1000 Ang^3
#
#
#
# Elastic Constant Matrix: (Units=GPa)
#
#
# Indices 1 2 3 4 5 6 
#
# 1 150.4577 29.0451 30.0265 0.0000 -2.2941 0.0000
# 2 29.0451 81.3359 5.8621 0.0000 -2.7109 0.0000
# 3 30.0265 5.8621 80.6422 0.0000 -9.0989 0.0000
# 4 0.0000 0.0000 0.0000 8.6942 0.0000 -3.4843
# 5 -2.2941 -2.7109 -9.0989 0.0000 33.9892 0.0000
# 6 0.0000 0.0000 0.0000 -3.4843 0.0000 18.2874
#
#
#
# Elastic Compliance Matrix: (Units=1/GPa)
#
#
# Indices 1 2 3 4 5 6 
#
# 1 0.007677 -0.002559 -0.002719 0.000000 -0.000414 0.000000
# 2 -0.002559 0.013232 0.000093 0.000000 0.000908 0.000000
# 3 -0.002719 0.000093 0.013803 0.000000 0.003519 0.000000
# 4 0.000000 0.000000 0.000000 0.124527 0.000000 0.023726
# 5 -0.000414 0.000908 0.003519 0.000000 0.030408 0.000000
# 6 0.000000 0.000000 0.000000 0.023726 0.000000 0.059203
#
#
# Mechanical properties :
#
#
# Convention : Reuss Voigt Hill
#
# Bulk Modulus (GPa) = 41.08062 49.14477 45.11270
# Shear Modulus (GPa) = 18.70324 28.69432 23.69878
#
# Velocity S-wave (km/s) = 3.09952 3.83914 3.48899
# Velocity P-wave (km/s) = 5.82329 6.70041 6.27719
#
# Compressibility (1/GPa) = 0.02434238
#
# Stress axis : x y z
#
# Youngs Moduli (GPa) = 130.26350 75.57375 72.44736
#
# Poissons Ratio (x) = 0.19341 0.19699
# Poissons Ratio (y) = 0.33337 -0.00677
# Poissons Ratio (z) = 0.35419 -0.00706
#
# Static dielectric constant tensor:
#      x y z
#    x 1.741650 0.000000 0.009670 
#    y 0.000000 1.593080 0.000000 
#    z 0.009670 0.000000 1.732700 
# 
# From -- ./inp_files/47633.got.cif
#   From: 2010.05.17/outbox.cif.g08.bks.cpg/sg11_24_cif.got.tgz:47633.got - 2010.06.03 12:22:45.
