data_PCOD9163338
_publ_section_title
;
Structure prediction by ZEFSAII (Michael W. Deem and Ramdas Pophale) SiO2 
 PCOD9163338
Probable space group: P 21/M
;
_chemical_formula_sum "Si O2"
_cell_formula_units_Z 28
_cell_length_a 21.156158
_cell_length_b 14.708843
_cell_length_c 9.547401
_cell_angle_alpha 90.000000
_cell_angle_beta 30.395508
_cell_angle_gamma 90.000000
_cell_volume 1503.217881
_symmetry_space_group_name_H-M "P 21/M"
_symmetry_group_IT_number 11
_symmetry_cell_setting 'monoclinic'
loop_
_space_group_symop_operation_xyz
x,y,z
-x,1/2+y,-z
-x,-y,-z
x,1/2-y,z
loop_
_atom_site_type_symbol
_atom_site_label
_atom_site_fract_x
_atom_site_fract_y
_atom_site_fract_z
Si Si1 0.278916 0.352240 0.414901
Si Si2 0.577679 0.499957 0.705310
Si Si3 0.997094 0.108905 0.010034
Si Si4 0.165434 0.848802 0.434860
Si Si5 0.135469 0.952366 0.226619
Si Si6 0.773180 0.355713 0.229248
Si Si7 0.675136 0.514491 0.919794
O O1 0.326807 0.250000 0.333793
O O2 0.330653 0.415723 0.441218
O O3 0.312472 0.397185 0.200902
O O4 0.129775 0.354631 0.710049
O O5 0.657489 0.410232 0.519045
O O6 0.470793 0.508973 0.791314
O O7 0.500000 0.500000 0.000000
O O8 0.958863 0.138998 0.238007
O O9 0.886184 0.143082 0.123632
O O10 0.000000 0.000000 0.000000
O O11 0.220607 0.750000 0.355358
O O12 0.134893 0.865509 0.331342
O O13 0.258235 0.931638 0.293080
O O14 0.177579 0.916039 0.995870
O O15 0.000000 0.000000 0.500000
O O16 0.243013 0.014864 0.094989
O O17 0.744602 0.250000 0.248496
#
# Coordination Sequence:
#
# PCOD9163338 Si02
#       7
#     4   4   4   4   4   4   4
#     4  11  21  35  59  90 122 158 207 262 316 373
#     4  10  22  39  60  90 124 164 210 258 314 363
#     4  12  19  36  59  88 121 152 200 260 317 365
#     4  10  20  36  61  87 118 158 203 253 312 375
#     4  10  22  40  64  91 129 162 200 257 315 369
#     4  12  24  39  66  96 126 168 214 255 310 384
#     4   9  21  39  60  84 123 164 202 253 309 366
#
# _framework density 18.626708000000001
#
# number of rings (size 3 to 8) (size 9 to 14) (size 15 to 20)
#    0.857    0.571    2.857    4.286    0.000    3.429 
#    0.000    0.714    0.000    0.857    0.000    0.000 
#    0.000    0.000    0.000    0.000    0.000    0.000 
#
# Total GULP energy -155949.696945 kJ/mol
# GULP energy per Si atom -5569.632034 kJ/mol
# Density = 1.858431 g / cm^3
# Si number density = 18.626708 Si / 1000 Ang^3
#
#
#
# Elastic Constant Matrix: (Units=GPa)
#
#
# Indices 1 2 3 4 5 6 
#
# 1 62.3047 14.2041 28.2880 0.0000 -15.3922 0.0000
# 2 14.2041 124.5137 26.1390 0.0000 -9.5312 0.0000
# 3 28.2880 26.1390 78.8141 0.0000 -2.3103 0.0000
# 4 0.0000 0.0000 0.0000 4.8236 0.0000 11.4959
# 5 -15.3922 -9.5312 -2.3103 0.0000 36.5831 0.0000
# 6 0.0000 0.0000 0.0000 11.4959 0.0000 13.8237
#
#
#
# Elastic Compliance Matrix: (Units=1/GPa)
#
#
# Indices 1 2 3 4 5 6 
#
# 1 0.021585 -0.000252 -0.007413 0.000000 0.008548 0.000000
# 2 -0.000252 0.008795 -0.002768 0.000000 0.002011 0.000000
# 3 -0.007413 -0.002768 0.016184 0.000000 -0.002818 0.000000
# 4 0.000000 0.000000 0.000000 -0.211123 0.000000 0.175573
# 5 0.008548 0.002011 -0.002818 0.000000 0.031277 0.000000
# 6 0.000000 0.000000 0.000000 0.175573 0.000000 -0.073669
#
#
# Mechanical properties :
#
#
# Convention : Reuss Voigt Hill
#
# Bulk Modulus (GPa) = 38.91209 44.76607 41.83908
# Shear Modulus (GPa) = -28.16599 24.17951 -1.99324
#
# Velocity S-wave (km/s) = -3.89283 3.60684 -1.03558
# Velocity P-wave (km/s) = 0.85460 6.43670 4.59138
#
# Compressibility (1/GPa) = 0.02569896
#
# Stress axis : x y z
#
# Youngs Moduli (GPa) = 46.32817 113.70274 61.78903
#
# Poissons Ratio (x) = 0.02863 0.45806
# Poissons Ratio (y) = 0.01166 0.17100
# Poissons Ratio (z) = 0.34344 0.31468
#
# Static dielectric constant tensor:
#      x y z
#    x 1.668660 0.000000 -0.010340 
#    y 0.000000 1.750040 0.000000 
#    z -0.010340 0.000000 1.656530 
# 
# From -- ./inp_files/26907.got.cif
#   From: 2010.05.17/outbox.cif.g08.bks.cpg/sg11_14_cif.got.tgz:26907.got - 2010.06.03 12:22:45.
