data_PCOD9163019
_publ_section_title
;
Structure prediction by ZEFSAII (Michael W. Deem and Ramdas Pophale) SiO2 
 PCOD9163019
Probable space group: P 21/M
;
_chemical_formula_sum "Si O2"
_cell_formula_units_Z 28
_cell_length_a 11.065036
_cell_length_b 11.552548
_cell_length_c 10.172790
_cell_angle_alpha 90.000000
_cell_angle_beta 103.846044
_cell_angle_gamma 90.000000
_cell_volume 1262.595112
_symmetry_space_group_name_H-M "P 21/M"
_symmetry_group_IT_number 11
_symmetry_cell_setting 'monoclinic'
loop_
_space_group_symop_operation_xyz
x,y,z
-x,1/2+y,-z
-x,-y,-z
x,1/2-y,z
loop_
_atom_site_type_symbol
_atom_site_label
_atom_site_fract_x
_atom_site_fract_y
_atom_site_fract_z
Si Si1 0.632283 0.122786 0.189246
Si Si2 0.336751 0.380974 0.651274
Si Si3 0.915418 0.448006 0.788389
Si Si4 0.836484 0.433329 0.047073
Si Si5 0.037732 0.373821 0.565325
Si Si6 0.697914 0.617840 0.650012
Si Si7 0.632403 0.878225 0.924606
O O1 0.621067 0.250000 0.255886
O O2 0.758254 0.130502 0.137571
O O3 0.509444 0.115259 0.064471
O O4 0.632022 0.999819 0.265217
O O5 0.380275 0.250000 0.705343
O O6 0.371030 0.396428 0.506238
O O7 0.186544 0.375877 0.615958
O O8 0.973449 0.371132 0.690508
O O9 0.808659 0.527037 0.695977
O O10 0.029501 0.529074 0.865032
O O11 0.861231 0.388252 0.905685
O O12 0.741259 0.539871 0.999660
O O13 0.004642 0.250000 0.488318
O O14 0.000000 0.500000 0.500000
O O15 0.747422 0.750000 0.661797
O O16 0.619796 0.606811 0.763231
O O17 0.678423 0.750000 0.964493
#
# Coordination Sequence:
#
# PCOD9163019 Si02
#       7
#     4   4   4   4   4   4   4
#     4  11  23  39  60  89 122 156 199 252 300 340
#     4  10  21  38  61  87 117 157 200 240 292 359
#     4  10  20  36  57  88 118 154 195 243 294 349
#     4  10  21  37  58  83 118 157 200 242 292 350
#     4  11  22  37  59  88 121 154 193 238 295 359
#     4   9  18  36  60  87 119 156 197 240 296 365
#     4   9  20  38  61  85 115 158 203 247 296 351
#
# _framework density 22.176548
#
# number of rings (size 3 to 8) (size 9 to 14) (size 15 to 20)
#    0.000    2.000    2.857    0.429    0.000    3.429 
#    0.000    3.571    0.000    0.857    0.000    0.000 
#    0.000    0.000    0.000    0.000    0.000    0.000 
#
# Total GULP energy -155935.767861 kJ/mol
# GULP energy per Si atom -5569.134566 kJ/mol
# Density = 2.212607 g / cm^3
# Si number density = 22.176548 Si / 1000 Ang^3
#
#
#
# Elastic Constant Matrix: (Units=GPa)
#
#
# Indices 1 2 3 4 5 6 
#
# 1 41.2069 0.2605 -12.9090 0.0000 -4.2542 0.0000
# 2 0.2605 171.2241 39.8578 0.0000 13.4707 0.0000
# 3 -12.9090 39.8578 55.0926 0.0000 -4.4299 0.0000
# 4 0.0000 0.0000 0.0000 89.9553 0.0000 -18.7900
# 5 -4.2542 13.4707 -4.4299 0.0000 13.9512 0.0000
# 6 0.0000 0.0000 0.0000 -18.7900 0.0000 -34.8848
#
#
#
# Elastic Compliance Matrix: (Units=1/GPa)
#
#
# Indices 1 2 3 4 5 6 
#
# 1 0.029413 -0.003882 0.011004 0.000000 0.016211 0.000000
# 2 -0.003882 0.008713 -0.008194 0.000000 -0.012199 0.000000
# 3 0.011004 -0.008194 0.028286 0.000000 0.020249 0.000000
# 4 0.000000 0.000000 0.000000 0.009992 0.000000 -0.005382
# 5 0.016211 -0.012199 0.020249 0.000000 0.094830 0.000000
# 6 0.000000 0.000000 0.000000 -0.005382 0.000000 -0.025767
#
#
# Mechanical properties :
#
#
# Convention : Reuss Voigt Hill
#
# Bulk Modulus (GPa) = 15.55983 35.77134 25.66558
# Shear Modulus (GPa) = 29.57960 29.82529 29.70244
#
# Velocity S-wave (km/s) = 3.65612 3.67127 3.66370
# Velocity P-wave (km/s) = 4.98543 5.84262 5.43096
#
# Compressibility (1/GPa) = 0.06426806
#
# Stress axis : x y z
#
# Youngs Moduli (GPa) = 33.99854 114.76579 35.35309
#
# Poissons Ratio (x) = 0.44547 -0.38901
# Poissons Ratio (y) = 0.13197 0.28969
# Poissons Ratio (z) = -0.37411 0.94042
#
# Static dielectric constant tensor:
#      x y z
#    x 1.776250 0.000000 -0.051840 
#    y 0.000000 1.968030 0.000000 
#    z -0.051840 0.000000 1.894140 
# 
# From -- ./inp_files/34354.got.cif
#   From: 2010.05.17/outbox.cif.g08.bks.cpg/sg11_18_cif.got.tgz:34354.got - 2010.06.03 12:22:45.
