data_PCOD9163303
_publ_section_title
;
Structure prediction by ZEFSAII (Michael W. Deem and Ramdas Pophale) SiO2 
 PCOD9163303
Probable space group: P 21/M
;
_chemical_formula_sum "Si O2"
_cell_formula_units_Z 32
_cell_length_a 14.528764
_cell_length_b 8.825623
_cell_length_c 28.356611
_cell_angle_alpha 90.000000
_cell_angle_beta 29.239898
_cell_angle_gamma 90.000000
_cell_volume 1776.085843
_symmetry_space_group_name_H-M "P 21/M"
_symmetry_group_IT_number 11
_symmetry_cell_setting 'monoclinic'
loop_
_space_group_symop_operation_xyz
x,y,z
-x,1/2+y,-z
-x,-y,-z
x,1/2-y,z
loop_
_atom_site_type_symbol
_atom_site_label
_atom_site_fract_x
_atom_site_fract_y
_atom_site_fract_z
Si Si1 0.782861 0.931616 0.400406
Si Si2 0.106341 0.929756 0.998019
Si Si3 0.185896 0.573802 0.805972
Si Si4 0.560878 0.924234 0.696034
Si Si5 0.386924 0.566768 0.618695
Si Si6 0.478773 0.929731 0.186866
Si Si7 0.108933 0.570131 0.495684
Si Si8 0.117757 0.070094 0.306614
O O1 0.795859 0.750000 0.394150
O O2 0.607746 0.975111 0.513431
O O3 0.720969 0.993196 0.377113
O O4 0.979362 0.001689 0.329357
O O5 0.116918 0.750000 0.986970
O O6 0.983456 0.974038 0.098692
O O7 0.315199 0.996993 0.910190
O O8 0.000000 0.000000 0.000000
O O9 0.126357 0.750000 0.827498
O O10 0.347886 0.570415 0.773416
O O11 0.285798 0.524428 0.712758
O O12 0.611712 0.750000 0.684183
O O13 0.585357 0.023323 0.731659
O O14 0.691155 0.986984 0.596187
O O15 0.378714 0.750000 0.618888
O O16 0.490429 0.750000 0.177635
O O17 0.322078 0.994964 0.221405
O O18 0.131664 0.750000 0.479840
O O19 0.000000 0.500000 0.500000
O O20 0.993605 0.541869 0.594572
O O21 0.138112 0.250000 0.291399
#
# Coordination Sequence:
#
# PCOD9163303 Si02
#       8
#     4   4   4   4   4   4   4   4
#     4  10  20  36  60  89 119 154 194 239 287 342
#     4  12  24  39  59  83 114 152 195 243 293 344
#     4  10  21  37  59  84 114 151 191 238 291 344
#     4  11  21  34  53  78 113 150 188 232 280 337
#     4   9  19  37  60  88 120 155 191 237 290 341
#     4  12  24  38  57  80 110 150 194 237 284 342
#     4  11  22  33  49  73 108 149 189 230 275 332
#     4  11  23  38  56  80 113 155 195 236 287 345
#
# _framework density 18.017146
#
# number of rings (size 3 to 8) (size 9 to 14) (size 15 to 20)
#    0.000    1.250    2.500    4.500    0.000    4.000 
#    0.000    0.000    0.000    0.750    0.000    0.000 
#    0.000    0.000    0.000    0.000    0.000    0.000 
#
# Total GULP energy -178798.018712 kJ/mol
# GULP energy per Si atom -5587.438085 kJ/mol
# Density = 1.797614 g / cm^3
# Si number density = 18.017146 Si / 1000 Ang^3
#
#
#
# Elastic Constant Matrix: (Units=GPa)
#
#
# Indices 1 2 3 4 5 6 
#
# 1 98.5225 38.8714 44.5559 0.0000 -19.4198 0.0000
# 2 38.8714 83.1958 49.7514 0.0000 -18.8466 0.0000
# 3 44.5559 49.7514 101.4087 0.0000 -19.8172 0.0000
# 4 0.0000 0.0000 0.0000 29.2066 0.0000 -2.9303
# 5 -19.4198 -18.8466 -19.8172 0.0000 33.1268 0.0000
# 6 0.0000 0.0000 0.0000 -2.9303 0.0000 26.9913
#
#
#
# Elastic Compliance Matrix: (Units=1/GPa)
#
#
# Indices 1 2 3 4 5 6 
#
# 1 0.013950 -0.003409 -0.003666 0.000000 0.004045 0.000000
# 2 -0.003409 0.018709 -0.006784 0.000000 0.004587 0.000000
# 3 -0.003666 -0.006784 0.015430 0.000000 0.003221 0.000000
# 4 0.000000 0.000000 0.000000 0.034616 0.000000 0.003758
# 5 0.004045 0.004587 0.003221 0.000000 0.037095 0.000000
# 6 0.000000 0.000000 0.000000 0.003758 0.000000 0.037457
#
#
# Mechanical properties :
#
#
# Convention : Reuss Voigt Hill
#
# Bulk Modulus (GPa) = 49.09314 61.05382 55.07348
# Shear Modulus (GPa) = 26.07333 27.86149 26.96741
#
# Velocity S-wave (km/s) = 3.80826 3.93668 3.87300
# Velocity P-wave (km/s) = 6.82966 7.39076 7.11574
#
# Compressibility (1/GPa) = 0.02036945
#
# Stress axis : x y z
#
# Youngs Moduli (GPa) = 71.68213 53.45070 64.80911
#
# Poissons Ratio (x) = 0.18222 0.23761
# Poissons Ratio (y) = 0.24438 0.43969
# Poissons Ratio (z) = 0.26281 0.36263
#
# Static dielectric constant tensor:
#      x y z
#    x 1.615070 0.000000 -0.025100 
#    y 0.000000 1.603200 0.000000 
#    z -0.025100 0.000000 1.663460 
# 
# From -- ./inp_files/71614.got.cif
#   From: 2010.05.17/outbox.cif.g08.bks.cpg/sg11_36_cif.got.tgz:71614.got - 2010.06.03 12:22:45.
