data_PCOD9163896
_publ_section_title
;
Structure prediction by ZEFSAII (Michael W. Deem and Ramdas Pophale) SiO2 
 PCOD9163896
Probable space group: P 21/M
;
_chemical_formula_sum "Si O2"
_cell_formula_units_Z 32
_cell_length_a 12.337749
_cell_length_b 10.862353
_cell_length_c 25.199993
_cell_angle_alpha 90.000000
_cell_angle_beta 30.717697
_cell_angle_gamma 90.000000
_cell_volume 1725.116221
_symmetry_space_group_name_H-M "P 21/M"
_symmetry_group_IT_number 11
_symmetry_cell_setting 'monoclinic'
loop_
_space_group_symop_operation_xyz
x,y,z
-x,1/2+y,-z
-x,-y,-z
x,1/2-y,z
loop_
_atom_site_type_symbol
_atom_site_label
_atom_site_fract_x
_atom_site_fract_y
_atom_site_fract_z
Si Si1 0.904688 0.895673 0.722183
Si Si2 0.568889 0.995046 0.778788
Si Si3 0.451355 0.117526 0.669651
Si Si4 0.850314 0.384097 0.573704
Si Si5 0.187389 0.105885 0.006620
Si Si6 0.706299 0.390489 0.197895
Si Si7 0.309818 0.399612 0.075551
Si Si8 0.605589 0.391107 0.487751
O O1 0.890630 0.750000 0.723555
O O2 0.741332 0.946010 0.747636
O O3 0.836498 0.925283 0.811409
O O4 0.148186 0.927561 0.608113
O O5 0.457332 0.906734 0.782036
O O6 0.698467 0.092743 0.688328
O O7 0.372308 0.040660 0.896502
O O8 0.351063 0.250000 0.727969
O O9 0.688864 0.119830 0.592771
O O10 0.476975 0.113446 0.596491
O O11 0.347965 0.996423 0.737205
O O12 0.958473 0.250000 0.532480
O O13 0.000000 0.500000 0.500000
O O14 0.231410 0.250000 0.983436
O O15 0.199383 0.078119 0.064784
O O16 0.953665 0.085498 0.080992
O O17 0.692311 0.250000 0.223948
O O18 0.366381 0.250000 0.053469
O O19 0.500000 0.500000 0.000000
O O20 0.500000 0.500000 0.500000
O O21 0.602964 0.250000 0.466487
#
# Coordination Sequence:
#
# PCOD9163896 Si02
#       8
#     4   4   4   4   4   4   4   4
#     4  10  21  37  60  86 117 156 196 239 294 349
#     4  11  20  37  60  86 121 154 194 239 291 349
#     4   9  20  39  57  79 114 154 190 232 290 348
#     4  10  21  36  58  84 112 149 188 232 287 346
#     4  10  21  37  58  85 121 158 196 243 294 346
#     4  10  22  37  60  91 119 153 197 243 290 344
#     4  10  20  38  60  85 116 157 197 241 293 346
#     4  10  22  40  61  86 116 153 197 243 292 346
#
# _framework density 18.549472999999999
#
# number of rings (size 3 to 8) (size 9 to 14) (size 15 to 20)
#    0.000    2.000    1.250    1.875    1.750    4.500 
#    0.000    5.000    0.000    0.000    0.000    0.000 
#    0.000    0.000    0.000    0.000    0.000    0.000 
#
# Total GULP energy -178211.840191 kJ/mol
# GULP energy per Si atom -5569.120006 kJ/mol
# Density = 1.850725 g / cm^3
# Si number density = 18.549473 Si / 1000 Ang^3
#
#
#
# Elastic Constant Matrix: (Units=GPa)
#
#
# Indices 1 2 3 4 5 6 
#
# 1 71.0106 49.7508 31.0911 0.0000 4.6019 0.0000
# 2 49.7508 119.8078 66.2611 0.0000 -5.7066 0.0000
# 3 31.0911 66.2611 62.4127 0.0000 -5.4953 0.0000
# 4 0.0000 0.0000 0.0000 27.3103 0.0000 -11.5008
# 5 4.6019 -5.7066 -5.4953 0.0000 28.0559 0.0000
# 6 0.0000 0.0000 0.0000 -11.5008 0.0000 9.3055
#
#
#
# Elastic Compliance Matrix: (Units=1/GPa)
#
#
# Indices 1 2 3 4 5 6 
#
# 1 0.020866 -0.007049 -0.003397 0.000000 -0.005522 0.000000
# 2 -0.007049 0.022599 -0.020325 0.000000 0.001772 0.000000
# 3 -0.003397 -0.020325 0.039662 0.000000 0.004192 0.000000
# 4 0.000000 0.000000 0.000000 0.076357 0.000000 0.094371
# 5 -0.005522 0.001772 0.004192 0.000000 0.037730 0.000000
# 6 0.000000 0.000000 0.000000 0.094371 0.000000 0.224099
#
#
# Mechanical properties :
#
#
# Convention : Reuss Voigt Hill
#
# Bulk Modulus (GPa) = 46.32848 60.82635 53.57742
# Shear Modulus (GPa) = 10.20299 20.00956 15.10627
#
# Velocity S-wave (km/s) = 2.34784 3.28794 2.85683
# Velocity P-wave (km/s) = 5.69031 6.87580 6.31096
#
# Compressibility (1/GPa) = 0.02158499
#
# Stress axis : x y z
#
# Youngs Moduli (GPa) = 47.92430 44.24891 25.21283
#
# Poissons Ratio (x) = 0.31191 0.08565
# Poissons Ratio (y) = 0.33782 0.51246
# Poissons Ratio (z) = 0.16280 0.89938
#
# Static dielectric constant tensor:
#      x y z
#    x 1.667560 0.000000 0.018060 
#    y 0.000000 1.668890 0.000000 
#    z 0.018060 0.000000 1.645520 
# 
# From -- ./inp_files/68589.got.cif
#   From: 2010.05.17/outbox.cif.g08.bks.cpg/sg11_35_cif.got.tgz:68589.got - 2010.06.03 12:22:45.
