data_PCOD9163892
_publ_section_title
;
Structure prediction by ZEFSAII (Michael W. Deem and Ramdas Pophale) SiO2 
 PCOD9163892
Probable space group: P 21/M
;
_chemical_formula_sum "Si O2"
_cell_formula_units_Z 28
_cell_length_a 14.973901
_cell_length_b 7.602974
_cell_length_c 13.116552
_cell_angle_alpha 90.000000
_cell_angle_beta 120.950635
_cell_angle_gamma 90.000000
_cell_volume 1280.643808
_symmetry_space_group_name_H-M "P 21/M"
_symmetry_group_IT_number 11
_symmetry_cell_setting 'monoclinic'
loop_
_space_group_symop_operation_xyz
x,y,z
-x,1/2+y,-z
-x,-y,-z
x,1/2-y,z
loop_
_atom_site_type_symbol
_atom_site_label
_atom_site_fract_x
_atom_site_fract_y
_atom_site_fract_z
Si Si1 0.576014 0.540623 0.451497
Si Si2 0.721855 0.966448 0.995184
Si Si3 0.511495 0.047768 0.187770
Si Si4 0.890195 0.960878 0.486131
Si Si5 0.728819 0.954338 0.226238
Si Si6 0.120885 0.461097 0.088351
Si Si7 0.808415 0.534895 0.648597
O O1 0.500000 0.500000 0.500000
O O2 0.580543 0.750000 0.437571
O O3 0.536459 0.461443 0.322523
O O4 0.691407 0.481655 0.550424
O O5 0.721726 0.750000 0.994453
O O6 0.604065 0.023328 0.899782
O O7 0.804646 0.025242 0.959136
O O8 0.747411 0.028070 0.124542
O O9 0.511151 0.250000 0.154174
O O10 0.607534 0.962201 0.184730
O O11 0.877662 0.750000 0.485109
O O12 0.798309 0.030654 0.358625
O O13 0.879617 0.024475 0.595960
O O14 0.000000 0.000000 0.500000
O O15 0.758688 0.750000 0.237098
O O16 0.132548 0.250000 0.096703
O O17 0.157162 0.528122 0.220277
O O18 0.000000 0.500000 0.000000
O O19 0.809700 0.750000 0.653504
#
# Coordination Sequence:
#
# PCOD9163892 Si02
#       7
#     4   4   4   4   4   4   4
#     4  11  21  37  60  86 117 155 193 233 284 341
#     4   9  20  37  58  82 114 155 192 231 288 348
#     4  11  21  36  58  88 118 150 191 235 287 346
#     4  10  21  37  58  84 112 149 191 235 288 341
#     4  10  20  38  60  83 115 154 192 235 289 346
#     4  10  21  39  60  81 109 147 190 233 281 340
#     4   9  19  38  59  79 112 152 184 224 286 346
#
# _framework density 21.864000999999998
#
# number of rings (size 3 to 8) (size 9 to 14) (size 15 to 20)
#    0.000    2.000    1.429    2.143    2.000    2.857 
#    0.000    5.714    0.000    0.000    0.000    0.000 
#    0.000    0.000    0.000    0.000    0.000    0.000 
#
# Total GULP energy -156480.098551 kJ/mol
# GULP energy per Si atom -5588.574948 kJ/mol
# Density = 2.181424 g / cm^3
# Si number density = 21.864001 Si / 1000 Ang^3
#
#
#
# Elastic Constant Matrix: (Units=GPa)
#
#
# Indices 1 2 3 4 5 6 
#
# 1 151.3182 -8.3365 63.5985 0.0000 -29.4689 0.0000
# 2 -8.3365 44.5281 3.6324 0.0000 -0.5093 0.0000
# 3 63.5985 3.6324 134.5275 0.0000 -32.7958 0.0000
# 4 0.0000 0.0000 0.0000 8.7258 0.0000 4.9951
# 5 -29.4689 -0.5093 -32.7958 0.0000 42.4558 0.0000
# 6 0.0000 0.0000 0.0000 4.9951 0.0000 26.6290
#
#
#
# Elastic Compliance Matrix: (Units=1/GPa)
#
#
# Indices 1 2 3 4 5 6 
#
# 1 0.008819 0.001966 -0.003356 0.000000 0.003552 0.000000
# 2 0.001966 0.022947 -0.001416 0.000000 0.000546 0.000000
# 3 -0.003356 -0.001416 0.010455 0.000000 0.005730 0.000000
# 4 0.000000 0.000000 0.000000 0.128388 0.000000 -0.024083
# 5 0.003552 0.000546 0.005730 0.000000 0.030452 0.000000
# 6 0.000000 0.000000 0.000000 -0.024083 0.000000 0.042071
#
#
# Mechanical properties :
#
#
# Convention : Reuss Voigt Hill
#
# Bulk Modulus (GPa) = 27.31577 49.79583 38.55580
# Shear Modulus (GPa) = 19.16081 33.66075 26.41078
#
# Velocity S-wave (km/s) = 2.96356 3.92797 3.47934
# Velocity P-wave (km/s) = 4.92248 6.58761 5.81496
#
# Compressibility (1/GPa) = 0.03660888
#
# Stress axis : x y z
#
# Youngs Moduli (GPa) = 113.38625 43.57781 95.64588
#
# Poissons Ratio (x) = -0.08566 0.32103
# Poissons Ratio (y) = -0.22287 0.13541
# Poissons Ratio (z) = 0.38058 0.06169
#
# Static dielectric constant tensor:
#      x y z
#    x 1.746720 0.000000 -0.005260 
#    y 0.000000 1.836790 0.000000 
#    z -0.005260 0.000000 1.773840 
# 
# From -- ./inp_files/38413.got.cif
#   From: 2010.05.17/outbox.cif.g08.bks.cpg/sg11_20_cif.got.tgz:38413.got - 2010.06.03 12:22:45.
