data_PCOD9163747
_publ_section_title
;
Structure prediction by ZEFSAII (Michael W. Deem and Ramdas Pophale) SiO2 
 PCOD9163747
Probable space group: P 21/M
;
_chemical_formula_sum "Si O2"
_cell_formula_units_Z 30
_cell_length_a 10.333961
_cell_length_b 9.281116
_cell_length_c 16.910446
_cell_angle_alpha 90.000000
_cell_angle_beta 74.006850
_cell_angle_gamma 90.000000
_cell_volume 1559.116627
_symmetry_space_group_name_H-M "P 21/M"
_symmetry_group_IT_number 11
_symmetry_cell_setting 'monoclinic'
loop_
_space_group_symop_operation_xyz
x,y,z
-x,1/2+y,-z
-x,-y,-z
x,1/2-y,z
loop_
_atom_site_type_symbol
_atom_site_label
_atom_site_fract_x
_atom_site_fract_y
_atom_site_fract_z
Si Si1 0.354863 0.924360 0.019011
Si Si2 0.201665 0.420841 0.185523
Si Si3 0.688439 0.423721 0.150581
Si Si4 0.053141 0.250000 0.471216
Si Si5 0.585035 0.086160 0.550761
Si Si6 0.868723 0.482580 0.431812
Si Si7 0.883978 0.077267 0.255773
Si Si8 0.410294 0.077568 0.284091
O O1 0.367135 0.750000 0.020449
O O2 0.265469 0.985210 0.105091
O O3 0.296069 0.967545 0.942907
O O4 0.500000 0.000000 0.000000
O O5 0.227714 0.250000 0.166298
O O6 0.278289 0.455755 0.254576
O O7 0.042670 0.443279 0.217275
O O8 0.695818 0.250000 0.148896
O O9 0.799435 0.474374 0.194368
O O10 0.540171 0.458725 0.208833
O O11 0.994197 0.375376 0.421233
O O12 0.100326 0.125916 0.526159
O O13 0.536152 0.250000 0.565928
O O14 0.500000 0.000000 0.500000
O O15 0.738952 0.087045 0.495270
O O16 0.582030 0.005835 0.635147
O O17 0.840010 0.498668 0.343967
O O18 0.858890 0.250000 0.269613
O O19 0.410124 0.250000 0.300317
#
# Coordination Sequence:
#
# PCOD9163747 Si02
#       8
#     4   4   4   2   4   4   4   4
#     4  11  21  39  65  90 120 157 202 251 304 362
#     4  10  22  37  61  95 121 155 197 250 302 366
#     4   9  19  38  62  87 117 164 202 241 303 372
#     4  10  24  38  64  90 116 158 212 256 308 368
#     4  12  26  41  61  90 126 166 213 261 313 370
#     4  11  23  42  64  90 121 167 209 258 310 369
#     4  10  20  37  62  88 123 161 203 243 300 370
#     4  10  21  38  62  86 120 160 210 255 307 366
#
# _framework density 19.241665000000001
#
# number of rings (size 3 to 8) (size 9 to 14) (size 15 to 20)
#    0.000    1.600    2.667    1.600    5.600    2.133 
#    1.200    0.000    2.933    0.000    0.000    0.000 
#    0.000    0.000    0.000    0.000    0.000    0.000 
#
# Total GULP energy -167046.766874 kJ/mol
# GULP energy per Si atom -5568.225562 kJ/mol
# Density = 1.919787 g / cm^3
# Si number density = 19.241665 Si / 1000 Ang^3
#
#
#
# Elastic Constant Matrix: (Units=GPa)
#
#
# Indices 1 2 3 4 5 6 
#
# 1 74.7389 24.9997 26.5447 0.0000 31.7188 0.0000
# 2 24.9997 68.5461 32.2835 0.0000 13.8422 0.0000
# 3 26.5447 32.2835 109.5408 0.0000 28.6761 0.0000
# 4 0.0000 0.0000 0.0000 10.7218 0.0000 10.1390
# 5 31.7188 13.8422 28.6761 0.0000 36.1019 0.0000
# 6 0.0000 0.0000 0.0000 10.1390 0.0000 17.7856
#
#
#
# Elastic Compliance Matrix: (Units=1/GPa)
#
#
# Indices 1 2 3 4 5 6 
#
# 1 0.022648 -0.004882 0.000846 0.000000 -0.018698 0.000000
# 2 -0.004882 0.018289 -0.004412 0.000000 0.000781 0.000000
# 3 0.000846 -0.004412 0.012595 0.000000 -0.009056 0.000000
# 4 0.000000 0.000000 0.000000 0.202351 0.000000 -0.115354
# 5 -0.018698 0.000781 -0.009056 0.000000 0.051021 0.000000
# 6 0.000000 0.000000 0.000000 -0.115354 0.000000 0.121984
#
#
# Mechanical properties :
#
#
# Convention : Reuss Voigt Hill
#
# Bulk Modulus (GPa) = 27.29596 46.72018 37.00807
# Shear Modulus (GPa) = 10.91709 24.18839 17.55274
#
# Velocity S-wave (km/s) = 2.38453 3.54938 3.02358
# Velocity P-wave (km/s) = 4.66883 6.41334 5.60932
#
# Compressibility (1/GPa) = 0.03663545
#
# Stress axis : x y z
#
# Youngs Moduli (GPa) = 44.15391 54.67656 79.39703
#
# Poissons Ratio (x) = 0.26695 -0.06713
# Poissons Ratio (y) = 0.21558 0.35027
# Poissons Ratio (z) = -0.03733 0.24121
#
# Static dielectric constant tensor:
#      x y z
#    x 1.694030 0.000000 -0.000130 
#    y 0.000000 1.639070 0.000000 
#    z -0.000130 0.000000 1.671460 
# 
# From -- ./inp_files/49279.got.cif
#   From: 2010.05.17/outbox.cif.g08.bks.cpg/sg11_25_cif.got.tgz:49279.got - 2010.06.03 12:22:45.
