data_PCOD9163491
_publ_section_title
;
Structure prediction by ZEFSAII (Michael W. Deem and Ramdas Pophale) SiO2 
 PCOD9163491
Probable space group: P 21/M
;
_chemical_formula_sum "Si O2"
_cell_formula_units_Z 32
_cell_length_a 20.791141
_cell_length_b 8.707909
_cell_length_c 26.763656
_cell_angle_alpha 90.000000
_cell_angle_beta 158.905736
_cell_angle_gamma 90.000000
_cell_volume 1743.908128
_symmetry_space_group_name_H-M "P 21/M"
_symmetry_group_IT_number 11
_symmetry_cell_setting 'monoclinic'
loop_
_space_group_symop_operation_xyz
x,y,z
-x,1/2+y,-z
-x,-y,-z
x,1/2-y,z
loop_
_atom_site_type_symbol
_atom_site_label
_atom_site_fract_x
_atom_site_fract_y
_atom_site_fract_z
Si Si1 0.280995 0.434542 0.201541
Si Si2 0.183431 0.434626 0.655396
Si Si3 0.481534 0.066316 0.789462
Si Si4 0.366456 0.564346 0.599534
Si Si5 0.876851 0.935495 0.092194
Si Si6 0.302842 0.566672 0.848176
Si Si7 0.977249 0.935654 0.276713
Si Si8 0.963384 0.065309 0.895322
O O1 0.279419 0.250000 0.203339
O O2 0.475460 0.483796 0.323657
O O3 0.208596 0.500022 0.201045
O O4 0.135871 0.480008 0.053931
O O5 0.171960 0.250000 0.650389
O O6 0.345473 0.475225 0.735369
O O7 0.224254 0.502731 0.739310
O O8 0.000000 0.500000 0.500000
O O9 0.492555 0.250000 0.795250
O O10 0.406453 0.003692 0.682783
O O11 0.677481 0.998714 0.940919
O O12 0.373608 0.750000 0.608505
O O13 0.171913 0.521034 0.438504
O O14 0.867116 0.750000 0.083115
O O15 0.953052 0.979141 0.201333
O O16 0.998225 0.985681 0.133292
O O17 0.310829 0.750000 0.852204
O O18 0.174605 0.511908 0.799781
O O19 0.500000 0.500000 0.000000
O O20 0.960527 0.750000 0.268250
O O21 0.953153 0.250000 0.888668
#
# Coordination Sequence:
#
# PCOD9163491 Si02
#       8
#     4   4   4   4   4   4   4   4
#     4   9  17  31  52  79 111 147 185 227 277 330
#     4  11  24  41  60  87 119 151 191 239 293 350
#     4  11  23  36  56  85 112 142 185 235 282 331
#     4  10  20  37  58  83 115 151 189 230 280 343
#     4  10  20  37  58  83 112 146 188 232 281 338
#     4  12  25  42  63  86 116 154 197 243 291 349
#     4  10  22  39  62  86 113 151 191 234 289 347
#     4   9  17  31  52  79 111 145 185 231 277 328
#
# _framework density 18.349591
#
# number of rings (size 3 to 8) (size 9 to 14) (size 15 to 20)
#    0.000    1.750    1.250    3.375    0.000    8.000 
#    0.000    0.625    0.000    0.000    0.000    0.000 
#    0.000    0.000    0.000    0.000    0.000    0.000 
#
# Total GULP energy -178782.905600 kJ/mol
# GULP energy per Si atom -5586.965800 kJ/mol
# Density = 1.830783 g / cm^3
# Si number density = 18.349591 Si / 1000 Ang^3
#
#
#
# Elastic Constant Matrix: (Units=GPa)
#
#
# Indices 1 2 3 4 5 6 
#
# 1 152.2179 37.3503 39.9068 0.0000 -1.7570 0.0000
# 2 37.3503 26.2164 20.9705 0.0000 -1.2631 0.0000
# 3 39.9068 20.9705 64.5121 0.0000 -14.7435 0.0000
# 4 0.0000 0.0000 0.0000 13.0383 0.0000 6.5246
# 5 -1.7570 -1.2631 -14.7435 0.0000 33.0600 0.0000
# 6 0.0000 0.0000 0.0000 6.5246 0.0000 31.0232
#
#
#
# Elastic Compliance Matrix: (Units=1/GPa)
#
#
# Indices 1 2 3 4 5 6 
#
# 1 0.010352 -0.012818 -0.002475 0.000000 -0.001043 0.000000
# 2 -0.012818 0.068560 -0.015493 0.000000 -0.004971 0.000000
# 3 -0.002475 -0.015493 0.024389 0.000000 0.010153 0.000000
# 4 0.000000 0.000000 0.000000 0.085718 0.000000 -0.018028
# 5 -0.001043 -0.004971 0.010153 0.000000 0.034530 0.000000
# 6 0.000000 0.000000 0.000000 -0.018028 0.000000 0.036025
#
#
# Mechanical properties :
#
#
# Convention : Reuss Voigt Hill
#
# Bulk Modulus (GPa) = 23.96535 48.82242 36.39389
# Shear Modulus (GPa) = 14.92286 25.07222 19.99754
#
# Velocity S-wave (km/s) = 2.85485 3.70045 3.30481
# Velocity P-wave (km/s) = 4.89446 6.70241 5.86848
#
# Compressibility (1/GPa) = 0.04172691
#
# Stress axis : x y z
#
# Youngs Moduli (GPa) = 96.60258 14.58584 41.00269
#
# Poissons Ratio (x) = 0.18697 0.10149
# Poissons Ratio (y) = 1.23829 0.63525
# Poissons Ratio (z) = 0.23911 0.22598
#
# Static dielectric constant tensor:
#      x y z
#    x 1.622440 0.000000 0.004920 
#    y 0.000000 1.621700 0.000000 
#    z 0.004920 0.000000 1.599510 
# 
# From -- ./inp_files/72096.got.cif
#   From: 2010.05.17/outbox.cif.g08.bks.cpg/sg11_37_cif.got.tgz:72096.got - 2010.06.03 12:22:45.
