data_PCOD9163212
_publ_section_title
;
Structure prediction by ZEFSAII (Michael W. Deem and Ramdas Pophale) SiO2 
 PCOD9163212
Probable space group: P 21/M
;
_chemical_formula_sum "Si O2"
_cell_formula_units_Z 32
_cell_length_a 16.838698
_cell_length_b 16.983833
_cell_length_c 9.913640
_cell_angle_alpha 90.000000
_cell_angle_beta 33.397160
_cell_angle_gamma 90.000000
_cell_volume 1560.582896
_symmetry_space_group_name_H-M "P 21/M"
_symmetry_group_IT_number 11
_symmetry_cell_setting 'monoclinic'
loop_
_space_group_symop_operation_xyz
x,y,z
-x,1/2+y,-z
-x,-y,-z
x,1/2-y,z
loop_
_atom_site_type_symbol
_atom_site_label
_atom_site_fract_x
_atom_site_fract_y
_atom_site_fract_z
Si Si1 0.974962 0.659278 0.398109
Si Si2 0.411541 0.838840 0.413556
Si Si3 0.721960 0.939320 0.659265
Si Si4 0.541671 0.845856 0.517119
Si Si5 0.901168 0.114993 0.062775
Si Si6 0.176973 0.059960 0.787242
Si Si7 0.729618 0.339433 0.917631
Si Si8 0.580992 0.102120 0.890500
O O1 0.940866 0.750000 0.483037
O O2 0.833888 0.605030 0.595956
O O3 0.110992 0.626173 0.289023
O O4 0.032668 0.655202 0.162539
O O5 0.455389 0.750000 0.317097
O O6 0.498323 0.863116 0.423773
O O7 0.242810 0.841731 0.688890
O O8 0.428241 0.889804 0.256401
O O9 0.793811 0.957920 0.413309
O O10 0.651719 0.017398 0.821248
O O11 0.581546 0.886811 0.827566
O O12 0.558412 0.750000 0.508045
O O13 0.687040 0.891858 0.350282
O O14 0.404150 0.871818 0.804368
O O15 0.852327 0.024380 0.103032
O O16 0.027507 0.108643 0.995055
O O17 0.746203 0.250000 0.944198
O O18 0.682178 0.340197 0.830034
#
# Coordination Sequence:
#
# PCOD9163212 Si02
#       8
#     4   4   4   4   4   4   4   4
#     4  10  21  39  62  89 117 153 203 252 295 354
#     4  11  22  38  59  86 122 159 193 245 307 355
#     4  10  22  38  60  86 119 160 198 245 293 360
#     4  10  21  38  60  90 119 153 207 252 293 350
#     4  10  20  36  59  88 118 151 194 247 302 356
#     4  10  20  38  60  86 118 155 201 247 293 356
#     4  10  20  37  61  87 116 156 205 250 290 349
#     4  11  22  40  58  87 125 155 202 243 297 356
#
# _framework density 20.505157000000001
#
# number of rings (size 3 to 8) (size 9 to 14) (size 15 to 20)
#    0.000    1.750    3.750    0.750    0.000    4.500 
#    4.500    1.250    0.000    1.500    0.000    0.000 
#    0.000    0.000    0.000    0.000    0.000    0.000 
#
# Total GULP energy -178443.889883 kJ/mol
# GULP energy per Si atom -5576.371559 kJ/mol
# Density = 2.045849 g / cm^3
# Si number density = 20.505157 Si / 1000 Ang^3
#
#
#
# Elastic Constant Matrix: (Units=GPa)
#
#
# Indices 1 2 3 4 5 6 
#
# 1 123.5820 43.4689 34.5843 0.0000 -37.9574 0.0000
# 2 43.4689 46.3250 14.0410 0.0000 -23.3216 0.0000
# 3 34.5843 14.0410 50.3584 0.0000 -26.1207 0.0000
# 4 0.0000 0.0000 0.0000 4264.2395 0.0000 840.8553
# 5 -37.9574 -23.3216 -26.1207 0.0000 38.5725 0.0000
# 6 0.0000 0.0000 0.0000 840.8553 0.0000 197.2300
#
#
#
# Elastic Compliance Matrix: (Units=1/GPa)
#
#
# Indices 1 2 3 4 5 6 
#
# 1 0.014266 -0.009322 -0.004378 0.000000 0.005438 0.000000
# 2 -0.009322 0.037215 0.004530 0.000000 0.016395 0.000000
# 3 -0.004378 0.004530 0.032042 0.000000 0.020129 0.000000
# 4 0.000000 0.000000 0.000000 0.001472 0.000000 -0.006275
# 5 0.005438 0.016395 0.020129 0.000000 0.054820 0.000000
# 6 0.000000 0.000000 0.000000 -0.006275 0.000000 0.031823
#
#
# Mechanical properties :
#
#
# Convention : Reuss Voigt Hill
#
# Bulk Modulus (GPa) = 15.34151 44.93931 30.14041
# Shear Modulus (GPa) = 23.61774 908.55314 466.08544
#
# Velocity S-wave (km/s) = 3.39749 21.07242 15.09288
# Velocity P-wave (km/s) = 4.78421 24.77956 17.84538
#
# Compressibility (1/GPa) = 0.06518264
#
# Stress axis : x y z
#
# Youngs Moduli (GPa) = 70.09692 26.87115 31.20898
#
# Poissons Ratio (x) = 0.25049 0.13662
# Poissons Ratio (y) = 0.65344 -0.14136
# Poissons Ratio (z) = 0.30686 -0.12172
#
# Static dielectric constant tensor:
#      x y z
#    x 1.736550 0.000000 -0.017090 
#    y 0.000000 1.773740 0.000000 
#    z -0.017090 0.000000 1.739440 
# 
# From -- ./inp_files/23055.got.cif
#   From: 2010.05.17/outbox.cif.g08.bks.cpg/sg11_12_cif.got.tgz:23055.got - 2010.06.03 12:22:45.
