data_PCOD9163118
_publ_section_title
;
Structure prediction by ZEFSAII (Michael W. Deem and Ramdas Pophale) SiO2 
 PCOD9163118
Probable space group: P 21/M
;
_chemical_formula_sum "Si O2"
_cell_formula_units_Z 24
_cell_length_a 10.395885
_cell_length_b 13.977561
_cell_length_c 8.880395
_cell_angle_alpha 90.000000
_cell_angle_beta 87.792485
_cell_angle_gamma 90.000000
_cell_volume 1289.444711
_symmetry_space_group_name_H-M "P 21/M"
_symmetry_group_IT_number 11
_symmetry_cell_setting 'monoclinic'
loop_
_space_group_symop_operation_xyz
x,y,z
-x,1/2+y,-z
-x,-y,-z
x,1/2-y,z
loop_
_atom_site_type_symbol
_atom_site_label
_atom_site_fract_x
_atom_site_fract_y
_atom_site_fract_z
Si Si1 0.383031 0.057702 0.932275
Si Si2 0.582030 0.250000 0.360679
Si Si3 0.870621 0.041914 0.935645
Si Si4 0.766217 0.250000 0.606557
Si Si5 0.129307 0.543870 0.425656
Si Si6 0.233945 0.750000 0.038477
Si Si7 0.530200 0.750000 0.923427
Si Si8 0.377017 0.524151 0.608320
O O1 0.407788 0.161461 0.996005
O O2 0.384608 0.042913 0.753749
O O3 0.500000 0.000000 0.000000
O O4 0.249749 0.015881 0.996018
O O5 0.626350 0.250000 0.533412
O O6 0.625736 0.136087 0.333551
O O7 0.456625 0.250000 0.259051
O O8 0.869894 0.030586 0.754659
O O9 0.845307 0.152639 0.984279
O O10 0.000000 0.000000 0.000000
O O11 0.849151 0.157858 0.557478
O O12 0.739849 0.250000 0.784311
O O13 0.251961 0.503981 0.511587
O O14 0.000000 0.500000 0.500000
O O15 0.373039 0.750000 0.950613
O O16 0.500000 0.500000 0.500000
#
# Coordination Sequence:
#
# PCOD9163118 Si02
#       8
#     4   2   4   2   4   2   2   4
#     4  12  23  40  62  95 125 165 211 262 317 372
#     4  10  20  36  58  89 120 159 207 252 306 372
#     4  11  23  41  66  90 128 167 213 263 317 383
#     4   8  20  36  61  85 117 155 212 246 304 381
#     4  10  21  40  61  89 119 163 206 254 311 370
#     4  10  20  39  63  90 117 171 207 257 319 382
#     4  12  24  37  66  92 134 163 216 261 319 379
#     4  11  23  38  63  91 126 162 209 260 314 372
#
# _framework density 18.612663999999999
#
# number of rings (size 3 to 8) (size 9 to 14) (size 15 to 20)
#    0.000    1.333    3.333    2.000    4.667    2.000 
#    0.000    4.167    0.000    0.000    0.000    0.000 
#    0.000    0.000    0.000    0.000    0.000    0.000 
#
# Total GULP energy -133632.883287 kJ/mol
# GULP energy per Si atom -5568.036804 kJ/mol
# Density = 1.857030 g / cm^3
# Si number density = 18.612664 Si / 1000 Ang^3
#
#
#
# Elastic Constant Matrix: (Units=GPa)
#
#
# Indices 1 2 3 4 5 6 
#
# 1 162.6348 54.5341 80.0679 0.0000 10.9998 0.0000
# 2 54.5341 115.7918 61.9584 0.0000 16.7548 0.0000
# 3 80.0679 61.9584 130.2823 0.0000 18.8238 0.0000
# 4 0.0000 0.0000 0.0000 21.6922 0.0000 6.2783
# 5 10.9998 16.7548 18.8238 0.0000 41.7621 0.0000
# 6 0.0000 0.0000 0.0000 6.2783 0.0000 26.2878
#
#
#
# Elastic Compliance Matrix: (Units=1/GPa)
#
#
# Indices 1 2 3 4 5 6 
#
# 1 0.009076 -0.001774 -0.004804 0.000000 0.000487 0.000000
# 2 -0.001774 0.012144 -0.004331 0.000000 -0.002453 0.000000
# 3 -0.004804 -0.004331 0.013108 0.000000 -0.002905 0.000000
# 4 0.000000 0.000000 0.000000 0.049523 0.000000 -0.011827
# 5 0.000487 -0.002453 -0.002905 0.000000 0.026110 0.000000
# 6 0.000000 0.000000 0.000000 -0.011827 0.000000 0.040865
#
#
# Mechanical properties :
#
#
# Convention : Reuss Voigt Hill
#
# Bulk Modulus (GPa) = 79.94131 89.09218 84.51675
# Shear Modulus (GPa) = 28.27832 32.09167 30.18499
#
# Velocity S-wave (km/s) = 3.90206 4.15683 4.03146
# Velocity P-wave (km/s) = 7.95893 8.42671 8.19616
#
# Compressibility (1/GPa) = 0.01250918
#
# Stress axis : x y z
#
# Youngs Moduli (GPa) = 110.18005 82.34602 76.29173
#
# Poissons Ratio (x) = 0.14609 0.36654
# Poissons Ratio (y) = 0.19548 0.33038
# Poissons Ratio (z) = 0.52936 0.35660
#
# Static dielectric constant tensor:
#      x y z
#    x 1.608680 0.000000 -0.025200 
#    y 0.000000 1.688970 0.000000 
#    z -0.025200 0.000000 1.700320 
# 
# From -- ./inp_files/12655.got.cif
#   From: 2010.05.17/outbox.cif.g08.bks.cpg/sg11_7_cif.got.tgz:12655.got - 2010.06.03 12:22:45.
