data_PCOD9163902
_publ_section_title
;
Structure prediction by ZEFSAII (Michael W. Deem and Ramdas Pophale) SiO2 
 PCOD9163902
Probable space group: P 21/M
;
_chemical_formula_sum "Si O2"
_cell_formula_units_Z 22
_cell_length_a 7.034913
_cell_length_b 23.524221
_cell_length_c 6.312695
_cell_angle_alpha 90.000000
_cell_angle_beta 74.217416
_cell_angle_gamma 90.000000
_cell_volume 1005.309059
_symmetry_space_group_name_H-M "P 21/M"
_symmetry_group_IT_number 11
_symmetry_cell_setting 'monoclinic'
loop_
_space_group_symop_operation_xyz
x,y,z
-x,1/2+y,-z
-x,-y,-z
x,1/2-y,z
loop_
_atom_site_type_symbol
_atom_site_label
_atom_site_fract_x
_atom_site_fract_y
_atom_site_fract_z
Si Si1 0.640922 0.250000 0.666705
Si Si2 0.456528 0.645831 0.552815
Si Si3 0.483443 0.250000 0.156938
Si Si4 0.938697 0.126024 0.157842
Si Si5 0.092826 0.536602 0.166286
Si Si6 0.773184 0.940223 0.628327
Si Si7 0.986099 0.750000 0.772419
O O1 0.525062 0.191148 0.643153
O O2 0.632037 0.250000 0.917257
O O3 0.850255 0.250000 0.472648
O O4 0.237931 0.620283 0.619195
O O5 0.603022 0.595044 0.563724
O O6 0.470019 0.691889 0.735985
O O7 0.245511 0.250000 0.211513
O O8 0.978560 0.192073 0.113628
O O9 0.126576 0.098639 0.219151
O O10 0.866132 0.095161 0.966952
O O11 0.261007 0.499670 0.234810
O O12 0.928410 0.546956 0.394389
O O13 0.000000 0.500000 0.000000
#
# Coordination Sequence:
#
# PCOD9163902 Si02
#       7
#     2   4   2   4   4   4   2
#     4   9  23  37  55  92 123 156 207 253 303 374
#     4  10  22  38  58  89 119 153 211 246 294 380
#     4  11  21  41  61  88 129 164 197 253 311 360
#     4  10  21  39  58  87 121 152 199 249 297 362
#     4   9  21  39  60  87 117 157 201 244 302 359
#     4  10  20  39  60  83 120 154 199 253 295 356
#     4  10  20  38  60  88 124 154 200 250 296 368
#
# _framework density 21.88382
#
# number of rings (size 3 to 8) (size 9 to 14) (size 15 to 20)
#    0.000    2.182    1.818    0.545    2.545    3.636 
#    0.000   10.909    0.000    0.000    0.000    0.000 
#    0.000    0.000    0.000    0.000    0.000    0.000 
#
# Total GULP energy -122501.649523 kJ/mol
# GULP energy per Si atom -5568.256797 kJ/mol
# Density = 2.183401 g / cm^3
# Si number density = 21.883820 Si / 1000 Ang^3
#
#
#
# Elastic Constant Matrix: (Units=GPa)
#
#
# Indices 1 2 3 4 5 6 
#
# 1 58.9663 -1.5155 -26.3993 0.0000 0.3895 0.0000
# 2 -1.5155 69.0521 30.2856 0.0000 2.0495 0.0000
# 3 -26.3993 30.2856 54.6394 0.0000 5.1300 0.0000
# 4 0.0000 0.0000 0.0000 -58.1043 0.0000 -27.6031
# 5 0.3895 2.0495 5.1300 0.0000 9.3330 0.0000
# 6 0.0000 0.0000 0.0000 -27.6031 0.0000 7.9771
#
#
#
# Elastic Compliance Matrix: (Units=1/GPa)
#
#
# Indices 1 2 3 4 5 6 
#
# 1 0.023892 -0.006122 0.015715 0.000000 -0.008291 0.000000
# 2 -0.006122 0.020728 -0.014808 0.000000 0.003843 0.000000
# 3 0.015715 -0.014808 0.035701 0.000000 -0.017028 0.000000
# 4 0.000000 0.000000 0.000000 -0.006510 0.000000 -0.022525
# 5 -0.008291 0.003843 -0.017028 0.000000 0.116009 0.000000
# 6 0.000000 0.000000 0.000000 -0.022525 0.000000 0.047415
#
#
# Mechanical properties :
#
#
# Convention : Reuss Voigt Hill
#
# Bulk Modulus (GPa) = 14.30780 20.82215 17.56498
# Shear Modulus (GPa) = 18.45274 3.86030 11.15652
#
# Velocity S-wave (km/s) = 2.90696 1.32960 2.26034
# Velocity P-wave (km/s) = 4.22132 3.44857 3.85436
#
# Compressibility (1/GPa) = 0.06989195
#
# Stress axis : x y z
#
# Youngs Moduli (GPa) = 41.85487 48.24392 28.01022
#
# Poissons Ratio (x) = 0.29536 -0.44019
# Poissons Ratio (y) = 0.25624 0.41477
# Poissons Ratio (z) = -0.65777 0.71439
#
# Static dielectric constant tensor:
#      x y z
#    x 1.864150 0.000000 -0.000970 
#    y 0.000000 1.848310 0.000000 
#    z -0.000970 0.000000 1.795010 
# 
# From -- ./inp_files/2685.got.cif
#   From: 2010.05.17/outbox.cif.g08.bks.cpg/sg11_2_cif.got.tgz:2685.got - 2010.06.03 12:22:45.
