data_PCOD9163541
_publ_section_title
;
Structure prediction by ZEFSAII (Michael W. Deem and Ramdas Pophale) SiO2 
 PCOD9163541
Probable space group: P 21/M
;
_chemical_formula_sum "Si O2"
_cell_formula_units_Z 32
_cell_length_a 24.336473
_cell_length_b 12.243639
_cell_length_c 5.311361
_cell_angle_alpha 90.000000
_cell_angle_beta 68.049424
_cell_angle_gamma 90.000000
_cell_volume 1467.881530
_symmetry_space_group_name_H-M "P 21/M"
_symmetry_group_IT_number 11
_symmetry_cell_setting 'monoclinic'
loop_
_space_group_symop_operation_xyz
x,y,z
-x,1/2+y,-z
-x,-y,-z
x,1/2-y,z
loop_
_atom_site_type_symbol
_atom_site_label
_atom_site_fract_x
_atom_site_fract_y
_atom_site_fract_z
Si Si1 0.022245 0.874951 0.383057
Si Si2 0.293852 0.497603 0.213780
Si Si3 0.920801 0.866668 0.191524
Si Si4 0.577769 0.507322 0.132469
Si Si5 0.812924 0.867482 0.754470
Si Si6 0.734595 0.373517 0.249981
Si Si7 0.454904 0.621871 0.315519
Si Si8 0.139427 0.946201 0.990904
O O1 0.009744 0.750000 0.517771
O O2 0.093217 0.883359 0.246156
O O3 0.987161 0.866196 0.179624
O O4 0.000000 0.000000 0.500000
O O5 0.240493 0.411277 0.322906
O O6 0.296278 0.559078 0.475099
O O7 0.356898 0.447448 0.031957
O O8 0.277233 0.578244 0.008849
O O9 0.910782 0.750000 0.067105
O O10 0.874349 0.861538 0.499909
O O11 0.904752 0.983383 0.105445
O O12 0.525041 0.595095 0.223825
O O13 0.575295 0.442539 0.400839
O O14 0.564077 0.425777 0.922843
O O15 0.797200 0.750000 0.885539
O O16 0.824862 0.955316 0.943891
O O17 0.713452 0.250000 0.290222
O O18 0.805508 0.375488 0.196363
O O19 0.443562 0.750000 0.350763
#
# Coordination Sequence:
#
# PCOD9163541 Si02
#       8
#     4   4   4   4   4   4   4   4
#     4  11  23  39  61  89 119 155 206 262 325 392
#     4  11  23  41  61  90 125 162 208 256 302 367
#     4  10  20  37  59  84 112 150 200 252 310 379
#     4  10  22  38  61  92 124 160 208 251 299 369
#     4  10  21  38  60  85 117 159 202 252 311 370
#     4  11  24  40  60  87 123 165 208 256 313 371
#     4  10  21  39  63  91 125 163 200 252 311 360
#     4  11  21  39  60  84 118 155 202 259 321 379
#
# _framework density 21.800122999999999
#
# number of rings (size 3 to 8) (size 9 to 14) (size 15 to 20)
#    0.000    1.500    2.500    2.625    0.000    4.000 
#    0.000    2.500    0.000    4.500    0.000    0.000 
#    0.000    0.000    0.000    0.000    0.000    0.000 
#
# Total GULP energy -178278.279988 kJ/mol
# GULP energy per Si atom -5571.196250 kJ/mol
# Density = 2.175050 g / cm^3
# Si number density = 21.800123 Si / 1000 Ang^3
#
#
#
# Elastic Constant Matrix: (Units=GPa)
#
#
# Indices 1 2 3 4 5 6 
#
# 1 50.5237 -3.4530 -6.2330 0.0000 -5.6801 0.0000
# 2 -3.4530 95.2581 4.2789 0.0000 10.3308 0.0000
# 3 -6.2330 4.2789 67.8955 0.0000 3.5435 0.0000
# 4 0.0000 0.0000 0.0000 5.8570 0.0000 3.9233
# 5 -5.6801 10.3308 3.5435 0.0000 35.6468 0.0000
# 6 0.0000 0.0000 0.0000 3.9233 0.0000 -2.3578
#
#
#
# Elastic Compliance Matrix: (Units=1/GPa)
#
#
# Indices 1 2 3 4 5 6 
#
# 1 0.020359 0.000339 0.001692 0.000000 0.002978 0.000000
# 2 0.000339 0.010863 -0.000495 0.000000 -0.003045 0.000000
# 3 0.001692 -0.000495 0.014971 0.000000 -0.001075 0.000000
# 4 0.000000 0.000000 0.000000 0.080741 0.000000 0.134350
# 5 0.002978 -0.003045 -0.001075 0.000000 0.029517 0.000000
# 6 0.000000 0.000000 0.000000 0.134350 0.000000 -0.200569
#
#
# Mechanical properties :
#
#
# Convention : Reuss Voigt Hill
#
# Bulk Modulus (GPa) = 20.29771 22.54036 21.41904
# Shear Modulus (GPa) = -162.49916 22.43484 -70.03216
#
# Velocity S-wave (km/s) = -8.64305 3.21146 -5.67401
# Velocity P-wave (km/s) = 9.50116 4.91053 5.75147
#
# Compressibility (1/GPa) = 0.04926664
#
# Stress axis : x y z
#
# Youngs Moduli (GPa) = 49.11734 92.05970 66.79515
#
# Poissons Ratio (x) = -0.03121 -0.11303
# Poissons Ratio (y) = -0.01665 0.03303
# Poissons Ratio (z) = -0.08312 0.04553
#
# Static dielectric constant tensor:
#      x y z
#    x 1.831770 0.000000 0.009140 
#    y 0.000000 2.001140 0.000000 
#    z 0.009140 0.000000 1.838120 
# 
# From -- ./inp_files/9396.got.cif
#   From: 2010.05.17/outbox.cif.g08.bks.cpg/sg11_5_cif.got.tgz:9396.got - 2010.06.03 12:22:45.
