data_PCOD9163858
_publ_section_title
;
Structure prediction by ZEFSAII (Michael W. Deem and Ramdas Pophale) SiO2 
 PCOD9163858
Probable space group: P 21/M
;
_chemical_formula_sum "Si O2"
_cell_formula_units_Z 32
_cell_length_a 8.307130
_cell_length_b 14.563859
_cell_length_c 12.416760
_cell_angle_alpha 90.000000
_cell_angle_beta 98.494211
_cell_angle_gamma 90.000000
_cell_volume 1485.749431
_symmetry_space_group_name_H-M "P 21/M"
_symmetry_group_IT_number 11
_symmetry_cell_setting 'monoclinic'
loop_
_space_group_symop_operation_xyz
x,y,z
-x,1/2+y,-z
-x,-y,-z
x,1/2-y,z
loop_
_atom_site_type_symbol
_atom_site_label
_atom_site_fract_x
_atom_site_fract_y
_atom_site_fract_z
Si Si1 0.945880 0.910305 0.229840
Si Si2 0.739687 0.650940 0.006662
Si Si3 0.161239 0.976021 0.085320
Si Si4 0.711677 0.139223 0.462804
Si Si5 0.074498 0.147587 0.537943
Si Si6 0.620097 0.145648 0.038696
Si Si7 0.355657 0.524656 0.748038
Si Si8 0.558588 0.861043 0.382494
O O1 0.114821 0.946075 0.199717
O O2 0.605060 0.077441 0.138396
O O3 0.831557 0.994841 0.251189
O O4 0.858217 0.863265 0.119322
O O5 0.771457 0.750000 0.960312
O O6 0.748733 0.571898 0.918989
O O7 0.556964 0.648055 0.032351
O O8 0.252583 0.896293 0.031330
O O9 0.000000 0.000000 0.000000
O O10 0.717868 0.250000 0.454521
O O11 0.632096 0.093420 0.350595
O O12 0.593567 0.120729 0.553385
O O13 0.900904 0.104274 0.485817
O O14 0.077059 0.250000 0.491300
O O15 0.262944 0.114407 0.545753
O O16 0.048623 0.150542 0.664554
O O17 0.661853 0.250000 0.075545
O O18 0.444770 0.430063 0.720266
O O19 0.563049 0.750000 0.358947
#
# Coordination Sequence:
#
# PCOD9163858 Si02
#       8
#     4   4   4   4   4   4   4   4
#     4  10  21  37  59  86 118 151 199 243 304 348
#     4  10  21  38  59  82 116 158 197 247 298 343
#     4  10  20  38  57  86 117 155 197 248 294 353
#     4  10  21  39  61  88 121 158 196 239 298 360
#     4   9  19  37  60  86 118 152 194 249 295 351
#     4  11  23  39  60  86 119 161 201 241 296 362
#     4  11  21  38  61  86 120 158 192 241 299 355
#     4   9  20  38  61  88 118 153 201 250 298 354
#
# _framework density 21.537953000000002
#
# number of rings (size 3 to 8) (size 9 to 14) (size 15 to 20)
#    0.000    2.000    2.500    1.500    0.000    6.000 
#    2.250    1.250    0.000    3.000    0.000    0.000 
#    0.000    0.000    0.000    0.000    0.000    0.000 
#
# Total GULP energy -178323.755780 kJ/mol
# GULP energy per Si atom -5572.617368 kJ/mol
# Density = 2.148893 g / cm^3
# Si number density = 21.537953 Si / 1000 Ang^3
#
#
#
# Elastic Constant Matrix: (Units=GPa)
#
#
# Indices 1 2 3 4 5 6 
#
# 1 70.3569 24.3693 2.3374 0.0000 -16.0034 0.0000
# 2 24.3693 89.2682 27.3910 0.0000 -14.0819 0.0000
# 3 2.3374 27.3910 47.3074 0.0000 -15.3241 0.0000
# 4 0.0000 0.0000 0.0000 51.9611 0.0000 -18.5863
# 5 -16.0034 -14.0819 -15.3241 0.0000 26.0188 0.0000
# 6 0.0000 0.0000 0.0000 -18.5863 0.0000 27.2965
#
#
#
# Elastic Compliance Matrix: (Units=1/GPa)
#
#
# Indices 1 2 3 4 5 6 
#
# 1 0.018496 -0.004935 0.005886 0.000000 0.012172 0.000000
# 2 -0.004935 0.015183 -0.008488 0.000000 0.000183 0.000000
# 3 0.005886 -0.008488 0.031446 0.000000 0.017547 0.000000
# 4 0.000000 0.000000 0.000000 0.025442 0.000000 0.017323
# 5 0.012172 0.000183 0.017547 0.000000 0.056354 0.000000
# 6 0.000000 0.000000 0.000000 0.017323 0.000000 0.048430
#
#
# Mechanical properties :
#
#
# Convention : Reuss Voigt Hill
#
# Bulk Modulus (GPa) = 19.97948 35.01420 27.49684
# Shear Modulus (GPa) = 22.01607 31.24428 26.63017
#
# Velocity S-wave (km/s) = 3.20065 3.81289 3.52011
# Velocity P-wave (km/s) = 4.79118 5.97297 5.41442
#
# Compressibility (1/GPa) = 0.05005136
#
# Stress axis : x y z
#
# Youngs Moduli (GPa) = 54.06649 65.86473 31.80064
#
# Poissons Ratio (x) = 0.32506 -0.18719
# Poissons Ratio (y) = 0.26683 0.26991
# Poissons Ratio (z) = -0.31826 0.55904
#
# Static dielectric constant tensor:
#      x y z
#    x 1.867060 0.000000 0.025400 
#    y 0.000000 1.846940 0.000000 
#    z 0.025400 0.000000 1.740110 
# 
# From -- ./inp_files/47440.got.cif
#   From: 2010.05.17/outbox.cif.g08.bks.cpg/sg11_24_cif.got.tgz:47440.got - 2010.06.03 12:22:45.
