data_PCOD9163579
_publ_section_title
;
Structure prediction by ZEFSAII (Michael W. Deem and Ramdas Pophale) SiO2 
 PCOD9163579
Probable space group: P 21/M
;
_chemical_formula_sum "Si O2"
_cell_formula_units_Z 32
_cell_length_a 8.007601
_cell_length_b 13.106104
_cell_length_c 17.089991
_cell_angle_alpha 90.000000
_cell_angle_beta 56.991173
_cell_angle_gamma 90.000000
_cell_volume 1504.062259
_symmetry_space_group_name_H-M "P 21/M"
_symmetry_group_IT_number 11
_symmetry_cell_setting 'monoclinic'
loop_
_space_group_symop_operation_xyz
x,y,z
-x,1/2+y,-z
-x,-y,-z
x,1/2-y,z
loop_
_atom_site_type_symbol
_atom_site_label
_atom_site_fract_x
_atom_site_fract_y
_atom_site_fract_z
Si Si1 0.382024 0.500500 0.689077
Si Si2 0.354038 0.132154 0.261126
Si Si3 0.734873 0.015122 0.935303
Si Si4 0.749712 0.374492 0.547465
Si Si5 0.946334 0.136953 0.200026
Si Si6 0.753605 0.361644 0.075846
Si Si7 0.046597 0.367459 0.770478
Si Si8 0.014327 0.980106 0.370991
O O1 0.535146 0.571827 0.696963
O O2 0.524739 0.420565 0.608431
O O3 0.218116 0.583637 0.702133
O O4 0.218550 0.428276 0.774426
O O5 0.308193 0.250000 0.293142
O O6 0.516403 0.133284 0.151142
O O7 0.166099 0.061520 0.293929
O O8 0.826621 0.103404 0.856490
O O9 0.806616 0.048944 0.003375
O O10 0.849249 0.918381 0.872112
O O11 0.500000 0.000000 0.000000
O O12 0.755414 0.250000 0.535475
O O13 0.865317 0.407547 0.598313
O O14 0.861180 0.447131 0.456244
O O15 0.983163 0.250000 0.218864
O O16 0.843491 0.137462 0.139883
O O17 0.804058 0.250000 0.028707
O O18 0.082613 0.250000 0.766941
O O19 0.068018 0.407388 0.676028
#
# Coordination Sequence:
#
# PCOD9163579 Si02
#       8
#     4   4   4   4   4   4   4   4
#     4   9  19  35  57  82 110 145 185 227 275 330
#     4   9  17  34  58  83 114 149 190 236 278 321
#     4  11  22  35  54  81 113 145 184 230 279 335
#     4  10  20  37  60  84 109 141 188 236 276 328
#     4   9  19  36  56  78 108 145 189 235 276 323
#     4   9  17  32  54  77 104 145 191 230 268 315
#     4  11  23  39  55  78 117 155 185 225 280 337
#     4  10  21  36  57  84 115 149 185 226 279 337
#
# _framework density 21.275715999999999
#
# number of rings (size 3 to 8) (size 9 to 14) (size 15 to 20)
#    0.000    2.250    0.000    3.750    0.000    1.500 
#    0.000    9.375    0.000    6.000    0.000    0.000 
#    0.000    0.000    0.000    0.000    0.000    0.000 
#
# Total GULP energy -178145.203220 kJ/mol
# GULP energy per Si atom -5567.037601 kJ/mol
# Density = 2.122729 g / cm^3
# Si number density = 21.275716 Si / 1000 Ang^3
#
#
#
# Elastic Constant Matrix: (Units=GPa)
#
#
# Indices 1 2 3 4 5 6 
#
# 1 67.6697 15.1528 20.4220 0.0000 -17.0352 0.0000
# 2 15.1528 149.4087 17.7155 0.0000 -15.3495 0.0000
# 3 20.4220 17.7155 65.0033 0.0000 -16.0853 0.0000
# 4 0.0000 0.0000 0.0000 28.3339 0.0000 -1.4426
# 5 -17.0352 -15.3495 -16.0853 0.0000 40.2821 0.0000
# 6 0.0000 0.0000 0.0000 -1.4426 0.0000 13.4931
#
#
#
# Elastic Compliance Matrix: (Units=1/GPa)
#
#
# Indices 1 2 3 4 5 6 
#
# 1 0.017529 -0.000741 -0.003929 0.000000 0.005562 0.000000
# 2 -0.000741 0.007110 -0.001234 0.000000 0.001903 0.000000
# 3 -0.003929 -0.001234 0.018228 0.000000 0.005147 0.000000
# 4 0.000000 0.000000 0.000000 0.035487 0.000000 0.003794
# 5 0.005562 0.001903 0.005147 0.000000 0.029958 0.000000
# 6 0.000000 0.000000 0.000000 0.003794 0.000000 0.074518
#
#
# Mechanical properties :
#
#
# Convention : Reuss Voigt Hill
#
# Bulk Modulus (GPa) = 32.19540 43.18469 37.69004
# Shear Modulus (GPa) = 24.39142 31.67459 28.03301
#
# Velocity S-wave (km/s) = 3.38959 3.86264 3.63382
# Velocity P-wave (km/s) = 5.52127 6.34311 5.94640
#
# Compressibility (1/GPa) = 0.03106034
#
# Stress axis : x y z
#
# Youngs Moduli (GPa) = 57.04702 140.64663 54.86011
#
# Poissons Ratio (x) = 0.10415 0.21555
# Poissons Ratio (y) = 0.04224 0.06770
# Poissons Ratio (z) = 0.22414 0.17357
#
# Static dielectric constant tensor:
#      x y z
#    x 1.864560 0.000000 0.008970 
#    y 0.000000 1.789010 0.000000 
#    z 0.008970 0.000000 1.785240 
# 
# From -- ./inp_files/63641.got.cif
#   From: 2010.05.17/outbox.cif.g08.bks.cpg/sg11_32_cif.got.tgz:63641.got - 2010.06.03 12:22:45.
