data_PCOD9163592
_publ_section_title
;
Structure prediction by ZEFSAII (Michael W. Deem and Ramdas Pophale) SiO2 
 PCOD9163592
Probable space group: P 21/M
;
_chemical_formula_sum "Si O2"
_cell_formula_units_Z 32
_cell_length_a 26.662811
_cell_length_b 8.756855
_cell_length_c 20.717305
_cell_angle_alpha 90.000000
_cell_angle_beta 158.842598
_cell_angle_gamma 90.000000
_cell_volume 1745.870034
_symmetry_space_group_name_H-M "P 21/M"
_symmetry_group_IT_number 11
_symmetry_cell_setting 'monoclinic'
loop_
_space_group_symop_operation_xyz
x,y,z
-x,1/2+y,-z
-x,-y,-z
x,1/2-y,z
loop_
_atom_site_type_symbol
_atom_site_label
_atom_site_fract_x
_atom_site_fract_y
_atom_site_fract_z
Si Si1 0.787666 0.934113 0.472649
Si Si2 0.104506 0.934251 0.889295
Si Si3 0.713605 0.567648 0.006415
Si Si4 0.896343 0.066100 0.965303
Si Si5 0.655138 0.067496 0.184658
Si Si6 0.202255 0.066180 0.281071
Si Si7 0.406728 0.434163 0.638544
Si Si8 0.847897 0.566307 0.304000
O O1 0.781557 0.750000 0.455937
O O2 0.688449 0.972383 0.413922
O O3 0.946190 0.974643 0.680206
O O4 0.734180 0.015998 0.344430
O O5 0.113139 0.750000 0.898254
O O6 0.133561 0.984166 0.997699
O O7 0.209799 0.001737 0.964091
O O8 0.711048 0.750000 0.999826
O O9 0.798031 0.524140 0.172281
O O10 0.557763 0.505743 0.824587
O O11 0.889906 0.250000 0.955761
O O12 0.054932 0.022193 0.137123
O O13 0.799610 0.000158 0.793026
O O14 0.649171 0.250000 0.173297
O O15 0.739674 0.000643 0.225642
O O16 0.500000 0.000000 0.000000
O O17 0.204428 0.250000 0.280234
O O18 0.325741 0.017013 0.476473
O O19 0.418785 0.250000 0.651464
O O20 0.850605 0.750000 0.312650
O O21 0.000000 0.500000 0.500000
#
# Coordination Sequence:
#
# PCOD9163592 Si02
#       8
#     4   4   4   4   4   4   4   4
#     4  10  20  37  62  88 113 145 189 240 290 344
#     4  10  20  37  60  85 114 150 190 232 281 341
#     4  11  25  40  56  83 118 150 189 239 285 336
#     4   9  17  32  55  85 117 147 185 231 279 333
#     4  12  25  40  59  86 118 152 193 241 293 349
#     4   9  17  32  55  85 117 147 185 231 279 335
#     4  10  20  37  60  85 115 153 193 232 284 348
#     4  11  24  43  64  87 117 153 195 243 293 352
#
# _framework density 18.328970000000002
#
# number of rings (size 3 to 8) (size 9 to 14) (size 15 to 20)
#    0.000    1.750    1.250    3.375    0.000    8.000 
#    0.000    0.625    0.000    0.000    0.000    0.000 
#    0.000    0.000    0.000    0.000    0.000    0.000 
#
# Total GULP energy -178799.370199 kJ/mol
# GULP energy per Si atom -5587.480319 kJ/mol
# Density = 1.828725 g / cm^3
# Si number density = 18.328970 Si / 1000 Ang^3
#
#
#
# Elastic Constant Matrix: (Units=GPa)
#
#
# Indices 1 2 3 4 5 6 
#
# 1 109.7834 26.9956 22.0914 0.0000 -9.2043 0.0000
# 2 26.9956 28.7498 12.0475 0.0000 -5.1709 0.0000
# 3 22.0914 12.0475 38.8502 0.0000 -4.4032 0.0000
# 4 0.0000 0.0000 0.0000 28.8116 0.0000 -5.3635
# 5 -9.2043 -5.1709 -4.4032 0.0000 39.9232 0.0000
# 6 0.0000 0.0000 0.0000 -5.3635 0.0000 25.1817
#
#
#
# Elastic Compliance Matrix: (Units=1/GPa)
#
#
# Indices 1 2 3 4 5 6 
#
# 1 0.012398 -0.009808 -0.003877 0.000000 0.001160 0.000000
# 2 -0.009808 0.048333 -0.009071 0.000000 0.002998 0.000000
# 3 -0.003877 -0.009071 0.030909 0.000000 0.001340 0.000000
# 4 0.000000 0.000000 0.000000 0.036141 0.000000 0.007698
# 5 0.001160 0.002998 0.001340 0.000000 0.025852 0.000000
# 6 0.000000 0.000000 0.000000 0.007698 0.000000 0.041351
#
#
# Mechanical properties :
#
#
# Convention : Reuss Voigt Hill
#
# Bulk Modulus (GPa) = 21.67877 33.29471 27.48674
# Shear Modulus (GPa) = 19.54094 26.53323 23.03709
#
# Velocity S-wave (km/s) = 3.26870 3.80888 3.54908
# Velocity P-wave (km/s) = 5.10873 6.12763 5.64123
#
# Compressibility (1/GPa) = 0.04612808
#
# Stress axis : x y z
#
# Youngs Moduli (GPa) = 80.65732 20.68972 32.35281
#
# Poissons Ratio (x) = 0.20293 0.12543
# Poissons Ratio (y) = 0.79112 0.29347
# Poissons Ratio (z) = 0.31270 0.18768
#
# Static dielectric constant tensor:
#      x y z
#    x 1.610940 0.000000 -0.013240 
#    y 0.000000 1.617290 0.000000 
#    z -0.013240 0.000000 1.606920 
# 
# From -- ./inp_files/67222.got.cif
#   From: 2010.05.17/outbox.cif.g08.bks.cpg/sg11_34_cif.got.tgz:67222.got - 2010.06.03 12:22:45.
