data_PCOD9163216
_publ_section_title
;
Structure prediction by ZEFSAII (Michael W. Deem and Ramdas Pophale) SiO2 
 PCOD9163216
Probable space group: P 21/M
;
_chemical_formula_sum "Si O2"
_cell_formula_units_Z 28
_cell_length_a 27.111917
_cell_length_b 8.350675
_cell_length_c 10.298281
_cell_angle_alpha 90.000000
_cell_angle_beta 141.645450
_cell_angle_gamma 90.000000
_cell_volume 1446.793243
_symmetry_space_group_name_H-M "P 21/M"
_symmetry_group_IT_number 11
_symmetry_cell_setting 'monoclinic'
loop_
_space_group_symop_operation_xyz
x,y,z
-x,1/2+y,-z
-x,-y,-z
x,1/2-y,z
loop_
_atom_site_type_symbol
_atom_site_label
_atom_site_fract_x
_atom_site_fract_y
_atom_site_fract_z
Si Si1 0.763027 0.943578 0.002822
Si Si2 0.065250 0.441390 0.032759
Si Si3 0.692790 0.943624 0.129708
Si Si4 0.483236 0.056151 0.318602
Si Si5 0.757526 0.441410 0.537838
Si Si6 0.063639 0.443342 0.735677
Si Si7 0.354101 0.942215 0.459554
O O1 0.759021 0.750000 0.987140
O O2 0.746604 0.989803 0.117274
O O3 0.848591 0.996235 0.127370
O O4 0.695323 0.012414 0.770274
O O5 0.062830 0.250000 0.025958
O O6 0.154350 0.492618 0.254623
O O7 0.047816 0.499959 0.849936
O O8 0.000000 0.500000 0.000000
O O9 0.693146 0.750000 0.139438
O O10 0.725872 0.012180 0.331219
O O11 0.602774 0.996018 0.910710
O O12 0.482782 0.250000 0.319701
O O13 0.555852 0.000512 0.377009
O O14 0.500000 0.000000 0.500000
O O15 0.761716 0.250000 0.557234
O O16 0.695515 0.503069 0.519164
O O17 0.063565 0.250000 0.736611
O O18 0.000000 0.500000 0.500000
O O19 0.357407 0.750000 0.477144
#
# Coordination Sequence:
#
# PCOD9163216 Si02
#       7
#     4   4   4   4   4   4   4
#     4  10  20  38  61  87 116 154 199 241 292 355
#     4  11  24  43  65  90 121 158 199 243 297 356
#     4  10  22  38  59  88 121 158 199 247 299 354
#     4  10  20  36  59  88 120 154 198 248 302 354
#     4  11  24  41  60  87 122 160 201 244 295 355
#     4  10  23  40  61  90 120 152 195 240 290 352
#     4  10  21  37  60  88 119 156 197 246 297 351
#
# _framework density 19.353145999999999
#
# number of rings (size 3 to 8) (size 9 to 14) (size 15 to 20)
#    0.000    1.714    2.857    0.857    2.000    4.000 
#    0.000    0.000    0.000    0.000    0.000    0.000 
#    0.000    0.000    0.000    0.000    0.000    0.000 
#
# Total GULP energy -156414.874100 kJ/mol
# GULP energy per Si atom -5586.245504 kJ/mol
# Density = 1.930910 g / cm^3
# Si number density = 19.353146 Si / 1000 Ang^3
#
#
#
# Elastic Constant Matrix: (Units=GPa)
#
#
# Indices 1 2 3 4 5 6 
#
# 1 194.0941 27.9134 79.6194 0.0000 -6.9400 0.0000
# 2 27.9134 14.3251 15.1506 0.0000 0.6085 0.0000
# 3 79.6194 15.1506 130.0052 0.0000 -11.2566 0.0000
# 4 0.0000 0.0000 0.0000 32.9082 0.0000 -4.0216
# 5 -6.9400 0.6085 -11.2566 0.0000 35.1507 0.0000
# 6 0.0000 0.0000 0.0000 -4.0216 0.0000 20.6600
#
#
#
# Elastic Compliance Matrix: (Units=1/GPa)
#
#
# Indices 1 2 3 4 5 6 
#
# 1 0.008515 -0.012745 -0.003667 0.000000 0.000728 0.000000
# 2 -0.012745 0.099388 -0.004262 0.000000 -0.005602 0.000000
# 3 -0.003667 -0.004262 0.010674 0.000000 0.002768 0.000000
# 4 0.000000 0.000000 0.000000 0.031128 0.000000 0.006059
# 5 0.000728 -0.005602 0.002768 0.000000 0.029576 0.000000
# 6 0.000000 0.000000 0.000000 0.006059 0.000000 0.049582
#
#
# Mechanical properties :
#
#
# Convention : Reuss Voigt Hill
#
# Bulk Modulus (GPa) = 12.94843 64.86571 38.90707
# Shear Modulus (GPa) = 16.89446 32.12650 24.51048
#
# Velocity S-wave (km/s) = 2.95779 4.07875 3.56263
# Velocity P-wave (km/s) = 4.28600 7.46801 6.08856
#
# Compressibility (1/GPa) = 0.07722943
#
# Stress axis : x y z
#
# Youngs Moduli (GPa) = 117.43671 10.06155 93.68608
#
# Poissons Ratio (x) = 0.12824 0.34352
# Poissons Ratio (y) = 1.49678 0.39928
# Poissons Ratio (z) = 0.43060 0.04288
#
# Static dielectric constant tensor:
#      x y z
#    x 1.696470 0.000000 0.005580 
#    y 0.000000 1.673660 0.000000 
#    z 0.005580 0.000000 1.628520 
# 
# From -- ./inp_files/28579.got.cif
#   From: 2010.05.17/outbox.cif.g08.bks.cpg/sg11_15_cif.got.tgz:28579.got - 2010.06.03 12:22:45.
