data_PCOD9163625
_publ_section_title
;
Structure prediction by ZEFSAII (Michael W. Deem and Ramdas Pophale) SiO2 
 PCOD9163625
Probable space group: P 21/M
;
_chemical_formula_sum "Si O2"
_cell_formula_units_Z 28
_cell_length_a 16.411445
_cell_length_b 8.588783
_cell_length_c 20.672003
_cell_angle_alpha 90.000000
_cell_angle_beta 149.966233
_cell_angle_gamma 90.000000
_cell_volume 1458.391188
_symmetry_space_group_name_H-M "P 21/M"
_symmetry_group_IT_number 11
_symmetry_cell_setting 'monoclinic'
loop_
_space_group_symop_operation_xyz
x,y,z
-x,1/2+y,-z
-x,-y,-z
x,1/2-y,z
loop_
_atom_site_type_symbol
_atom_site_label
_atom_site_fract_x
_atom_site_fract_y
_atom_site_fract_z
Si Si1 0.367227 0.562073 0.358448
Si Si2 0.117320 0.936789 0.403404
Si Si3 0.900903 0.435647 0.370526
Si Si4 0.959512 0.062326 0.797256
Si Si5 0.457053 0.437061 0.899823
Si Si6 0.315759 0.937688 0.061478
Si Si7 0.520791 0.938585 0.327887
O O1 0.500000 0.500000 0.500000
O O2 0.369017 0.750000 0.362213
O O3 0.189264 0.509283 0.259520
O O4 0.420392 0.515807 0.323005
O O5 0.104712 0.750000 0.398984
O O6 0.077194 0.984948 0.302149
O O7 0.300289 0.988957 0.545673
O O8 0.993975 0.012000 0.369550
O O9 0.895177 0.250000 0.369967
O O10 0.718832 0.502569 0.243311
O O11 0.000000 0.500000 0.500000
O O12 0.962585 0.250000 0.800559
O O13 0.133656 0.000479 0.938434
O O14 0.453557 0.250000 0.899069
O O15 0.592984 0.487413 0.941366
O O16 0.500000 0.500000 0.000000
O O17 0.309637 0.750000 0.057525
O O18 0.423555 0.986232 0.197016
O O19 0.537149 0.750000 0.338618
#
# Coordination Sequence:
#
# PCOD9163625 Si02
#       7
#     4   4   4   4   4   4   4
#     4  10  20  37  60  88 120 155 197 247 299 355
#     4  11  22  38  61  89 120 155 200 249 301 362
#     4  12  25  41  62  90 122 158 203 253 310 368
#     4  10  22  38  58  87 121 154 196 246 295 352
#     4  11  23  41  63  88 122 162 208 257 308 368
#     4  10  23  40  58  85 118 155 198 244 299 360
#     4  10  21  38  61  87 120 159 200 249 303 359
#
# _framework density 19.199237
#
# number of rings (size 3 to 8) (size 9 to 14) (size 15 to 20)
#    0.000    1.429    1.429    3.857    0.000    7.429 
#    0.000    0.000    0.000    0.000    0.000    0.000 
#    0.000    0.000    0.000    0.000    0.000    0.000 
#
# Total GULP energy -156574.181612 kJ/mol
# GULP energy per Si atom -5591.935058 kJ/mol
# Density = 1.915554 g / cm^3
# Si number density = 19.199237 Si / 1000 Ang^3
#
#
#
# Elastic Constant Matrix: (Units=GPa)
#
#
# Indices 1 2 3 4 5 6 
#
# 1 73.1843 11.6381 1.4625 0.0000 13.3305 0.0000
# 2 11.6381 35.3133 8.7732 0.0000 2.2566 0.0000
# 3 1.4625 8.7732 95.0328 0.0000 8.8765 0.0000
# 4 0.0000 0.0000 0.0000 40.2452 0.0000 2.8330
# 5 13.3305 2.2566 8.8765 0.0000 41.2975 0.0000
# 6 0.0000 0.0000 0.0000 2.8330 0.0000 21.4902
#
#
#
# Elastic Compliance Matrix: (Units=1/GPa)
#
#
# Indices 1 2 3 4 5 6 
#
# 1 0.015308 -0.004903 0.000667 0.000000 -0.004817 0.000000
# 2 -0.004903 0.030596 -0.002797 0.000000 0.000512 0.000000
# 3 0.000667 -0.002797 0.010997 0.000000 -0.002426 0.000000
# 4 0.000000 0.000000 0.000000 0.025080 0.000000 -0.003306
# 5 -0.004817 0.000512 -0.002426 0.000000 0.026263 0.000000
# 6 0.000000 0.000000 0.000000 -0.003306 0.000000 0.046969
#
#
# Mechanical properties :
#
#
# Convention : Reuss Voigt Hill
#
# Bulk Modulus (GPa) = 23.34518 27.47532 25.41025
# Shear Modulus (GPa) = 27.23949 32.71702 29.97826
#
# Velocity S-wave (km/s) = 3.77076 4.13253 3.95578
# Velocity P-wave (km/s) = 5.58068 6.09197 5.84192
#
# Compressibility (1/GPa) = 0.04283539
#
# Stress axis : x y z
#
# Youngs Moduli (GPa) = 65.32600 32.68410 90.93186
#
# Poissons Ratio (x) = 0.16024 -0.06065
# Poissons Ratio (y) = 0.32028 0.25433
# Poissons Ratio (z) = -0.04357 0.09141
#
# Static dielectric constant tensor:
#      x y z
#    x 1.661840 0.000000 -0.000250 
#    y 0.000000 1.654530 0.000000 
#    z -0.000250 0.000000 1.621840 
# 
# From -- ./inp_files/65442.got.cif
#   From: 2010.05.17/outbox.cif.g08.bks.cpg/sg11_33_cif.got.tgz:65442.got - 2010.06.03 12:22:45.
