data_PCOD9163825
_publ_section_title
;
Structure prediction by ZEFSAII (Michael W. Deem and Ramdas Pophale) SiO2 
 PCOD9163825
Probable space group: P 21/M
;
_chemical_formula_sum "Si O2"
_cell_formula_units_Z 28
_cell_length_a 9.772111
_cell_length_b 14.191771
_cell_length_c 11.743049
_cell_angle_alpha 90.000000
_cell_angle_beta 58.688705
_cell_angle_gamma 90.000000
_cell_volume 1391.377369
_symmetry_space_group_name_H-M "P 21/M"
_symmetry_group_IT_number 11
_symmetry_cell_setting 'monoclinic'
loop_
_space_group_symop_operation_xyz
x,y,z
-x,1/2+y,-z
-x,-y,-z
x,1/2-y,z
loop_
_atom_site_type_symbol
_atom_site_label
_atom_site_fract_x
_atom_site_fract_y
_atom_site_fract_z
Si Si1 0.089550 0.138356 0.795576
Si Si2 0.226673 0.646861 0.219513
Si Si3 0.244262 0.059685 0.321977
Si Si4 0.320314 0.016968 0.539273
Si Si5 0.119024 0.138062 0.038992
Si Si6 0.557005 0.606344 0.974596
Si Si7 0.937451 0.137176 0.346337
O O1 0.130645 0.250000 0.779877
O O2 0.921309 0.130630 0.802111
O O3 0.223177 0.080637 0.670507
O O4 0.078504 0.103441 0.930661
O O5 0.200844 0.750000 0.288542
O O6 0.240355 0.551417 0.287845
O O7 0.392414 0.655540 0.078156
O O8 0.355643 0.117744 0.184803
O O9 0.066158 0.100937 0.383202
O O10 0.307660 0.065674 0.421642
O O11 0.227172 0.917739 0.569001
O O12 0.500000 0.000000 0.500000
O O13 0.093651 0.250000 0.047726
O O14 0.303963 0.121541 0.992727
O O15 0.013208 0.104794 0.191551
O O16 0.500000 0.500000 0.000000
O O17 0.924442 0.250000 0.354799
#
# Coordination Sequence:
#
# PCOD9163825 Si02
#       7
#     4   4   4   4   4   4   4
#     4  10  23  41  62  90 124 161 203 256 316 372
#     4  10  20  37  64  95 123 158 206 259 312 366
#     4  10  22  43  60  91 129 164 213 251 306 375
#     4  12  27  42  60  91 129 168 211 258 310 376
#     4   9  19  38  62  90 122 155 200 252 308 369
#     4   9  19  34  59  91 119 152 198 250 305 358
#     4  10  22  43  68  91 120 168 214 257 312 371
#
# _framework density 20.123944999999999
#
# number of rings (size 3 to 8) (size 9 to 14) (size 15 to 20)
#    0.000    2.000    1.429    0.857    4.000    4.000 
#    0.000    0.000    0.000    0.000    0.000    0.000 
#    0.000    0.000    0.000    0.000    0.000    0.000 
#
# Total GULP energy -156286.330701 kJ/mol
# GULP energy per Si atom -5581.654668 kJ/mol
# Density = 2.007814 g / cm^3
# Si number density = 20.123945 Si / 1000 Ang^3
#
#
#
# Elastic Constant Matrix: (Units=GPa)
#
#
# Indices 1 2 3 4 5 6 
#
# 1 112.2829 8.1673 45.8540 0.0000 -12.5202 0.0000
# 2 8.1673 79.6566 7.2260 0.0000 -7.1619 0.0000
# 3 45.8540 7.2260 44.1826 0.0000 1.1387 0.0000
# 4 0.0000 0.0000 0.0000 13.2660 0.0000 8.7069
# 5 -12.5202 -7.1619 1.1387 0.0000 44.1241 0.0000
# 6 0.0000 0.0000 0.0000 8.7069 0.0000 15.6158
#
#
#
# Elastic Compliance Matrix: (Units=1/GPa)
#
#
# Indices 1 2 3 4 5 6 
#
# 1 0.016556 0.000346 -0.017373 0.000000 0.005202 0.000000
# 2 0.000346 0.012952 -0.002536 0.000000 0.002266 0.000000
# 3 -0.017373 -0.002536 0.041243 0.000000 -0.006405 0.000000
# 4 0.000000 0.000000 0.000000 0.118887 0.000000 -0.066288
# 5 0.005202 0.002266 -0.006405 0.000000 0.024673 0.000000
# 6 0.000000 0.000000 0.000000 -0.066288 0.000000 0.100998
#
#
# Mechanical properties :
#
#
# Convention : Reuss Voigt Hill
#
# Bulk Modulus (GPa) = 31.61958 39.84629 35.73294
# Shear Modulus (GPa) = 13.69955 26.25951 19.97953
#
# Velocity S-wave (km/s) = 2.61197 3.61624 3.15433
# Velocity P-wave (km/s) = 4.98428 6.10571 5.57327
#
# Compressibility (1/GPa) = 0.03162597
#
# Stress axis : x y z
#
# Youngs Moduli (GPa) = 60.40259 77.20708 24.24652
#
# Poissons Ratio (x) = -0.02673 0.42122
# Poissons Ratio (y) = -0.02091 0.06149
# Poissons Ratio (z) = 1.04935 0.19580
#
# Static dielectric constant tensor:
#      x y z
#    x 1.661730 0.000000 0.003550 
#    y 0.000000 1.735240 0.000000 
#    z 0.003550 0.000000 1.752090 
# 
# From -- ./inp_files/18145.got.cif
#   From: 2010.05.17/outbox.cif.g08.bks.cpg/sg11_10_cif.got.tgz:18145.got - 2010.06.03 12:22:45.
