data_PCOD9163733
_publ_section_title
;
Structure prediction by ZEFSAII (Michael W. Deem and Ramdas Pophale) SiO2 
 PCOD9163733
Probable space group: P 21/M
;
_chemical_formula_sum "Si O2"
_cell_formula_units_Z 28
_cell_length_a 14.955855
_cell_length_b 14.318789
_cell_length_c 8.982229
_cell_angle_alpha 90.000000
_cell_angle_beta 35.277882
_cell_angle_gamma 90.000000
_cell_volume 1110.927268
_symmetry_space_group_name_H-M "P 21/M"
_symmetry_group_IT_number 11
_symmetry_cell_setting 'monoclinic'
loop_
_space_group_symop_operation_xyz
x,y,z
-x,1/2+y,-z
-x,-y,-z
x,1/2-y,z
loop_
_atom_site_type_symbol
_atom_site_label
_atom_site_fract_x
_atom_site_fract_y
_atom_site_fract_z
Si Si1 0.530525 0.856776 0.528950
Si Si2 0.328187 0.994811 0.162309
Si Si3 0.998828 0.641586 0.915731
Si Si4 0.732896 0.643276 0.521120
Si Si5 0.932314 0.394955 0.606311
Si Si6 0.793682 0.138069 0.120553
Si Si7 0.794360 0.895303 0.940908
O O1 0.484792 0.750000 0.625324
O O2 0.596490 0.891024 0.595750
O O3 0.376469 0.903208 0.676660
O O4 0.664990 0.851156 0.223328
O O5 0.242186 0.068588 0.386059
O O6 0.307903 0.038469 0.025375
O O7 0.225330 0.899802 0.281308
O O8 0.500000 0.000000 0.000000
O O9 0.019116 0.750000 0.833186
O O10 0.879073 0.649443 0.214772
O O11 0.920271 0.577119 0.898134
O O12 0.145096 0.600850 0.804022
O O13 0.700135 0.750000 0.618668
O O14 0.000000 0.500000 0.500000
O O15 0.082860 0.344264 0.335007
O O16 0.884382 0.372328 0.840105
O O17 0.790368 0.250000 0.152625
#
# Coordination Sequence:
#
# PCOD9163733 Si02
#       7
#     4   4   4   4   4   4   4
#     4   9  19  37  60  90 121 149 195 255 304 356
#     4  11  23  39  57  85 123 161 199 248 300 358
#     4   9  18  34  58  88 115 145 195 252 299 352
#     4   9  18  36  61  83 111 156 199 237 296 368
#     4  10  22  40  57  85 123 160 201 248 299 364
#     4  10  20  37  62  86 116 160 202 245 306 373
#     4  10  21  37  58  83 114 155 194 245 299 347
#
# _framework density 25.204170999999999
#
# number of rings (size 3 to 8) (size 9 to 14) (size 15 to 20)
#    0.000    2.286    0.000    3.857    0.000    3.429 
#    0.000   22.857    0.000    5.143    0.000    0.000 
#    0.000    0.000    0.000    0.000    0.000    0.000 
#
# Total GULP energy -155991.570458 kJ/mol
# GULP energy per Si atom -5571.127516 kJ/mol
# Density = 2.514680 g / cm^3
# Si number density = 25.204171 Si / 1000 Ang^3
#
#
#
# Elastic Constant Matrix: (Units=GPa)
#
#
# Indices 1 2 3 4 5 6 
#
# 1 219.6140 28.2696 40.9847 0.0000 -11.5407 0.0000
# 2 28.2696 62.9002 4.6656 0.0000 11.7749 0.0000
# 3 40.9847 4.6656 89.4078 0.0000 -2.5456 0.0000
# 4 0.0000 0.0000 0.0000 10.6125 0.0000 6.7787
# 5 -11.5407 11.7749 -2.5456 0.0000 44.4584 0.0000
# 6 0.0000 0.0000 0.0000 6.7787 0.0000 17.0305
#
#
#
# Elastic Compliance Matrix: (Units=1/GPa)
#
#
# Indices 1 2 3 4 5 6 
#
# 1 0.005425 -0.002638 -0.002293 0.000000 0.001976 0.000000
# 2 -0.002638 0.018100 0.000109 0.000000 -0.005472 0.000000
# 3 -0.002293 0.000109 0.012232 0.000000 0.000076 0.000000
# 4 0.000000 0.000000 0.000000 0.126353 0.000000 -0.050292
# 5 0.001976 -0.005472 0.000076 0.000000 0.024460 0.000000
# 6 0.000000 0.000000 0.000000 -0.050292 0.000000 0.078736
#
#
# Mechanical properties :
#
#
# Convention : Reuss Voigt Hill
#
# Bulk Modulus (GPa) = 38.29435 57.75131 48.02283
# Shear Modulus (GPa) = 17.62715 34.28707 25.95711
#
# Velocity S-wave (km/s) = 2.64744 3.69232 3.21265
# Velocity P-wave (km/s) = 4.95700 6.41411 5.73205
#
# Compressibility (1/GPa) = 0.02611351
#
# Stress axis : x y z
#
# Youngs Moduli (GPa) = 184.34232 55.24835 81.75124
#
# Poissons Ratio (x) = 0.14573 0.18744
# Poissons Ratio (y) = 0.48626 -0.00890
# Poissons Ratio (z) = 0.42266 -0.00601
#
# Static dielectric constant tensor:
#      x y z
#    x 2.097220 0.000000 -0.099640 
#    y 0.000000 2.100400 0.000000 
#    z -0.099640 0.000000 2.094380 
# 
# From -- ./inp_files/22737.got.cif
#   From: 2010.05.17/outbox.cif.g08.bks.cpg/sg11_12_cif.got.tgz:22737.got - 2010.06.03 12:22:45.
