data_PCOD9163080
_publ_section_title
;
Structure prediction by ZEFSAII (Michael W. Deem and Ramdas Pophale) SiO2 
 PCOD9163080
Probable space group: P 21/M
;
_chemical_formula_sum "Si O2"
_cell_formula_units_Z 32
_cell_length_a 15.543581
_cell_length_b 7.893342
_cell_length_c 23.126281
_cell_angle_alpha 90.000000
_cell_angle_beta 148.333071
_cell_angle_gamma 90.000000
_cell_volume 1489.570122
_symmetry_space_group_name_H-M "P 21/M"
_symmetry_group_IT_number 11
_symmetry_cell_setting 'monoclinic'
loop_
_space_group_symop_operation_xyz
x,y,z
-x,1/2+y,-z
-x,-y,-z
x,1/2-y,z
loop_
_atom_site_type_symbol
_atom_site_label
_atom_site_fract_x
_atom_site_fract_y
_atom_site_fract_z
Si Si1 0.834883 0.048175 0.938027
Si Si2 0.332545 0.454370 0.372025
Si Si3 0.247926 0.551895 0.573709
Si Si4 0.436617 0.451414 0.307282
Si Si5 0.381432 0.053859 0.772746
Si Si6 0.073446 0.947132 0.664420
Si Si7 0.008891 0.042570 0.254385
Si Si8 0.258514 0.956594 0.989247
O O1 0.821064 0.250000 0.930761
O O2 0.682345 0.979024 0.814722
O O3 0.828803 0.990873 0.000901
O O4 0.000000 0.000000 0.000000
O O5 0.500000 0.500000 0.500000
O O6 0.317195 0.250000 0.360766
O O7 0.353665 0.518579 0.318309
O O8 0.173608 0.516431 0.316046
O O9 0.221267 0.750000 0.546692
O O10 0.384109 0.480854 0.606909
O O11 0.322772 0.534737 0.680416
O O12 0.074465 0.463583 0.465717
O O13 0.456667 0.250000 0.326499
O O14 0.408671 0.250000 0.772479
O O15 0.234234 0.039679 0.733814
O O16 0.552679 0.988311 0.896845
O O17 0.117297 0.750000 0.695585
O O18 0.007496 0.010667 0.688517
O O19 0.013851 0.250000 0.257141
O O20 0.849903 0.987505 0.126854
O O21 0.258774 0.750000 0.986973
#
# Coordination Sequence:
#
# PCOD9163080 Si02
#       8
#     4   4   4   4   4   4   4   4
#     4  11  21  35  57  85 116 152 193 236 283 344
#     4  10  20  36  58  84 117 156 196 239 286 345
#     4  11  22  38  60  87 121 153 189 244 298 350
#     4  10  21  36  57  85 117 151 190 239 293 344
#     4  11  22  39  62  87 115 150 194 243 295 353
#     4  11  23  38  59  86 115 152 197 243 292 351
#     4   9  19  37  59  83 115 155 196 236 285 347
#     4   9  19  37  60  84 114 152 193 238 290 349
#
# _framework density 21.482710000000001
#
# number of rings (size 3 to 8) (size 9 to 14) (size 15 to 20)
#    0.000    1.750    1.250    3.375    0.000    3.500 
#    0.000    0.625    0.000    6.750    0.000    0.000 
#    0.000    0.000    0.000    0.000    0.000    0.000 
#
# Total GULP energy -178832.519425 kJ/mol
# GULP energy per Si atom -5588.516232 kJ/mol
# Density = 2.143381 g / cm^3
# Si number density = 21.482710 Si / 1000 Ang^3
#
#
#
# Elastic Constant Matrix: (Units=GPa)
#
#
# Indices 1 2 3 4 5 6 
#
# 1 98.1316 5.3941 35.0903 0.0000 11.6742 0.0000
# 2 5.3941 21.9393 -6.8307 0.0000 2.4305 0.0000
# 3 35.0903 -6.8307 120.6288 0.0000 10.5270 0.0000
# 4 0.0000 0.0000 0.0000 19.7484 0.0000 4.3548
# 5 11.6742 2.4305 10.5270 0.0000 41.5250 0.0000
# 6 0.0000 0.0000 0.0000 4.3548 0.0000 8.3108
#
#
#
# Elastic Compliance Matrix: (Units=1/GPa)
#
#
# Indices 1 2 3 4 5 6 
#
# 1 0.011909 -0.003763 -0.003482 0.000000 -0.002245 0.000000
# 2 -0.003763 0.048078 0.004060 0.000000 -0.002785 0.000000
# 3 -0.003482 0.004060 0.009682 0.000000 -0.001713 0.000000
# 4 0.000000 0.000000 0.000000 0.057252 0.000000 -0.030000
# 5 -0.002245 -0.002785 -0.001713 0.000000 0.025310 0.000000
# 6 0.000000 0.000000 0.000000 -0.030000 0.000000 0.136046
#
#
# Mechanical properties :
#
#
# Convention : Reuss Voigt Hill
#
# Bulk Modulus (GPa) = 15.79765 34.22302 25.01033
# Shear Modulus (GPa) = 15.83544 27.71991 21.77767
#
# Velocity S-wave (km/s) = 2.71795 3.59602 3.18737
# Velocity P-wave (km/s) = 4.14961 5.76254 5.02126
#
# Compressibility (1/GPa) = 0.06330054
#
# Stress axis : x y z
#
# Youngs Moduli (GPa) = 83.96801 20.79943 103.28350
#
# Poissons Ratio (x) = 0.07827 0.35958
# Poissons Ratio (y) = 0.31600 -0.41936
# Poissons Ratio (z) = 0.29234 -0.08445
#
# Static dielectric constant tensor:
#      x y z
#    x 1.787100 0.000000 0.004700 
#    y 0.000000 1.764000 0.000000 
#    z 0.004700 0.000000 1.746850 
# 
# From -- ./inp_files/69151.got.cif
#   From: 2010.05.17/outbox.cif.g08.bks.cpg/sg11_35_cif.got.tgz:69151.got - 2010.06.03 12:22:45.
