data_PCOD9163104
_publ_section_title
;
Structure prediction by ZEFSAII (Michael W. Deem and Ramdas Pophale) SiO2 
 PCOD9163104
Probable space group: P 21/M
;
_chemical_formula_sum "Si O2"
_cell_formula_units_Z 32
_cell_length_a 14.940556
_cell_length_b 8.845875
_cell_length_c 13.129732
_cell_angle_alpha 90.000000
_cell_angle_beta 101.474036
_cell_angle_gamma 90.000000
_cell_volume 1700.576290
_symmetry_space_group_name_H-M "P 21/M"
_symmetry_group_IT_number 11
_symmetry_cell_setting 'monoclinic'
loop_
_space_group_symop_operation_xyz
x,y,z
-x,1/2+y,-z
-x,-y,-z
x,1/2-y,z
loop_
_atom_site_type_symbol
_atom_site_label
_atom_site_fract_x
_atom_site_fract_y
_atom_site_fract_z
Si Si1 0.857461 0.075826 0.888654
Si Si2 0.126539 0.568080 0.683902
Si Si3 0.354875 0.925725 0.226136
Si Si4 0.074092 0.431815 0.296342
Si Si5 0.780598 0.066797 0.080454
Si Si6 0.597564 0.568938 0.548086
Si Si7 0.410991 0.069263 0.032136
Si Si8 0.214969 0.067630 0.502218
O O1 0.887831 0.250000 0.897531
O O2 0.752416 0.070575 0.825843
O O3 0.914014 0.988518 0.816195
O O4 0.848444 0.019725 0.003181
O O5 0.127552 0.750000 0.673561
O O6 0.179820 0.530594 0.800117
O O7 0.171733 0.497036 0.594822
O O8 0.021772 0.519226 0.676473
O O9 0.382527 0.750000 0.238399
O O10 0.372812 0.009456 0.335034
O O11 0.406311 0.009610 0.146620
O O12 0.075106 0.250000 0.293518
O O13 0.155781 0.481711 0.390023
O O14 0.770936 0.250000 0.069189
O O15 0.682153 0.992315 0.040367
O O16 0.500000 0.500000 0.500000
O O17 0.592049 0.750000 0.547039
O O18 0.679596 0.523465 0.490483
O O19 0.412863 0.250000 0.029010
O O20 0.500000 0.000000 0.000000
O O21 0.210594 0.250000 0.504620
#
# Coordination Sequence:
#
# PCOD9163104 Si02
#       8
#     4   4   4   4   4   4   4   4
#     4   9  18  33  57  83 111 148 188 236 288 345
#     4  10  22  38  59  84 117 158 196 240 295 351
#     4  10  20  37  59  84 114 148 190 241 291 348
#     4  10  20  36  58  86 116 151 195 243 292 349
#     4   9  20  39  56  81 119 153 193 244 294 345
#     4  11  23  39  59  86 118 155 195 245 301 352
#     4  11  22  37  60  87 114 151 194 238 291 352
#     4  10  22  39  58  82 118 154 194 247 293 344
#
# _framework density 18.817150999999999
#
# number of rings (size 3 to 8) (size 9 to 14) (size 15 to 20)
#    0.000    2.000    1.250    3.000    0.000    6.000 
#    0.000    2.500    0.000    0.000    0.000    0.000 
#    0.000    0.000    0.000    0.000    0.000    0.000 
#
# Total GULP energy -178675.168245 kJ/mol
# GULP energy per Si atom -5583.599008 kJ/mol
# Density = 1.877432 g / cm^3
# Si number density = 18.817151 Si / 1000 Ang^3
#
#
#
# Elastic Constant Matrix: (Units=GPa)
#
#
# Indices 1 2 3 4 5 6 
#
# 1 115.7242 40.0317 51.6660 0.0000 -28.2482 0.0000
# 2 40.0317 50.2232 28.0965 0.0000 -11.8814 0.0000
# 3 51.6660 28.0965 92.5249 0.0000 -26.1469 0.0000
# 4 0.0000 0.0000 0.0000 31.3573 0.0000 -7.4202
# 5 -28.2482 -11.8814 -26.1469 0.0000 30.4875 0.0000
# 6 0.0000 0.0000 0.0000 -7.4202 0.0000 27.0148
#
#
#
# Elastic Compliance Matrix: (Units=1/GPa)
#
#
# Indices 1 2 3 4 5 6 
#
# 1 0.014926 -0.008011 -0.003796 0.000000 0.007452 0.000000
# 2 -0.008011 0.028678 -0.004190 0.000000 0.000161 0.000000
# 3 -0.003796 -0.004190 0.016822 0.000000 0.009276 0.000000
# 4 0.000000 0.000000 0.000000 0.034107 0.000000 0.009368
# 5 0.007452 0.000161 0.009276 0.000000 0.047723 0.000000
# 6 0.000000 0.000000 0.000000 0.009368 0.000000 0.039590
#
#
# Mechanical properties :
#
#
# Convention : Reuss Voigt Hill
#
# Bulk Modulus (GPa) = 35.17159 55.34007 45.25583
# Shear Modulus (GPa) = 22.38958 27.01712 24.70335
#
# Velocity S-wave (km/s) = 3.45316 3.79327 3.62720
# Velocity P-wave (km/s) = 5.88480 6.97556 6.45327
#
# Compressibility (1/GPa) = 0.02843204
#
# Stress axis : x y z
#
# Youngs Moduli (GPa) = 66.99590 34.86970 59.44752
#
# Poissons Ratio (x) = 0.27933 0.22568
# Poissons Ratio (y) = 0.53668 0.24909
# Poissons Ratio (z) = 0.25434 0.14611
#
# Static dielectric constant tensor:
#      x y z
#    x 1.646950 0.000000 0.005740 
#    y 0.000000 1.635830 0.000000 
#    z 0.005740 0.000000 1.625430 
# 
# From -- ./inp_files/38230.got.cif
#   From: 2010.05.17/outbox.cif.g08.bks.cpg/sg11_20_cif.got.tgz:38230.got - 2010.06.03 12:22:45.
