data_PCOD9163300
_publ_section_title
;
Structure prediction by ZEFSAII (Michael W. Deem and Ramdas Pophale) SiO2 
 PCOD9163300
Probable space group: P 21/M
;
_chemical_formula_sum "Si O2"
_cell_formula_units_Z 24
_cell_length_a 11.477263
_cell_length_b 17.616148
_cell_length_c 9.885069
_cell_angle_alpha 90.000000
_cell_angle_beta 145.759908
_cell_angle_gamma 90.000000
_cell_volume 1124.544274
_symmetry_space_group_name_H-M "P 21/M"
_symmetry_group_IT_number 11
_symmetry_cell_setting 'monoclinic'
loop_
_space_group_symop_operation_xyz
x,y,z
-x,1/2+y,-z
-x,-y,-z
x,1/2-y,z
loop_
_atom_site_type_symbol
_atom_site_label
_atom_site_fract_x
_atom_site_fract_y
_atom_site_fract_z
Si Si1 0.795876 0.658992 0.911445
Si Si2 0.188960 0.554105 0.723727
Si Si3 0.410565 0.424245 0.538035
Si Si4 0.911695 0.665691 0.616404
Si Si5 0.472241 0.054458 0.177218
Si Si6 0.189802 0.833964 0.152219
O O1 0.760504 0.750000 0.857873
O O2 0.715200 0.604819 0.712680
O O3 0.669503 0.625526 0.916115
O O4 0.044867 0.648753 0.142376
O O5 0.345171 0.572444 0.751994
O O6 0.000000 0.500000 0.500000
O O7 0.074554 0.627094 0.673581
O O8 0.323347 0.508216 0.963923
O O9 0.291822 0.384298 0.550048
O O10 0.428092 0.511581 0.597328
O O11 0.637046 0.391982 0.725881
O O12 0.851570 0.750000 0.516178
O O13 0.032629 0.670740 0.875259
O O14 0.284813 0.750000 0.262556
#
# Coordination Sequence:
#
# PCOD9163300 Si02
#       6
#     4   4   4   4   4   4
#     4  10  23  40  59  91 126 155 197 248 304 370
#     4  11  23  43  60  85 122 162 205 254 294 356
#     4  11  19  37  63  91 118 156 198 247 306 360
#     4  10  20  36  60  89 117 153 204 252 295 350
#     4  11  24  39  63  88 120 165 203 248 304 359
#     4   9  18  34  57  85 119 150 188 247 298 346
#
# _framework density 21.341978999999998
#
# number of rings (size 3 to 8) (size 9 to 14) (size 15 to 20)
#    0.000    1.667    3.333    3.000    0.000    2.667 
#    0.000    0.833    0.000    0.000    0.000    0.000 
#    0.000    0.000    0.000    0.000    0.000    0.000 
#
# Total GULP energy -133906.140329 kJ/mol
# GULP energy per Si atom -5579.422514 kJ/mol
# Density = 2.129340 g / cm^3
# Si number density = 21.341979 Si / 1000 Ang^3
#
#
#
# Elastic Constant Matrix: (Units=GPa)
#
#
# Indices 1 2 3 4 5 6 
#
# 1 140.8054 61.6465 25.9253 0.0000 47.9858 0.0000
# 2 61.6465 80.8600 11.8263 0.0000 25.5152 0.0000
# 3 25.9253 11.8263 48.3350 0.0000 19.6661 0.0000
# 4 0.0000 0.0000 0.0000 -145.9034 0.0000 -72.2589
# 5 47.9858 25.5152 19.6661 0.0000 38.1769 0.0000
# 6 0.0000 0.0000 0.0000 -72.2589 0.0000 -5.5318
#
#
#
# Elastic Compliance Matrix: (Units=1/GPa)
#
#
# Indices 1 2 3 4 5 6 
#
# 1 0.014994 -0.006965 -0.000714 0.000000 -0.013824 0.000000
# 2 -0.006965 0.018918 0.000872 0.000000 -0.004339 0.000000
# 3 -0.000714 0.000872 0.026228 0.000000 -0.013197 0.000000
# 4 0.000000 0.000000 0.000000 0.001253 0.000000 -0.016369
# 5 -0.013824 -0.004339 -0.013197 0.000000 0.053267 0.000000
# 6 0.000000 0.000000 0.000000 -0.016369 0.000000 0.033053
#
#
# Mechanical properties :
#
#
# Convention : Reuss Voigt Hill
#
# Bulk Modulus (GPa) = 21.49250 52.08851 36.79051
# Shear Modulus (GPa) = 28.27511 -11.27817 8.49847
#
# Velocity S-wave (km/s) = 3.64381 -2.30130 1.99767
# Velocity P-wave (km/s) = 5.27215 4.17112 4.75362
#
# Compressibility (1/GPa) = 0.04652785
#
# Stress axis : x y z
#
# Youngs Moduli (GPa) = 66.69518 52.85864 38.12776
#
# Poissons Ratio (x) = 0.36813 0.02721
# Poissons Ratio (y) = 0.46450 -0.03326
# Poissons Ratio (z) = 0.04759 -0.04610
#
# Static dielectric constant tensor:
#      x y z
#    x 1.838980 0.000000 -0.037060 
#    y 0.000000 1.815220 0.000000 
#    z -0.037060 0.000000 1.796530 
# 
# From -- ./inp_files/36173.got.cif
#   From: 2010.05.17/outbox.cif.g08.bks.cpg/sg11_19_cif.got.tgz:36173.got - 2010.06.03 12:22:45.
