data_PCOD9163885
_publ_section_title
;
Structure prediction by ZEFSAII (Michael W. Deem and Ramdas Pophale) SiO2 
 PCOD9163885
Probable space group: P 21/M
;
_chemical_formula_sum "Si O2"
_cell_formula_units_Z 32
_cell_length_a 28.796975
_cell_length_b 8.617941
_cell_length_c 23.361874
_cell_angle_alpha 90.000000
_cell_angle_beta 162.043941
_cell_angle_gamma 90.000000
_cell_volume 1787.368142
_symmetry_space_group_name_H-M "P 21/M"
_symmetry_group_IT_number 11
_symmetry_cell_setting 'monoclinic'
loop_
_space_group_symop_operation_xyz
x,y,z
-x,1/2+y,-z
-x,-y,-z
x,1/2-y,z
loop_
_atom_site_type_symbol
_atom_site_label
_atom_site_fract_x
_atom_site_fract_y
_atom_site_fract_z
Si Si1 0.343167 0.064449 0.341368
Si Si2 0.209406 0.563258 0.076603
Si Si3 0.156236 0.436383 0.658809
Si Si4 0.450090 0.563751 0.064425
Si Si5 0.473230 0.437212 0.609913
Si Si6 0.762806 0.938292 0.373794
Si Si7 0.598335 0.434202 0.349947
Si Si8 0.096352 0.438094 0.343112
O O1 0.345041 0.250000 0.340474
O O2 0.350610 0.020941 0.417062
O O3 0.500000 0.000000 0.500000
O O4 0.218380 0.000507 0.151769
O O5 0.209231 0.750000 0.079727
O O6 0.362529 0.518852 0.222734
O O7 0.062456 0.512668 0.869500
O O8 0.150943 0.250000 0.652341
O O9 0.186555 0.492009 0.629157
O O10 0.000000 0.500000 0.500000
O O11 0.296911 0.492108 0.861515
O O12 0.441202 0.750000 0.052301
O O13 0.593688 0.513872 0.193741
O O14 0.489952 0.510601 0.175273
O O15 0.471133 0.250000 0.614076
O O16 0.444090 0.514950 0.636128
O O17 0.761813 0.750000 0.371389
O O18 0.872845 0.984667 0.554878
O O19 0.592416 0.250000 0.336999
O O20 0.765065 0.495208 0.530405
O O21 0.103691 0.250000 0.349547
#
# Coordination Sequence:
#
# PCOD9163885 Si02
#       8
#     4   4   4   4   4   4   4   4
#     4   9  17  30  50  74 103 137 176 217 261 311
#     4   9  18  32  54  80 105 136 177 219 262 311
#     4  11  22  36  54  82 114 141 173 216 261 307
#     4  10  20  38  60  78 100 138 179 216 261 313
#     4   9  18  33  52  76 104 139 177 215 261 316
#     4   8  17  34  57  79 102 137 179 215 253 305
#     4  11  22  35  53  80 108 136 172 217 262 310
#     4   9  18  36  57  77 103 138 175 213 260 313
#
# _framework density 17.903420000000001
#
# number of rings (size 3 to 8) (size 9 to 14) (size 15 to 20)
#    0.000    2.500    0.000    4.125    0.000    4.000 
#    0.000    8.750    0.000    0.000    0.000    0.000 
#    0.000    0.000    0.000    0.000    0.000    0.000 
#
# Total GULP energy -178459.580349 kJ/mol
# GULP energy per Si atom -5576.861886 kJ/mol
# Density = 1.786267 g / cm^3
# Si number density = 17.903420 Si / 1000 Ang^3
#
#
#
# Elastic Constant Matrix: (Units=GPa)
#
#
# Indices 1 2 3 4 5 6 
#
# 1 145.5609 37.9653 93.9327 0.0000 -22.9117 0.0000
# 2 37.9653 42.0325 46.3589 0.0000 -6.0691 0.0000
# 3 93.9327 46.3589 199.7170 0.0000 -21.4625 0.0000
# 4 0.0000 0.0000 0.0000 28.7237 0.0000 -3.2048
# 5 -22.9117 -6.0691 -21.4625 0.0000 13.8746 0.0000
# 6 0.0000 0.0000 0.0000 -3.2048 0.0000 19.5332
#
#
#
# Elastic Compliance Matrix: (Units=1/GPa)
#
#
# Indices 1 2 3 4 5 6 
#
# 1 0.012499 -0.005998 -0.003059 0.000000 0.013285 0.000000
# 2 -0.005998 0.034961 -0.005655 0.000000 -0.003360 0.000000
# 3 -0.003059 -0.005655 0.008335 0.000000 0.005369 0.000000
# 4 0.000000 0.000000 0.000000 0.035464 0.000000 0.005819
# 5 0.013285 -0.003360 0.005369 0.000000 0.100848 0.000000
# 6 0.000000 0.000000 0.000000 0.005819 0.000000 0.052149
#
#
# Mechanical properties :
#
#
# Convention : Reuss Voigt Hill
#
# Bulk Modulus (GPa) = 37.91960 82.64713 60.28337
# Shear Modulus (GPa) = 17.70088 26.36322 22.03205
#
# Velocity S-wave (km/s) = 3.14775 3.84151 3.51180
# Velocity P-wave (km/s) = 5.86832 8.12030 7.08436
#
# Compressibility (1/GPa) = 0.02637159
#
# Stress axis : x y z
#
# Youngs Moduli (GPa) = 80.00344 28.60340 119.96902
#
# Poissons Ratio (x) = 0.17156 0.36697
# Poissons Ratio (y) = 0.47985 0.67846
# Poissons Ratio (z) = 0.24472 0.16176
#
# Static dielectric constant tensor:
#      x y z
#    x 1.605580 0.000000 -0.020220 
#    y 0.000000 1.609960 0.000000 
#    z -0.020220 0.000000 1.604110 
# 
# From -- ./inp_files/67228.got.cif
#   From: 2010.05.17/outbox.cif.g08.bks.cpg/sg11_34_cif.got.tgz:67228.got - 2010.06.03 12:22:45.
