data_PCOD9163042
_publ_section_title
;
Structure prediction by ZEFSAII (Michael W. Deem and Ramdas Pophale) SiO2 
 PCOD9163042
Probable space group: P 21/M
;
_chemical_formula_sum "Si O2"
_cell_formula_units_Z 28
_cell_length_a 19.020241
_cell_length_b 8.972591
_cell_length_c 18.990768
_cell_angle_alpha 90.000000
_cell_angle_beta 151.590510
_cell_angle_gamma 90.000000
_cell_volume 1541.960960
_symmetry_space_group_name_H-M "P 21/M"
_symmetry_group_IT_number 11
_symmetry_cell_setting 'monoclinic'
loop_
_space_group_symop_operation_xyz
x,y,z
-x,1/2+y,-z
-x,-y,-z
x,1/2-y,z
loop_
_atom_site_type_symbol
_atom_site_label
_atom_site_fract_x
_atom_site_fract_y
_atom_site_fract_z
Si Si1 0.981954 0.928326 0.202388
Si Si2 0.733946 0.928391 0.099056
Si Si3 0.613811 0.574476 0.547721
Si Si4 0.043362 0.426654 0.111651
Si Si5 0.291551 0.070282 0.519681
Si Si6 0.596549 0.071030 0.238539
Si Si7 0.845222 0.428059 0.341162
O O1 0.001536 0.750000 0.215052
O O2 0.842485 0.959720 0.129304
O O3 0.965897 0.996655 0.110410
O O4 0.128544 0.001043 0.365588
O O5 0.738073 0.750000 0.115381
O O6 0.792724 0.010244 0.219893
O O7 0.565976 0.969967 0.932453
O O8 0.500000 0.500000 0.500000
O O9 0.583806 0.750000 0.521280
O O10 0.781440 0.551788 0.721629
O O11 0.614825 0.523890 0.467149
O O12 0.013352 0.250000 0.084980
O O13 0.000000 0.500000 0.000000
O O14 0.279559 0.250000 0.508914
O O15 0.363163 0.011239 0.653951
O O16 0.598326 0.250000 0.252028
O O17 0.720159 0.036372 0.289005
O O18 0.861285 0.250000 0.352259
O O19 0.000000 0.500000 0.500000
#
# Coordination Sequence:
#
# PCOD9163042 Si02
#       7
#     4   4   4   4   4   4   4
#     4  10  20  36  58  82 108 143 184 226 273 326
#     4  10  22  39  58  82 113 144 181 228 275 323
#     4   9  20  36  54  79 109 141 181 225 270 320
#     4  10  21  37  56  81 112 145 183 227 273 326
#     4  10  21  37  56  81 111 144 184 227 269 324
#     4  10  22  39  57  81 112 146 181 223 275 326
#     4  11  23  38  59  84 111 145 185 224 269 325
#
# _framework density 18.158697
#
# number of rings (size 3 to 8) (size 9 to 14) (size 15 to 20)
#    0.000    2.000    0.000    3.857    0.000   10.857 
#    0.000    4.286    0.000    0.000    0.000    0.000 
#    0.000    0.000    0.000    0.000    0.000    0.000 
#
# Total GULP energy -156398.040108 kJ/mol
# GULP energy per Si atom -5585.644290 kJ/mol
# Density = 1.811737 g / cm^3
# Si number density = 18.158697 Si / 1000 Ang^3
#
#
#
# Elastic Constant Matrix: (Units=GPa)
#
#
# Indices 1 2 3 4 5 6 
#
# 1 193.1464 92.8011 111.3304 0.0000 -5.3779 0.0000
# 2 92.8011 69.8512 69.7721 0.0000 -6.1541 0.0000
# 3 111.3304 69.7721 133.3674 0.0000 -14.2115 0.0000
# 4 0.0000 0.0000 0.0000 33.2250 0.0000 -6.5694
# 5 -5.3779 -6.1541 -14.2115 0.0000 37.5171 0.0000
# 6 0.0000 0.0000 0.0000 -6.5694 0.0000 35.6673
#
#
#
# Elastic Compliance Matrix: (Units=1/GPa)
#
#
# Indices 1 2 3 4 5 6 
#
# 1 0.015708 -0.016191 -0.004882 0.000000 -0.002254 0.000000
# 2 -0.016191 0.046714 -0.010790 0.000000 0.001255 0.000000
# 3 -0.004882 -0.010790 0.017669 0.000000 0.004223 0.000000
# 4 0.000000 0.000000 0.000000 0.031235 0.000000 0.005753
# 5 -0.002254 0.001255 0.004223 0.000000 0.028137 0.000000
# 6 0.000000 0.000000 0.000000 0.005753 0.000000 0.029097
#
#
# Mechanical properties :
#
#
# Convention : Reuss Voigt Hill
#
# Bulk Modulus (GPa) = 61.10544 104.90802 83.00673
# Shear Modulus (GPa) = 21.03128 29.44596 25.23862
#
# Velocity S-wave (km/s) = 3.40692 4.03127 3.73217
# Velocity P-wave (km/s) = 7.01427 8.92000 8.02391
#
# Compressibility (1/GPa) = 0.01636515
#
# Stress axis : x y z
#
# Youngs Moduli (GPa) = 63.66165 21.40663 56.59754
#
# Poissons Ratio (x) = 0.34659 0.27633
# Poissons Ratio (y) = 1.03072 0.61068
# Poissons Ratio (z) = 0.31082 0.23098
#
# Static dielectric constant tensor:
#      x y z
#    x 1.617350 0.000000 0.019840 
#    y 0.000000 1.612720 0.000000 
#    z 0.019840 0.000000 1.625630 
# 
# From -- ./inp_files/28642.got.cif
#   From: 2010.05.17/outbox.cif.g08.bks.cpg/sg11_15_cif.got.tgz:28642.got - 2010.06.03 12:22:45.
