data_PCOD9163162
_publ_section_title
;
Structure prediction by ZEFSAII (Michael W. Deem and Ramdas Pophale) SiO2 
 PCOD9163162
Probable space group: P 21/M
;
_chemical_formula_sum "Si O2"
_cell_formula_units_Z 32
_cell_length_a 23.110688
_cell_length_b 8.288976
_cell_length_c 15.449391
_cell_angle_alpha 90.000000
_cell_angle_beta 31.921329
_cell_angle_gamma 90.000000
_cell_volume 1564.872881
_symmetry_space_group_name_H-M "P 21/M"
_symmetry_group_IT_number 11
_symmetry_cell_setting 'monoclinic'
loop_
_space_group_symop_operation_xyz
x,y,z
-x,1/2+y,-z
-x,-y,-z
x,1/2-y,z
loop_
_atom_site_type_symbol
_atom_site_label
_atom_site_fract_x
_atom_site_fract_y
_atom_site_fract_z
Si Si1 0.744929 0.446060 0.512753
Si Si2 0.986765 0.441335 0.243016
Si Si3 0.947045 0.056824 0.656227
Si Si4 0.414538 0.947079 0.750609
Si Si5 0.701349 0.053710 0.931913
Si Si6 0.374789 0.945026 0.158737
Si Si7 0.658242 0.557490 0.440643
Si Si8 0.217216 0.558924 0.878501
O O1 0.742490 0.250000 0.513195
O O2 0.688157 0.498132 0.674788
O O3 0.682968 0.511761 0.507885
O O4 0.871484 0.501746 0.351683
O O5 0.984415 0.250000 0.239394
O O6 0.994019 0.487806 0.334632
O O7 0.097637 0.499275 0.056805
O O8 0.949726 0.250000 0.657812
O O9 0.820308 0.004214 0.815026
O O10 0.000000 0.000000 0.500000
O O11 0.414723 0.750000 0.747636
O O12 0.535936 0.001410 0.571302
O O13 0.315366 0.004727 0.815757
O O14 0.387381 0.995149 0.883901
O O15 0.701160 0.250000 0.929822
O O16 0.678921 0.997064 0.863117
O O17 0.371322 0.750000 0.162467
O O18 0.500000 0.000000 0.000000
O O19 0.660987 0.750000 0.427956
O O20 0.747445 0.483582 0.263246
O O21 0.215556 0.750000 0.892269
#
# Coordination Sequence:
#
# PCOD9163162 Si02
#       8
#     4   4   4   4   4   4   4   4
#     4  10  23  42  60  84 122 165 204 248 306 361
#     4  11  23  41  63  88 120 158 205 255 300 355
#     4  11  21  36  59  86 119 158 199 244 299 357
#     4   9  18  35  60  90 122 154 194 243 304 366
#     4   9  17  33  57  83 114 155 192 231 293 356
#     4  10  20  36  59  85 118 158 199 242 293 350
#     4  11  23  39  63  91 117 154 205 256 300 358
#     4  11  22  40  64  90 123 160 195 244 311 371
#
# _framework density 20.448944999999998
#
# number of rings (size 3 to 8) (size 9 to 14) (size 15 to 20)
#    0.000    1.750    1.250    3.375    0.000    5.000 
#    0.000    4.375    0.000    0.000    0.000    0.000 
#    0.000    0.000    0.000    0.000    0.000    0.000 
#
# Total GULP energy -178811.793723 kJ/mol
# GULP energy per Si atom -5587.868554 kJ/mol
# Density = 2.040240 g / cm^3
# Si number density = 20.448945 Si / 1000 Ang^3
#
#
#
# Elastic Constant Matrix: (Units=GPa)
#
#
# Indices 1 2 3 4 5 6 
#
# 1 61.6255 1.8462 7.9981 0.0000 -10.6662 0.0000
# 2 1.8462 17.9805 11.2816 0.0000 -7.1945 0.0000
# 3 7.9981 11.2816 110.5391 0.0000 -7.4848 0.0000
# 4 0.0000 0.0000 0.0000 24.9839 0.0000 -0.6701
# 5 -10.6662 -7.1945 -7.4848 0.0000 38.2069 0.0000
# 6 0.0000 0.0000 0.0000 -0.6701 0.0000 24.8504
#
#
#
# Elastic Compliance Matrix: (Units=1/GPa)
#
#
# Indices 1 2 3 4 5 6 
#
# 1 0.017154 0.000760 -0.000998 0.000000 0.004736 0.000000
# 2 0.000760 0.063597 -0.005797 0.000000 0.011052 0.000000
# 3 -0.000998 -0.005797 0.009747 0.000000 0.000539 0.000000
# 4 0.000000 0.000000 0.000000 0.040055 0.000000 0.001080
# 5 0.004736 0.011052 0.000539 0.000000 0.029682 0.000000
# 6 0.000000 0.000000 0.000000 0.001080 0.000000 0.040270
#
#
# Mechanical properties :
#
#
# Convention : Reuss Voigt Hill
#
# Bulk Modulus (GPa) = 12.75066 25.82187 19.28626
# Shear Modulus (GPa) = 20.94523 28.87621 24.91072
#
# Velocity S-wave (km/s) = 3.20389 3.76189 3.49405
# Velocity P-wave (km/s) = 4.46492 5.61462 5.07245
#
# Compressibility (1/GPa) = 0.07842732
#
# Stress axis : x y z
#
# Youngs Moduli (GPa) = 58.29691 15.72391 102.59598
#
# Poissons Ratio (x) = -0.01195 0.10239
# Poissons Ratio (y) = -0.04431 0.59479
# Poissons Ratio (z) = 0.05818 0.09116
#
# Static dielectric constant tensor:
#      x y z
#    x 1.720070 0.000000 -0.013820 
#    y 0.000000 1.709080 0.000000 
#    z -0.013820 0.000000 1.723050 
# 
# From -- ./inp_files/55649.got.cif
#   From: 2010.05.17/outbox.cif.g08.bks.cpg/sg11_28_cif.got.tgz:55649.got - 2010.06.03 12:22:45.
