data_PCOD9163167
_publ_section_title
;
Structure prediction by ZEFSAII (Michael W. Deem and Ramdas Pophale) SiO2 
 PCOD9163167
Probable space group: P 21/M
;
_chemical_formula_sum "Si O2"
_cell_formula_units_Z 28
_cell_length_a 11.952020
_cell_length_b 13.780780
_cell_length_c 8.665325
_cell_angle_alpha 90.000000
_cell_angle_beta 72.799542
_cell_angle_gamma 90.000000
_cell_volume 1363.417402
_symmetry_space_group_name_H-M "P 21/M"
_symmetry_group_IT_number 11
_symmetry_cell_setting 'monoclinic'
loop_
_space_group_symop_operation_xyz
x,y,z
-x,1/2+y,-z
-x,-y,-z
x,1/2-y,z
loop_
_atom_site_type_symbol
_atom_site_label
_atom_site_fract_x
_atom_site_fract_y
_atom_site_fract_z
Si Si1 0.188006 0.134225 0.512872
Si Si2 0.695217 0.499174 0.290813
Si Si3 0.308737 0.864575 0.432695
Si Si4 0.280546 0.135086 0.149261
Si Si5 0.529531 0.864587 0.162843
Si Si6 0.078330 0.634090 0.361474
Si Si7 0.876120 0.483665 0.965869
O O1 0.198105 0.250000 0.534541
O O2 0.226993 0.076847 0.646999
O O3 0.266124 0.107270 0.333120
O O4 0.052771 0.112127 0.530763
O O5 0.649664 0.423604 0.435796
O O6 0.596044 0.561667 0.248005
O O7 0.780250 0.449454 0.130547
O O8 0.309522 0.750000 0.466565
O O9 0.392617 0.879316 0.250241
O O10 0.177618 0.895578 0.442279
O O11 0.256517 0.250000 0.149574
O O12 0.410094 0.117971 0.027177
O O13 0.185771 0.078848 0.083538
O O14 0.553105 0.750000 0.190219
O O15 0.087834 0.750000 0.341553
O O16 0.102787 0.586680 0.186587
O O17 0.000000 0.500000 0.000000
#
# Coordination Sequence:
#
# PCOD9163167 Si02
#       7
#     4   4   4   4   4   4   4
#     4  10  20  36  59  86 111 142 187 233 281 333
#     4  11  21  35  59  86 116 144 189 233 284 327
#     4  10  22  39  59  81 113 155 190 227 278 336
#     4   9  20  36  57  82 108 144 189 233 276 326
#     4   9  19  39  60  83 113 147 191 235 278 325
#     4  10  22  39  57  81 114 152 187 226 280 340
#     4  11  22  35  53  82 114 148 181 225 286 336
#
# _framework density 20.536631
#
# number of rings (size 3 to 8) (size 9 to 14) (size 15 to 20)
#    0.000    2.000    1.429    1.714    2.000    2.857 
#    0.000    7.857    0.000    3.429    0.000    0.000 
#    0.000    0.000    0.000    0.000    0.000    0.000 
#
# Total GULP energy -156380.617220 kJ/mol
# GULP energy per Si atom -5585.022044 kJ/mol
# Density = 2.048989 g / cm^3
# Si number density = 20.536631 Si / 1000 Ang^3
#
#
#
# Elastic Constant Matrix: (Units=GPa)
#
#
# Indices 1 2 3 4 5 6 
#
# 1 24.8084 -3.3736 -2.6150 0.0000 -9.6466 0.0000
# 2 -3.3736 51.2950 18.4202 0.0000 -9.3382 0.0000
# 3 -2.6150 18.4202 109.8783 0.0000 -12.2394 0.0000
# 4 0.0000 0.0000 0.0000 34.2376 0.0000 0.3545
# 5 -9.6466 -9.3382 -12.2394 0.0000 27.2526 0.0000
# 6 0.0000 0.0000 0.0000 0.3545 0.0000 19.1850
#
#
#
# Elastic Compliance Matrix: (Units=1/GPa)
#
#
# Indices 1 2 3 4 5 6 
#
# 1 0.049457 0.006142 0.002455 0.000000 0.020713 0.000000
# 2 0.006142 0.022428 -0.002648 0.000000 0.008670 0.000000
# 3 0.002455 -0.002648 0.010105 0.000000 0.004500 0.000000
# 4 0.000000 0.000000 0.000000 0.029213 0.000000 -0.000540
# 5 0.020713 0.008670 0.004500 0.000000 0.049017 0.000000
# 6 0.000000 0.000000 0.000000 -0.000540 0.000000 0.052134
#
#
# Mechanical properties :
#
#
# Convention : Reuss Voigt Hill
#
# Bulk Modulus (GPa) = 10.65105 23.42720 17.03912
# Shear Modulus (GPa) = 21.57471 27.70505 24.63988
#
# Velocity S-wave (km/s) = 3.24473 3.67693 3.46757
# Velocity P-wave (km/s) = 4.38581 5.42759 4.93427
#
# Compressibility (1/GPa) = 0.09388750
#
# Stress axis : x y z
#
# Youngs Moduli (GPa) = 20.21952 44.58655 98.96565
#
# Poissons Ratio (x) = -0.27385 -0.24293
# Poissons Ratio (y) = -0.12419 0.26206
# Poissons Ratio (z) = -0.04963 0.11806
#
# Static dielectric constant tensor:
#      x y z
#    x 1.711380 0.000000 -0.030120 
#    y 0.000000 1.740080 0.000000 
#    z -0.030120 0.000000 1.736910 
# 
# From -- ./inp_files/17679.got.cif
#   From: 2010.05.17/outbox.cif.g08.bks.cpg/sg11_9_cif.got.tgz:17679.got - 2010.06.03 12:22:45.
