data_PCOD9163380
_publ_section_title
;
Structure prediction by ZEFSAII (Michael W. Deem and Ramdas Pophale) SiO2 
 PCOD9163380
Probable space group: P 21/M
;
_chemical_formula_sum "Si O2"
_cell_formula_units_Z 24
_cell_length_a 12.900882
_cell_length_b 14.428581
_cell_length_c 10.391937
_cell_angle_alpha 90.000000
_cell_angle_beta 33.822871
_cell_angle_gamma 90.000000
_cell_volume 1076.723064
_symmetry_space_group_name_H-M "P 21/M"
_symmetry_group_IT_number 11
_symmetry_cell_setting 'monoclinic'
loop_
_space_group_symop_operation_xyz
x,y,z
-x,1/2+y,-z
-x,-y,-z
x,1/2-y,z
loop_
_atom_site_type_symbol
_atom_site_label
_atom_site_fract_x
_atom_site_fract_y
_atom_site_fract_z
Si Si1 0.106221 0.012832 0.092783
Si Si2 0.421691 0.402211 0.628262
Si Si3 0.761698 0.539822 0.559010
Si Si4 0.842591 0.644131 0.718405
Si Si5 0.426175 0.647603 0.244752
Si Si6 0.416627 0.853151 0.798526
O O1 0.895628 0.977306 0.298071
O O2 0.096199 0.076869 0.230232
O O3 0.244407 0.925121 0.968404
O O4 0.205658 0.079264 0.886005
O O5 0.500000 0.500000 0.500000
O O6 0.516380 0.371340 0.664956
O O7 0.487156 0.342913 0.440854
O O8 0.876013 0.596549 0.547241
O O9 0.694177 0.439187 0.676226
O O10 0.577573 0.597401 0.715007
O O11 0.910214 0.750000 0.657106
O O12 0.618768 0.647444 0.968614
O O13 0.341071 0.750000 0.322877
O O14 0.366431 0.750000 0.897376
#
# Coordination Sequence:
#
# PCOD9163380 Si02
#       6
#     4   4   4   4   4   4
#     4  10  23  40  64  87 121 158 203 249 296 357
#     4   9  17  40  61  83 116 161 194 241 298 349
#     4  12  22  39  62  91 124 151 203 248 304 353
#     4  10  21  40  62  87 121 161 200 246 298 358
#     4  10  20  36  62  87 117 161 205 244 294 358
#     4  11  23  40  62  88 124 162 198 247 303 352
#
# _framework density 22.289853999999998
#
# number of rings (size 3 to 8) (size 9 to 14) (size 15 to 20)
#    0.000    1.667    5.000    2.000    0.000    3.333 
#    0.000    0.000    0.000    0.000    0.000    0.000 
#    0.000    0.000    0.000    0.000    0.000    0.000 
#
# Total GULP energy -133917.285718 kJ/mol
# GULP energy per Si atom -5579.886905 kJ/mol
# Density = 2.223912 g / cm^3
# Si number density = 22.289854 Si / 1000 Ang^3
#
#
#
# Elastic Constant Matrix: (Units=GPa)
#
#
# Indices 1 2 3 4 5 6 
#
# 1 36.8470 18.6763 7.2580 0.0000 10.0072 0.0000
# 2 18.6763 179.2362 16.0776 0.0000 -5.0455 0.0000
# 3 7.2580 16.0776 57.2964 0.0000 -3.6778 0.0000
# 4 0.0000 0.0000 0.0000 11.1043 0.0000 11.6375
# 5 10.0072 -5.0455 -3.6778 0.0000 27.5494 0.0000
# 6 0.0000 0.0000 0.0000 11.6375 0.0000 3.6981
#
#
#
# Elastic Compliance Matrix: (Units=1/GPa)
#
#
# Indices 1 2 3 4 5 6 
#
# 1 0.033318 -0.003478 -0.004097 0.000000 -0.013286 0.000000
# 2 -0.003478 0.006106 -0.001130 0.000000 0.002231 0.000000
# 3 -0.004097 -0.001130 0.018530 0.000000 0.003755 0.000000
# 4 0.000000 0.000000 0.000000 -0.039189 0.000000 0.123322
# 5 -0.013286 0.002231 0.003755 0.000000 0.042035 0.000000
# 6 0.000000 0.000000 0.000000 0.123322 0.000000 -0.117671
#
#
# Mechanical properties :
#
#
# Convention : Reuss Voigt Hill
#
# Bulk Modulus (GPa) = 24.66485 39.71149 32.18817
# Shear Modulus (GPa) = -192.69570 23.89487 -84.40042
#
# Velocity S-wave (km/s) = -9.30793 3.27770 -6.16013
# Velocity P-wave (km/s) = 10.21897 5.67266 6.01033
#
# Compressibility (1/GPa) = 0.04054353
#
# Stress axis : x y z
#
# Youngs Moduli (GPa) = 30.01408 163.77951 53.96621
#
# Poissons Ratio (x) = 0.56965 0.22112
# Poissons Ratio (y) = 0.10439 0.06096
# Poissons Ratio (z) = 0.12298 0.18499
#
# Static dielectric constant tensor:
#      x y z
#    x 1.884510 0.000000 0.007470 
#    y 0.000000 1.834070 0.000000 
#    z 0.007470 0.000000 1.822790 
# 
# From -- ./inp_files/39563.got.cif
#   From: 2010.05.17/outbox.cif.g08.bks.cpg/sg11_20_cif.got.tgz:39563.got - 2010.06.03 12:22:45.
