data_PCOD9163207
_publ_section_title
;
Structure prediction by ZEFSAII (Michael W. Deem and Ramdas Pophale) SiO2 
 PCOD9163207
Probable space group: P 21/M
;
_chemical_formula_sum "Si O2"
_cell_formula_units_Z 28
_cell_length_a 26.967096
_cell_length_b 8.479346
_cell_length_c 10.302850
_cell_angle_alpha 90.000000
_cell_angle_beta 141.553532
_cell_angle_gamma 90.000000
_cell_volume 1464.849056
_symmetry_space_group_name_H-M "P 21/M"
_symmetry_group_IT_number 11
_symmetry_cell_setting 'monoclinic'
loop_
_space_group_symop_operation_xyz
x,y,z
-x,1/2+y,-z
-x,-y,-z
x,1/2-y,z
loop_
_atom_site_type_symbol
_atom_site_label
_atom_site_fract_x
_atom_site_fract_y
_atom_site_fract_z
Si Si1 0.742163 0.439001 0.960839
Si Si2 0.434552 0.439073 0.466651
Si Si3 0.148630 0.440455 0.047333
Si Si4 0.437320 0.059673 0.766885
Si Si5 0.808355 0.439895 0.374102
Si Si6 0.264862 0.060042 0.517537
Si Si7 0.983192 0.440821 0.820002
O O1 0.735879 0.250000 0.950570
O O2 0.654679 0.506956 0.752246
O O3 0.804295 0.488483 0.976915
O O4 0.775201 0.495117 0.167907
O O5 0.500000 0.500000 0.500000
O O6 0.436122 0.250000 0.469316
O O7 0.452987 0.493992 0.651681
O O8 0.152396 0.250000 0.044395
O O9 0.195468 0.485959 0.274853
O O10 0.056933 0.488409 0.879115
O O11 0.438692 0.250000 0.769223
O O12 0.348995 0.009521 0.629900
O O13 0.500000 0.000000 0.000000
O O14 0.811241 0.250000 0.375533
O O15 0.751996 0.490679 0.376414
O O16 0.897771 0.496443 0.591785
O O17 0.264678 0.250000 0.526264
O O18 0.982414 0.250000 0.822751
O O19 0.000000 0.500000 0.000000
#
# Coordination Sequence:
#
# PCOD9163207 Si02
#       7
#     4   4   4   4   4   4   4
#     4  11  24  41  60  87 122 160 201 242 294 357
#     4  11  24  44  65  89 122 158 197 244 296 353
#     4  10  20  38  62  86 117 157 199 246 298 352
#     4  10  23  41  61  88 120 150 193 244 292 348
#     4  10  23  39  57  88 124 156 196 249 298 349
#     4  10  20  38  61  87 116 154 199 242 292 354
#     4  10  20  36  59  87 120 155 197 249 302 352
#
# _framework density 19.114597
#
# number of rings (size 3 to 8) (size 9 to 14) (size 15 to 20)
#    0.000    1.714    2.857    0.857    2.000    4.571 
#    0.000    0.000    0.000    0.000    0.000    0.000 
#    0.000    0.000    0.000    0.000    0.000    0.000 
#
# Total GULP energy -156419.437870 kJ/mol
# GULP energy per Si atom -5586.408495 kJ/mol
# Density = 1.907109 g / cm^3
# Si number density = 19.114597 Si / 1000 Ang^3
#
#
#
# Elastic Constant Matrix: (Units=GPa)
#
#
# Indices 1 2 3 4 5 6 
#
# 1 179.1662 26.7055 81.3703 0.0000 -9.8110 0.0000
# 2 26.7055 16.9008 23.5608 0.0000 -1.5768 0.0000
# 3 81.3703 23.5608 137.0206 0.0000 -18.3345 0.0000
# 4 0.0000 0.0000 0.0000 24.7240 0.0000 -3.0640
# 5 -9.8110 -1.5768 -18.3345 0.0000 36.6073 0.0000
# 6 0.0000 0.0000 0.0000 -3.0640 0.0000 34.9887
#
#
#
# Elastic Compliance Matrix: (Units=1/GPa)
#
#
# Indices 1 2 3 4 5 6 
#
# 1 0.008456 -0.008382 -0.003564 0.000000 0.000120 0.000000
# 2 -0.008382 0.086575 -0.010408 0.000000 -0.003730 0.000000
# 3 -0.003564 -0.010408 0.011808 0.000000 0.004510 0.000000
# 4 0.000000 0.000000 0.000000 0.040890 0.000000 0.003581
# 5 0.000120 -0.003730 0.004510 0.000000 0.029447 0.000000
# 6 0.000000 0.000000 0.000000 0.003581 0.000000 0.028894
#
#
# Mechanical properties :
#
#
# Convention : Reuss Voigt Hill
#
# Bulk Modulus (GPa) = 16.09516 66.26229 41.17872
# Shear Modulus (GPa) = 18.41692 32.69409 25.55550
#
# Velocity S-wave (km/s) = 3.10740 4.14022 3.66042
# Velocity P-wave (km/s) = 4.61662 7.58922 6.28130
#
# Compressibility (1/GPa) = 0.06213047
#
# Stress axis : x y z
#
# Youngs Moduli (GPa) = 118.25778 11.55072 84.68726
#
# Poissons Ratio (x) = 0.09681 0.30186
# Poissons Ratio (y) = 0.99118 0.88145
# Poissons Ratio (z) = 0.42152 0.12022
#
# Static dielectric constant tensor:
#      x y z
#    x 1.641360 0.000000 0.007150 
#    y 0.000000 1.659290 0.000000 
#    z 0.007150 0.000000 1.652770 
# 
# From -- ./inp_files/28373.got.cif
#   From: 2010.05.17/outbox.cif.g08.bks.cpg/sg11_15_cif.got.tgz:28373.got - 2010.06.03 12:22:45.
