data_PCOD9163289
_publ_section_title
;
Structure prediction by ZEFSAII (Michael W. Deem and Ramdas Pophale) SiO2 
 PCOD9163289
Probable space group: P 21/M
;
_chemical_formula_sum "Si O2"
_cell_formula_units_Z 24
_cell_length_a 15.566872
_cell_length_b 8.484604
_cell_length_c 10.512881
_cell_angle_alpha 90.000000
_cell_angle_beta 68.198706
_cell_angle_gamma 90.000000
_cell_volume 1289.217036
_symmetry_space_group_name_H-M "P 21/M"
_symmetry_group_IT_number 11
_symmetry_cell_setting 'monoclinic'
loop_
_space_group_symop_operation_xyz
x,y,z
-x,1/2+y,-z
-x,-y,-z
x,1/2-y,z
loop_
_atom_site_type_symbol
_atom_site_label
_atom_site_fract_x
_atom_site_fract_y
_atom_site_fract_z
Si Si1 0.714314 0.561145 0.156259
Si Si2 0.211402 0.559301 0.152429
Si Si3 0.316426 0.558009 0.347964
Si Si4 0.182096 0.939052 0.653043
Si Si5 0.007585 0.939043 0.351583
Si Si6 0.510624 0.940638 0.350285
O O1 0.715081 0.750000 0.158237
O O2 0.777134 0.499396 0.237067
O O3 0.608740 0.506771 0.239683
O O4 0.751477 0.503031 0.001011
O O5 0.213158 0.750000 0.148766
O O6 0.274417 0.506160 0.236819
O O7 0.105814 0.510304 0.238791
O O8 0.315653 0.750000 0.347802
O O9 0.249743 0.508430 0.500599
O O10 0.420934 0.506774 0.319816
O O11 0.181441 0.750000 0.653995
O O12 0.079714 0.999598 0.679308
O O13 0.006076 0.750000 0.355214
O O14 0.000000 0.000000 0.500000
O O15 0.510155 0.750000 0.352807
O O16 0.500000 0.000000 0.500000
#
# Coordination Sequence:
#
# PCOD9163289 Si02
#       6
#     4   4   4   4   4   4
#     4  11  24  39  57  90 126 155 194 250 301 348
#     4  10  22  41  61  84 118 161 198 237 296 361
#     4   9  18  36  61  87 115 151 198 240 286 353
#     4  11  21  38  64  89 116 159 201 244 299 353
#     4  11  22  38  62  92 121 154 200 249 296 353
#     4  10  20  36  60  88 119 153 195 245 294 350
#
# _framework density 18.615950999999999
#
# number of rings (size 3 to 8) (size 9 to 14) (size 15 to 20)
#    0.000    1.667    3.333    1.500    0.000    3.333 
#    0.000    0.833    0.000    0.000    0.000    0.000 
#    0.000    0.000    0.000    0.000    0.000    0.000 
#
# Total GULP energy -134084.455181 kJ/mol
# GULP energy per Si atom -5586.852299 kJ/mol
# Density = 1.857358 g / cm^3
# Si number density = 18.615951 Si / 1000 Ang^3
#
#
#
# Elastic Constant Matrix: (Units=GPa)
#
#
# Indices 1 2 3 4 5 6 
#
# 1 230.8625 37.2982 127.3178 0.0000 5.8714 0.0000
# 2 37.2982 26.5077 33.7115 0.0000 -2.0425 0.0000
# 3 127.3178 33.7115 196.6891 0.0000 1.3557 0.0000
# 4 0.0000 0.0000 0.0000 23.4305 0.0000 0.1968
# 5 5.8714 -2.0425 1.3557 0.0000 36.1191 0.0000
# 6 0.0000 0.0000 0.0000 0.1968 0.0000 21.9635
#
#
#
# Elastic Compliance Matrix: (Units=1/GPa)
#
#
# Indices 1 2 3 4 5 6 
#
# 1 0.007372 -0.005655 -0.003793 0.000000 -0.001376 0.000000
# 2 -0.005655 0.052913 -0.005437 0.000000 0.004116 0.000000
# 3 -0.003793 -0.005437 0.008472 0.000000 -0.000009 0.000000
# 4 0.000000 0.000000 0.000000 0.042683 0.000000 -0.000382
# 5 -0.001376 0.004116 -0.000009 0.000000 0.028143 0.000000
# 6 0.000000 0.000000 0.000000 -0.000382 0.000000 0.045533
#
#
# Mechanical properties :
#
#
# Convention : Reuss Voigt Hill
#
# Bulk Modulus (GPa) = 25.64979 94.52380 60.08680
# Shear Modulus (GPa) = 21.94116 33.35142 27.64629
#
# Velocity S-wave (km/s) = 3.43683 4.23726 3.85786
# Velocity P-wave (km/s) = 5.43667 8.65015 7.22435
#
# Compressibility (1/GPa) = 0.03898667
#
# Stress axis : x y z
#
# Youngs Moduli (GPa) = 135.64546 18.89877 118.04242
#
# Poissons Ratio (x) = 0.10687 0.44777
# Poissons Ratio (y) = 0.76707 0.64179
# Poissons Ratio (z) = 0.51455 0.10275
#
# Static dielectric constant tensor:
#      x y z
#    x 1.641280 0.000000 -0.009430 
#    y 0.000000 1.641450 0.000000 
#    z -0.009430 0.000000 1.598030 
# 
# From -- ./inp_files/20368.got.cif
#   From: 2010.05.17/outbox.cif.g08.bks.cpg/sg11_11_cif.got.tgz:20368.got - 2010.06.03 12:22:45.
