data_PCOD9163893
_publ_section_title
;
Structure prediction by ZEFSAII (Michael W. Deem and Ramdas Pophale) SiO2 
 PCOD9163893
Probable space group: P 21/M
;
_chemical_formula_sum "Si O2"
_cell_formula_units_Z 24
_cell_length_a 12.320110
_cell_length_b 16.625325
_cell_length_c 10.032269
_cell_angle_alpha 90.000000
_cell_angle_beta 38.078003
_cell_angle_gamma 90.000000
_cell_volume 1267.306273
_symmetry_space_group_name_H-M "P 21/M"
_symmetry_group_IT_number 11
_symmetry_cell_setting 'monoclinic'
loop_
_space_group_symop_operation_xyz
x,y,z
-x,1/2+y,-z
-x,-y,-z
x,1/2-y,z
loop_
_atom_site_type_symbol
_atom_site_label
_atom_site_fract_x
_atom_site_fract_y
_atom_site_fract_z
Si Si1 0.555884 0.655511 0.940102
Si Si2 0.870331 0.951230 0.717280
Si Si3 0.792722 0.345557 0.211157
Si Si4 0.378357 0.931002 0.875263
Si Si5 0.526489 0.404462 0.691314
Si Si6 0.871891 0.845978 0.957905
O O1 0.587625 0.750000 0.922867
O O2 0.735299 0.604275 0.765994
O O3 0.455280 0.634163 0.902420
O O4 0.458843 0.624755 0.169112
O O5 0.946988 0.891569 0.755185
O O6 0.757719 0.016394 0.907460
O O7 0.000000 0.000000 0.500000
O O8 0.780603 0.250000 0.200778
O O9 0.327024 0.631545 0.545922
O O10 0.995888 0.365255 0.049528
O O11 0.715739 0.392377 0.159866
O O12 0.521101 0.998463 0.693720
O O13 0.330982 0.374407 0.833364
O O14 0.872522 0.750000 0.937779
#
# Coordination Sequence:
#
# PCOD9163893 Si02
#       6
#     4   4   4   4   4   4
#     4  10  20  38  60  84 117 151 194 247 295 349
#     4  10  21  37  60  86 116 154 197 241 293 348
#     4  11  22  37  59  87 118 157 195 238 298 353
#     4  10  22  38  57  87 119 147 193 248 293 346
#     4  10  20  38  61  83 110 156 201 238 292 355
#     4   9  20  37  58  83 116 151 200 245 283 350
#
# _framework density 18.937805999999998
#
# number of rings (size 3 to 8) (size 9 to 14) (size 15 to 20)
#    0.000    2.333    0.000    6.000    4.667    2.667 
#    3.000    2.500    0.000    0.000    0.000    0.000 
#    0.000    0.000    0.000    0.000    0.000    0.000 
#
# Total GULP energy -133919.359594 kJ/mol
# GULP energy per Si atom -5579.973316 kJ/mol
# Density = 1.889470 g / cm^3
# Si number density = 18.937806 Si / 1000 Ang^3
#
#
#
# Elastic Constant Matrix: (Units=GPa)
#
#
# Indices 1 2 3 4 5 6 
#
# 1 107.0355 24.5922 8.2290 0.0000 4.2239 0.0000
# 2 24.5922 33.4112 12.2674 0.0000 -2.1074 0.0000
# 3 8.2290 12.2674 26.3962 0.0000 -6.1080 0.0000
# 4 0.0000 0.0000 0.0000 16.5455 0.0000 -0.8466
# 5 4.2239 -2.1074 -6.1080 0.0000 5.6756 0.0000
# 6 0.0000 0.0000 0.0000 -0.8466 0.0000 55.3076
#
#
#
# Elastic Compliance Matrix: (Units=1/GPa)
#
#
# Indices 1 2 3 4 5 6 
#
# 1 0.012260 -0.008763 -0.003480 0.000000 -0.016123 0.000000
# 2 -0.008763 0.042516 -0.015800 0.000000 0.005305 0.000000
# 3 -0.003480 -0.015800 0.060660 0.000000 0.062005 0.000000
# 4 0.000000 0.000000 0.000000 0.060487 0.000000 0.000926
# 5 -0.016123 0.005305 0.062005 0.000000 0.256891 0.000000
# 6 0.000000 0.000000 0.000000 0.000926 0.000000 0.018095
#
#
# Mechanical properties :
#
#
# Convention : Reuss Voigt Hill
#
# Bulk Modulus (GPa) = 16.84934 28.55778 22.70356
# Shear Modulus (GPa) = 9.49168 23.62268 16.55718
#
# Velocity S-wave (km/s) = 2.24118 3.53566 2.96005
# Velocity P-wave (km/s) = 3.95142 5.63741 4.86796
#
# Compressibility (1/GPa) = 0.05934951
#
# Stress axis : x y z
#
# Youngs Moduli (GPa) = 81.56685 23.52074 16.48544
#
# Poissons Ratio (x) = 0.20611 0.05738
# Poissons Ratio (y) = 0.71476 0.26046
# Poissons Ratio (z) = 0.28388 0.37162
#
# Static dielectric constant tensor:
#      x y z
#    x 1.683370 0.000000 -0.021870 
#    y 0.000000 1.657110 0.000000 
#    z -0.021870 0.000000 1.657470 
# 
# From -- ./inp_files/35202.got.cif
#   From: 2010.05.17/outbox.cif.g08.bks.cpg/sg11_18_cif.got.tgz:35202.got - 2010.06.03 12:22:45.
