data_PCOD9163953
_publ_section_title
;
Structure prediction by ZEFSAII (Michael W. Deem and Ramdas Pophale) SiO2 
 PCOD9163953
Probable space group: P 21/M
;
_chemical_formula_sum "Si O2"
_cell_formula_units_Z 24
_cell_length_a 15.193877
_cell_length_b 8.431512
_cell_length_c 9.765600
_cell_angle_alpha 90.000000
_cell_angle_beta 81.425272
_cell_angle_gamma 90.000000
_cell_volume 1237.061318
_symmetry_space_group_name_H-M "P 21/M"
_symmetry_group_IT_number 11
_symmetry_cell_setting 'monoclinic'
loop_
_space_group_symop_operation_xyz
x,y,z
-x,1/2+y,-z
-x,-y,-z
x,1/2-y,z
loop_
_atom_site_type_symbol
_atom_site_label
_atom_site_fract_x
_atom_site_fract_y
_atom_site_fract_z
Si Si1 0.750466 0.940716 0.857040
Si Si2 0.583354 0.060845 0.071326
Si Si3 0.420054 0.440740 0.614037
Si Si4 0.933788 0.940873 0.401539
Si Si5 0.258274 0.443420 0.457771
Si Si6 0.050684 0.559410 0.120890
O O1 0.746903 0.750000 0.860631
O O2 0.731912 0.993704 0.703456
O O3 0.850091 0.992802 0.876976
O O4 0.674465 0.004500 0.976530
O O5 0.580791 0.250000 0.072687
O O6 0.577605 0.002614 0.230453
O O7 0.500000 0.000000 0.000000
O O8 0.500000 0.500000 0.500000
O O9 0.421428 0.250000 0.620354
O O10 0.333355 0.492362 0.547782
O O11 0.929441 0.750000 0.401000
O O12 0.835813 0.998970 0.460569
O O13 0.981758 0.993568 0.253524
O O14 0.000000 0.000000 0.500000
O O15 0.258915 0.250000 0.454266
O O16 0.057727 0.750000 0.120037
O O17 0.000000 0.500000 0.000000
#
# Coordination Sequence:
#
# PCOD9163953 Si02
#       6
#     4   4   4   4   4   4
#     4  11  22  41  67  93 126 168 210 261 322 383
#     4  12  26  45  67  96 130 167 213 263 322 387
#     4  11  23  42  68  97 129 167 212 262 318 380
#     4  10  20  38  61  89 121 163 211 258 309 368
#     4   9  20  38  63  91 122 162 208 256 313 376
#     4  11  24  39  60  91 128 169 215 265 317 378
#
# _framework density 19.400817
#
# number of rings (size 3 to 8) (size 9 to 14) (size 15 to 20)
#    0.000    1.333    1.667    4.000    2.333    2.000 
#    0.000    4.167    0.000    0.000    0.000    0.000 
#    0.000    0.000    0.000    0.000    0.000    0.000 
#
# Total GULP energy -134022.320036 kJ/mol
# GULP energy per Si atom -5584.263335 kJ/mol
# Density = 1.935666 g / cm^3
# Si number density = 19.400817 Si / 1000 Ang^3
#
#
#
# Elastic Constant Matrix: (Units=GPa)
#
#
# Indices 1 2 3 4 5 6 
#
# 1 190.7885 42.6456 126.9527 0.0000 -2.7779 0.0000
# 2 42.6456 67.6052 52.7191 0.0000 -2.2518 0.0000
# 3 126.9527 52.7191 241.5245 0.0000 0.3137 0.0000
# 4 0.0000 0.0000 0.0000 27.9765 0.0000 0.6369
# 5 -2.7779 -2.2518 0.3137 0.0000 42.1575 0.0000
# 6 0.0000 0.0000 0.0000 0.6369 0.0000 33.1025
#
#
#
# Elastic Compliance Matrix: (Units=1/GPa)
#
#
# Indices 1 2 3 4 5 6 
#
# 1 0.008337 -0.002200 -0.003902 0.000000 0.000461 0.000000
# 2 -0.002200 0.018447 -0.002871 0.000000 0.000862 0.000000
# 3 -0.003902 -0.002871 0.006819 0.000000 -0.000461 0.000000
# 4 0.000000 0.000000 0.000000 0.035760 0.000000 -0.000688
# 5 0.000461 0.000862 -0.000461 0.000000 0.023800 0.000000
# 6 0.000000 0.000000 0.000000 -0.000688 0.000000 0.030222
#
#
# Mechanical properties :
#
#
# Convention : Reuss Voigt Hill
#
# Bulk Modulus (GPa) = 63.87656 104.95034 84.41345
# Shear Modulus (GPa) = 34.11767 39.15402 36.63584
#
# Velocity S-wave (km/s) = 4.19808 4.49727 4.35025
# Velocity P-wave (km/s) = 7.51629 9.01002 8.29684
#
# Compressibility (1/GPa) = 0.01565520
#
# Stress axis : x y z
#
# Youngs Moduli (GPa) = 119.95372 54.20811 146.65285
#
# Poissons Ratio (x) = 0.11928 0.57228
# Poissons Ratio (y) = 0.26394 0.42107
# Poissons Ratio (z) = 0.46809 0.15564
#
# Static dielectric constant tensor:
#      x y z
#    x 1.528260 0.000000 -0.079760 
#    y 0.000000 1.670640 0.000000 
#    z -0.079760 0.000000 1.609340 
# 
# From -- ./inp_files/20375.got.cif
#   From: 2010.05.17/outbox.cif.g08.bks.cpg/sg11_11_cif.got.tgz:20375.got - 2010.06.03 12:22:45.
