data_PCOD9163328
_publ_section_title
;
Structure prediction by ZEFSAII (Michael W. Deem and Ramdas Pophale) SiO2 
 PCOD9163328
Probable space group: P 21/M
;
_chemical_formula_sum "Si O2"
_cell_formula_units_Z 20
_cell_length_a 21.757625
_cell_length_b 8.750604
_cell_length_c 13.659082
_cell_angle_alpha 90.000000
_cell_angle_beta 158.535855
_cell_angle_gamma 90.000000
_cell_volume 951.603181
_symmetry_space_group_name_H-M "P 21/M"
_symmetry_group_IT_number 11
_symmetry_cell_setting 'monoclinic'
loop_
_space_group_symop_operation_xyz
x,y,z
-x,1/2+y,-z
-x,-y,-z
x,1/2-y,z
loop_
_atom_site_type_symbol
_atom_site_label
_atom_site_fract_x
_atom_site_fract_y
_atom_site_fract_z
Si Si1 0.335315 0.932812 0.307469
Si Si2 0.085492 0.931268 0.767314
Si Si3 0.259031 0.071543 0.837428
Si Si4 0.184552 0.566726 0.288094
Si Si5 0.566740 0.571619 0.199098
O O1 0.355670 0.750000 0.339635
O O2 0.297465 0.983545 0.361887
O O3 0.500000 0.000000 0.500000
O O4 0.172336 0.967298 0.998794
O O5 0.113463 0.750000 0.788607
O O6 0.886479 0.954574 0.459467
O O7 0.175112 0.030334 0.816384
O O8 0.309430 0.250000 0.909594
O O9 0.415672 0.964185 0.050093
O O10 0.178184 0.750000 0.278802
O O11 0.270070 0.507171 0.513566
O O12 0.000000 0.500000 0.000000
O O13 0.596638 0.750000 0.230952
O O14 0.500000 0.500000 0.000000
#
# Coordination Sequence:
#
# PCOD9163328 Si02
#       5
#     4   4   4   4   4
#     4  10  22  39  62  91 126 168 216 266 321 383
#     4   9  19  36  59  88 124 165 206 259 321 381
#     4  10  20  36  60  91 126 162 209 266 320 383
#     4  11  25  45  68  99 135 176 221 273 330 395
#     4  12  26  44  66  92 126 169 217 271 327 392
#
# _framework density 21.017163
#
# number of rings (size 3 to 8) (size 9 to 14) (size 15 to 20)
#    0.000    1.600    0.000    4.200    2.800    6.400 
#    0.000    0.000    0.000    0.000    0.000    0.000 
#    0.000    0.000    0.000    0.000    0.000    0.000 
#
# Total GULP energy -111847.960024 kJ/mol
# GULP energy per Si atom -5592.398001 kJ/mol
# Density = 2.096933 g / cm^3
# Si number density = 21.017163 Si / 1000 Ang^3
#
#
#
# Elastic Constant Matrix: (Units=GPa)
#
#
# Indices 1 2 3 4 5 6 
#
# 1 72.5955 30.0375 47.8139 0.0000 -14.9680 0.0000
# 2 30.0375 77.2500 50.9487 0.0000 -9.9805 0.0000
# 3 47.8139 50.9487 132.8383 0.0000 -25.1846 0.0000
# 4 0.0000 0.0000 0.0000 35.7660 0.0000 3.0923
# 5 -14.9680 -9.9805 -25.1846 0.0000 37.7655 0.0000
# 6 0.0000 0.0000 0.0000 3.0923 0.0000 29.1348
#
#
#
# Elastic Compliance Matrix: (Units=1/GPa)
#
#
# Indices 1 2 3 4 5 6 
#
# 1 0.019238 -0.003881 -0.004791 0.000000 0.003404 0.000000
# 2 -0.003881 0.018112 -0.005648 0.000000 -0.000518 0.000000
# 3 -0.004791 -0.005648 0.012335 0.000000 0.004835 0.000000
# 4 0.000000 0.000000 0.000000 0.028218 0.000000 -0.002995
# 5 0.003404 -0.000518 0.004835 0.000000 0.030916 0.000000
# 6 0.000000 0.000000 0.000000 -0.002995 0.000000 0.034641
#
#
# Mechanical properties :
#
#
# Convention : Reuss Voigt Hill
#
# Bulk Modulus (GPa) = 47.51492 60.03156 53.77324
# Shear Modulus (GPa) = 27.91506 30.79219 29.35363
#
# Velocity S-wave (km/s) = 3.64841 3.83181 3.74123
# Velocity P-wave (km/s) = 6.35646 6.94278 6.65608
#
# Compressibility (1/GPa) = 0.02104602
#
# Stress axis : x y z
#
# Youngs Moduli (GPa) = 51.98051 55.21156 81.06969
#
# Poissons Ratio (x) = 0.21428 0.38837
# Poissons Ratio (y) = 0.20174 0.45788
# Poissons Ratio (z) = 0.24902 0.31184
#
# Static dielectric constant tensor:
#      x y z
#    x 1.780600 0.000000 -0.010150 
#    y 0.000000 1.699150 0.000000 
#    z -0.010150 0.000000 1.763130 
# 
# From -- ./inp_files/55477.got.cif
#   From: 2010.05.17/outbox.cif.g08.bks.cpg/sg11_28_cif.got.tgz:55477.got - 2010.06.03 12:22:45.
