data_PCOD9163378
_publ_section_title
;
Structure prediction by ZEFSAII (Michael W. Deem and Ramdas Pophale) SiO2 
 PCOD9163378
Probable space group: P 21/M
;
_chemical_formula_sum "Si O2"
_cell_formula_units_Z 20
_cell_length_a 7.580763
_cell_length_b 17.699215
_cell_length_c 10.380350
_cell_angle_alpha 90.000000
_cell_angle_beta 43.140174
_cell_angle_gamma 90.000000
_cell_volume 952.354974
_symmetry_space_group_name_H-M "P 21/M"
_symmetry_group_IT_number 11
_symmetry_cell_setting 'monoclinic'
loop_
_space_group_symop_operation_xyz
x,y,z
-x,1/2+y,-z
-x,-y,-z
x,1/2-y,z
loop_
_atom_site_type_symbol
_atom_site_label
_atom_site_fract_x
_atom_site_fract_y
_atom_site_fract_z
Si Si1 0.823008 0.834840 0.858044
Si Si2 0.569248 0.992873 0.664002
Si Si3 0.200872 0.333762 0.426410
Si Si4 0.076274 0.985782 0.777887
Si Si5 0.267053 0.905121 0.182107
O O1 0.858202 0.750000 0.889722
O O2 0.900917 0.835962 0.666017
O O3 0.974693 0.901034 0.848643
O O4 0.522231 0.858102 0.017839
O O5 0.603420 0.903043 0.662707
O O6 0.277777 0.011025 0.778577
O O7 0.756369 0.013463 0.444412
O O8 0.666879 0.037178 0.736674
O O9 0.307757 0.250000 0.392920
O O10 0.963581 0.351745 0.647120
O O11 0.842366 0.043257 0.874984
#
# Coordination Sequence:
#
# PCOD9163378 Si02
#       5
#     4   4   4   4   4
#     4  11  22  36  58  84 112 149 186 226 280 330
#     4  10  20  36  62  85 108 149 189 223 281 330
#     4  10  20  37  58  81 114 148 181 230 281 328
#     4  10  20  37  60  86 110 143 192 230 271 331
#     4  11  20  39  59  81 111 150 184 231 274 330
#
# _framework density 21.000571000000001
#
# number of rings (size 3 to 8) (size 9 to 14) (size 15 to 20)
#    0.000    1.600    4.000    2.400    0.000    1.600 
#    0.000    0.000    0.000    2.400    0.000    0.000 
#    0.000    0.000    0.000    0.000    0.000    0.000 
#
# Total GULP energy -111829.634179 kJ/mol
# GULP energy per Si atom -5591.481709 kJ/mol
# Density = 2.095277 g / cm^3
# Si number density = 21.000571 Si / 1000 Ang^3
#
#
#
# Elastic Constant Matrix: (Units=GPa)
#
#
# Indices 1 2 3 4 5 6 
#
# 1 79.0236 20.0987 -3.0278 0.0000 -3.1061 0.0000
# 2 20.0987 139.0209 15.3669 0.0000 0.5358 0.0000
# 3 -3.0278 15.3669 44.0003 0.0000 3.9305 0.0000
# 4 0.0000 0.0000 0.0000 19.3460 0.0000 -1.6347
# 5 -3.1061 0.5358 3.9305 0.0000 23.3412 0.0000
# 6 0.0000 0.0000 0.0000 -1.6347 0.0000 14.3324
#
#
#
# Elastic Compliance Matrix: (Units=1/GPa)
#
#
# Indices 1 2 3 4 5 6 
#
# 1 0.013307 -0.002097 0.001508 0.000000 0.001565 0.000000
# 2 -0.002097 0.007814 -0.002876 0.000000 0.000026 0.000000
# 3 0.001508 -0.002876 0.024175 0.000000 -0.003804 0.000000
# 4 0.000000 0.000000 0.000000 0.052193 0.000000 0.005953
# 5 0.001565 0.000026 -0.003804 0.000000 0.043691 0.000000
# 6 0.000000 0.000000 0.000000 0.005953 0.000000 0.070451
#
#
# Mechanical properties :
#
#
# Convention : Reuss Voigt Hill
#
# Bulk Modulus (GPa) = 26.06343 36.32449 31.19396
# Shear Modulus (GPa) = 21.61240 26.71105 24.16172
#
# Velocity S-wave (km/s) = 3.21149 3.57027 3.39562
# Velocity P-wave (km/s) = 5.11755 5.85920 5.50089
#
# Compressibility (1/GPa) = 0.03836794
#
# Stress axis : x y z
#
# Youngs Moduli (GPa) = 75.14848 127.97488 41.36503
#
# Poissons Ratio (x) = 0.26831 -0.06238
# Poissons Ratio (y) = 0.15755 0.11895
# Poissons Ratio (z) = -0.11333 0.36800
#
# Static dielectric constant tensor:
#      x y z
#    x 1.727650 0.000000 0.009350 
#    y 0.000000 1.728860 0.000000 
#    z 0.009350 0.000000 1.808570 
# 
# From -- ./inp_files/12230.got.cif
#   From: 2010.05.17/outbox.cif.g08.bks.cpg/sg11_7_cif.got.tgz:12230.got - 2010.06.03 12:22:45.
