data_PCOD9163558
_publ_section_title
;
Structure prediction by ZEFSAII (Michael W. Deem and Ramdas Pophale) SiO2 
 PCOD9163558
Probable space group: P 21/M
;
_chemical_formula_sum "Si O2"
_cell_formula_units_Z 30
_cell_length_a 16.860749
_cell_length_b 7.996892
_cell_length_c 9.461429
_cell_angle_alpha 90.000000
_cell_angle_beta 69.896082
_cell_angle_gamma 90.000000
_cell_volume 1197.989860
_symmetry_space_group_name_H-M "P 21/M"
_symmetry_group_IT_number 11
_symmetry_cell_setting 'monoclinic'
loop_
_space_group_symop_operation_xyz
x,y,z
-x,1/2+y,-z
-x,-y,-z
x,1/2-y,z
loop_
_atom_site_type_symbol
_atom_site_label
_atom_site_fract_x
_atom_site_fract_y
_atom_site_fract_z
Si Si1 0.256313 0.555570 0.765422
Si Si2 0.614748 0.557743 0.649048
Si Si3 0.202642 0.433245 0.092497
Si Si4 0.564232 0.048063 0.288730
Si Si5 0.905245 0.750000 0.420165
Si Si6 0.030621 0.568450 0.133471
Si Si7 0.801433 0.435817 0.506733
Si Si8 0.374420 0.940196 0.063785
O O1 0.263618 0.750000 0.805657
O O2 0.352326 0.496180 0.675761
O O3 0.199013 0.549788 0.663817
O O4 0.217721 0.450555 0.914800
O O5 0.630954 0.750000 0.596449
O O6 0.530143 0.482620 0.629554
O O7 0.700629 0.453291 0.591455
O O8 0.593696 0.554265 0.829562
O O9 0.227150 0.250000 0.124806
O O10 0.103633 0.464496 0.164716
O O11 0.271810 0.552986 0.118715
O O12 0.555750 0.250000 0.303672
O O13 0.593639 0.007522 0.110402
O O14 0.850763 0.598100 0.529691
O O15 0.958619 0.608121 0.292352
O O16 0.070985 0.750000 0.075317
O O17 0.000000 0.500000 0.000000
O O18 0.831283 0.250000 0.531575
O O19 0.400711 0.750000 0.073922
#
# Coordination Sequence:
#
# PCOD9163558 Si02
#       8
#     4   4   4   4   2   4   4   4
#     4   9  19  35  57  81 123 164 197 246 301 364
#     4  11  21  36  60  86 119 161 214 258 298 355
#     4  11  21  34  58  90 121 152 196 242 314 374
#     4   8  17  34  56  88 122 157 199 256 311 355
#     4  10  24  40  60  86 122 158 202 246 304 358
#     4  10  21  35  57  88 121 153 187 244 304 362
#     4  11  23  40  61  86 119 171 215 248 298 363
#     4  10  20  37  59  86 121 160 199 253 310 362
#
# _framework density 25.041948000000001
#
# number of rings (size 3 to 8) (size 9 to 14) (size 15 to 20)
#    0.400    1.600    0.667    4.400    2.800    2.667 
#    0.000    6.000    0.000    0.800    0.000    0.000 
#    0.000    0.000    0.000    0.000    0.000    0.000 
#
# Total GULP energy -167092.925179 kJ/mol
# GULP energy per Si atom -5569.764173 kJ/mol
# Density = 2.498495 g / cm^3
# Si number density = 25.041948 Si / 1000 Ang^3
#
#
#
# Elastic Constant Matrix: (Units=GPa)
#
#
# Indices 1 2 3 4 5 6 
#
# 1 83.3159 18.6295 24.8531 0.0000 -21.4332 0.0000
# 2 18.6295 107.7334 20.1071 0.0000 -6.8211 0.0000
# 3 24.8531 20.1071 52.9696 0.0000 -14.6231 0.0000
# 4 0.0000 0.0000 0.0000 26.8512 0.0000 -3.7629
# 5 -21.4332 -6.8211 -14.6231 0.0000 45.9862 0.0000
# 6 0.0000 0.0000 0.0000 -3.7629 0.0000 20.6376
#
#
#
# Elastic Compliance Matrix: (Units=1/GPa)
#
#
# Indices 1 2 3 4 5 6 
#
# 1 0.015191 -0.001329 -0.005177 0.000000 0.005237 0.000000
# 2 -0.001329 0.010110 -0.003257 0.000000 -0.000156 0.000000
# 3 -0.005177 -0.003257 0.023837 0.000000 0.004684 0.000000
# 4 0.000000 0.000000 0.000000 0.038219 0.000000 0.006969
# 5 0.005237 -0.000156 0.004684 0.000000 0.025653 0.000000
# 6 0.000000 0.000000 0.000000 0.006969 0.000000 0.049726
#
#
# Mechanical properties :
#
#
# Convention : Reuss Voigt Hill
#
# Bulk Modulus (GPa) = 33.77062 41.24425 37.50744
# Shear Modulus (GPa) = 26.02348 30.72360 28.37354
#
# Velocity S-wave (km/s) = 3.22715 3.50649 3.36972
# Velocity P-wave (km/s) = 5.23459 5.73584 5.49093
#
# Compressibility (1/GPa) = 0.02961154
#
# Stress axis : x y z
#
# Youngs Moduli (GPa) = 65.82707 98.91155 41.95080
#
# Poissons Ratio (x) = 0.13146 0.21720
# Poissons Ratio (y) = 0.08749 0.13664
# Poissons Ratio (z) = 0.34082 0.32217
#
# Static dielectric constant tensor:
#      x y z
#    x 2.007250 0.000000 -0.008330 
#    y 0.000000 1.895610 0.000000 
#    z -0.008330 0.000000 2.078610 
# 
# From -- ./inp_files/40925.got.cif
#   From: 2010.05.17/outbox.cif.g08.bks.cpg/sg11_21_cif.got.tgz:40925.got - 2010.06.03 12:22:45.
