data_PCOD9163731
_publ_section_title
;
Structure prediction by ZEFSAII (Michael W. Deem and Ramdas Pophale) SiO2 
 PCOD9163731
Probable space group: P 21/M
;
_chemical_formula_sum "Si O2"
_cell_formula_units_Z 26
_cell_length_a 14.576752
_cell_length_b 7.374934
_cell_length_c 17.575791
_cell_angle_alpha 90.000000
_cell_angle_beta 147.088211
_cell_angle_gamma 90.000000
_cell_volume 1026.623527
_symmetry_space_group_name_H-M "P 21/M"
_symmetry_group_IT_number 11
_symmetry_cell_setting 'monoclinic'
loop_
_space_group_symop_operation_xyz
x,y,z
-x,1/2+y,-z
-x,-y,-z
x,1/2-y,z
loop_
_atom_site_type_symbol
_atom_site_label
_atom_site_fract_x
_atom_site_fract_y
_atom_site_fract_z
Si Si1 0.367601 0.966962 0.339651
Si Si2 0.518762 0.970658 0.282377
Si Si3 0.450402 0.250000 0.890153
Si Si4 0.951797 0.046034 0.803969
Si Si5 0.131530 0.467057 0.415557
Si Si6 0.693671 0.544525 0.011201
Si Si7 0.851506 0.036709 0.335025
O O1 0.349886 0.750000 0.323239
O O2 0.437018 0.023622 0.306169
O O3 0.180493 0.039127 0.229722
O O4 0.500000 0.000000 0.500000
O O5 0.508871 0.750000 0.266095
O O6 0.714454 0.022908 0.423663
O O7 0.421569 0.051201 0.144394
O O8 0.598746 0.408241 0.000267
O O9 0.307592 0.407241 0.770898
O O10 0.994037 0.250000 0.859067
O O11 0.129619 0.968460 0.899752
O O12 0.848699 0.051195 0.653244
O O13 0.146202 0.250000 0.416726
O O14 0.951359 0.506703 0.326080
O O15 0.709768 0.750000 0.053917
O O16 0.809154 0.250000 0.308336
O O17 0.000000 0.000000 0.500000
#
# Coordination Sequence:
#
# PCOD9163731 Si02
#       7
#     4   4   2   4   4   4   4
#     4  10  20  37  61  98 137 169 218 273 325 387
#     4  10  20  38  64  98 134 175 220 271 325 400
#     4  12  24  44  68  90 132 174 220 274 344 386
#     4  10  23  41  64  94 134 176 222 270 326 401
#     4  10  22  38  65  96 127 169 219 270 332 395
#     4  11  25  44  67  95 132 181 225 270 331 403
#     4  11  23  40  65 102 136 170 221 281 337 398
#
# _framework density 25.325738999999999
#
# number of rings (size 3 to 8) (size 9 to 14) (size 15 to 20)
#    0.000    1.538    3.077    1.385    4.308    1.846 
#    0.000    0.769    0.000    0.000    0.000    0.000 
#    0.000    0.000    0.000    0.000    0.000    0.000 
#
# Total GULP energy -145078.641831 kJ/mol
# GULP energy per Si atom -5579.947763 kJ/mol
# Density = 2.526810 g / cm^3
# Si number density = 25.325739 Si / 1000 Ang^3
#
#
#
# Elastic Constant Matrix: (Units=GPa)
#
#
# Indices 1 2 3 4 5 6 
#
# 1 85.1675 35.6769 22.8844 0.0000 20.9661 0.0000
# 2 35.6769 148.1049 36.1266 0.0000 18.9282 0.0000
# 3 22.8844 36.1266 123.7338 0.0000 31.9808 0.0000
# 4 0.0000 0.0000 0.0000 20.6958 0.0000 -16.2964
# 5 20.9661 18.9282 31.9808 0.0000 54.3946 0.0000
# 6 0.0000 0.0000 0.0000 -16.2964 0.0000 -30.2880
#
#
#
# Elastic Compliance Matrix: (Units=1/GPa)
#
#
# Indices 1 2 3 4 5 6 
#
# 1 0.014067 -0.002684 -0.000776 0.000000 -0.004032 0.000000
# 2 -0.002684 0.007889 -0.001609 0.000000 -0.000764 0.000000
# 3 -0.000776 -0.001609 0.009992 0.000000 -0.005015 0.000000
# 4 0.000000 0.000000 0.000000 0.033940 0.000000 -0.018261
# 5 -0.004032 -0.000764 -0.005015 0.000000 0.023153 0.000000
# 6 0.000000 0.000000 0.000000 -0.018261 0.000000 -0.023191
#
#
# Mechanical properties :
#
#
# Convention : Reuss Voigt Hill
#
# Bulk Modulus (GPa) = 45.85316 60.70909 53.28113
# Shear Modulus (GPa) = 60.05504 26.44837 43.25171
#
# Velocity S-wave (km/s) = 4.87489 3.23511 4.13706
# Velocity P-wave (km/s) = 7.05909 6.16262 6.62603
#
# Compressibility (1/GPa) = 0.02180875
#
# Stress axis : x y z
#
# Youngs Moduli (GPa) = 71.08868 126.76245 100.08477
#
# Poissons Ratio (x) = 0.34023 0.07766
# Poissons Ratio (y) = 0.19080 0.16107
# Poissons Ratio (z) = 0.05516 0.20400
#
# Static dielectric constant tensor:
#      x y z
#    x 2.075860 0.000000 0.000370 
#    y 0.000000 1.931180 0.000000 
#    z 0.000370 0.000000 1.962090 
# 
# From -- ./inp_files/65270.got.cif
#   From: 2010.05.17/outbox.cif.g08.bks.cpg/sg11_33_cif.got.tgz:65270.got - 2010.06.03 12:22:45.
