data_PCOD9163370
_publ_section_title
;
Structure prediction by ZEFSAII (Michael W. Deem and Ramdas Pophale) SiO2 
 PCOD9163370
Probable space group: P 21/M
;
_chemical_formula_sum "Si O2"
_cell_formula_units_Z 28
_cell_length_a 22.828264
_cell_length_b 9.010407
_cell_length_c 25.121550
_cell_angle_alpha 90.000000
_cell_angle_beta 16.882898
_cell_angle_gamma 90.000000
_cell_volume 1500.669794
_symmetry_space_group_name_H-M "P 21/M"
_symmetry_group_IT_number 11
_symmetry_cell_setting 'monoclinic'
loop_
_space_group_symop_operation_xyz
x,y,z
-x,1/2+y,-z
-x,-y,-z
x,1/2-y,z
loop_
_atom_site_type_symbol
_atom_site_label
_atom_site_fract_x
_atom_site_fract_y
_atom_site_fract_z
Si Si1 0.879123 0.427942 0.031971
Si Si2 0.296815 0.927993 0.700306
Si Si3 0.844533 0.928986 0.844471
Si Si4 0.059677 0.917713 0.502040
Si Si5 0.373834 0.416029 0.065372
Si Si6 0.226001 0.426616 0.455771
Si Si7 0.682719 0.073098 0.089923
O O1 0.915098 0.250000 0.001985
O O2 0.744683 0.463660 0.201071
O O3 0.764239 0.464674 0.077462
O O4 0.094086 0.509778 0.848744
O O5 0.308322 0.750000 0.684890
O O6 0.500000 0.000000 0.500000
O O7 0.852944 0.750000 0.834192
O O8 0.665451 0.979364 0.959374
O O9 0.052326 0.997960 0.642261
O O10 0.796874 0.984638 0.944602
O O11 0.130261 0.750000 0.430737
O O12 0.851654 0.908490 0.715502
O O13 0.207618 0.006703 0.412264
O O14 0.000000 0.000000 0.500000
O O15 0.456299 0.250000 0.989147
O O16 0.500000 0.500000 0.000000
O O17 0.191942 0.250000 0.483160
O O18 0.445085 0.455974 0.289708
O O19 0.713689 0.250000 0.054841
#
# Coordination Sequence:
#
# PCOD9163370 Si02
#       7
#     4   4   4   4   4   4   4
#     4   9  20  39  59  85 120 156 199 244 282 336
#     4  10  20  36  61  91 124 160 196 239 288 338
#     4  10  22  39  56  81 114 148 188 239 295 349
#     4  10  21  36  53  77 106 139 181 232 290 350
#     4   9  20  35  51  74 102 134 176 225 282 344
#     4  10  21  38  58  82 111 148 193 238 289 352
#     4  10  22  39  61  85 113 155 199 239 288 345
#
# _framework density 18.658335000000001
#
# number of rings (size 3 to 8) (size 9 to 14) (size 15 to 20)
#    0.000    2.286    0.000    2.571    2.000    6.857 
#    0.000    2.857    0.000    0.000    0.000    0.000 
#    0.000    0.000    0.000    0.000    0.000    0.000 
#
# Total GULP energy -156234.762508 kJ/mol
# GULP energy per Si atom -5579.812947 kJ/mol
# Density = 1.861587 g / cm^3
# Si number density = 18.658335 Si / 1000 Ang^3
#
#
#
# Elastic Constant Matrix: (Units=GPa)
#
#
# Indices 1 2 3 4 5 6 
#
# 1 186.5885 77.5026 80.3064 0.0000 -14.3553 0.0000
# 2 77.5026 81.7743 65.1459 0.0000 -6.3011 0.0000
# 3 80.3064 65.1459 130.2306 0.0000 1.3752 0.0000
# 4 0.0000 0.0000 0.0000 26.0410 0.0000 -0.8088
# 5 -14.3553 -6.3011 1.3752 0.0000 22.8089 0.0000
# 6 0.0000 0.0000 0.0000 -0.8088 0.0000 31.8850
#
#
#
# Elastic Compliance Matrix: (Units=1/GPa)
#
#
# Indices 1 2 3 4 5 6 
#
# 1 0.009593 -0.006662 -0.002629 0.000000 0.004356 0.000000
# 2 -0.006662 0.025884 -0.008877 0.000000 0.003493 0.000000
# 3 -0.002629 -0.008877 0.013792 0.000000 -0.004938 0.000000
# 4 0.000000 0.000000 0.000000 0.038431 0.000000 0.000975
# 5 0.004356 0.003493 -0.004938 0.000000 0.047847 0.000000
# 6 0.000000 0.000000 0.000000 0.000975 0.000000 0.031387
#
#
# Mechanical properties :
#
#
# Convention : Reuss Voigt Hill
#
# Bulk Modulus (GPa) = 77.31676 93.83370 85.57523
# Shear Modulus (GPa) = 24.08698 27.85621 25.97160
#
# Velocity S-wave (km/s) = 3.59688 3.86808 3.73494
# Velocity P-wave (km/s) = 7.66669 8.38744 8.03515
#
# Compressibility (1/GPa) = 0.01293381
#
# Stress axis : x y z
#
# Youngs Moduli (GPa) = 104.24051 38.63464 72.50343
#
# Poissons Ratio (x) = 0.25738 0.19062
# Poissons Ratio (y) = 0.69445 0.64359
# Poissons Ratio (z) = 0.27406 0.34295
#
# Static dielectric constant tensor:
#      x y z
#    x 1.650420 0.000000 0.008600 
#    y 0.000000 1.642810 0.000000 
#    z 0.008600 0.000000 1.638200 
# 
# From -- ./inp_files/69786.got.cif
#   From: 2010.05.17/outbox.cif.g08.bks.cpg/sg11_35_cif.got.tgz:69786.got - 2010.06.03 12:22:45.
