data_PCOD9163741
_publ_section_title
;
Structure prediction by ZEFSAII (Michael W. Deem and Ramdas Pophale) SiO2 
 PCOD9163741
Probable space group: P 21/M
;
_chemical_formula_sum "Si O2"
_cell_formula_units_Z 32
_cell_length_a 12.477815
_cell_length_b 7.915895
_cell_length_c 15.945617
_cell_angle_alpha 90.000000
_cell_angle_beta 90.857015
_cell_angle_gamma 90.000000
_cell_volume 1574.821411
_symmetry_space_group_name_H-M "P 21/M"
_symmetry_group_IT_number 11
_symmetry_cell_setting 'monoclinic'
loop_
_space_group_symop_operation_xyz
x,y,z
-x,1/2+y,-z
-x,-y,-z
x,1/2-y,z
loop_
_atom_site_type_symbol
_atom_site_label
_atom_site_fract_x
_atom_site_fract_y
_atom_site_fract_z
Si Si1 0.624532 0.048783 0.503294
Si Si2 0.276282 0.043546 0.151018
Si Si3 0.739195 0.945857 0.164046
Si Si4 0.771656 0.049724 0.352281
Si Si5 0.510866 0.047941 0.096390
Si Si6 0.771727 0.546077 0.661535
Si Si7 0.125398 0.454143 0.994228
Si Si8 0.002156 0.046337 0.403313
O O1 0.627989 0.250000 0.499481
O O2 0.690503 0.981123 0.422578
O O3 0.500000 0.000000 0.500000
O O4 0.684136 0.997242 0.589875
O O5 0.273031 0.250000 0.149370
O O6 0.398920 0.993882 0.135949
O O7 0.248091 0.986165 0.244174
O O8 0.195827 0.987407 0.075645
O O9 0.767313 0.750000 0.175500
O O10 0.818210 0.015136 0.091785
O O11 0.741366 0.027335 0.255513
O O12 0.617924 0.962838 0.130955
O O13 0.777672 0.250000 0.368670
O O14 0.891595 0.979623 0.364062
O O15 0.521965 0.250000 0.106705
O O16 0.500000 0.000000 0.000000
O O17 0.774614 0.750000 0.664876
O O18 0.887736 0.481300 0.634103
O O19 0.132668 0.250000 0.993470
O O20 0.000000 0.500000 0.000000
O O21 0.003917 0.250000 0.394086
O O22 0.000000 0.000000 0.500000
#
# Coordination Sequence:
#
# PCOD9163741 Si02
#       8
#     4   4   4   4   4   4   4   4
#     4  11  24  42  61  85 122 160 198 248 300 357
#     4   9  20  39  61  85 118 155 193 241 296 351
#     4  11  24  41  61  90 123 157 202 254 302 351
#     4  10  23  41  61  88 120 159 201 245 302 363
#     4  11  21  39  64  88 120 158 200 250 301 356
#     4  10  21  38  63  90 116 155 199 244 299 357
#     4  10  22  41  61  86 122 160 197 243 295 353
#     4  10  20  37  62  88 116 151 197 245 298 355
#
# _framework density 20.319763999999999
#
# number of rings (size 3 to 8) (size 9 to 14) (size 15 to 20)
#    0.000    1.750    2.500    1.125    3.500    2.500 
#    0.000    1.250    0.000    0.000    0.000    0.000 
#    0.000    0.000    0.000    0.000    0.000    0.000 
#
# Total GULP energy -178643.749061 kJ/mol
# GULP energy per Si atom -5582.617158 kJ/mol
# Density = 2.027351 g / cm^3
# Si number density = 20.319764 Si / 1000 Ang^3
#
#
#
# Elastic Constant Matrix: (Units=GPa)
#
#
# Indices 1 2 3 4 5 6 
#
# 1 156.4365 -2.4580 75.9028 0.0000 -13.1549 0.0000
# 2 -2.4580 22.7083 -5.6051 0.0000 -7.2040 0.0000
# 3 75.9028 -5.6051 149.7007 0.0000 -14.4798 0.0000
# 4 0.0000 0.0000 0.0000 23.0918 0.0000 4.9223
# 5 -13.1549 -7.2040 -14.4798 0.0000 41.9943 0.0000
# 6 0.0000 0.0000 0.0000 4.9223 0.0000 24.7010
#
#
#
# Elastic Compliance Matrix: (Units=1/GPa)
#
#
# Indices 1 2 3 4 5 6 
#
# 1 0.008540 0.000295 -0.004195 0.000000 0.001279 0.000000
# 2 0.000295 0.047583 0.002515 0.000000 0.009122 0.000000
# 3 -0.004195 0.002515 0.009120 0.000000 0.002262 0.000000
# 4 0.000000 0.000000 0.000000 0.045226 0.000000 -0.009013
# 5 0.001279 0.009122 0.002262 0.000000 0.026558 0.000000
# 6 0.000000 0.000000 0.000000 -0.009013 0.000000 0.042280
#
#
# Mechanical properties :
#
#
# Convention : Reuss Voigt Hill
#
# Bulk Modulus (GPa) = 16.00740 51.61388 33.81064
# Shear Modulus (GPa) = 24.64218 35.35782 30.00000
#
# Velocity S-wave (km/s) = 3.48619 4.17594 3.84656
# Velocity P-wave (km/s) = 4.90913 6.97906 6.03352
#
# Compressibility (1/GPa) = 0.06247110
#
# Stress axis : x y z
#
# Youngs Moduli (GPa) = 117.09398 21.01586 109.64811
#
# Poissons Ratio (x) = -0.00619 0.46001
# Poissons Ratio (y) = -0.03451 -0.27571
# Poissons Ratio (z) = 0.49125 -0.05284
#
# Static dielectric constant tensor:
#      x y z
#    x 1.723130 0.000000 -0.023980 
#    y 0.000000 1.744170 0.000000 
#    z -0.023980 0.000000 1.714680 
# 
# From -- ./inp_files/38259.got.cif
#   From: 2010.05.17/outbox.cif.g08.bks.cpg/sg11_20_cif.got.tgz:38259.got - 2010.06.03 12:22:45.
