data_PCOD9163979
_publ_section_title
;
Structure prediction by ZEFSAII (Michael W. Deem and Ramdas Pophale) SiO2 
 PCOD9163979
Probable space group: P 21/M
;
_chemical_formula_sum "Si O2"
_cell_formula_units_Z 20
_cell_length_a 10.233486
_cell_length_b 8.262476
_cell_length_c 11.672915
_cell_angle_alpha 90.000000
_cell_angle_beta 91.008890
_cell_angle_gamma 90.000000
_cell_volume 986.837859
_symmetry_space_group_name_H-M "P 21/M"
_symmetry_group_IT_number 11
_symmetry_cell_setting 'monoclinic'
loop_
_space_group_symop_operation_xyz
x,y,z
-x,1/2+y,-z
-x,-y,-z
x,1/2-y,z
loop_
_atom_site_type_symbol
_atom_site_label
_atom_site_fract_x
_atom_site_fract_y
_atom_site_fract_z
Si Si1 0.538980 0.059143 0.874461
Si Si2 0.287672 0.941736 0.744231
Si Si3 0.849293 0.054306 0.491170
Si Si4 0.213153 0.947243 0.260554
Si Si5 0.045325 0.444010 0.876498
O O1 0.556395 0.250000 0.885253
O O2 0.672932 0.991592 0.821517
O O3 0.421735 0.022338 0.785208
O O4 0.500000 0.000000 0.000000
O O5 0.309302 0.750000 0.735265
O O6 0.224691 0.002985 0.624193
O O7 0.179734 0.976122 0.839610
O O8 0.849821 0.250000 0.487903
O O9 0.777849 0.001664 0.607134
O O10 0.000000 0.000000 0.500000
O O11 0.218017 0.750000 0.259216
O O12 0.070613 0.992821 0.211739
O O13 0.059747 0.250000 0.873706
O O14 0.000000 0.500000 0.000000
#
# Coordination Sequence:
#
# PCOD9163979 Si02
#       5
#     4   4   4   4   4
#     4  11  23  41  63  87 121 162 202 250 305 363
#     4  11  23  38  59  89 123 158 199 248 301 364
#     4  10  20  38  62  88 120 155 198 252 303 358
#     4   9  20  38  60  85 116 155 198 248 305 354
#     4  11  21  36  60  87 118 155 202 253 304 360
#
# _framework density 20.266755
#
# number of rings (size 3 to 8) (size 9 to 14) (size 15 to 20)
#    0.000    1.600    2.000    3.000    0.000    3.200 
#    0.000    5.000    0.000    0.000    0.000    0.000 
#    0.000    0.000    0.000    0.000    0.000    0.000 
#
# Total GULP energy -111756.968300 kJ/mol
# GULP energy per Si atom -5587.848415 kJ/mol
# Density = 2.022063 g / cm^3
# Si number density = 20.266755 Si / 1000 Ang^3
#
#
#
# Elastic Constant Matrix: (Units=GPa)
#
#
# Indices 1 2 3 4 5 6 
#
# 1 57.9939 -4.8952 -17.4465 0.0000 -11.1807 0.0000
# 2 -4.8952 19.1471 1.8709 0.0000 -1.8407 0.0000
# 3 -17.4465 1.8709 72.4932 0.0000 -4.8099 0.0000
# 4 0.0000 0.0000 0.0000 24.9515 0.0000 2.7733
# 5 -11.1807 -1.8407 -4.8099 0.0000 36.3516 0.0000
# 6 0.0000 0.0000 0.0000 2.7733 0.0000 24.8752
#
#
#
# Elastic Compliance Matrix: (Units=1/GPa)
#
#
# Indices 1 2 3 4 5 6 
#
# 1 0.020730 0.005486 0.005336 0.000000 0.007360 0.000000
# 2 0.005486 0.054036 0.000221 0.000000 0.004453 0.000000
# 3 0.005336 0.000221 0.015317 0.000000 0.003679 0.000000
# 4 0.000000 0.000000 0.000000 0.040581 0.000000 -0.004524
# 5 0.007360 0.004453 0.003679 0.000000 0.030485 0.000000
# 6 0.000000 0.000000 0.000000 -0.004524 0.000000 0.040705
#
#
# Mechanical properties :
#
#
# Convention : Reuss Voigt Hill
#
# Bulk Modulus (GPa) = 8.91505 12.07696 10.49600
# Shear Modulus (GPa) = 23.02471 28.57600 25.80036
#
# Velocity S-wave (km/s) = 3.37424 3.75906 3.57184
# Velocity P-wave (km/s) = 4.42595 4.98123 4.71178
#
# Compressibility (1/GPa) = 0.11216990
#
# Stress axis : x y z
#
# Youngs Moduli (GPa) = 48.23838 18.50609 65.28730
#
# Poissons Ratio (x) = -0.10153 -0.34836
# Poissons Ratio (y) = -0.26464 -0.01444
# Poissons Ratio (z) = -0.25739 -0.00409
#
# Static dielectric constant tensor:
#      x y z
#    x 1.758550 0.000000 -0.081890 
#    y 0.000000 1.738310 0.000000 
#    z -0.081890 0.000000 1.832800 
# 
# From -- ./inp_files/15895.got.cif
#   From: 2010.05.17/outbox.cif.g08.bks.cpg/sg11_8_cif.got.tgz:15895.got - 2010.06.03 12:22:45.
