data_PCOD9163589
_publ_section_title
;
Structure prediction by ZEFSAII (Michael W. Deem and Ramdas Pophale) SiO2 
 PCOD9163589
Probable space group: P 21/M
;
_chemical_formula_sum "Si O2"
_cell_formula_units_Z 24
_cell_length_a 9.273284
_cell_length_b 9.910129
_cell_length_c 11.239531
_cell_angle_alpha 90.000000
_cell_angle_beta 95.409027
_cell_angle_gamma 90.000000
_cell_volume 1028.307209
_symmetry_space_group_name_H-M "P 21/M"
_symmetry_group_IT_number 11
_symmetry_cell_setting 'monoclinic'
loop_
_space_group_symop_operation_xyz
x,y,z
-x,1/2+y,-z
-x,-y,-z
x,1/2-y,z
loop_
_atom_site_type_symbol
_atom_site_label
_atom_site_fract_x
_atom_site_fract_y
_atom_site_fract_z
Si Si1 0.745989 0.973660 0.157317
Si Si2 0.507901 0.977099 0.311154
Si Si3 0.281318 0.596914 0.479692
Si Si4 0.135636 0.250000 0.011868
Si Si5 0.379743 0.250000 0.191144
Si Si6 0.015966 0.594387 0.317067
Si Si7 0.370052 0.750000 0.959579
Si Si8 0.844277 0.250000 0.872787
O O1 0.807989 0.878503 0.059056
O O2 0.875414 0.984162 0.263943
O O3 0.600533 0.918331 0.209365
O O4 0.699745 0.116741 0.102569
O O5 0.631371 0.012452 0.417778
O O6 0.433185 0.117068 0.263227
O O7 0.385925 0.897742 0.372441
O O8 0.260214 0.750000 0.521336
O O9 0.126540 0.541455 0.424170
O O10 0.962204 0.250000 0.988638
O O11 0.210958 0.250000 0.145474
O O12 0.464781 0.250000 0.070728
O O13 0.970363 0.750000 0.344962
O O14 0.113815 0.622999 0.206391
O O15 0.316229 0.750000 0.090509
#
# Coordination Sequence:
#
# PCOD9163589 Si02
#       8
#     4   4   4   2   2   4   2   2
#     4  10  21  39  57  85 116 153 188 240 283 340
#     4  10  22  36  58  83 116 147 189 236 287 339
#     4  10  20  37  60  85 110 150 189 236 290 341
#     4  10  22  38  59  81 116 155 197 232 281 333
#     4  10  22  39  53  83 122 150 181 242 281 337
#     4   8  18  36  57  82 107 144 190 236 280 336
#     4  10  22  34  56  83 118 153 190 230 294 333
#     4   8  18  35  52  83 104 148 184 238 264 341
#
# _framework density 23.339328999999999
#
# number of rings (size 3 to 8) (size 9 to 14) (size 15 to 20)
#    0.500    2.000    1.667    0.000    1.167   10.000 
#    0.000    0.000    0.000    0.000    0.000    0.000 
#    0.000    0.000    0.000    0.000    0.000    0.000 
#
# Total GULP energy -133996.767422 kJ/mol
# GULP energy per Si atom -5583.198643 kJ/mol
# Density = 2.328621 g / cm^3
# Si number density = 23.339329 Si / 1000 Ang^3
#
#
#
# Elastic Constant Matrix: (Units=GPa)
#
#
# Indices 1 2 3 4 5 6 
#
# 1 86.3898 4.8822 27.9848 0.0000 17.3030 0.0000
# 2 4.8822 46.1031 -2.2168 0.0000 1.0216 0.0000
# 3 27.9848 -2.2168 45.4907 0.0000 7.4613 0.0000
# 4 0.0000 0.0000 0.0000 6.7586 0.0000 3.5954
# 5 17.3030 1.0216 7.4613 0.0000 58.9109 0.0000
# 6 0.0000 0.0000 0.0000 3.5954 0.0000 45.0833
#
#
#
# Elastic Compliance Matrix: (Units=1/GPa)
#
#
# Indices 1 2 3 4 5 6 
#
# 1 0.015243 -0.001970 -0.008930 0.000000 -0.003312 0.000000
# 2 -0.001970 0.022012 0.002300 0.000000 -0.000094 0.000000
# 3 -0.008930 0.002300 0.027741 0.000000 -0.000931 0.000000
# 4 0.000000 0.000000 0.000000 0.154516 0.000000 -0.012323
# 5 -0.003312 -0.000094 -0.000931 0.000000 0.018067 0.000000
# 6 0.000000 0.000000 0.000000 -0.012323 0.000000 0.023164
#
#
# Mechanical properties :
#
#
# Convention : Reuss Voigt Hill
#
# Bulk Modulus (GPa) = 20.92244 26.58711 23.75477
# Shear Modulus (GPa) = 17.01413 31.97280 24.49347
#
# Velocity S-wave (km/s) = 2.70291 3.70525 3.24304
# Velocity P-wave (km/s) = 4.32723 5.45173 4.92170
#
# Compressibility (1/GPa) = 0.04779558
#
# Stress axis : x y z
#
# Youngs Moduli (GPa) = 65.60477 45.43010 36.04823
#
# Poissons Ratio (x) = 0.08950 0.32190
# Poissons Ratio (y) = 0.12925 -0.08291
# Poissons Ratio (z) = 0.58584 -0.10449
#
# Static dielectric constant tensor:
#      x y z
#    x 1.871380 0.000000 -0.016190 
#    y 0.000000 1.809310 0.000000 
#    z -0.016190 0.000000 1.928450 
# 
# From -- ./inp_files/31185.got.cif
#   From: 2010.05.17/outbox.cif.g08.bks.cpg/sg11_16_cif.got.tgz:31185.got - 2010.06.03 12:22:45.
