data_PCOD9163485
_publ_section_title
;
Structure prediction by ZEFSAII (Michael W. Deem and Ramdas Pophale) SiO2 
 PCOD9163485
Probable space group: P 21/M
;
_chemical_formula_sum "Si O2"
_cell_formula_units_Z 32
_cell_length_a 15.877333
_cell_length_b 7.629731
_cell_length_c 26.906386
_cell_angle_alpha 90.000000
_cell_angle_beta 27.699576
_cell_angle_gamma 90.000000
_cell_volume 1515.100461
_symmetry_space_group_name_H-M "P 21/M"
_symmetry_group_IT_number 11
_symmetry_cell_setting 'monoclinic'
loop_
_space_group_symop_operation_xyz
x,y,z
-x,1/2+y,-z
-x,-y,-z
x,1/2-y,z
loop_
_atom_site_type_symbol
_atom_site_label
_atom_site_fract_x
_atom_site_fract_y
_atom_site_fract_z
Si Si1 0.504321 0.460962 0.555903
Si Si2 0.565928 0.038779 0.226958
Si Si3 0.238732 0.041617 0.174889
Si Si4 0.182735 0.535029 0.994502
Si Si5 0.226565 0.040892 0.780644
Si Si6 0.127891 0.957278 0.585577
Si Si7 0.162884 0.041337 0.452160
Si Si8 0.634083 0.461775 0.998681
O O1 0.500000 0.500000 0.500000
O O2 0.503749 0.250000 0.561619
O O3 0.330221 0.527227 0.677676
O O4 0.688176 0.528889 0.485921
O O5 0.562299 0.250000 0.225079
O O6 0.358976 0.974768 0.331098
O O7 0.645943 0.991908 0.238739
O O8 0.700759 0.974711 0.113547
O O9 0.240895 0.250000 0.183364
O O10 0.056665 0.968582 0.294428
O O11 0.249703 0.013962 0.110114
O O12 0.428862 0.972010 0.097407
O O13 0.181657 0.750000 0.993783
O O14 0.279646 0.480723 0.994829
O O15 0.975135 0.472874 0.103558
O O16 0.206797 0.250000 0.785003
O O17 0.128206 0.750000 0.596681
O O18 0.129253 0.976396 0.525597
O O19 0.176186 0.250000 0.448503
O O20 0.000000 0.000000 0.500000
O O21 0.628506 0.250000 0.002155
#
# Coordination Sequence:
#
# PCOD9163485 Si02
#       8
#     4   4   4   4   4   4   4   4
#     4  10  22  37  56  83 114 149 187 231 280 332
#     4  10  21  38  59  82 109 144 186 227 275 335
#     4   9  19  34  55  78 107 144 180 223 278 325
#     4   9  19  34  56  83 108 141 184 225 274 330
#     4  10  20  37  58  81 112 145 181 228 279 327
#     4  10  21  39  60  83 114 150 189 236 286 338
#     4  11  24  39  60  87 115 150 190 235 285 342
#     4   9  18  34  55  78 106 142 181 224 270 328
#
# _framework density 21.120712000000001
#
# number of rings (size 3 to 8) (size 9 to 14) (size 15 to 20)
#    0.000    2.250    1.250    0.750    3.500    2.000 
#    0.000    1.250    0.000    0.000    0.000    0.000 
#    0.000    0.000    0.000    0.000    0.000    0.000 
#
# Total GULP energy -178727.353454 kJ/mol
# GULP energy per Si atom -5585.229795 kJ/mol
# Density = 2.107264 g / cm^3
# Si number density = 21.120712 Si / 1000 Ang^3
#
#
#
# Elastic Constant Matrix: (Units=GPa)
#
#
# Indices 1 2 3 4 5 6 
#
# 1 95.4819 -17.3188 66.0343 0.0000 37.9814 0.0000
# 2 -17.3188 34.8976 5.8846 0.0000 -11.5218 0.0000
# 3 66.0343 5.8846 212.8240 0.0000 27.9016 0.0000
# 4 0.0000 0.0000 0.0000 -5.7504 0.0000 16.4625
# 5 37.9814 -11.5218 27.9016 0.0000 -18.9569 0.0000
# 6 0.0000 0.0000 0.0000 16.4625 0.0000 18.4362
#
#
#
# Elastic Compliance Matrix: (Units=1/GPa)
#
#
# Indices 1 2 3 4 5 6 
#
# 1 0.012005 0.010170 -0.005322 0.000000 0.010039 0.000000
# 2 0.010170 0.032759 -0.003455 0.000000 -0.004621 0.000000
# 3 -0.005322 -0.003455 0.006344 0.000000 0.000774 0.000000
# 4 0.000000 0.000000 0.000000 -0.048899 0.000000 0.043664
# 5 0.010039 -0.004621 0.000774 0.000000 -0.028690 0.000000
# 6 0.000000 0.000000 0.000000 0.043664 0.000000 0.015252
#
#
# Mechanical properties :
#
#
# Convention : Reuss Voigt Hill
#
# Bulk Modulus (GPa) = 18.55526 50.26708 34.41117
# Shear Modulus (GPa) = 1265.05867 17.98602 641.52235
#
# Velocity S-wave (km/s) = 24.50033 2.92135 17.44707
# Velocity P-wave (km/s) = 28.44573 5.93554 20.54738
#
# Compressibility (1/GPa) = 0.05389309
#
# Stress axis : x y z
#
# Youngs Moduli (GPa) = 83.29607 30.52560 157.62578
#
# Poissons Ratio (x) = -0.31044 0.83893
# Poissons Ratio (y) = -0.84711 0.54467
# Poissons Ratio (z) = 0.44333 0.10548
#
# Static dielectric constant tensor:
#      x y z
#    x 1.702240 0.000000 -0.026150 
#    y 0.000000 1.781070 0.000000 
#    z -0.026150 0.000000 1.768070 
# 
# From -- ./inp_files/51765.got.cif
#   From: 2010.05.17/outbox.cif.g08.bks.cpg/sg11_26_cif.got.tgz:51765.got - 2010.06.03 12:22:45.
