data_PCOD9163701
_publ_section_title
;
Structure prediction by ZEFSAII (Michael W. Deem and Ramdas Pophale) SiO2 
 PCOD9163701
Probable space group: P 21/M
;
_chemical_formula_sum "Si O2"
_cell_formula_units_Z 28
_cell_length_a 27.817570
_cell_length_b 8.403708
_cell_length_c 9.757405
_cell_angle_alpha 90.000000
_cell_angle_beta 139.263258
_cell_angle_gamma 90.000000
_cell_volume 1488.542325
_symmetry_space_group_name_H-M "P 21/M"
_symmetry_group_IT_number 11
_symmetry_cell_setting 'monoclinic'
loop_
_space_group_symop_operation_xyz
x,y,z
-x,1/2+y,-z
-x,-y,-z
x,1/2-y,z
loop_
_atom_site_type_symbol
_atom_site_label
_atom_site_fract_x
_atom_site_fract_y
_atom_site_fract_z
Si Si1 0.551384 0.569558 0.727981
Si Si2 0.429360 0.563063 0.931237
Si Si3 0.741497 0.057913 0.478623
Si Si4 0.811419 0.940512 0.352947
Si Si5 0.918998 0.560416 0.356280
Si Si6 0.688629 0.068092 0.894995
Si Si7 0.215830 0.442138 0.132086
O O1 0.500000 0.500000 0.500000
O O2 0.531410 0.750000 0.718017
O O3 0.630462 0.554374 0.828999
O O4 0.554263 0.472128 0.874320
O O5 0.426357 0.750000 0.899380
O O6 0.345206 0.503080 0.718969
O O7 0.500000 0.500000 0.000000
O O8 0.741842 0.250000 0.467830
O O9 0.791061 0.985181 0.463613
O O10 0.776412 0.003780 0.697484
O O11 0.798340 0.750000 0.305496
O O12 0.889216 0.975912 0.445889
O O13 0.756410 0.046430 0.143869
O O14 0.920662 0.750000 0.349550
O O15 0.000000 0.500000 0.500000
O O16 0.857938 0.507925 0.111185
O O17 0.661349 0.250000 0.837999
O O18 0.716650 0.017207 0.807123
O O19 0.220115 0.250000 0.137521
#
# Coordination Sequence:
#
# PCOD9163701 Si02
#       7
#     4   4   4   4   4   4   4
#     4  12  25  41  61  84 115 154 198 249 304 355
#     4  11  25  43  61  86 121 159 203 251 307 361
#     4  11  23  39  61  89 121 157 203 251 298 358
#     4  10  20  37  61  88 118 156 198 238 292 354
#     4   9  20  38  62  92 122 155 196 242 292 354
#     4  11  21  37  59  85 115 150 197 247 293 350
#     4  10  22  39  60  88 121 158 200 242 295 356
#
# _framework density 18.81035
#
# number of rings (size 3 to 8) (size 9 to 14) (size 15 to 20)
#    0.000    1.429    1.429    5.143    2.000    5.143 
#    0.000    0.714    0.000    0.000    0.000    0.000 
#    0.000    0.000    0.000    0.000    0.000    0.000 
#
# Total GULP energy -156167.369299 kJ/mol
# GULP energy per Si atom -5577.406046 kJ/mol
# Density = 1.876754 g / cm^3
# Si number density = 18.810350 Si / 1000 Ang^3
#
#
#
# Elastic Constant Matrix: (Units=GPa)
#
#
# Indices 1 2 3 4 5 6 
#
# 1 164.2950 18.4632 70.1110 0.0000 -10.9843 0.0000
# 2 18.4632 51.5881 8.0471 0.0000 0.8382 0.0000
# 3 70.1110 8.0471 74.9484 0.0000 -11.0936 0.0000
# 4 0.0000 0.0000 0.0000 28.0400 0.0000 -1.2114
# 5 -10.9843 0.8382 -11.0936 0.0000 33.4107 0.0000
# 6 0.0000 0.0000 0.0000 -1.2114 0.0000 35.8217
#
#
#
# Elastic Compliance Matrix: (Units=1/GPa)
#
#
# Indices 1 2 3 4 5 6 
#
# 1 0.010382 -0.002252 -0.009420 0.000000 0.000342 0.000000
# 2 -0.002252 0.020253 -0.000266 0.000000 -0.001337 0.000000
# 3 -0.009420 -0.000266 0.022848 0.000000 0.004496 0.000000
# 4 0.000000 0.000000 0.000000 0.035716 0.000000 0.001208
# 5 0.000342 -0.001337 0.004496 0.000000 0.031569 0.000000
# 6 0.000000 0.000000 0.000000 0.001208 0.000000 0.027957
#
#
# Mechanical properties :
#
#
# Convention : Reuss Voigt Hill
#
# Bulk Modulus (GPa) = 33.77346 53.78600 43.77973
# Shear Modulus (GPa) = 27.40161 32.40183 29.90172
#
# Velocity S-wave (km/s) = 3.82085 4.15487 3.99136
# Velocity P-wave (km/s) = 6.12037 7.18840 6.67578
#
# Compressibility (1/GPa) = 0.02960904
#
# Stress axis : x y z
#
# Youngs Moduli (GPa) = 96.31727 49.37420 43.76674
#
# Poissons Ratio (x) = 0.11119 0.41227
# Poissons Ratio (y) = 0.21691 0.01163
# Poissons Ratio (z) = 0.90729 0.01312
#
# Static dielectric constant tensor:
#      x y z
#    x 1.666270 0.000000 -0.006520 
#    y 0.000000 1.655650 0.000000 
#    z -0.006520 0.000000 1.549860 
# 
# From -- ./inp_files/28638.got.cif
#   From: 2010.05.17/outbox.cif.g08.bks.cpg/sg11_15_cif.got.tgz:28638.got - 2010.06.03 12:22:45.
