data_PCOD9163452
_publ_section_title
;
Structure prediction by ZEFSAII (Michael W. Deem and Ramdas Pophale) SiO2 
 PCOD9163452
Probable space group: P 21/M
;
_chemical_formula_sum "Si O2"
_cell_formula_units_Z 28
_cell_length_a 22.358987
_cell_length_b 8.708730
_cell_length_c 15.137996
_cell_angle_alpha 90.000000
_cell_angle_beta 30.702788
_cell_angle_gamma 90.000000
_cell_volume 1505.023154
_symmetry_space_group_name_H-M "P 21/M"
_symmetry_group_IT_number 11
_symmetry_cell_setting 'monoclinic'
loop_
_space_group_symop_operation_xyz
x,y,z
-x,1/2+y,-z
-x,-y,-z
x,1/2-y,z
loop_
_atom_site_type_symbol
_atom_site_label
_atom_site_fract_x
_atom_site_fract_y
_atom_site_fract_z
Si Si1 0.306565 0.434435 0.457850
Si Si2 0.646857 0.566271 0.227815
Si Si3 0.518169 0.566043 0.074973
Si Si4 0.789705 0.565604 0.751019
Si Si5 0.143343 0.933530 0.152524
Si Si6 0.376640 0.933872 0.550561
Si Si7 0.113599 0.436721 0.563405
O O1 0.307772 0.250000 0.458403
O O2 0.422952 0.493154 0.260507
O O3 0.308021 0.499138 0.554612
O O4 0.196319 0.486969 0.538453
O O5 0.651519 0.750000 0.225146
O O6 0.664828 0.498599 0.302827
O O7 0.514599 0.522476 0.367021
O O8 0.744741 0.505170 0.037506
O O9 0.504114 0.750000 0.091395
O O10 0.500000 0.500000 0.000000
O O11 0.651233 0.532704 0.934798
O O12 0.805337 0.750000 0.738152
O O13 0.856505 0.484495 0.745717
O O14 0.832180 0.516669 0.599949
O O15 0.150492 0.750000 0.138414
O O16 0.021515 0.984759 0.262479
O O17 0.369289 0.750000 0.560325
O O18 0.115560 0.250000 0.561373
#
# Coordination Sequence:
#
# PCOD9163452 Si02
#       7
#     4   4   4   4   4   4   4
#     4  11  21  37  58  82 115 153 187 225 280 336
#     4  10  21  39  61  85 114 145 178 225 284 335
#     4  11  21  34  54  80 112 147 184 229 278 328
#     4  10  20  37  56  77 111 151 188 231 283 329
#     4  11  22  36  57  83 110 145 192 236 274 326
#     4  10  21  38  61  89 115 141 179 229 279 333
#     4   9  20  38  55  76 112 154 190 230 276 323
#
# _framework density 18.604364
#
# number of rings (size 3 to 8) (size 9 to 14) (size 15 to 20)
#    0.000    1.714    1.429    3.429    0.000    6.286 
#    0.000    4.286    0.000    0.000    0.000    0.000 
#    0.000    0.000    0.000    0.000    0.000    0.000 
#
# Total GULP energy -156457.888998 kJ/mol
# GULP energy per Si atom -5587.781750 kJ/mol
# Density = 1.856202 g / cm^3
# Si number density = 18.604364 Si / 1000 Ang^3
#
#
#
# Elastic Constant Matrix: (Units=GPa)
#
#
# Indices 1 2 3 4 5 6 
#
# 1 133.3431 30.3106 38.0200 0.0000 7.7921 0.0000
# 2 30.3106 37.8134 14.6822 0.0000 -3.6411 0.0000
# 3 38.0200 14.6822 48.8294 0.0000 -1.1988 0.0000
# 4 0.0000 0.0000 0.0000 23.5050 0.0000 5.4410
# 5 7.7921 -3.6411 -1.1988 0.0000 20.5827 0.0000
# 6 0.0000 0.0000 0.0000 5.4410 0.0000 32.0738
#
#
#
# Elastic Compliance Matrix: (Units=1/GPa)
#
#
# Indices 1 2 3 4 5 6 
#
# 1 0.011424 -0.007044 -0.006924 0.000000 -0.005974 0.000000
# 2 -0.007044 0.034762 -0.004758 0.000000 0.008539 0.000000
# 3 -0.006924 -0.004758 0.027384 0.000000 0.003374 0.000000
# 4 0.000000 0.000000 0.000000 0.044283 0.000000 -0.007512
# 5 -0.005974 0.008539 0.003374 0.000000 0.052553 0.000000
# 6 0.000000 0.000000 0.000000 -0.007512 0.000000 0.032452
#
#
# Mechanical properties :
#
#
# Convention : Reuss Voigt Hill
#
# Bulk Modulus (GPa) = 27.68681 42.89016 35.28848
# Shear Modulus (GPa) = 19.81381 24.36382 22.08882
#
# Velocity S-wave (km/s) = 3.26699 3.62273 3.44945
# Velocity P-wave (km/s) = 5.39862 6.37203 5.90542
#
# Compressibility (1/GPa) = 0.03611829
#
# Stress axis : x y z
#
# Youngs Moduli (GPa) = 87.53567 28.76721 36.51788
#
# Poissons Ratio (x) = 0.20264 0.25284
# Poissons Ratio (y) = 0.61662 0.17375
# Poissons Ratio (z) = 0.60606 0.13687
#
# Static dielectric constant tensor:
#      x y z
#    x 1.638350 0.000000 -0.013430 
#    y 0.000000 1.626000 0.000000 
#    z -0.013430 0.000000 1.626920 
# 
# From -- ./inp_files/38430.got.cif
#   From: 2010.05.17/outbox.cif.g08.bks.cpg/sg11_20_cif.got.tgz:38430.got - 2010.06.03 12:22:45.
