data_PCOD9163027
_publ_section_title
;
Structure prediction by ZEFSAII (Michael W. Deem and Ramdas Pophale) SiO2 
 PCOD9163027
Probable space group: P 21/M
;
_chemical_formula_sum "Si O2"
_cell_formula_units_Z 32
_cell_length_a 24.684180
_cell_length_b 7.599866
_cell_length_c 15.289828
_cell_angle_alpha 90.000000
_cell_angle_beta 151.046974
_cell_angle_gamma 90.000000
_cell_volume 1388.530755
_symmetry_space_group_name_H-M "P 21/M"
_symmetry_group_IT_number 11
_symmetry_cell_setting 'monoclinic'
loop_
_space_group_symop_operation_xyz
x,y,z
-x,1/2+y,-z
-x,-y,-z
x,1/2-y,z
loop_
_atom_site_type_symbol
_atom_site_label
_atom_site_fract_x
_atom_site_fract_y
_atom_site_fract_z
Si Si1 0.497349 0.465973 0.705732
Si Si2 0.139822 0.034583 0.344162
Si Si3 0.467552 0.943448 0.051649
Si Si4 0.251020 0.050000 0.671959
Si Si5 0.258593 0.534636 0.999084
Si Si6 0.121274 0.541929 0.637157
Si Si7 0.104480 0.544600 0.940619
Si Si8 0.753565 0.536643 0.688907
O O1 0.500292 0.250000 0.710962
O O2 0.376652 0.517870 0.498137
O O3 0.504087 0.531679 0.816355
O O4 0.610727 0.520142 0.815474
O O5 0.138596 0.250000 0.342930
O O6 0.230226 0.982126 0.545642
O O7 0.180702 0.979515 0.306256
O O8 0.017347 0.972008 0.202543
O O9 0.515469 0.750000 0.129339
O O10 0.334505 0.943827 0.851267
O O11 0.500000 0.000000 0.000000
O O12 0.291665 0.250000 0.726486
O O13 0.137205 0.045191 0.565378
O O14 0.257852 0.750000 0.000541
O O15 0.206892 0.479744 0.833059
O O16 0.176339 0.471964 0.960433
O O17 0.132288 0.750000 0.642465
O O18 0.000000 0.500000 0.500000
O O19 0.084625 0.750000 0.892433
O O20 0.182959 0.529705 0.136366
O O21 0.755917 0.750000 0.693241
#
# Coordination Sequence:
#
# PCOD9163027 Si02
#       8
#     4   4   4   4   4   4   4   4
#     4   9  18  35  57  78 107 150 190 224 277 352
#     4   9  19  36  56  80 112 151 187 222 283 361
#     4  11  21  36  57  83 115 153 194 234 281 342
#     4  11  21  36  58  86 115 149 192 234 282 343
#     4   9  18  35  57  78 107 150 190 224 277 352
#     4  11  21  36  57  83 115 153 194 234 281 342
#     4  10  20  36  58  80 106 143 188 236 284 339
#     4  10  20  36  58  80 106 143 188 236 284 339
#
# _framework density 23.045942
#
# number of rings (size 3 to 8) (size 9 to 14) (size 15 to 20)
#    0.000    2.000    1.250    3.000    0.000    4.500 
#    0.000    7.500    0.000    0.000    0.000    0.000 
#    0.000    0.000    0.000    0.000    0.000    0.000 
#
# Total GULP energy -178651.503634 kJ/mol
# GULP energy per Si atom -5582.859489 kJ/mol
# Density = 2.299349 g / cm^3
# Si number density = 23.045942 Si / 1000 Ang^3
#
#
#
# Elastic Constant Matrix: (Units=GPa)
#
#
# Indices 1 2 3 4 5 6 
#
# 1 122.9522 4.1835 10.8108 0.0000 8.4452 0.0000
# 2 4.1835 51.2668 -1.6306 0.0000 3.5290 0.0000
# 3 10.8108 -1.6306 80.9687 0.0000 6.8577 0.0000
# 4 0.0000 0.0000 0.0000 14.5107 0.0000 -6.0765
# 5 8.4452 3.5290 6.8577 0.0000 44.9621 0.0000
# 6 0.0000 0.0000 0.0000 -6.0765 0.0000 8.1582
#
#
#
# Elastic Compliance Matrix: (Units=1/GPa)
#
#
# Indices 1 2 3 4 5 6 
#
# 1 0.008337 -0.000619 -0.001010 0.000000 -0.001363 0.000000
# 2 -0.000619 0.019680 0.000608 0.000000 -0.001521 0.000000
# 3 -0.001010 0.000608 0.012649 0.000000 -0.001787 0.000000
# 4 0.000000 0.000000 0.000000 0.100153 0.000000 0.074597
# 5 -0.001363 -0.001521 -0.001787 0.000000 0.022889 0.000000
# 6 0.000000 0.000000 0.000000 0.074597 0.000000 0.178139
#
#
# Mechanical properties :
#
#
# Convention : Reuss Voigt Hill
#
# Bulk Modulus (GPa) = 25.89053 31.32391 28.60722
# Shear Modulus (GPa) = 14.01489 29.64780 21.83135
#
# Velocity S-wave (km/s) = 2.46870 3.59062 3.08116
# Velocity P-wave (km/s) = 4.40280 5.55082 5.00980
#
# Compressibility (1/GPa) = 0.03862415
#
# Stress axis : x y z
#
# Youngs Moduli (GPa) = 119.95095 50.81216 79.05805
#
# Poissons Ratio (x) = 0.03143 0.07986
# Poissons Ratio (y) = 0.07420 -0.04805
# Poissons Ratio (z) = 0.12116 -0.03088
#
# Static dielectric constant tensor:
#      x y z
#    x 1.973610 0.000000 0.105540 
#    y 0.000000 1.893070 0.000000 
#    z 0.105540 0.000000 1.909090 
# 
# From -- ./inp_files/55717.got.cif
#   From: 2010.05.17/outbox.cif.g08.bks.cpg/sg11_28_cif.got.tgz:55717.got - 2010.06.03 12:22:45.
