data_PCOD9163987
_publ_section_title
;
Structure prediction by ZEFSAII (Michael W. Deem and Ramdas Pophale) SiO2 
 PCOD9163987
Probable space group: P 21/M
;
_chemical_formula_sum "Si O2"
_cell_formula_units_Z 28
_cell_length_a 15.616140
_cell_length_b 7.598428
_cell_length_c 11.649337
_cell_angle_alpha 90.000000
_cell_angle_beta 52.836554
_cell_angle_gamma 90.000000
_cell_volume 1101.567007
_symmetry_space_group_name_H-M "P 21/M"
_symmetry_group_IT_number 11
_symmetry_cell_setting 'monoclinic'
loop_
_space_group_symop_operation_xyz
x,y,z
-x,1/2+y,-z
-x,-y,-z
x,1/2-y,z
loop_
_atom_site_type_symbol
_atom_site_label
_atom_site_fract_x
_atom_site_fract_y
_atom_site_fract_z
Si Si1 0.440945 0.048435 0.209980
Si Si2 0.094163 0.043043 0.722034
Si Si3 0.681600 0.455315 0.021605
Si Si4 0.783397 0.949021 0.177901
Si Si5 0.600940 0.460132 0.496892
Si Si6 0.793407 0.967621 0.600687
Si Si7 0.102492 0.447442 0.264624
O O1 0.444657 0.250000 0.166105
O O2 0.560929 0.973660 0.095617
O O3 0.325993 0.970343 0.265937
O O4 0.423408 0.043597 0.360996
O O5 0.116111 0.250000 0.715709
O O6 0.116354 0.968924 0.831983
O O7 0.169358 0.974960 0.556206
O O8 0.974629 0.030239 0.767503
O O9 0.682110 0.250000 0.989650
O O10 0.720374 0.464115 0.123330
O O11 0.776113 0.552424 0.879751
O O12 0.808010 0.750000 0.118855
O O13 0.698836 0.953500 0.350746
O O14 0.500000 0.500000 0.500000
O O15 0.616123 0.250000 0.496453
O O16 0.792151 0.750000 0.601778
O O17 0.881086 0.027548 0.622588
O O18 0.062687 0.250000 0.309847
#
# Coordination Sequence:
#
# PCOD9163987 Si02
#       7
#     4   4   4   4   4   4   4
#     4  10  20  38  62  89 121 158 200 249 305 359
#     4  10  21  40  66  91 119 155 199 254 314 362
#     4  11  24  40  61  88 124 165 204 246 298 366
#     4  11  22  38  63  91 122 158 198 250 308 364
#     4  12  22  33  55  89 126 161 198 245 299 360
#     4   9  19  39  65  92 120 156 198 253 313 357
#     4  11  24  41  62  86 121 164 208 253 299 359
#
# _framework density 25.418336
#
# number of rings (size 3 to 8) (size 9 to 14) (size 15 to 20)
#    0.000    1.429    2.857    3.000    0.000    2.857 
#    0.000    2.143    0.000    0.000    0.000    0.000 
#    0.000    0.000    0.000    0.000    0.000    0.000 
#
# Total GULP energy -156429.132916 kJ/mol
# GULP energy per Si atom -5586.754747 kJ/mol
# Density = 2.536048 g / cm^3
# Si number density = 25.418336 Si / 1000 Ang^3
#
#
#
# Elastic Constant Matrix: (Units=GPa)
#
#
# Indices 1 2 3 4 5 6 
#
# 1 175.3001 9.2020 19.0307 0.0000 -18.6475 0.0000
# 2 9.2020 93.6062 -2.4908 0.0000 1.0170 0.0000
# 3 19.0307 -2.4908 58.6580 0.0000 -18.4827 0.0000
# 4 0.0000 0.0000 0.0000 18.6196 0.0000 0.1718
# 5 -18.6475 1.0170 -18.4827 0.0000 35.0297 0.0000
# 6 0.0000 0.0000 0.0000 0.1718 0.0000 -0.8909
#
#
#
# Elastic Compliance Matrix: (Units=1/GPa)
#
#
# Indices 1 2 3 4 5 6 
#
# 1 0.006152 -0.000665 -0.001183 0.000000 0.002670 0.000000
# 2 -0.000665 0.010767 0.000555 0.000000 -0.000374 0.000000
# 3 -0.001183 0.000555 0.020692 0.000000 0.010272 0.000000
# 4 0.000000 0.000000 0.000000 0.053611 0.000000 0.010339
# 5 0.002670 -0.000374 0.010272 0.000000 0.035399 0.000000
# 6 0.000000 0.000000 0.000000 0.010339 0.000000 -1.120411
#
#
# Mechanical properties :
#
#
# Convention : Reuss Voigt Hill
#
# Bulk Modulus (GPa) = 28.55062 42.11646 35.33354
# Shear Modulus (GPa) = -5.10450 30.67316 12.78433
#
# Velocity S-wave (km/s) = -1.41865 3.47758 2.24510
# Velocity P-wave (km/s) = 2.92801 5.72101 4.54441
#
# Compressibility (1/GPa) = 0.03502551
#
# Stress axis : x y z
#
# Youngs Moduli (GPa) = 162.55248 92.87386 48.32810
#
# Poissons Ratio (x) = 0.06178 0.05716
# Poissons Ratio (y) = 0.10814 -0.02684
# Poissons Ratio (z) = 0.19227 -0.05157
#
# Static dielectric constant tensor:
#      x y z
#    x 2.276990 0.000000 -0.025720 
#    y 0.000000 1.982910 0.000000 
#    z -0.025720 0.000000 2.017900 
# 
# From -- ./inp_files/37834.got.cif
#   From: 2010.05.17/outbox.cif.g08.bks.cpg/sg11_19_cif.got.tgz:37834.got - 2010.06.03 12:22:45.
