data_PCOD9163074
_publ_section_title
;
Structure prediction by ZEFSAII (Michael W. Deem and Ramdas Pophale) SiO2 
 PCOD9163074
Probable space group: P 21/M
;
_chemical_formula_sum "Si O2"
_cell_formula_units_Z 28
_cell_length_a 23.730309
_cell_length_b 8.563613
_cell_length_c 20.745085
_cell_angle_alpha 90.000000
_cell_angle_beta 160.353639
_cell_angle_gamma 90.000000
_cell_volume 1417.395620
_symmetry_space_group_name_H-M "P 21/M"
_symmetry_group_IT_number 11
_symmetry_cell_setting 'monoclinic'
loop_
_space_group_symop_operation_xyz
x,y,z
-x,1/2+y,-z
-x,-y,-z
x,1/2-y,z
loop_
_atom_site_type_symbol
_atom_site_label
_atom_site_fract_x
_atom_site_fract_y
_atom_site_fract_z
Si Si1 0.050426 0.063787 0.260897
Si Si2 0.657920 0.435899 0.865482
Si Si3 0.046205 0.937973 0.979836
Si Si4 0.241877 0.562901 0.587241
Si Si5 0.603767 0.561857 0.947691
Si Si6 0.036709 0.060421 0.610694
Si Si7 0.591337 0.933232 0.660946
O O1 0.069298 0.250000 0.289353
O O2 0.170801 0.979494 0.440364
O O3 0.856184 0.024737 0.069248
O O4 0.075430 0.028600 0.211915
O O5 0.645952 0.250000 0.856961
O O6 0.598557 0.511816 0.867613
O O7 0.557004 0.491102 0.693617
O O8 0.071518 0.750000 0.008325
O O9 0.216286 0.024621 0.144837
O O10 0.000000 0.000000 0.000000
O O11 0.245559 0.750000 0.597055
O O12 0.433427 0.505426 0.798708
O O13 0.108364 0.505142 0.496283
O O14 0.605131 0.750000 0.951914
O O15 0.779655 0.507075 0.167359
O O16 0.036443 0.250000 0.610530
O O17 0.000000 0.000000 0.500000
O O18 0.562267 0.750000 0.633550
O O19 0.500000 0.000000 0.500000
#
# Coordination Sequence:
#
# PCOD9163074 Si02
#       7
#     4   4   4   4   4   4   4
#     4   9  19  35  56  81 112 149 193 243 294 352
#     4  10  20  36  58  84 114 151 196 245 300 362
#     4  10  21  37  55  81 115 155 201 249 303 363
#     4  10  21  37  60  88 116 152 198 241 290 354
#     4  10  21  38  60  88 119 154 199 244 292 354
#     4  10  22  40  61  87 121 158 195 243 297 355
#     4  11  22  37  57  81 113 155 200 251 306 361
#
# _framework density 19.754539999999999
#
# number of rings (size 3 to 8) (size 9 to 14) (size 15 to 20)
#    0.000    2.000    1.429    3.000    0.000    6.286 
#    0.000    2.857    0.000    0.000    0.000    0.000 
#    0.000    0.000    0.000    0.000    0.000    0.000 
#
# Total GULP energy -156264.013609 kJ/mol
# GULP energy per Si atom -5580.857629 kJ/mol
# Density = 1.970958 g / cm^3
# Si number density = 19.754540 Si / 1000 Ang^3
#
#
#
# Elastic Constant Matrix: (Units=GPa)
#
#
# Indices 1 2 3 4 5 6 
#
# 1 121.1499 2.4926 76.2838 0.0000 -8.8444 0.0000
# 2 2.4926 9.4535 15.2462 0.0000 4.0810 0.0000
# 3 76.2838 15.2462 119.2902 0.0000 -1.8259 0.0000
# 4 0.0000 0.0000 0.0000 23.4636 0.0000 -10.4190
# 5 -8.8444 4.0810 -1.8259 0.0000 28.3828 0.0000
# 6 0.0000 0.0000 0.0000 -10.4190 0.0000 31.0431
#
#
#
# Elastic Compliance Matrix: (Units=1/GPa)
#
#
# Indices 1 2 3 4 5 6 
#
# 1 0.015414 0.013705 -0.011577 0.000000 0.002088 0.000000
# 2 0.013705 0.158203 -0.029295 0.000000 -0.020361 0.000000
# 3 -0.011577 -0.029295 0.019559 0.000000 0.001863 0.000000
# 4 0.000000 0.000000 0.000000 0.050084 0.000000 0.016810
# 5 0.002088 -0.020361 0.001863 0.000000 0.038931 0.000000
# 6 0.000000 0.000000 0.000000 0.016810 0.000000 0.037855
#
#
# Mechanical properties :
#
#
# Convention : Reuss Voigt Hill
#
# Bulk Modulus (GPa) = 7.20244 48.65987 27.93116
# Shear Modulus (GPa) = 11.88608 26.96929 19.42769
#
# Velocity S-wave (km/s) = 2.45560 3.69890 3.13941
# Velocity P-wave (km/s) = 3.41962 6.55196 5.22599
#
# Compressibility (1/GPa) = 0.13884176
#
# Stress axis : x y z
#
# Youngs Moduli (GPa) = 64.87571 6.32098 51.12834
#
# Poissons Ratio (x) = -0.08663 0.59189
# Poissons Ratio (y) = -0.88910 1.49781
# Poissons Ratio (z) = 0.75104 0.18517
#
# Static dielectric constant tensor:
#      x y z
#    x 1.698310 0.000000 0.014990 
#    y 0.000000 1.664450 0.000000 
#    z 0.014990 0.000000 1.713070 
# 
# From -- ./inp_files/66763.got.cif
#   From: 2010.05.17/outbox.cif.g08.bks.cpg/sg11_34_cif.got.tgz:66763.got - 2010.06.03 12:22:45.
