data_PCOD9163139
_publ_section_title
;
Structure prediction by ZEFSAII (Michael W. Deem and Ramdas Pophale) SiO2 
 PCOD9163139
Probable space group: P 21/M
;
_chemical_formula_sum "Si O2"
_cell_formula_units_Z 32
_cell_length_a 26.306884
_cell_length_b 10.328916
_cell_length_c 16.277491
_cell_angle_alpha 90.000000
_cell_angle_beta 19.649159
_cell_angle_gamma 90.000000
_cell_volume 1487.258516
_symmetry_space_group_name_H-M "P 21/M"
_symmetry_group_IT_number 11
_symmetry_cell_setting 'monoclinic'
loop_
_space_group_symop_operation_xyz
x,y,z
-x,1/2+y,-z
-x,-y,-z
x,1/2-y,z
loop_
_atom_site_type_symbol
_atom_site_label
_atom_site_fract_x
_atom_site_fract_y
_atom_site_fract_z
Si Si1 0.013698 0.107027 0.352812
Si Si2 0.116905 0.100620 0.570577
Si Si3 0.121011 0.600428 0.851280
Si Si4 0.582737 0.893602 0.994498
Si Si5 0.752631 0.396348 0.512712
Si Si6 0.284003 0.890638 0.094773
Si Si7 0.665348 0.517453 0.142869
Si Si8 0.669909 0.098162 0.316297
O O1 0.981458 0.250000 0.365156
O O2 0.893126 0.094470 0.610744
O O3 0.982481 0.986072 0.340193
O O4 0.191028 0.103361 0.102466
O O5 0.066552 0.250000 0.660210
O O6 0.144376 0.010351 0.607846
O O7 0.280253 0.106298 0.278167
O O8 0.064788 0.750000 0.943907
O O9 0.244114 0.601534 0.590807
O O10 0.202364 0.561848 0.811878
O O11 0.000000 0.500000 0.000000
O O12 0.576871 0.750000 0.041245
O O13 0.421276 0.915435 0.198220
O O14 0.623211 0.999962 0.999857
O O15 0.800621 0.250000 0.464617
O O16 0.330898 0.750000 0.054823
O O17 0.316416 0.900992 0.949218
O O18 0.497620 0.575195 0.392057
O O19 0.682439 0.478784 0.212134
O O20 0.686009 0.250000 0.274437
#
# Coordination Sequence:
#
# PCOD9163139 Si02
#       8
#     4   4   4   4   4   4   4   4
#     4  10  22  39  60  89 127 168 205 249 309 373
#     4  10  21  35  56  89 124 161 203 249 304 366
#     4  10  23  43  64  88 117 156 203 256 312 366
#     4   9  19  36  58  86 122 162 205 249 299 368
#     4  10  20  36  59  84 115 157 205 257 310 366
#     4  10  21  37  59  91 130 166 202 252 310 368
#     4  11  22  39  65  94 124 164 214 257 309 374
#     4  10  23  43  65  91 124 164 209 261 319 370
#
# _framework density 21.516099000000001
#
# number of rings (size 3 to 8) (size 9 to 14) (size 15 to 20)
#    0.000    2.000    0.000    2.625    1.750    4.500 
#    0.000    6.875    0.000    0.000    0.000    0.000 
#    0.000    0.000    0.000    0.000    0.000    0.000 
#
# Total GULP energy -178563.228113 kJ/mol
# GULP energy per Si atom -5580.100879 kJ/mol
# Density = 2.146713 g / cm^3
# Si number density = 21.516099 Si / 1000 Ang^3
#
#
#
# Elastic Constant Matrix: (Units=GPa)
#
#
# Indices 1 2 3 4 5 6 
#
# 1 78.3766 43.2407 10.5866 0.0000 -5.2828 0.0000
# 2 43.2407 142.7666 26.8182 0.0000 -17.7508 0.0000
# 3 10.5866 26.8182 91.2910 0.0000 -6.6670 0.0000
# 4 0.0000 0.0000 0.0000 -18.5439 0.0000 8.1601
# 5 -5.2828 -17.7508 -6.6670 0.0000 28.6218 0.0000
# 6 0.0000 0.0000 0.0000 8.1601 0.0000 24.6885
#
#
#
# Elastic Compliance Matrix: (Units=1/GPa)
#
#
# Indices 1 2 3 4 5 6 
#
# 1 0.015335 -0.004575 -0.000442 0.000000 -0.000110 0.000000
# 2 -0.004575 0.009300 -0.001874 0.000000 0.004487 0.000000
# 3 -0.000442 -0.001874 0.011663 0.000000 0.001473 0.000000
# 4 0.000000 0.000000 0.000000 -0.047079 0.000000 0.015561
# 5 -0.000110 0.004487 0.001473 0.000000 0.038044 0.000000
# 6 0.000000 0.000000 0.000000 0.015561 0.000000 0.035362
#
#
# Mechanical properties :
#
#
# Convention : Reuss Voigt Hill
#
# Bulk Modulus (GPa) = 44.41309 52.63612 48.52461
# Shear Modulus (GPa) = 59.58510 22.40588 40.99549
#
# Velocity S-wave (km/s) = 5.26815 3.23050 4.36976
# Velocity P-wave (km/s) = 7.59547 6.19932 6.93263
#
# Compressibility (1/GPa) = 0.02251588
#
# Stress axis : x y z
#
# Youngs Moduli (GPa) = 65.20823 107.52627 85.73897
#
# Poissons Ratio (x) = 0.49197 0.03793
# Poissons Ratio (y) = 0.29835 0.16066
# Poissons Ratio (z) = 0.02884 0.20148
#
# Static dielectric constant tensor:
#      x y z
#    x 1.788150 0.000000 0.018450 
#    y 0.000000 1.792970 0.000000 
#    z 0.018450 0.000000 1.797790 
# 
# From -- ./inp_files/62187.got.cif
#   From: 2010.05.17/outbox.cif.g08.bks.cpg/sg11_32_cif.got.tgz:62187.got - 2010.06.03 12:22:45.
