data_PCOD9163283
_publ_section_title
;
Structure prediction by ZEFSAII (Michael W. Deem and Ramdas Pophale) SiO2 
 PCOD9163283
Probable space group: P 21/M
;
_chemical_formula_sum "Si O2"
_cell_formula_units_Z 32
_cell_length_a 15.648337
_cell_length_b 8.270901
_cell_length_c 27.335822
_cell_angle_alpha 90.000000
_cell_angle_beta 154.191551
_cell_angle_gamma 90.000000
_cell_volume 1540.300740
_symmetry_space_group_name_H-M "P 21/M"
_symmetry_group_IT_number 11
_symmetry_cell_setting 'monoclinic'
loop_
_space_group_symop_operation_xyz
x,y,z
-x,1/2+y,-z
-x,-y,-z
x,1/2-y,z
loop_
_atom_site_type_symbol
_atom_site_label
_atom_site_fract_x
_atom_site_fract_y
_atom_site_fract_z
Si Si1 0.776360 0.944764 0.380366
Si Si2 0.571945 0.561450 0.089471
Si Si3 0.995372 0.939309 0.672434
Si Si4 0.941397 0.444639 0.023452
Si Si5 0.257194 0.442615 0.266616
Si Si6 0.530272 0.448512 0.857307
Si Si7 0.723340 0.438939 0.617224
Si Si8 0.340047 0.445719 0.572906
O O1 0.775976 0.750000 0.379391
O O2 0.658616 0.001148 0.271762
O O3 0.665340 0.994284 0.373128
O O4 0.000000 0.000000 0.500000
O O5 0.527688 0.750000 0.066540
O O6 0.475642 0.492976 0.089697
O O7 0.803704 0.533194 0.215944
O O8 0.500000 0.500000 0.000000
O O9 0.041926 0.750000 0.690734
O O10 0.863690 0.992957 0.558408
O O11 0.856380 0.964809 0.647684
O O12 0.937772 0.250000 0.021664
O O13 0.106203 0.496050 0.147090
O O14 0.727405 0.499677 0.931054
O O15 0.000000 0.500000 0.000000
O O16 0.239427 0.250000 0.265094
O O17 0.211595 0.530316 0.293800
O O18 0.476532 0.481753 0.361437
O O19 0.527674 0.250000 0.856786
O O20 0.500000 0.500000 0.500000
O O21 0.731027 0.250000 0.608749
O O22 0.354154 0.250000 0.577021
#
# Coordination Sequence:
#
# PCOD9163283 Si02
#       8
#     4   4   4   4   4   4   4   4
#     4  10  20  36  60  88 116 153 197 244 304 370
#     4  11  24  42  64  90 120 165 216 266 320 376
#     4  11  23  40  62  89 125 164 204 259 316 370
#     4  10  22  41  64  92 124 165 209 256 312 373
#     4  11  23  37  60  91 123 160 206 253 310 372
#     4   9  20  40  63  86 121 164 204 250 312 373
#     4  12  24  40  62  92 127 165 208 256 312 376
#     4  10  21  37  60  88 121 159 198 245 309 375
#
# _framework density 20.775162999999999
#
# number of rings (size 3 to 8) (size 9 to 14) (size 15 to 20)
#    0.000    1.500    1.250    3.750    1.750    3.000 
#    0.000    2.500    0.000    0.000    0.000    0.000 
#    0.000    0.000    0.000    0.000    0.000    0.000 
#
# Total GULP energy -178908.114782 kJ/mol
# GULP energy per Si atom -5590.878587 kJ/mol
# Density = 2.072788 g / cm^3
# Si number density = 20.775163 Si / 1000 Ang^3
#
#
#
# Elastic Constant Matrix: (Units=GPa)
#
#
# Indices 1 2 3 4 5 6 
#
# 1 120.3340 -1.0276 47.2027 0.0000 -18.0994 0.0000
# 2 -1.0276 16.0257 10.5249 0.0000 -10.3758 0.0000
# 3 47.2027 10.5249 131.8958 0.0000 -22.7786 0.0000
# 4 0.0000 0.0000 0.0000 28.3334 0.0000 0.2482
# 5 -18.0994 -10.3758 -22.7786 0.0000 40.6015 0.0000
# 6 0.0000 0.0000 0.0000 0.2482 0.0000 24.9760
#
#
#
# Elastic Compliance Matrix: (Units=1/GPa)
#
#
# Indices 1 2 3 4 5 6 
#
# 1 0.010320 0.005568 -0.003430 0.000000 0.004099 0.000000
# 2 0.005568 0.078829 -0.004845 0.000000 0.019909 0.000000
# 3 -0.003430 -0.004845 0.009653 0.000000 0.002649 0.000000
# 4 0.000000 0.000000 0.000000 0.035297 0.000000 -0.000351
# 5 0.004099 0.019909 0.002649 0.000000 0.033031 0.000000
# 6 0.000000 0.000000 0.000000 -0.000351 0.000000 0.040042
#
#
# Mechanical properties :
#
#
# Convention : Reuss Voigt Hill
#
# Bulk Modulus (GPa) = 10.70790 42.40617 26.55703
# Shear Modulus (GPa) = 20.51592 32.88588 26.70090
#
# Velocity S-wave (km/s) = 3.14590 3.98294 3.58890
# Velocity P-wave (km/s) = 4.28496 6.45042 5.47581
#
# Compressibility (1/GPa) = 0.09338900
#
# Stress axis : x y z
#
# Youngs Moduli (GPa) = 96.90305 12.68576 103.59321
#
# Poissons Ratio (x) = -0.07063 0.35528
# Poissons Ratio (y) = -0.53956 0.50187
# Poissons Ratio (z) = 0.33233 0.06146
#
# Static dielectric constant tensor:
#      x y z
#    x 1.732000 0.000000 -0.021600 
#    y 0.000000 1.731920 0.000000 
#    z -0.021600 0.000000 1.737840 
# 
# From -- ./inp_files/69132.got.cif
#   From: 2010.05.17/outbox.cif.g08.bks.cpg/sg11_35_cif.got.tgz:69132.got - 2010.06.03 12:22:45.
