data_PCOD9163461
_publ_section_title
;
Structure prediction by ZEFSAII (Michael W. Deem and Ramdas Pophale) SiO2 
 PCOD9163461
Probable space group: P 21/M
;
_chemical_formula_sum "Si O2"
_cell_formula_units_Z 32
_cell_length_a 16.416289
_cell_length_b 9.036346
_cell_length_c 24.866382
_cell_angle_alpha 90.000000
_cell_angle_beta 151.067585
_cell_angle_gamma 90.000000
_cell_volume 1784.539627
_symmetry_space_group_name_H-M "P 21/M"
_symmetry_group_IT_number 11
_symmetry_cell_setting 'monoclinic'
loop_
_space_group_symop_operation_xyz
x,y,z
-x,1/2+y,-z
-x,-y,-z
x,1/2-y,z
loop_
_atom_site_type_symbol
_atom_site_label
_atom_site_fract_x
_atom_site_fract_y
_atom_site_fract_z
Si Si1 0.925512 0.927443 0.637527
Si Si2 0.353705 0.572114 0.597000
Si Si3 0.736955 0.572338 0.842001
Si Si4 0.421349 0.084161 0.004374
Si Si5 0.819578 0.923634 0.401117
Si Si6 0.918170 0.071537 0.158877
Si Si7 0.048302 0.571992 0.944853
Si Si8 0.764748 0.416595 0.265765
O O1 0.898855 0.750000 0.621293
O O2 0.969072 0.972732 0.724097
O O3 0.090387 0.953924 0.694561
O O4 0.763439 0.006384 0.518018
O O5 0.340076 0.750000 0.588641
O O6 0.551932 0.532016 0.713266
O O7 0.278258 0.505486 0.608152
O O8 0.739187 0.750000 0.850466
O O9 0.880218 0.532487 0.881159
O O10 0.795991 0.499004 0.932274
O O11 0.365246 0.250000 0.957459
O O12 0.580343 0.094919 0.134952
O O13 0.500000 0.000000 0.000000
O O14 0.265618 0.994775 0.937515
O O15 0.827585 0.750000 0.416554
O O16 0.747518 0.960623 0.301249
O O17 0.000000 0.000000 0.500000
O O18 0.910768 0.250000 0.156306
O O19 0.969477 0.027658 0.127895
O O20 0.067027 0.750000 0.957326
O O21 0.808347 0.250000 0.311981
#
# Coordination Sequence:
#
# PCOD9163461 Si02
#       8
#     4   4   4   4   4   4   4   4
#     4  10  20  37  57  77 111 152 190 231 276 328
#     4  11  23  38  57  82 114 149 189 232 281 336
#     4   9  20  39  61  86 116 146 179 230 288 337
#     4  11  22  36  55  79 112 150 190 231 276 328
#     4  12  24  37  55  79 109 146 190 232 277 330
#     4  10  21  38  58  84 114 147 190 235 282 334
#     4   9  19  38  64  88 112 145 184 228 283 343
#     4  10  21  37  53  74 110 151 187 229 278 327
#
# _framework density 17.931795999999999
#
# number of rings (size 3 to 8) (size 9 to 14) (size 15 to 20)
#    0.000    1.750    2.500    1.875    1.750    3.000 
#    0.000    0.625    0.000    0.000    0.000    0.000 
#    0.000    0.000    0.000    0.000    0.000    0.000 
#
# Total GULP energy -178431.637875 kJ/mol
# GULP energy per Si atom -5575.988684 kJ/mol
# Density = 1.789098 g / cm^3
# Si number density = 17.931796 Si / 1000 Ang^3
#
#
#
# Elastic Constant Matrix: (Units=GPa)
#
#
# Indices 1 2 3 4 5 6 
#
# 1 108.0027 32.9205 66.1112 0.0000 -15.6537 0.0000
# 2 32.9205 34.8938 45.5892 0.0000 -7.1238 0.0000
# 3 66.1112 45.5892 146.9318 0.0000 -8.1975 0.0000
# 4 0.0000 0.0000 0.0000 33.3128 0.0000 -3.9000
# 5 -15.6537 -7.1238 -8.1975 0.0000 27.7514 0.0000
# 6 0.0000 0.0000 0.0000 -3.9000 0.0000 18.4573
#
#
#
# Elastic Compliance Matrix: (Units=1/GPa)
#
#
# Indices 1 2 3 4 5 6 
#
# 1 0.014793 -0.007700 -0.003977 0.000000 0.005193 0.000000
# 2 -0.007700 0.054058 -0.012990 0.000000 0.005696 0.000000
# 3 -0.003977 -0.012990 0.012521 0.000000 -0.001879 0.000000
# 4 0.000000 0.000000 0.000000 0.030780 0.000000 0.006504
# 5 0.005193 0.005696 -0.001879 0.000000 0.039870 0.000000
# 6 0.000000 0.000000 0.000000 0.006504 0.000000 0.055553
#
#
# Mechanical properties :
#
#
# Convention : Reuss Voigt Hill
#
# Bulk Modulus (GPa) = 31.21405 64.34114 47.77759
# Shear Modulus (GPa) = 18.68519 25.58478 22.13499
#
# Velocity S-wave (km/s) = 3.23153 3.78138 3.51721
# Velocity P-wave (km/s) = 5.60077 7.41782 6.57239
#
# Compressibility (1/GPa) = 0.03203686
#
# Stress axis : x y z
#
# Youngs Moduli (GPa) = 67.59748 18.49858 79.86467
#
# Poissons Ratio (x) = 0.14244 0.31765
# Poissons Ratio (y) = 0.52052 1.03747
# Poissons Ratio (z) = 0.26886 0.24030
#
# Static dielectric constant tensor:
#      x y z
#    x 1.611030 0.000000 -0.029830 
#    y 0.000000 1.672490 0.000000 
#    z -0.029830 0.000000 1.633400 
# 
# From -- ./inp_files/69107.got.cif
#   From: 2010.05.17/outbox.cif.g08.bks.cpg/sg11_35_cif.got.tgz:69107.got - 2010.06.03 12:22:45.
