data_PCOD9163037
_publ_section_title
;
Structure prediction by ZEFSAII (Michael W. Deem and Ramdas Pophale) SiO2 
 PCOD9163037
Probable space group: P 21/M
;
_chemical_formula_sum "Si O2"
_cell_formula_units_Z 28
_cell_length_a 5.272070
_cell_length_b 9.456285
_cell_length_c 26.080693
_cell_angle_alpha 90.000000
_cell_angle_beta 71.499376
_cell_angle_gamma 90.000000
_cell_volume 1233.036263
_symmetry_space_group_name_H-M "P 21/M"
_symmetry_group_IT_number 11
_symmetry_cell_setting 'monoclinic'
loop_
_space_group_symop_operation_xyz
x,y,z
-x,1/2+y,-z
-x,-y,-z
x,1/2-y,z
loop_
_atom_site_type_symbol
_atom_site_label
_atom_site_fract_x
_atom_site_fract_y
_atom_site_fract_z
Si Si1 0.528611 0.401149 0.286805
Si Si2 0.136841 0.902743 0.343208
Si Si3 0.234645 0.908727 0.459372
Si Si4 0.426256 0.083787 0.851029
Si Si5 0.718825 0.583704 0.019789
Si Si6 0.342229 0.904102 0.606924
Si Si7 0.981693 0.583932 0.814105
O O1 0.427626 0.250000 0.270941
O O2 0.371655 0.547117 0.290291
O O3 0.498923 0.388726 0.350028
O O4 0.830945 0.413962 0.248510
O O5 0.029250 0.750000 0.334020
O O6 0.195971 0.892112 0.400321
O O7 0.922345 0.024376 0.356364
O O8 0.247162 0.750000 0.479077
O O9 0.509448 0.995996 0.442492
O O10 0.000000 0.000000 0.500000
O O11 0.439716 0.250000 0.834285
O O12 0.378063 0.083167 0.915191
O O13 0.176669 0.001243 0.840807
O O14 0.701914 0.996787 0.824547
O O15 0.745945 0.750000 0.002264
O O16 0.500000 0.500000 0.000000
O O17 0.000000 0.500000 0.000000
O O18 0.296206 0.750000 0.588456
O O19 0.940773 0.750000 0.831498
#
# Coordination Sequence:
#
# PCOD9163037 Si02
#       7
#     4   4   4   4   4   4   4
#     4   9  21  39  58  82 113 151 196 244 296 355
#     4  10  21  36  56  83 111 142 186 238 290 355
#     4  10  21  37  55  78 109 142 183 233 288 352
#     4  11  25  44  64  96 137 174 216 272 332 389
#     4  11  24  42  67  97 132 173 221 273 328 389
#     4  10  20  36  58  81 109 146 187 236 291 353
#     4  11  24  42  66  95 130 174 222 272 323 388
#
# _framework density 22.708169999999999
#
# number of rings (size 3 to 8) (size 9 to 14) (size 15 to 20)
#    0.000    1.714    0.000    3.429    2.000    9.714 
#    0.000    0.000    0.000    0.000    0.000    0.000 
#    0.000    0.000    0.000    0.000    0.000    0.000 
#
# Total GULP energy -156227.732463 kJ/mol
# GULP energy per Si atom -5579.561874 kJ/mol
# Density = 2.265648 g / cm^3
# Si number density = 22.708170 Si / 1000 Ang^3
#
#
#
# Elastic Constant Matrix: (Units=GPa)
#
#
# Indices 1 2 3 4 5 6 
#
# 1 88.8622 63.5996 13.1639 0.0000 -3.6589 0.0000
# 2 63.5996 215.7560 45.5898 0.0000 -11.0298 0.0000
# 3 13.1639 45.5898 79.2577 0.0000 -3.2964 0.0000
# 4 0.0000 0.0000 0.0000 24.3060 0.0000 -13.9584
# 5 -3.6589 -11.0298 -3.2964 0.0000 42.4299 0.0000
# 6 0.0000 0.0000 0.0000 -13.9584 0.0000 27.7928
#
#
#
# Elastic Compliance Matrix: (Units=1/GPa)
#
#
# Indices 1 2 3 4 5 6 
#
# 1 0.014263 -0.004210 0.000058 0.000000 0.000140 0.000000
# 2 -0.004210 0.006574 -0.003036 0.000000 0.001110 0.000000
# 3 0.000058 -0.003036 0.014368 0.000000 0.000332 0.000000
# 4 0.000000 0.000000 0.000000 0.057818 0.000000 0.029038
# 5 0.000140 0.001110 0.000332 0.000000 0.023895 0.000000
# 6 0.000000 0.000000 0.000000 0.029038 0.000000 0.050564
#
#
# Mechanical properties :
#
#
# Convention : Reuss Voigt Hill
#
# Bulk Modulus (GPa) = 48.00757 69.84251 58.92504
# Shear Modulus (GPa) = 26.48295 36.34057 31.41176
#
# Velocity S-wave (km/s) = 3.41872 4.00475 3.72328
# Velocity P-wave (km/s) = 6.06387 7.22547 6.67000
#
# Compressibility (1/GPa) = 0.02083005
#
# Stress axis : x y z
#
# Youngs Moduli (GPa) = 70.10945 152.11317 69.60104
#
# Poissons Ratio (x) = 0.64034 -0.00405
# Poissons Ratio (y) = 0.29514 0.21132
# Poissons Ratio (z) = -0.00408 0.46183
#
# Static dielectric constant tensor:
#      x y z
#    x 1.942340 0.000000 0.057530 
#    y 0.000000 1.929450 0.000000 
#    z 0.057530 0.000000 1.842100 
# 
# From -- ./inp_files/72540.got.cif
#   From: 2010.05.17/outbox.cif.g08.bks.cpg/sg11_37_cif.got.tgz:72540.got - 2010.06.03 12:22:45.
