data_PCOD9163574
_publ_section_title
;
Structure prediction by ZEFSAII (Michael W. Deem and Ramdas Pophale) SiO2 
 PCOD9163574
Probable space group: P 21/M
;
_chemical_formula_sum "Si O2"
_cell_formula_units_Z 28
_cell_length_a 19.583541
_cell_length_b 7.707172
_cell_length_c 14.095862
_cell_angle_alpha 90.000000
_cell_angle_beta 36.448473
_cell_angle_gamma 90.000000
_cell_volume 1263.971235
_symmetry_space_group_name_H-M "P 21/M"
_symmetry_group_IT_number 11
_symmetry_cell_setting 'monoclinic'
loop_
_space_group_symop_operation_xyz
x,y,z
-x,1/2+y,-z
-x,-y,-z
x,1/2-y,z
loop_
_atom_site_type_symbol
_atom_site_label
_atom_site_fract_x
_atom_site_fract_y
_atom_site_fract_z
Si Si1 0.616792 0.040359 0.928841
Si Si2 0.932735 0.542588 0.172104
Si Si3 0.672327 0.049673 0.453623
Si Si4 0.470103 0.549915 0.775345
Si Si5 0.128682 0.958869 0.317549
Si Si6 0.662637 0.038326 0.254958
Si Si7 0.883316 0.038914 0.887004
O O1 0.621163 0.250000 0.922613
O O2 0.751488 0.983083 0.763363
O O3 0.584167 0.972938 0.070542
O O4 0.500000 0.000000 0.000000
O O5 0.921621 0.750000 0.188811
O O6 0.808118 0.461697 0.309116
O O7 0.001238 0.483830 0.188987
O O8 0.000000 0.500000 0.000000
O O9 0.638684 0.250000 0.495376
O O10 0.645134 0.970598 0.380164
O O11 0.606564 0.959279 0.613419
O O12 0.432085 0.750000 0.818449
O O13 0.427219 0.477733 0.723191
O O14 0.134617 0.750000 0.309869
O O15 0.133536 0.020542 0.201985
O O16 0.000000 0.000000 0.500000
O O17 0.660856 0.250000 0.265372
O O18 0.782878 0.989238 0.072303
O O19 0.881849 0.250000 0.885161
#
# Coordination Sequence:
#
# PCOD9163574 Si02
#       7
#     4   4   4   4   4   4   4
#     4  10  22  40  64  89 117 155 198 245 303 363
#     4  11  21  35  56  82 114 153 194 234 281 338
#     4  11  22  35  54  84 121 154 189 235 285 336
#     4  10  20  37  60  83 110 149 197 238 281 343
#     4  10  21  40  65  90 115 150 196 248 300 356
#     4   9  16  32  58  82 107 145 191 231 271 331
#     4   9  17  34  60  82 106 147 190 228 278 339
#
# _framework density 22.152401000000001
#
# number of rings (size 3 to 8) (size 9 to 14) (size 15 to 20)
#    0.000    2.000    2.857    1.286    0.000    2.286 
#    0.000    6.429    0.000    0.000    0.000    0.000 
#    0.000    0.000    0.000    0.000    0.000    0.000 
#
# Total GULP energy -156101.162448 kJ/mol
# GULP energy per Si atom -5575.041516 kJ/mol
# Density = 2.210198 g / cm^3
# Si number density = 22.152401 Si / 1000 Ang^3
#
#
#
# Elastic Constant Matrix: (Units=GPa)
#
#
# Indices 1 2 3 4 5 6 
#
# 1 118.1068 9.9691 52.8621 0.0000 -25.1806 0.0000
# 2 9.9691 49.5758 0.8660 0.0000 -3.1256 0.0000
# 3 52.8621 0.8660 133.6450 0.0000 -18.4330 0.0000
# 4 0.0000 0.0000 0.0000 26.0409 0.0000 -5.3828
# 5 -25.1806 -3.1256 -18.4330 0.0000 28.6467 0.0000
# 6 0.0000 0.0000 0.0000 -5.3828 0.0000 20.2321
#
#
#
# Elastic Compliance Matrix: (Units=1/GPa)
#
#
# Indices 1 2 3 4 5 6 
#
# 1 0.011937 -0.001835 -0.003610 0.000000 0.007969 0.000000
# 2 -0.001835 0.020597 0.000746 0.000000 0.001114 0.000000
# 3 -0.003610 0.000746 0.009305 0.000000 0.002895 0.000000
# 4 0.000000 0.000000 0.000000 0.040636 0.000000 0.010811
# 5 0.007969 0.001114 0.002895 0.000000 0.043897 0.000000
# 6 0.000000 0.000000 0.000000 0.010811 0.000000 0.052303
#
#
# Mechanical properties :
#
#
# Convention : Reuss Voigt Hill
#
# Bulk Modulus (GPa) = 30.82559 47.63578 39.23069
# Shear Modulus (GPa) = 25.13984 30.82596 27.98290
#
# Velocity S-wave (km/s) = 3.37242 3.73438 3.55801
# Velocity P-wave (km/s) = 5.39534 6.33597 5.88448
#
# Compressibility (1/GPa) = 0.03244058
#
# Stress axis : x y z
#
# Youngs Moduli (GPa) = 83.77468 48.54997 107.46808
#
# Poissons Ratio (x) = 0.08908 0.38801
# Poissons Ratio (y) = 0.15371 -0.08017
# Poissons Ratio (z) = 0.30247 -0.03622
#
# Static dielectric constant tensor:
#      x y z
#    x 1.870180 0.000000 -0.065850 
#    y 0.000000 1.888910 0.000000 
#    z -0.065850 0.000000 1.866680 
# 
# From -- ./inp_files/53182.got.cif
#   From: 2010.05.17/outbox.cif.g08.bks.cpg/sg11_27_cif.got.tgz:53182.got - 2010.06.03 12:22:45.
