data_PCOD9163215
_publ_section_title
;
Structure prediction by ZEFSAII (Michael W. Deem and Ramdas Pophale) SiO2 
 PCOD9163215
Probable space group: P 21/M
;
_chemical_formula_sum "Si O2"
_cell_formula_units_Z 28
_cell_length_a 17.534417
_cell_length_b 9.008829
_cell_length_c 9.835162
_cell_angle_alpha 90.000000
_cell_angle_beta 82.651054
_cell_angle_gamma 90.000000
_cell_volume 1540.845027
_symmetry_space_group_name_H-M "P 21/M"
_symmetry_group_IT_number 11
_symmetry_cell_setting 'monoclinic'
loop_
_space_group_symop_operation_xyz
x,y,z
-x,1/2+y,-z
-x,-y,-z
x,1/2-y,z
loop_
_atom_site_type_symbol
_atom_site_label
_atom_site_fract_x
_atom_site_fract_y
_atom_site_fract_z
Si Si1 0.951748 0.921384 0.628838
Si Si2 0.192570 0.926363 0.425339
Si Si3 0.197411 0.427400 0.719906
Si Si4 0.947058 0.078065 0.122492
Si Si5 0.503427 0.927159 0.850696
Si Si6 0.371585 0.573853 0.369354
Si Si7 0.360724 0.928164 0.686558
O O1 0.937144 0.750000 0.596423
O O2 0.003467 0.926029 0.750573
O O3 0.870930 0.006227 0.659585
O O4 0.000000 0.000000 0.500000
O O5 0.181115 0.750000 0.445111
O O6 0.280910 0.951186 0.363193
O O7 0.181506 0.005496 0.573446
O O8 0.195341 0.250000 0.716840
O O9 0.132204 0.492054 0.833115
O O10 0.282129 0.486895 0.737344
O O11 0.931725 0.250000 0.091843
O O12 0.000000 0.000000 0.000000
O O13 0.508132 0.750000 0.863782
O O14 0.427449 0.961458 0.778476
O O15 0.574851 0.986459 0.746087
O O16 0.500000 0.000000 0.000000
O O17 0.386666 0.750000 0.352432
O O18 0.384533 0.533149 0.525515
O O19 0.345864 0.750000 0.689545
#
# Coordination Sequence:
#
# PCOD9163215 Si02
#       7
#     4   4   4   4   4   4   4
#     4  11  22  36  60  88 117 154 197 243 291 344
#     4  10  20  36  59  88 120 153 193 241 291 342
#     4  11  21  35  60  89 117 151 194 242 293 344
#     4  11  24  41  59  83 118 158 199 242 292 348
#     4  11  23  39  60  86 119 156 191 232 287 345
#     4   9  19  37  61  87 116 149 191 239 287 340
#     4   9  20  39  62  87 115 151 192 238 290 343
#
# _framework density 18.171845999999999
#
# number of rings (size 3 to 8) (size 9 to 14) (size 15 to 20)
#    0.000    1.714    1.429    4.286    0.000    5.714 
#    2.571    0.000    0.000    0.000    0.000    0.000 
#    0.000    0.000    0.000    0.000    0.000    0.000 
#
# Total GULP energy -156411.116894 kJ/mol
# GULP energy per Si atom -5586.111318 kJ/mol
# Density = 1.813049 g / cm^3
# Si number density = 18.171846 Si / 1000 Ang^3
#
#
#
# Elastic Constant Matrix: (Units=GPa)
#
#
# Indices 1 2 3 4 5 6 
#
# 1 120.6335 79.8746 67.0313 0.0000 -15.9345 0.0000
# 2 79.8746 122.2771 64.7051 0.0000 -16.3864 0.0000
# 3 67.0313 64.7051 97.2396 0.0000 -22.6933 0.0000
# 4 0.0000 0.0000 0.0000 30.5389 0.0000 -4.0260
# 5 -15.9345 -16.3864 -22.6933 0.0000 28.1307 0.0000
# 6 0.0000 0.0000 0.0000 -4.0260 0.0000 37.0052
#
#
#
# Elastic Compliance Matrix: (Units=1/GPa)
#
#
# Indices 1 2 3 4 5 6 
#
# 1 0.017030 -0.007586 -0.006741 0.000000 -0.000210 0.000000
# 2 -0.007586 0.016013 -0.005239 0.000000 0.000805 0.000000
# 3 -0.006741 -0.005239 0.020713 0.000000 0.009839 0.000000
# 4 0.000000 0.000000 0.000000 0.033222 0.000000 0.003614
# 5 -0.000210 0.000805 0.009839 0.000000 0.043836 0.000000
# 6 0.000000 0.000000 0.000000 0.003614 0.000000 0.027416
#
#
# Mechanical properties :
#
#
# Convention : Reuss Voigt Hill
#
# Bulk Modulus (GPa) = 68.37209 84.81913 76.59561
# Shear Modulus (GPa) = 24.72364 27.70424 26.21394
#
# Velocity S-wave (km/s) = 3.69256 3.90881 3.80222
# Velocity P-wave (km/s) = 7.47576 8.19446 7.84335
#
# Compressibility (1/GPa) = 0.01462585
#
# Stress axis : x y z
#
# Youngs Moduli (GPa) = 58.71943 62.44851 48.27928
#
# Poissons Ratio (x) = 0.47371 0.32545
# Poissons Ratio (y) = 0.44542 0.25291
# Poissons Ratio (z) = 0.39583 0.32714
#
# Static dielectric constant tensor:
#      x y z
#    x 1.626050 0.000000 0.014310 
#    y 0.000000 1.613010 0.000000 
#    z 0.014310 0.000000 1.617820 
# 
# From -- ./inp_files/23986.got.cif
#   From: 2010.05.17/outbox.cif.g08.bks.cpg/sg11_12_cif.got.tgz:23986.got - 2010.06.03 12:22:45.
