data_PCOD9163546
_publ_section_title
;
Structure prediction by ZEFSAII (Michael W. Deem and Ramdas Pophale) SiO2 
 PCOD9163546
Probable space group: P 21/M
;
_chemical_formula_sum "Si O2"
_cell_formula_units_Z 20
_cell_length_a 10.976689
_cell_length_b 11.235972
_cell_length_c 14.995433
_cell_angle_alpha 90.000000
_cell_angle_beta 148.298413
_cell_angle_gamma 90.000000
_cell_volume 971.873602
_symmetry_space_group_name_H-M "P 21/M"
_symmetry_group_IT_number 11
_symmetry_cell_setting 'monoclinic'
loop_
_space_group_symop_operation_xyz
x,y,z
-x,1/2+y,-z
-x,-y,-z
x,1/2-y,z
loop_
_atom_site_type_symbol
_atom_site_label
_atom_site_fract_x
_atom_site_fract_y
_atom_site_fract_z
Si Si1 0.585067 0.619859 0.098918
Si Si2 0.732498 0.113462 0.928811
Si Si3 0.530575 0.040308 0.374734
Si Si4 0.055523 0.619412 0.479199
Si Si5 0.191541 0.384918 0.313704
O O1 0.514615 0.750000 0.016179
O O2 0.477530 0.616568 0.131301
O O3 0.861080 0.618462 0.280903
O O4 0.500000 0.500000 0.000000
O O5 0.783745 0.250000 0.933723
O O6 0.652314 0.037148 0.795353
O O7 0.956190 0.066889 0.122081
O O8 0.690483 0.110250 0.404973
O O9 0.386944 0.112665 0.358491
O O10 0.706770 0.957658 0.540642
O O11 0.030362 0.750000 0.509299
O O12 0.000000 0.500000 0.500000
O O13 0.142176 0.250000 0.311371
#
# Coordination Sequence:
#
# PCOD9163546 Si02
#       5
#     4   4   4   4   4
#     4  10  21  38  58  86 119 156 202 252 301 363
#     4  10  20  37  59  84 117 156 202 250 302 370
#     4  11  21  38  61  85 120 159 203 249 309 357
#     4  11  23  39  61  88 122 158 203 253 305 366
#     4  10  22  37  58  88 120 157 202 254 307 363
#
# _framework density 20.578809
#
# number of rings (size 3 to 8) (size 9 to 14) (size 15 to 20)
#    0.000    1.600    2.000    3.000    0.000    1.600 
#    0.000    0.000    0.000    8.400    0.000    0.000 
#    0.000    0.000    0.000    0.000    0.000    0.000 
#
# Total GULP energy -111586.836553 kJ/mol
# GULP energy per Si atom -5579.341828 kJ/mol
# Density = 2.053197 g / cm^3
# Si number density = 20.578809 Si / 1000 Ang^3
#
#
#
# Elastic Constant Matrix: (Units=GPa)
#
#
# Indices 1 2 3 4 5 6 
#
# 1 33.8131 5.4205 -15.5521 0.0000 2.4057 0.0000
# 2 5.4205 139.1541 39.7419 0.0000 -23.7768 0.0000
# 3 -15.5521 39.7419 114.6312 0.0000 -1.5143 0.0000
# 4 0.0000 0.0000 0.0000 21.3092 0.0000 1.3157
# 5 2.4057 -23.7768 -1.5143 0.0000 29.7706 0.0000
# 6 0.0000 0.0000 0.0000 1.3157 0.0000 -14.4929
#
#
#
# Elastic Compliance Matrix: (Units=1/GPa)
#
#
# Indices 1 2 3 4 5 6 
#
# 1 0.033250 -0.003887 0.005786 0.000000 -0.005497 0.000000
# 2 -0.003887 0.009782 -0.003814 0.000000 0.007933 0.000000
# 3 0.005786 -0.003814 0.010792 0.000000 -0.002965 0.000000
# 4 0.000000 0.000000 0.000000 0.046667 0.000000 0.004236
# 5 -0.005497 0.007933 -0.002965 0.000000 0.040219 0.000000
# 6 0.000000 0.000000 0.000000 0.004236 0.000000 -0.068615
#
#
# Mechanical properties :
#
#
# Convention : Reuss Voigt Hill
#
# Bulk Modulus (GPa) = 20.00238 38.53543 29.26891
# Shear Modulus (GPa) = 54.00154 24.51657 39.25905
#
# Velocity S-wave (km/s) = 5.12819 3.45534 4.37251
# Velocity P-wave (km/s) = 6.69368 5.88945 6.30440
#
# Compressibility (1/GPa) = 0.04999404
#
# Stress axis : x y z
#
# Youngs Moduli (GPa) = 30.07542 102.22380 92.66333
#
# Poissons Ratio (x) = 0.39733 -0.53615
# Poissons Ratio (y) = 0.11690 0.35342
# Poissons Ratio (z) = -0.17401 0.38989
#
# Static dielectric constant tensor:
#      x y z
#    x 1.718810 0.000000 0.014690 
#    y 0.000000 1.810090 0.000000 
#    z 0.014690 0.000000 1.729860 
# 
# From -- ./inp_files/16652.got.cif
#   From: 2010.05.17/outbox.cif.g08.bks.cpg/sg11_9_cif.got.tgz:16652.got - 2010.06.03 12:22:45.
