data_PCOD9163393
_publ_section_title
;
Structure prediction by ZEFSAII (Michael W. Deem and Ramdas Pophale) SiO2 
 PCOD9163393
Probable space group: P 21/M
;
_chemical_formula_sum "Si O2"
_cell_formula_units_Z 30
_cell_length_a 12.085034
_cell_length_b 16.931534
_cell_length_c 7.888354
_cell_angle_alpha 90.000000
_cell_angle_beta 53.538763
_cell_angle_gamma 90.000000
_cell_volume 1298.155025
_symmetry_space_group_name_H-M "P 21/M"
_symmetry_group_IT_number 11
_symmetry_cell_setting 'monoclinic'
loop_
_space_group_symop_operation_xyz
x,y,z
-x,1/2+y,-z
-x,-y,-z
x,1/2-y,z
loop_
_atom_site_type_symbol
_atom_site_label
_atom_site_fract_x
_atom_site_fract_y
_atom_site_fract_z
Si Si1 0.163982 0.750000 0.654248
Si Si2 0.427331 0.079814 0.753579
Si Si3 0.547171 0.094093 0.123368
Si Si4 0.776891 0.972032 0.314812
Si Si5 0.943742 0.657038 0.344491
Si Si6 0.277272 0.156246 0.191237
Si Si7 0.705328 0.392252 0.626284
Si Si8 0.197529 0.875992 0.922715
O O1 0.192293 0.820013 0.487502
O O2 0.152495 0.818625 0.813550
O O3 0.366287 0.063649 0.625009
O O4 0.569168 0.127949 0.634167
O O5 0.312095 0.118557 0.978624
O O6 0.461306 0.996261 0.810500
O O7 0.639220 0.096372 0.869289
O O8 0.643130 0.137053 0.173457
O O9 0.399929 0.129310 0.206710
O O10 0.873088 0.898879 0.268365
O O11 0.763783 0.027523 0.491659
O O12 0.818516 0.033934 0.129337
O O13 0.917480 0.750000 0.339424
O O14 0.868284 0.636446 0.589735
O O15 0.103123 0.639732 0.171431
O O16 0.284457 0.250000 0.165411
#
# Coordination Sequence:
#
# PCOD9163393 Si02
#       8
#     2   4   4   4   4   4   4   4
#     4  10  22  36  54  88 120 156 196 246 288 352
#     4  10  20  37  59  87 126 154 196 246 297 353
#     4  10  21  38  64  89 116 159 196 249 291 358
#     4  10  21  38  60  89 116 163 197 242 301 357
#     4  11  22  40  61  84 120 159 201 247 299 353
#     4  10  22  36  58  88 120 154 197 245 295 351
#     4  10  20  36  62  91 125 153 199 245 299 351
#     4  10  22  41  62  84 122 156 204 246 298 351
#
# _framework density 23.109721
#
# number of rings (size 3 to 8) (size 9 to 14) (size 15 to 20)
#    0.000    1.867    0.667    4.000    4.667    2.667 
#    2.400    8.667    2.933    0.000    0.000    0.000 
#    0.000    0.000    0.000    0.000    0.000    0.000 
#
# Total GULP energy -167165.080066 kJ/mol
# GULP energy per Si atom -5572.169336 kJ/mol
# Density = 2.305712 g / cm^3
# Si number density = 23.109721 Si / 1000 Ang^3
#
#
#
# Elastic Constant Matrix: (Units=GPa)
#
#
# Indices 1 2 3 4 5 6 
#
# 1 34.1227 11.3926 9.1326 0.0000 -1.7044 0.0000
# 2 11.3926 78.9139 18.8296 0.0000 -1.8576 0.0000
# 3 9.1326 18.8296 117.8694 0.0000 -4.8687 0.0000
# 4 0.0000 0.0000 0.0000 50.6986 0.0000 -2.5971
# 5 -1.7044 -1.8576 -4.8687 0.0000 25.5976 0.0000
# 6 0.0000 0.0000 0.0000 -2.5971 0.0000 -1.7978
#
#
#
# Elastic Compliance Matrix: (Units=1/GPa)
#
#
# Indices 1 2 3 4 5 6 
#
# 1 0.031192 -0.004061 -0.001708 0.000000 0.001457 0.000000
# 2 -0.004061 0.013711 -0.001860 0.000000 0.000371 0.000000
# 3 -0.001708 -0.001860 0.008974 0.000000 0.001458 0.000000
# 4 0.000000 0.000000 0.000000 0.018365 0.000000 -0.026530
# 5 0.001457 0.000371 0.001458 0.000000 0.039467 0.000000
# 6 0.000000 0.000000 0.000000 -0.026530 0.000000 -0.517908
#
#
# Mechanical properties :
#
#
# Convention : Reuss Voigt Hill
#
# Bulk Modulus (GPa) = 25.89488 34.40172 30.14830
# Shear Modulus (GPa) = -13.22517 27.66978 7.22230
#
# Velocity S-wave (km/s) = -2.39483 3.46399 1.76975
# Velocity P-wave (km/s) = 1.89277 5.56035 4.15332
#
# Compressibility (1/GPa) = 0.03861767
#
# Stress axis : x y z
#
# Youngs Moduli (GPa) = 32.05974 72.93422 111.43679
#
# Poissons Ratio (x) = 0.29621 0.19031
# Poissons Ratio (y) = 0.13020 0.20731
# Poissons Ratio (z) = 0.05475 0.13568
#
# Static dielectric constant tensor:
#      x y z
#    x 1.922870 0.000000 -0.008510 
#    y 0.000000 1.869270 0.000000 
#    z -0.008510 0.000000 1.937800 
# 
# From -- ./inp_files/22611.got.cif
#   From: 2010.05.17/outbox.cif.g08.bks.cpg/sg11_12_cif.got.tgz:22611.got - 2010.06.03 12:22:45.
