data_PCOD9163997
_publ_section_title
;
Structure prediction by ZEFSAII (Michael W. Deem and Ramdas Pophale) SiO2 
 PCOD9163997
Probable space group: P 21/M
;
_chemical_formula_sum "Si O2"
_cell_formula_units_Z 26
_cell_length_a 20.100335
_cell_length_b 9.264043
_cell_length_c 8.612109
_cell_angle_alpha 90.000000
_cell_angle_beta 125.203477
_cell_angle_gamma 90.000000
_cell_volume 1310.369743
_symmetry_space_group_name_H-M "P 21/M"
_symmetry_group_IT_number 11
_symmetry_cell_setting 'monoclinic'
loop_
_space_group_symop_operation_xyz
x,y,z
-x,1/2+y,-z
-x,-y,-z
x,1/2-y,z
loop_
_atom_site_type_symbol
_atom_site_label
_atom_site_fract_x
_atom_site_fract_y
_atom_site_fract_z
Si Si1 0.889659 0.972009 0.733497
Si Si2 0.003264 0.250000 0.929804
Si Si3 0.389818 0.078409 0.985813
Si Si4 0.082856 0.413416 0.584809
Si Si5 0.268784 0.919959 0.337155
Si Si6 0.569596 0.078391 0.280041
Si Si7 0.763399 0.421291 0.069239
O O1 0.901423 0.908549 0.577851
O O2 0.794763 0.993249 0.643886
O O3 0.932286 0.874302 0.920619
O O4 0.936211 0.124020 0.797975
O O5 0.373586 0.250000 0.961350
O O6 0.407225 0.017234 0.837528
O O7 0.314628 0.992242 0.954950
O O8 0.475009 0.052577 0.191628
O O9 0.075624 0.250000 0.638504
O O10 0.156097 0.498400 0.763903
O O11 0.000000 0.500000 0.500000
O O12 0.257640 0.750000 0.356849
O O13 0.362773 0.953473 0.499710
O O14 0.246215 0.941140 0.127893
O O15 0.575220 0.250000 0.247589
O O16 0.768266 0.250000 0.108948
#
# Coordination Sequence:
#
# PCOD9163997 Si02
#       7
#     4   2   4   4   4   4   4
#     4  11  23  42  65  90 124 160 206 257 304 369
#     4  10  24  38  68  92 118 162 206 258 308 356
#     4  10  20  38  62  93 126 157 203 253 306 369
#     4  12  28  44  64  92 125 162 206 255 309 370
#     4  10  22  40  63  89 119 160 208 252 302 362
#     4   9  19  38  66  90 119 163 205 252 307 366
#     4  11  25  41  62  89 125 164 205 253 304 365
#
# _framework density 19.841729999999998
#
# number of rings (size 3 to 8) (size 9 to 14) (size 15 to 20)
#    0.000    1.538    1.538    2.308    6.462    2.462 
#    2.769    0.000    0.000    0.000    0.000    0.000 
#    0.000    0.000    0.000    0.000    0.000    0.000 
#
# Total GULP energy -144744.746001 kJ/mol
# GULP energy per Si atom -5567.105615 kJ/mol
# Density = 1.979657 g / cm^3
# Si number density = 19.841730 Si / 1000 Ang^3
#
#
#
# Elastic Constant Matrix: (Units=GPa)
#
#
# Indices 1 2 3 4 5 6 
#
# 1 110.0448 55.0878 49.7351 0.0000 32.5147 0.0000
# 2 55.0878 131.4839 52.3574 0.0000 22.2746 0.0000
# 3 49.7351 52.3574 99.3565 0.0000 50.3652 0.0000
# 4 0.0000 0.0000 0.0000 8.8292 0.0000 -1.3058
# 5 32.5147 22.2746 50.3652 0.0000 28.0160 0.0000
# 6 0.0000 0.0000 0.0000 -1.3058 0.0000 25.0277
#
#
#
# Elastic Compliance Matrix: (Units=1/GPa)
#
#
# Indices 1 2 3 4 5 6 
#
# 1 0.021775 -0.009339 0.034585 0.000000 -0.080021 0.000000
# 2 -0.009339 0.014360 -0.029300 0.000000 0.052094 0.000000
# 3 0.034585 -0.029300 0.188604 0.000000 -0.355902 0.000000
# 4 0.000000 0.000000 0.000000 0.114141 0.000000 0.005955
# 5 -0.080021 0.052094 -0.355902 0.000000 0.726961 0.000000
# 6 0.000000 0.000000 0.000000 0.005955 0.000000 0.040267
#
#
# Mechanical properties :
#
#
# Convention : Reuss Voigt Hill
#
# Bulk Modulus (GPa) = 4.61612 72.80509 38.71060
# Shear Modulus (GPa) = 4.21434 24.62158 14.41796
#
# Velocity S-wave (km/s) = 1.45897 3.52646 2.69857
# Velocity P-wave (km/s) = 2.27368 7.30437 5.40941
#
# Compressibility (1/GPa) = 0.21663220
#
# Stress axis : x y z
#
# Youngs Moduli (GPa) = 45.92448 69.63716 5.30211
#
# Poissons Ratio (x) = 0.65031 -0.18337
# Poissons Ratio (y) = 0.42887 0.15535
# Poissons Ratio (z) = -1.58828 2.04035
#
# Static dielectric constant tensor:
#      x y z
#    x 1.689110 0.000000 -0.006200 
#    y 0.000000 1.675660 0.000000 
#    z -0.006200 0.000000 1.701470 
# 
# From -- ./inp_files/26144.got.cif
#   From: 2010.05.17/outbox.cif.g08.bks.cpg/sg11_14_cif.got.tgz:26144.got - 2010.06.03 12:22:45.
