data_PCOD9163382
_publ_section_title
;
Structure prediction by ZEFSAII (Michael W. Deem and Ramdas Pophale) SiO2 
 PCOD9163382
Probable space group: P 21/M
;
_chemical_formula_sum "Si O2"
_cell_formula_units_Z 28
_cell_length_a 8.947567
_cell_length_b 13.427815
_cell_length_c 13.440906
_cell_angle_alpha 90.000000
_cell_angle_beta 73.476136
_cell_angle_gamma 90.000000
_cell_volume 1548.182644
_symmetry_space_group_name_H-M "P 21/M"
_symmetry_group_IT_number 11
_symmetry_cell_setting 'monoclinic'
loop_
_space_group_symop_operation_xyz
x,y,z
-x,1/2+y,-z
-x,-y,-z
x,1/2-y,z
loop_
_atom_site_type_symbol
_atom_site_label
_atom_site_fract_x
_atom_site_fract_y
_atom_site_fract_z
Si Si1 0.925585 0.490217 0.860280
Si Si2 0.424131 0.133239 0.736778
Si Si3 0.930526 0.865632 0.488120
Si Si4 0.326258 0.007003 0.571826
Si Si5 0.777677 0.368832 0.713719
Si Si6 0.919236 0.135590 0.326536
Si Si7 0.169130 0.368095 0.947267
O O1 0.817805 0.427763 0.806181
O O2 0.026322 0.562491 0.770406
O O3 0.035446 0.413936 0.900460
O O4 0.838033 0.562899 0.953955
O O5 0.417142 0.250000 0.710840
O O6 0.335074 0.069744 0.671523
O O7 0.605419 0.103617 0.708496
O O8 0.332509 0.122103 0.857880
O O9 0.889465 0.750000 0.477648
O O10 0.791511 0.935571 0.478896
O O11 0.085118 0.886795 0.392726
O O12 0.972987 0.876060 0.595932
O O13 0.500000 0.000000 0.500000
O O14 0.251368 0.899771 0.607080
O O15 0.775970 0.250000 0.732950
O O16 0.922624 0.250000 0.294818
O O17 0.142681 0.250000 0.971251
#
# Coordination Sequence:
#
# PCOD9163382 Si02
#       7
#     4   4   4   4   4   4   4
#     4  11  21  36  63  85 113 154 194 240 295 351
#     4  10  21  38  59  87 117 149 194 245 288 335
#     4  10  21  38  59  84 116 155 196 234 281 346
#     4  12  23  35  60  86 117 157 195 236 289 346
#     4  10  20  36  62  89 115 153 200 239 281 345
#     4  11  23  38  56  85 122 157 196 241 289 341
#     4  10  21  39  61  87 113 147 195 245 294 348
#
# _framework density 18.085719999999998
#
# number of rings (size 3 to 8) (size 9 to 14) (size 15 to 20)
#    0.000    1.429    2.857    2.571    2.000    5.143 
#    0.000    0.000    0.000    0.000    0.000    0.000 
#    0.000    0.000    0.000    0.000    0.000    0.000 
#
# Total GULP energy -156392.891571 kJ/mol
# GULP energy per Si atom -5585.460413 kJ/mol
# Density = 1.804456 g / cm^3
# Si number density = 18.085720 Si / 1000 Ang^3
#
#
#
# Elastic Constant Matrix: (Units=GPa)
#
#
# Indices 1 2 3 4 5 6 
#
# 1 66.5538 23.6357 8.9435 0.0000 -9.7409 0.0000
# 2 23.6357 83.1281 15.8065 0.0000 0.2865 0.0000
# 3 8.9435 15.8065 61.5809 0.0000 -1.0362 0.0000
# 4 0.0000 0.0000 0.0000 32.7305 0.0000 2.9014
# 5 -9.7409 0.2865 -1.0362 0.0000 26.8010 0.0000
# 6 0.0000 0.0000 0.0000 2.9014 0.0000 30.2855
#
#
#
# Elastic Compliance Matrix: (Units=1/GPa)
#
#
# Indices 1 2 3 4 5 6 
#
# 1 0.017872 -0.004869 -0.001236 0.000000 0.006500 0.000000
# 2 -0.004869 0.013975 -0.002914 0.000000 -0.002032 0.000000
# 3 -0.001236 -0.002914 0.017171 0.000000 0.000246 0.000000
# 4 0.000000 0.000000 0.000000 0.030814 0.000000 -0.002952
# 5 0.006500 -0.002032 0.000246 0.000000 0.039706 0.000000
# 6 0.000000 0.000000 0.000000 -0.002952 0.000000 0.033302
#
#
# Mechanical properties :
#
#
# Convention : Reuss Voigt Hill
#
# Bulk Modulus (GPa) = 32.28030 34.22603 33.25316
# Shear Modulus (GPa) = 27.59310 28.82186 28.20748
#
# Velocity S-wave (km/s) = 3.91024 3.99635 3.95353
# Velocity P-wave (km/s) = 6.18659 6.34507 6.26633
#
# Compressibility (1/GPa) = 0.03097865
#
# Stress axis : x y z
#
# Youngs Moduli (GPa) = 55.95340 71.55588 58.23932
#
# Poissons Ratio (x) = 0.34839 0.07201
# Poissons Ratio (y) = 0.27243 0.16972
# Poissons Ratio (z) = 0.06919 0.20853
#
# Static dielectric constant tensor:
#      x y z
#    x 1.593000 0.000000 -0.008370 
#    y 0.000000 1.622500 0.000000 
#    z -0.008370 0.000000 1.628650 
# 
# From -- ./inp_files/24913.got.cif
#   From: 2010.05.17/outbox.cif.g08.bks.cpg/sg11_13_cif.got.tgz:24913.got - 2010.06.03 12:22:45.
