data_PCOD9163531
_publ_section_title
;
Structure prediction by ZEFSAII (Michael W. Deem and Ramdas Pophale) SiO2 
 PCOD9163531
Probable space group: P 21/M
;
_chemical_formula_sum "Si O2"
_cell_formula_units_Z 28
_cell_length_a 9.847377
_cell_length_b 8.563723
_cell_length_c 26.824890
_cell_angle_alpha 90.000000
_cell_angle_beta 137.403311
_cell_angle_gamma 90.000000
_cell_volume 1531.097783
_symmetry_space_group_name_H-M "P 21/M"
_symmetry_group_IT_number 11
_symmetry_cell_setting 'monoclinic'
loop_
_space_group_symop_operation_xyz
x,y,z
-x,1/2+y,-z
-x,-y,-z
x,1/2-y,z
loop_
_atom_site_type_symbol
_atom_site_label
_atom_site_fract_x
_atom_site_fract_y
_atom_site_fract_z
Si Si1 0.467659 0.934910 0.909882
Si Si2 0.746673 0.562829 0.802165
Si Si3 0.095709 0.937741 0.626716
Si Si4 0.420258 0.065222 0.788221
Si Si5 0.646772 0.062493 0.496944
Si Si6 0.577451 0.060429 0.365754
Si Si7 0.192464 0.064027 0.922056
O O1 0.464591 0.750000 0.899022
O O2 0.431145 0.025566 0.849174
O O3 0.299233 0.977755 0.904965
O O4 0.678531 0.975457 0.993695
O O5 0.767348 0.750000 0.806887
O O6 0.608290 0.513166 0.811016
O O7 0.618850 0.513454 0.718691
O O8 0.962873 0.485335 0.863486
O O9 0.085893 0.750000 0.624310
O O10 0.227264 0.987546 0.613762
O O11 0.223229 0.994753 0.708609
O O12 0.874300 0.006925 0.566566
O O13 0.424529 0.250000 0.781166
O O14 0.640312 0.250000 0.495775
O O15 0.583088 0.007200 0.424219
O O16 0.500000 0.000000 0.500000
O O17 0.579174 0.250000 0.366532
O O18 0.210736 0.250000 0.919604
#
# Coordination Sequence:
#
# PCOD9163531 Si02
#       7
#     4   4   4   4   4   4   4
#     4  10  21  38  58  80 111 151 189 228 278 334
#     4  10  20  37  59  83 111 146 187 231 282 334
#     4  10  20  38  60  82 108 142 183 227 280 337
#     4  11  22  37  58  85 113 143 184 233 281 332
#     4  11  22  37  55  81 114 147 185 228 274 325
#     4   8  18  36  58  80 106 142 183 224 269 325
#     4  10  21  37  57  83 113 147 189 233 277 328
#
# _framework density 18.287531999999999
#
# number of rings (size 3 to 8) (size 9 to 14) (size 15 to 20)
#    0.000    2.000    0.000    4.714    0.000    3.429 
#    0.000   12.143    0.000    0.000    0.000    0.000 
#    0.000    0.000    0.000    0.000    0.000    0.000 
#
# Total GULP energy -156373.802773 kJ/mol
# GULP energy per Si atom -5584.778670 kJ/mol
# Density = 1.824591 g / cm^3
# Si number density = 18.287532 Si / 1000 Ang^3
#
#
#
# Elastic Constant Matrix: (Units=GPa)
#
#
# Indices 1 2 3 4 5 6 
#
# 1 201.1093 -1.0350 287.8766 0.0000 111.1740 0.0000
# 2 -1.0350 41.7685 1.9491 0.0000 -9.2795 0.0000
# 3 287.8766 1.9491 472.3185 0.0000 206.0465 0.0000
# 4 0.0000 0.0000 0.0000 26.4671 0.0000 3.5910
# 5 111.1740 -9.2795 206.0465 0.0000 146.7412 0.0000
# 6 0.0000 0.0000 0.0000 3.5910 0.0000 33.1002
#
#
#
# Elastic Compliance Matrix: (Units=1/GPa)
#
#
# Indices 1 2 3 4 5 6 
#
# 1 0.046680 0.005597 -0.034071 0.000000 0.012829 0.000000
# 2 0.005597 0.025699 -0.006134 0.000000 0.005997 0.000000
# 3 -0.034071 -0.006134 0.030500 0.000000 -0.017402 0.000000
# 4 0.000000 0.000000 0.000000 0.038347 0.000000 -0.004160
# 5 0.012829 0.005997 -0.017402 0.000000 0.021909 0.000000
# 6 0.000000 0.000000 0.000000 -0.004160 0.000000 0.030663
#
#
# Mechanical properties :
#
#
# Convention : Reuss Voigt Hill
#
# Bulk Modulus (GPa) = 29.70593 143.64195 86.67394
# Shear Modulus (GPa) = 18.23260 69.68875 43.96068
#
# Velocity S-wave (km/s) = 3.16095 6.17980 4.90824
# Velocity P-wave (km/s) = 5.44070 11.38582 8.92295
#
# Compressibility (1/GPa) = 0.03366331
#
# Stress axis : x y z
#
# Youngs Moduli (GPa) = 21.42250 38.91231 32.78688
#
# Poissons Ratio (x) = -0.21778 1.11708
# Poissons Ratio (y) = -0.11990 0.20110
# Poissons Ratio (z) = 0.72988 0.23867
#
# Static dielectric constant tensor:
#      x y z
#    x 1.597180 0.000000 -0.014590 
#    y 0.000000 1.617240 0.000000 
#    z -0.014590 0.000000 1.617210 
# 
# From -- ./inp_files/70918.got.cif
#   From: 2010.05.17/outbox.cif.g08.bks.cpg/sg11_36_cif.got.tgz:70918.got - 2010.06.03 12:22:45.
