data_PCOD9163363
_publ_section_title
;
Structure prediction by ZEFSAII (Michael W. Deem and Ramdas Pophale) SiO2 
 PCOD9163363
Probable space group: P 21/M
;
_chemical_formula_sum "Si O2"
_cell_formula_units_Z 32
_cell_length_a 14.994545
_cell_length_b 14.458481
_cell_length_c 20.916114
_cell_angle_alpha 90.000000
_cell_angle_beta 18.706218
_cell_angle_gamma 90.000000
_cell_volume 1454.311021
_symmetry_space_group_name_H-M "P 21/M"
_symmetry_group_IT_number 11
_symmetry_cell_setting 'monoclinic'
loop_
_space_group_symop_operation_xyz
x,y,z
-x,1/2+y,-z
-x,-y,-z
x,1/2-y,z
loop_
_atom_site_type_symbol
_atom_site_label
_atom_site_fract_x
_atom_site_fract_y
_atom_site_fract_z
Si Si1 0.833545 0.493663 0.776582
Si Si2 0.216857 0.858588 0.852074
Si Si3 0.294981 0.638697 0.465498
Si Si4 0.953557 0.017395 0.839690
Si Si5 0.065785 0.597212 0.421789
Si Si6 0.705289 0.546506 0.275686
Si Si7 0.476165 0.651958 0.805844
Si Si8 0.377369 0.355444 0.884129
O O1 0.939838 0.464992 0.774210
O O2 0.907307 0.422536 0.671233
O O3 0.001419 0.589484 0.649902
O O4 0.500000 0.500000 0.000000
O O5 0.186292 0.750000 0.852964
O O6 0.458596 0.862061 0.741565
O O7 0.272491 0.939811 0.763267
O O8 0.945442 0.894089 0.075754
O O9 0.275236 0.750000 0.481549
O O10 0.423559 0.594102 0.442482
O O11 0.511651 0.612695 0.261078
O O12 0.867269 0.913563 0.917769
O O13 0.217257 0.048842 0.702134
O O14 0.690652 0.071816 0.047382
O O15 0.348214 0.637068 0.258263
O O16 0.000000 0.500000 0.500000
O O17 0.786629 0.653801 0.620390
O O18 0.333050 0.750000 0.915887
O O19 0.292008 0.250000 0.935512
#
# Coordination Sequence:
#
# PCOD9163363 Si02
#       8
#     4   4   4   4   4   4   4   4
#     4  12  24  43  65  89 128 172 206 263 323 386
#     4   9  17  31  58  93 126 163 213 266 315 367
#     4  11  24  42  67  97 126 167 220 265 313 380
#     4  11  23  40  63  95 133 171 205 256 320 384
#     4  12  20  39  65  87 122 162 209 262 313 378
#     4  10  20  36  61  90 130 171 210 261 318 372
#     4  10  20  37  61  91 123 163 211 259 312 370
#     4  11  22  38  64  96 127 166 215 266 318 373
#
# _framework density 22.003547000000001
#
# number of rings (size 3 to 8) (size 9 to 14) (size 15 to 20)
#    0.000    1.250    3.750    3.750    0.000    3.000 
#    0.000    1.250    0.000    3.000    0.000    0.000 
#    0.000    0.000    0.000    0.000    0.000    0.000 
#
# Total GULP energy -178793.371603 kJ/mol
# GULP energy per Si atom -5587.292863 kJ/mol
# Density = 2.195347 g / cm^3
# Si number density = 22.003547 Si / 1000 Ang^3
#
#
#
# Elastic Constant Matrix: (Units=GPa)
#
#
# Indices 1 2 3 4 5 6 
#
# 1 149.0648 18.2487 18.5454 0.0000 -1.9242 0.0000
# 2 18.2487 80.6294 -0.9018 0.0000 3.4291 0.0000
# 3 18.5454 -0.9018 57.0683 0.0000 -17.5733 0.0000
# 4 0.0000 0.0000 0.0000 8.4950 0.0000 -6.9336
# 5 -1.9242 3.4291 -17.5733 0.0000 39.1937 0.0000
# 6 0.0000 0.0000 0.0000 -6.9336 0.0000 17.6094
#
#
#
# Elastic Compliance Matrix: (Units=1/GPa)
#
#
# Indices 1 2 3 4 5 6 
#
# 1 0.007220 -0.001635 -0.002575 0.000000 -0.000657 0.000000
# 2 -0.001635 0.012820 0.000422 0.000000 -0.001013 0.000000
# 3 -0.002575 0.000422 0.021250 0.000000 0.009364 0.000000
# 4 0.000000 0.000000 0.000000 0.173461 0.000000 0.068299
# 5 -0.000657 -0.001013 0.009364 0.000000 0.029769 0.000000
# 6 0.000000 0.000000 0.000000 0.068299 0.000000 0.083680
#
#
# Mechanical properties :
#
#
# Convention : Reuss Voigt Hill
#
# Bulk Modulus (GPa) = 29.65986 39.83858 34.74922
# Shear Modulus (GPa) = 14.40860 29.78430 22.09645
#
# Velocity S-wave (km/s) = 2.56174 3.68314 3.17238
# Velocity P-wave (km/s) = 4.71793 6.01932 5.40791
#
# Compressibility (1/GPa) = 0.03371560
#
# Stress axis : x y z
#
# Youngs Moduli (GPa) = 138.49491 78.00149 47.05921
#
# Poissons Ratio (x) = 0.12754 0.12115
# Poissons Ratio (y) = 0.22645 -0.01986
# Poissons Ratio (z) = 0.35656 -0.03292
#
# Static dielectric constant tensor:
#      x y z
#    x 1.831320 0.000000 -0.004520 
#    y 0.000000 1.780350 0.000000 
#    z -0.004520 0.000000 1.836930 
# 
# From -- ./inp_files/65772.got.cif
#   From: 2010.05.17/outbox.cif.g08.bks.cpg/sg11_33_cif.got.tgz:65772.got - 2010.06.03 12:22:45.
