data_PCOD9163914
_publ_section_title
;
Structure prediction by ZEFSAII (Michael W. Deem and Ramdas Pophale) SiO2 
 PCOD9163914
Probable space group: P 21/M
;
_chemical_formula_sum "Si O2"
_cell_formula_units_Z 30
_cell_length_a 14.646269
_cell_length_b 9.540803
_cell_length_c 12.218655
_cell_angle_alpha 90.000000
_cell_angle_beta 68.412907
_cell_angle_gamma 90.000000
_cell_volume 1587.642142
_symmetry_space_group_name_H-M "P 21/M"
_symmetry_group_IT_number 11
_symmetry_cell_setting 'monoclinic'
loop_
_space_group_symop_operation_xyz
x,y,z
-x,1/2+y,-z
-x,-y,-z
x,1/2-y,z
loop_
_atom_site_type_symbol
_atom_site_label
_atom_site_fract_x
_atom_site_fract_y
_atom_site_fract_z
Si Si1 0.910022 0.419062 0.097428
Si Si2 0.934078 0.080499 0.341601
Si Si3 0.455375 0.520159 0.363653
Si Si4 0.234684 0.087670 0.980247
Si Si5 0.468060 0.415420 0.906950
Si Si6 0.468455 0.250000 0.508493
Si Si7 0.235290 0.914520 0.419086
Si Si8 0.156228 0.416617 0.259738
O O1 0.918532 0.250000 0.081657
O O2 0.912291 0.454239 0.225211
O O3 0.812698 0.480341 0.084035
O O4 0.000000 0.500000 0.000000
O O5 0.935398 0.250000 0.345816
O O6 0.849246 0.032618 0.460873
O O7 0.043678 0.033709 0.324316
O O8 0.480949 0.526108 0.224493
O O9 0.466509 0.371530 0.414669
O O10 0.522902 0.628639 0.399356
O O11 0.341903 0.567695 0.424986
O O12 0.212606 0.250000 0.958655
O O13 0.350933 0.072920 0.941870
O O14 0.185928 0.063308 0.120566
O O15 0.492176 0.250000 0.907592
O O16 0.500000 0.500000 0.000000
O O17 0.219372 0.750000 0.404534
O O18 0.225177 0.000509 0.311984
O O19 0.161870 0.250000 0.279283
#
# Coordination Sequence:
#
# PCOD9163914 Si02
#       8
#     4   4   4   4   4   2   4   4
#     4  11  21  38  63  88 122 160 202 250 303 365
#     4   9  20  38  58  85 121 157 195 243 300 356
#     4  11  23  45  65  92 126 163 209 267 316 373
#     4  10  22  40  61  89 122 164 200 247 309 360
#     4  11  24  42  65  97 131 166 212 265 319 379
#     4  10  24  42  70  86 122 168 208 256 328 370
#     4  11  22  38  61  91 118 155 201 249 299 358
#     4  10  20  38  61  83 124 161 195 243 297 360
#
# _framework density 18.895945999999999
#
# number of rings (size 3 to 8) (size 9 to 14) (size 15 to 20)
#    0.000    1.600    2.667    1.600    1.867    3.200 
#    2.400    1.333    0.000    0.000    0.000    0.000 
#    0.000    0.000    0.000    0.000    0.000    0.000 
#
# Total GULP energy -167014.743035 kJ/mol
# GULP energy per Si atom -5567.158101 kJ/mol
# Density = 1.885294 g / cm^3
# Si number density = 18.895946 Si / 1000 Ang^3
#
#
#
# Elastic Constant Matrix: (Units=GPa)
#
#
# Indices 1 2 3 4 5 6 
#
# 1 40.5125 18.9651 21.9613 0.0000 5.5935 0.0000
# 2 18.9651 79.2039 29.4903 0.0000 27.3159 0.0000
# 3 21.9613 29.4903 74.2343 0.0000 13.0535 0.0000
# 4 0.0000 0.0000 0.0000 -14.6792 0.0000 11.8813
# 5 5.5935 27.3159 13.0535 0.0000 37.0953 0.0000
# 6 0.0000 0.0000 0.0000 11.8813 0.0000 31.1473
#
#
#
# Elastic Compliance Matrix: (Units=1/GPa)
#
#
# Indices 1 2 3 4 5 6 
#
# 1 0.030897 -0.005287 -0.007361 0.000000 0.001824 0.000000
# 2 -0.005287 0.019626 -0.004084 0.000000 -0.012218 0.000000
# 3 -0.007361 -0.004084 0.017638 0.000000 -0.002089 0.000000
# 4 0.000000 0.000000 0.000000 -0.052053 0.000000 0.019856
# 5 0.001824 -0.012218 -0.002089 0.000000 0.036414 0.000000
# 6 0.000000 0.000000 0.000000 0.019856 0.000000 0.024531
#
#
# Mechanical properties :
#
#
# Convention : Reuss Voigt Hill
#
# Bulk Modulus (GPa) = 28.82061 37.19824 33.00943
# Shear Modulus (GPa) = 40.95533 18.94829 29.95181
#
# Velocity S-wave (km/s) = 4.66060 3.17009 3.98564
# Velocity P-wave (km/s) = 6.65184 5.75568 6.21992
#
# Compressibility (1/GPa) = 0.03469739
#
# Stress axis : x y z
#
# Youngs Moduli (GPa) = 32.36555 50.95340 56.69426
#
# Poissons Ratio (x) = 0.26937 0.41734
# Poissons Ratio (y) = 0.17110 0.23155
# Poissons Ratio (z) = 0.23825 0.20810
#
# Static dielectric constant tensor:
#      x y z
#    x 1.681910 0.000000 -0.072130 
#    y 0.000000 1.624470 0.000000 
#    z -0.072130 0.000000 1.917140 
# 
# From -- ./inp_files/38054.got.cif
#   From: 2010.05.17/outbox.cif.g08.bks.cpg/sg11_20_cif.got.tgz:38054.got - 2010.06.03 12:22:45.
