data_PCOD9163532
_publ_section_title
;
Structure prediction by ZEFSAII (Michael W. Deem and Ramdas Pophale) SiO2 
 PCOD9163532
Probable space group: P 21/M
;
_chemical_formula_sum "Si O2"
_cell_formula_units_Z 28
_cell_length_a 14.039807
_cell_length_b 8.412824
_cell_length_c 14.035451
_cell_angle_alpha 90.000000
_cell_angle_beta 60.099538
_cell_angle_gamma 90.000000
_cell_volume 1437.125429
_symmetry_space_group_name_H-M "P 21/M"
_symmetry_group_IT_number 11
_symmetry_cell_setting 'monoclinic'
loop_
_space_group_symop_operation_xyz
x,y,z
-x,1/2+y,-z
-x,-y,-z
x,1/2-y,z
loop_
_atom_site_type_symbol
_atom_site_label
_atom_site_fract_x
_atom_site_fract_y
_atom_site_fract_z
Si Si1 0.905865 0.059403 0.117943
Si Si2 0.666362 0.057678 0.165229
Si Si3 0.953325 0.559394 0.306659
Si Si4 0.382399 0.059519 0.022691
Si Si5 0.188726 0.057618 0.261266
Si Si6 0.523729 0.942234 0.594404
Si Si7 0.763286 0.943979 0.546743
O O1 0.906342 0.250000 0.117585
O O2 0.786153 0.004608 0.141372
O O3 0.928730 0.000606 0.212998
O O4 0.000000 0.000000 0.000000
O O5 0.665702 0.250000 0.164303
O O6 0.571664 0.004781 0.285609
O O7 0.641837 0.998963 0.071552
O O8 0.952838 0.750000 0.306126
O O9 0.858406 0.504070 0.426841
O O10 0.071560 0.501247 0.283105
O O11 0.382869 0.250000 0.023413
O O12 0.285974 0.004624 0.142255
O O13 0.500000 0.000000 0.000000
O O14 0.187639 0.250000 0.261552
O O15 0.212028 0.004492 0.357767
O O16 0.523806 0.750000 0.594159
O O17 0.643360 0.995799 0.571052
O O18 0.500000 0.000000 0.500000
O O19 0.762931 0.750000 0.547174
#
# Coordination Sequence:
#
# PCOD9163532 Si02
#       7
#     4   4   4   4   4   4   4
#     4  11  23  39  59  84 114 150 190 234 281 334
#     4  10  22  39  59  83 114 150 190 234 281 332
#     4  11  22  36  57  86 116 148 186 232 283 336
#     4  11  23  38  60  86 114 149 189 232 281 334
#     4  10  21  39  60  82 111 151 193 233 279 332
#     4  10  20  37  59  83 112 147 185 229 280 335
#     4   9  19  36  58  82 112 149 187 228 279 335
#
# _framework density 19.483336000000001
#
# number of rings (size 3 to 8) (size 9 to 14) (size 15 to 20)
#    0.000    1.714    0.000    4.286    0.000    7.429 
#    0.000    2.143    0.000    0.000    0.000    0.000 
#    0.000    0.000    0.000    0.000    0.000    0.000 
#
# Total GULP energy -156549.285860 kJ/mol
# GULP energy per Si atom -5591.045924 kJ/mol
# Density = 1.943899 g / cm^3
# Si number density = 19.483336 Si / 1000 Ang^3
#
#
#
# Elastic Constant Matrix: (Units=GPa)
#
#
# Indices 1 2 3 4 5 6 
#
# 1 247.1044 29.5615 152.5073 0.0000 -0.6755 0.0000
# 2 29.5615 17.0268 32.0486 0.0000 -2.2696 0.0000
# 3 152.5073 32.0486 248.4940 0.0000 -1.1156 0.0000
# 4 0.0000 0.0000 0.0000 26.9966 0.0000 6.1964
# 5 -0.6755 -2.2696 -1.1156 0.0000 46.9464 0.0000
# 6 0.0000 0.0000 0.0000 6.1964 0.0000 32.2276
#
#
#
# Elastic Compliance Matrix: (Units=1/GPa)
#
#
# Indices 1 2 3 4 5 6 
#
# 1 0.006856 -0.005300 -0.003525 0.000000 -0.000241 0.000000
# 2 -0.005300 0.082240 -0.007337 0.000000 0.003725 0.000000
# 3 -0.003525 -0.007337 0.007133 0.000000 -0.000236 0.000000
# 4 0.000000 0.000000 0.000000 0.038752 0.000000 -0.007451
# 5 -0.000241 0.003725 -0.000236 0.000000 0.021472 0.000000
# 6 0.000000 0.000000 0.000000 -0.007451 0.000000 0.032462
#
#
# Mechanical properties :
#
#
# Convention : Reuss Voigt Hill
#
# Bulk Modulus (GPa) = 15.64850 104.54002 60.09426
# Shear Modulus (GPa) = 20.61517 41.13466 30.87492
#
# Velocity S-wave (km/s) = 3.25636 4.59984 3.98513
# Velocity P-wave (km/s) = 4.71038 9.05450 7.21705
#
# Compressibility (1/GPa) = 0.06390388
#
# Stress axis : x y z
#
# Youngs Moduli (GPa) = 145.85898 12.15960 140.19404
#
# Poissons Ratio (x) = 0.06445 0.49421
# Poissons Ratio (y) = 0.77305 1.02862
# Poissons Ratio (z) = 0.51418 0.08922
#
# Static dielectric constant tensor:
#      x y z
#    x 1.638770 0.000000 -0.015060 
#    y 0.000000 1.687850 0.000000 
#    z -0.015060 0.000000 1.637560 
# 
# From -- ./inp_files/49112.got.cif
#   From: 2010.05.17/outbox.cif.g08.bks.cpg/sg11_25_cif.got.tgz:49112.got - 2010.06.03 12:22:45.
