data_PCOD9163449
_publ_section_title
;
Structure prediction by ZEFSAII (Michael W. Deem and Ramdas Pophale) SiO2 
 PCOD9163449
Probable space group: P 21/M
;
_chemical_formula_sum "Si O2"
_cell_formula_units_Z 28
_cell_length_a 9.198906
_cell_length_b 19.268497
_cell_length_c 13.606595
_cell_angle_alpha 90.000000
_cell_angle_beta 31.928890
_cell_angle_gamma 90.000000
_cell_volume 1275.496897
_symmetry_space_group_name_H-M "P 21/M"
_symmetry_group_IT_number 11
_symmetry_cell_setting 'monoclinic'
loop_
_space_group_symop_operation_xyz
x,y,z
-x,1/2+y,-z
-x,-y,-z
x,1/2-y,z
loop_
_atom_site_type_symbol
_atom_site_label
_atom_site_fract_x
_atom_site_fract_y
_atom_site_fract_z
Si Si1 0.527575 0.329721 0.815817
Si Si2 0.463969 0.977323 0.710938
Si Si3 0.704794 0.946747 0.769714
Si Si4 0.769055 0.667994 0.296158
Si Si5 0.940173 0.598127 0.991387
Si Si6 0.744670 0.392678 0.489038
Si Si7 0.183214 0.908462 0.189050
O O1 0.527289 0.250000 0.790771
O O2 0.216078 0.357194 0.000216
O O3 0.663894 0.369867 0.646320
O O4 0.694730 0.346491 0.816494
O O5 0.679124 0.947707 0.666613
O O6 0.246432 0.028249 0.893205
O O7 0.620705 0.029347 0.548433
O O8 0.253602 0.920909 0.789971
O O9 0.929158 0.897473 0.691927
O O10 0.790495 0.023174 0.758238
O O11 0.401914 0.926250 0.978683
O O12 0.826652 0.750000 0.275690
O O13 0.900427 0.639242 0.117562
O O14 0.442085 0.655465 0.471938
O O15 0.902246 0.618708 0.302771
#
# Coordination Sequence:
#
# PCOD9163449 Si02
#       7
#     4   4   4   4   4   4   4
#     4  10  20  37  58  81 109 150 191 224 272 334
#     4   9  16  30  56  83 109 135 182 235 275 318
#     4  11  21  36  57  88 118 138 185 236 288 334
#     4  10  20  37  55  78 112 153 191 220 271 345
#     4   9  16  31  55  83 105 145 184 231 272 320
#     4  10  21  36  61  82 108 150 183 235 281 328
#     4  11  22  35  59  85 115 147 181 233 283 329
#
# _framework density 21.952228999999999
#
# number of rings (size 3 to 8) (size 9 to 14) (size 15 to 20)
#    0.000    2.286    4.286    2.571    0.000    0.571 
#    0.000    2.857    0.000    0.000    0.000    0.000 
#    0.000    0.000    0.000    0.000    0.000    0.000 
#
# Total GULP energy -156193.014324 kJ/mol
# GULP energy per Si atom -5578.321940 kJ/mol
# Density = 2.190226 g / cm^3
# Si number density = 21.952229 Si / 1000 Ang^3
#
#
#
# Elastic Constant Matrix: (Units=GPa)
#
#
# Indices 1 2 3 4 5 6 
#
# 1 73.3658 11.3691 5.6334 0.0000 -26.2617 0.0000
# 2 11.3691 61.4646 14.8980 0.0000 -11.9084 0.0000
# 3 5.6334 14.8980 51.0079 0.0000 -25.0584 0.0000
# 4 0.0000 0.0000 0.0000 11.3455 0.0000 -8.6088
# 5 -26.2617 -11.9084 -25.0584 0.0000 35.0163 0.0000
# 6 0.0000 0.0000 0.0000 -8.6088 0.0000 27.3041
#
#
#
# Elastic Compliance Matrix: (Units=1/GPa)
#
#
# Indices 1 2 3 4 5 6 
#
# 1 0.020836 -0.001845 0.008646 0.000000 0.021187 0.000000
# 2 -0.001845 0.017962 -0.004197 0.000000 0.001722 0.000000
# 3 0.008646 -0.004197 0.034483 0.000000 0.029734 0.000000
# 4 0.000000 0.000000 0.000000 0.115859 0.000000 0.036529
# 5 0.021187 0.001722 0.029734 0.000000 0.066311 0.000000
# 6 0.000000 0.000000 0.000000 0.036529 0.000000 0.048142
#
#
# Mechanical properties :
#
#
# Convention : Reuss Voigt Hill
#
# Bulk Modulus (GPa) = 12.74055 27.73770 20.23913
# Shear Modulus (GPa) = 15.40608 24.99569 20.20089
#
# Velocity S-wave (km/s) = 2.65203 3.37804 3.03680
# Velocity P-wave (km/s) = 3.89795 5.27994 4.64068
#
# Compressibility (1/GPa) = 0.07848954
#
# Stress axis : x y z
#
# Youngs Moduli (GPa) = 47.99330 55.67462 28.99994
#
# Poissons Ratio (x) = 0.10272 -0.25073
# Poissons Ratio (y) = 0.08854 0.12170
# Poissons Ratio (z) = -0.41495 0.23364
#
# Static dielectric constant tensor:
#      x y z
#    x 1.831780 0.000000 0.014870 
#    y 0.000000 1.799650 0.000000 
#    z 0.014870 0.000000 1.889150 
# 
# From -- ./inp_files/58384.got.cif
#   From: 2010.05.17/outbox.cif.g08.bks.cpg/sg11_30_cif.got.tgz:58384.got - 2010.06.03 12:22:45.
