data_PCOD9163884
_publ_section_title
;
Structure prediction by ZEFSAII (Michael W. Deem and Ramdas Pophale) SiO2 
 PCOD9163884
Probable space group: P 21/M
;
_chemical_formula_sum "Si O2"
_cell_formula_units_Z 32
_cell_length_a 15.710910
_cell_length_b 17.421752
_cell_length_c 12.179947
_cell_angle_alpha 90.000000
_cell_angle_beta 150.954201
_cell_angle_gamma 90.000000
_cell_volume 1618.584890
_symmetry_space_group_name_H-M "P 21/M"
_symmetry_group_IT_number 11
_symmetry_cell_setting 'monoclinic'
loop_
_space_group_symop_operation_xyz
x,y,z
-x,1/2+y,-z
-x,-y,-z
x,1/2-y,z
loop_
_atom_site_type_symbol
_atom_site_label
_atom_site_fract_x
_atom_site_fract_y
_atom_site_fract_z
Si Si1 0.895589 0.102713 0.854157
Si Si2 0.375489 0.660895 0.928774
Si Si3 0.320511 0.091695 0.597354
Si Si4 0.479882 0.838419 0.618330
Si Si5 0.509749 0.069724 0.149558
Si Si6 0.709014 0.840885 0.668750
Si Si7 0.027983 0.974936 0.840281
Si Si8 0.168319 0.515534 0.764137
O O1 0.726417 0.153253 0.640223
O O2 0.865942 0.061069 0.938330
O O3 0.920520 0.041617 0.783165
O O4 0.084441 0.143593 0.078228
O O5 0.325431 0.750000 0.872151
O O6 0.397750 0.625312 0.832568
O O7 0.239755 0.602766 0.834531
O O8 0.564028 0.649778 0.200970
O O9 0.353814 0.111571 0.507568
O O10 0.110052 0.087266 0.364031
O O11 0.384595 0.007816 0.706072
O O12 0.523644 0.750000 0.687636
O O13 0.517637 0.886812 0.768215
O O14 0.597020 0.864633 0.647967
O O15 0.323700 0.039131 0.896346
O O16 0.682877 0.750000 0.619675
O O17 0.132746 0.002066 0.852183
O O18 0.000000 0.500000 0.500000
#
# Coordination Sequence:
#
# PCOD9163884 Si02
#       8
#     4   4   4   4   4   4   4   4
#     4  10  21  37  61  88 130 167 204 258 315 371
#     4  11  24  42  63  90 123 163 208 264 324 381
#     4  10  20  39  65  86 120 160 203 259 313 372
#     4  11  23  38  61  90 127 171 212 260 319 380
#     4  11  22  40  63  88 118 162 212 256 314 385
#     4  10  22  38  57  92 128 163 210 259 318 381
#     4  10  20  38  59  95 119 156 211 254 306 376
#     4  11  23  40  66  93 124 159 210 268 315 381
#
# _framework density 19.770357000000001
#
# number of rings (size 3 to 8) (size 9 to 14) (size 15 to 20)
#    0.000    1.500    1.250    4.875    3.500    0.500 
#    0.000    5.625    0.000    0.000    0.000    0.000 
#    0.000    0.000    0.000    0.000    0.000    0.000 
#
# Total GULP energy -178657.047835 kJ/mol
# GULP energy per Si atom -5583.032745 kJ/mol
# Density = 1.972536 g / cm^3
# Si number density = 19.770357 Si / 1000 Ang^3
#
#
#
# Elastic Constant Matrix: (Units=GPa)
#
#
# Indices 1 2 3 4 5 6 
#
# 1 106.2192 23.4204 20.1603 0.0000 -18.0097 0.0000
# 2 23.4204 57.5447 17.8311 0.0000 -9.8819 0.0000
# 3 20.1603 17.8311 81.5354 0.0000 -4.7727 0.0000
# 4 0.0000 0.0000 0.0000 23.9622 0.0000 -1.2836
# 5 -18.0097 -9.8819 -4.7727 0.0000 19.3317 0.0000
# 6 0.0000 0.0000 0.0000 -1.2836 0.0000 30.1014
#
#
#
# Elastic Compliance Matrix: (Units=1/GPa)
#
#
# Indices 1 2 3 4 5 6 
#
# 1 0.011928 -0.002698 -0.001816 0.000000 0.009285 0.000000
# 2 -0.002698 0.020794 -0.003455 0.000000 0.007263 0.000000
# 3 -0.001816 -0.003455 0.013461 0.000000 -0.000135 0.000000
# 4 0.000000 0.000000 0.000000 0.041828 0.000000 0.001784
# 5 0.009285 0.007263 -0.000135 0.000000 0.064058 0.000000
# 6 0.000000 0.000000 0.000000 0.001784 0.000000 0.033297
#
#
# Mechanical properties :
#
#
# Convention : Reuss Voigt Hill
#
# Bulk Modulus (GPa) = 33.06240 40.90255 36.98247
# Shear Modulus (GPa) = 23.65343 26.93825 25.29584
#
# Velocity S-wave (km/s) = 3.46267 3.69529 3.58087
# Velocity P-wave (km/s) = 5.72244 6.24024 5.98694
#
# Compressibility (1/GPa) = 0.03024584
#
# Stress axis : x y z
#
# Youngs Moduli (GPa) = 83.83433 48.09173 74.28670
#
# Poissons Ratio (x) = 0.12973 0.13490
# Poissons Ratio (y) = 0.22615 0.25668
# Poissons Ratio (z) = 0.15224 0.16617
#
# Static dielectric constant tensor:
#      x y z
#    x 1.698180 0.000000 0.005120 
#    y 0.000000 1.684460 0.000000 
#    z 0.005120 0.000000 1.705980 
# 
# From -- ./inp_files/40022.got.cif
#   From: 2010.05.17/outbox.cif.g08.bks.cpg/sg11_21_cif.got.tgz:40022.got - 2010.06.03 12:22:45.
