data_PCOD9163006
_publ_section_title
;
Structure prediction by ZEFSAII (Michael W. Deem and Ramdas Pophale) SiO2 
 PCOD9163006
Probable space group: P 21/M
;
_chemical_formula_sum "Si O2"
_cell_formula_units_Z 32
_cell_length_a 15.560077
_cell_length_b 7.988034
_cell_length_c 24.479204
_cell_angle_alpha 90.000000
_cell_angle_beta 27.477496
_cell_angle_gamma 90.000000
_cell_volume 1403.869390
_symmetry_space_group_name_H-M "P 21/M"
_symmetry_group_IT_number 11
_symmetry_cell_setting 'monoclinic'
loop_
_space_group_symop_operation_xyz
x,y,z
-x,1/2+y,-z
-x,-y,-z
x,1/2-y,z
loop_
_atom_site_type_symbol
_atom_site_label
_atom_site_fract_x
_atom_site_fract_y
_atom_site_fract_z
Si Si1 0.038713 0.447431 0.115736
Si Si2 0.192639 0.945047 0.420346
Si Si3 0.802963 0.950831 0.084264
Si Si4 0.855811 0.454606 0.748986
Si Si5 0.699829 0.055248 0.947394
Si Si6 0.397953 0.053654 0.201669
Si Si7 0.738801 0.943801 0.496477
Si Si8 0.660267 0.945713 0.275370
O O1 0.070364 0.250000 0.105179
O O2 0.101021 0.539755 0.135066
O O3 0.826684 0.471538 0.215581
O O4 0.173898 0.514487 0.990385
O O5 0.182322 0.750000 0.439593
O O6 0.356553 0.971242 0.283190
O O7 0.228646 0.039356 0.456561
O O8 0.000000 0.000000 0.500000
O O9 0.785990 0.750000 0.088963
O O10 0.663935 0.009857 0.210021
O O11 0.000000 0.000000 0.000000
O O12 0.849840 0.250000 0.749154
O O13 0.724856 0.513665 0.872533
O O14 0.785376 0.529137 0.732044
O O15 0.068953 0.505399 0.638220
O O16 0.649243 0.250000 0.970300
O O17 0.554410 0.978917 0.072616
O O18 0.432474 0.250000 0.191642
O O19 0.715762 0.750000 0.495801
O O20 0.548772 0.032315 0.586694
O O21 0.707575 0.750000 0.246958
#
# Coordination Sequence:
#
# PCOD9163006 Si02
#       8
#     4   4   4   4   4   4   4   4
#     4  10  20  36  57  85 118 156 201 251 302 355
#     4  12  24  40  62  90 126 162 200 246 302 361
#     4   8  16  30  49  75 107 144 184 227 286 345
#     4  10  22  42  64  85 119 161 203 254 305 356
#     4  10  23  41  61  89 120 158 205 253 305 359
#     4  11  23  39  63  93 124 157 200 248 303 369
#     4  11  23  39  61  90 122 161 204 248 301 360
#     4  10  20  36  58  85 119 160 199 245 301 360
#
# _framework density 22.794145
#
# number of rings (size 3 to 8) (size 9 to 14) (size 15 to 20)
#    0.000    1.750    1.250    3.000    1.750    3.000 
#    0.000    0.625    0.000    0.000    0.000    0.000 
#    0.000    0.000    0.000    0.000    0.000    0.000 
#
# Total GULP energy -178748.610177 kJ/mol
# GULP energy per Si atom -5585.894068 kJ/mol
# Density = 2.274226 g / cm^3
# Si number density = 22.794145 Si / 1000 Ang^3
#
#
#
# Elastic Constant Matrix: (Units=GPa)
#
#
# Indices 1 2 3 4 5 6 
#
# 1 46.3588 -10.9773 1.9691 0.0000 2.8688 0.0000
# 2 -10.9773 38.3532 1.7948 0.0000 -1.8586 0.0000
# 3 1.9691 1.7948 106.0024 0.0000 -0.3095 0.0000
# 4 0.0000 0.0000 0.0000 21.7891 0.0000 -7.5478
# 5 2.8688 -1.8586 -0.3095 0.0000 33.0962 0.0000
# 6 0.0000 0.0000 0.0000 -7.5478 0.0000 21.8065
#
#
#
# Elastic Compliance Matrix: (Units=1/GPa)
#
#
# Indices 1 2 3 4 5 6 
#
# 1 0.023260 0.006603 -0.000549 0.000000 -0.001651 0.000000
# 2 0.006603 0.028039 -0.000595 0.000000 0.000997 0.000000
# 3 -0.000549 -0.000595 0.009454 0.000000 0.000103 0.000000
# 4 0.000000 0.000000 0.000000 0.052147 0.000000 0.018049
# 5 -0.001651 0.000997 0.000103 0.000000 0.030415 0.000000
# 6 0.000000 0.000000 0.000000 0.018049 0.000000 0.052105
#
#
# Mechanical properties :
#
#
# Convention : Reuss Voigt Hill
#
# Bulk Modulus (GPa) = 13.95220 19.58752 16.76986
# Shear Modulus (GPa) = 23.99323 28.53355 26.26339
#
# Velocity S-wave (km/s) = 3.24791 3.54191 3.39809
# Velocity P-wave (km/s) = 4.49438 5.03375 4.77169
#
# Compressibility (1/GPa) = 0.07167328
#
# Stress axis : x y z
#
# Youngs Moduli (GPa) = 42.99254 35.66402 105.77194
#
# Poissons Ratio (x) = -0.23549 0.05804
# Poissons Ratio (y) = -0.28388 0.06288
# Poissons Ratio (z) = 0.02359 0.02120
#
# Static dielectric constant tensor:
#      x y z
#    x 1.854920 0.000000 -0.001210 
#    y 0.000000 1.791810 0.000000 
#    z -0.001210 0.000000 1.917750 
# 
# From -- ./inp_files/69063.got.cif
#   From: 2010.05.17/outbox.cif.g08.bks.cpg/sg11_35_cif.got.tgz:69063.got - 2010.06.03 12:22:45.
