data_PCOD9163366
_publ_section_title
;
Structure prediction by ZEFSAII (Michael W. Deem and Ramdas Pophale) SiO2 
 PCOD9163366
Probable space group: P 21/M
;
_chemical_formula_sum "Si O2"
_cell_formula_units_Z 28
_cell_length_a 14.793591
_cell_length_b 8.826873
_cell_length_c 22.177838
_cell_angle_alpha 90.000000
_cell_angle_beta 30.859264
_cell_angle_gamma 90.000000
_cell_volume 1485.452225
_symmetry_space_group_name_H-M "P 21/M"
_symmetry_group_IT_number 11
_symmetry_cell_setting 'monoclinic'
loop_
_space_group_symop_operation_xyz
x,y,z
-x,1/2+y,-z
-x,-y,-z
x,1/2-y,z
loop_
_atom_site_type_symbol
_atom_site_label
_atom_site_fract_x
_atom_site_fract_y
_atom_site_fract_z
Si Si1 0.819917 0.431434 0.874756
Si Si2 0.085579 0.930775 0.511367
Si Si3 0.524901 0.570137 0.706075
Si Si4 0.563351 0.569385 0.118442
Si Si5 0.783339 0.068433 0.760025
Si Si6 0.767799 0.930507 0.366073
Si Si7 0.467623 0.070895 0.615823
O O1 0.804802 0.250000 0.892824
O O2 0.742903 0.467452 0.852677
O O3 0.027110 0.469637 0.753546
O O4 0.717518 0.516324 0.985881
O O5 0.092537 0.750000 0.502919
O O6 0.280721 0.996222 0.406427
O O7 0.000000 0.000000 0.500000
O O8 0.957714 0.983586 0.638197
O O9 0.540748 0.750000 0.698657
O O10 0.432101 0.510586 0.819604
O O11 0.432440 0.516412 0.697675
O O12 0.566194 0.750000 0.124742
O O13 0.378888 0.529572 0.190720
O O14 0.814117 0.250000 0.738491
O O15 0.753054 0.750000 0.386810
O O16 0.675161 0.960120 0.354717
O O17 0.654043 0.017541 0.481068
O O18 0.472165 0.250000 0.624722
#
# Coordination Sequence:
#
# PCOD9163366 Si02
#       7
#     4   4   4   4   4   4   4
#     4  10  21  38  59  83 113 152 195 236 284 343
#     4  12  23  36  57  85 117 151 189 234 284 339
#     4  12  24  39  59  83 115 156 195 237 291 346
#     4  11  23  38  56  81 116 155 196 240 284 340
#     4  10  21  37  58  84 117 155 193 237 287 339
#     4   9  19  37  61  89 120 151 187 236 292 347
#     4  10  20  36  61  91 119 148 187 239 293 347
#
# _framework density 18.849478999999999
#
# number of rings (size 3 to 8) (size 9 to 14) (size 15 to 20)
#    0.000    1.429    1.429    4.714    0.000    3.429 
#    0.000    0.714    0.000    0.000    0.000    0.000 
#    0.000    0.000    0.000    0.000    0.000    0.000 
#
# Total GULP energy -156571.770335 kJ/mol
# GULP energy per Si atom -5591.848941 kJ/mol
# Density = 1.880658 g / cm^3
# Si number density = 18.849479 Si / 1000 Ang^3
#
#
#
# Elastic Constant Matrix: (Units=GPa)
#
#
# Indices 1 2 3 4 5 6 
#
# 1 70.6144 41.4012 30.6495 0.0000 26.3698 0.0000
# 2 41.4012 76.4760 39.8688 0.0000 21.2358 0.0000
# 3 30.6495 39.8688 77.2659 0.0000 27.7322 0.0000
# 4 0.0000 0.0000 0.0000 33.7286 0.0000 4.3624
# 5 26.3698 21.2358 27.7322 0.0000 29.8254 0.0000
# 6 0.0000 0.0000 0.0000 4.3624 0.0000 24.3550
#
#
#
# Elastic Compliance Matrix: (Units=1/GPa)
#
#
# Indices 1 2 3 4 5 6 
#
# 1 0.025694 -0.009717 0.000739 0.000000 -0.016485 0.000000
# 2 -0.009717 0.022370 -0.007587 0.000000 -0.000281 0.000000
# 3 0.000739 -0.007587 0.022303 0.000000 -0.015989 0.000000
# 4 0.000000 0.000000 0.000000 0.030352 0.000000 -0.005437
# 5 -0.016485 -0.000281 -0.015989 0.000000 0.063171 0.000000
# 6 0.000000 0.000000 0.000000 -0.005437 0.000000 0.042033
#
#
# Mechanical properties :
#
#
# Convention : Reuss Voigt Hill
#
# Bulk Modulus (GPa) = 26.85610 49.79947 38.32778
# Shear Modulus (GPa) = 19.88338 25.07759 22.48049
#
# Velocity S-wave (km/s) = 3.25137 3.65144 3.45720
# Velocity P-wave (km/s) = 5.32671 6.65239 6.02611
#
# Compressibility (1/GPa) = 0.03723549
#
# Stress axis : x y z
#
# Youngs Moduli (GPa) = 38.91920 44.70238 44.83727
#
# Poissons Ratio (x) = 0.43439 -0.03312
# Poissons Ratio (y) = 0.37819 0.34019
# Poissons Ratio (z) = -0.02875 0.33917
#
# Static dielectric constant tensor:
#      x y z
#    x 1.667470 0.000000 0.007510 
#    y 0.000000 1.629210 0.000000 
#    z 0.007510 0.000000 1.623500 
# 
# From -- ./inp_files/48915.got.cif
#   From: 2010.05.17/outbox.cif.g08.bks.cpg/sg11_25_cif.got.tgz:48915.got - 2010.06.03 12:22:45.
