data_PCOD9163661
_publ_section_title
;
Structure prediction by ZEFSAII (Michael W. Deem and Ramdas Pophale) SiO2 
 PCOD9163661
Probable space group: P 21/M
;
_chemical_formula_sum "Si O2"
_cell_formula_units_Z 32
_cell_length_a 13.366195
_cell_length_b 8.561400
_cell_length_c 31.296070
_cell_angle_alpha 90.000000
_cell_angle_beta 152.369257
_cell_angle_gamma 90.000000
_cell_volume 1660.911222
_symmetry_space_group_name_H-M "P 21/M"
_symmetry_group_IT_number 11
_symmetry_cell_setting 'monoclinic'
loop_
_space_group_symop_operation_xyz
x,y,z
-x,1/2+y,-z
-x,-y,-z
x,1/2-y,z
loop_
_atom_site_type_symbol
_atom_site_label
_atom_site_fract_x
_atom_site_fract_y
_atom_site_fract_z
Si Si1 0.212161 0.062953 0.556494
Si Si2 0.921339 0.938893 0.109968
Si Si3 0.048324 0.936837 0.408394
Si Si4 0.495511 0.938456 0.897896
Si Si5 0.260220 0.437065 0.403561
Si Si6 0.551081 0.938001 0.214995
Si Si7 0.074470 0.938747 0.792338
Si Si8 0.639000 0.059322 0.769108
O O1 0.207332 0.250000 0.556330
O O2 0.431047 0.010141 0.662683
O O3 0.194054 0.006407 0.501054
O O4 0.000000 0.000000 0.500000
O O5 0.922061 0.750000 0.110445
O O6 0.138275 0.992451 0.167933
O O7 0.917113 0.995893 0.156960
O O8 0.707954 0.990549 0.003835
O O9 0.066469 0.750000 0.415698
O O10 0.797643 0.978625 0.320790
O O11 0.119803 0.001914 0.389943
O O12 0.492917 0.750000 0.896270
O O13 0.280970 0.989635 0.842226
O O14 0.496820 0.995575 0.849738
O O15 0.500000 0.500000 0.500000
O O16 0.264050 0.250000 0.405884
O O17 0.140786 0.486510 0.314780
O O18 0.540382 0.750000 0.208404
O O19 0.398056 0.990614 0.195895
O O20 0.078985 0.750000 0.796119
O O21 0.639529 0.250000 0.769376
#
# Coordination Sequence:
#
# PCOD9163661 Si02
#       8
#     4   4   4   4   4   4   4   4
#     4  11  21  36  58  84 117 157 198 242 290 349
#     4  10  22  39  62  86 115 155 196 241 297 359
#     4  11  22  38  59  87 118 155 202 244 290 358
#     4  10  21  39  61  88 116 148 195 248 298 350
#     4  11  24  41  60  87 123 159 193 243 300 352
#     4  10  20  37  61  85 117 157 196 241 291 351
#     4  10  22  40  60  85 120 152 191 247 295 345
#     4   9  20  39  57  84 120 154 192 238 293 350
#
# _framework density 19.266532999999999
#
# number of rings (size 3 to 8) (size 9 to 14) (size 15 to 20)
#    0.000    1.750    2.500    1.500    1.750    3.000 
#    0.000    1.250    0.000    0.000    0.000    0.000 
#    0.000    0.000    0.000    0.000    0.000    0.000 
#
# Total GULP energy -178770.073006 kJ/mol
# GULP energy per Si atom -5586.564781 kJ/mol
# Density = 1.922268 g / cm^3
# Si number density = 19.266533 Si / 1000 Ang^3
#
#
#
# Elastic Constant Matrix: (Units=GPa)
#
#
# Indices 1 2 3 4 5 6 
#
# 1 148.5949 20.4088 89.0570 0.0000 -19.1840 0.0000
# 2 20.4088 18.2588 29.4078 0.0000 -0.6760 0.0000
# 3 89.0570 29.4078 163.4440 0.0000 -5.7101 0.0000
# 4 0.0000 0.0000 0.0000 24.2302 0.0000 -5.8178
# 5 -19.1840 -0.6760 -5.7101 0.0000 29.1217 0.0000
# 6 0.0000 0.0000 0.0000 -5.8178 0.0000 32.3697
#
#
#
# Elastic Compliance Matrix: (Units=1/GPa)
#
#
# Indices 1 2 3 4 5 6 
#
# 1 0.011171 -0.003947 -0.005158 0.000000 0.006256 0.000000
# 2 -0.003947 0.078535 -0.012090 0.000000 -0.003148 0.000000
# 3 -0.005158 -0.012090 0.011051 0.000000 -0.001512 0.000000
# 4 0.000000 0.000000 0.000000 0.043132 0.000000 0.007752
# 5 0.006256 -0.003148 -0.001512 0.000000 0.038090 0.000000
# 6 0.000000 0.000000 0.000000 0.007752 0.000000 0.032286
#
#
# Mechanical properties :
#
#
# Convention : Reuss Voigt Hill
#
# Bulk Modulus (GPa) = 17.13281 67.56054 42.34667
# Shear Modulus (GPa) = 18.10864 29.90595 24.00730
#
# Velocity S-wave (km/s) = 3.06911 3.94410 3.53379
# Velocity P-wave (km/s) = 4.63369 7.47554 6.21911
#
# Compressibility (1/GPa) = 0.05836756
#
# Stress axis : x y z
#
# Youngs Moduli (GPa) = 89.51933 12.73314 90.48776
#
# Poissons Ratio (x) = 0.05026 0.46673
# Poissons Ratio (y) = 0.35334 1.09398
# Poissons Ratio (z) = 0.46174 0.15394
#
# Static dielectric constant tensor:
#      x y z
#    x 1.649550 0.000000 0.010300 
#    y 0.000000 1.664560 0.000000 
#    z 0.010300 0.000000 1.666770 
# 
# From -- ./inp_files/73185.got.cif
#   From: 2010.05.17/outbox.cif.g08.bks.cpg/sg11_37_cif.got.tgz:73185.got - 2010.06.03 12:22:45.
