data_PCOD9163767
_publ_section_title
;
Structure prediction by ZEFSAII (Michael W. Deem and Ramdas Pophale) SiO2 
 PCOD9163767
Probable space group: P 21/M
;
_chemical_formula_sum "Si O2"
_cell_formula_units_Z 24
_cell_length_a 9.227496
_cell_length_b 8.644056
_cell_length_c 16.263751
_cell_angle_alpha 90.000000
_cell_angle_beta 106.186010
_cell_angle_gamma 90.000000
_cell_volume 1245.824942
_symmetry_space_group_name_H-M "P 21/M"
_symmetry_group_IT_number 11
_symmetry_cell_setting 'monoclinic'
loop_
_space_group_symop_operation_xyz
x,y,z
-x,1/2+y,-z
-x,-y,-z
x,1/2-y,z
loop_
_atom_site_type_symbol
_atom_site_label
_atom_site_fract_x
_atom_site_fract_y
_atom_site_fract_z
Si Si1 0.620439 0.066515 0.901508
Si Si2 0.125839 0.564847 0.581820
Si Si3 0.296101 0.433543 0.259586
Si Si4 0.970881 0.563840 0.257040
Si Si5 0.286959 0.435262 0.913731
Si Si6 0.550104 0.565155 0.419769
O O1 0.632842 0.250000 0.888832
O O2 0.444570 0.029052 0.892260
O O3 0.678214 0.976571 0.831412
O O4 0.708516 0.019926 0.998198
O O5 0.123324 0.750000 0.580380
O O6 0.089145 0.503277 0.666882
O O7 0.288669 0.504274 0.579435
O O8 0.000000 0.500000 0.500000
O O9 0.303824 0.250000 0.272856
O O10 0.426550 0.514142 0.333446
O O11 0.134706 0.496565 0.263200
O O12 0.978503 0.750000 0.263929
O O13 0.853356 0.523744 0.165935
O O14 0.285455 0.250000 0.927678
O O15 0.500000 0.500000 0.500000
O O16 0.560019 0.750000 0.424608
#
# Coordination Sequence:
#
# PCOD9163767 Si02
#       6
#     4   4   4   4   4   4
#     4  10  20  37  62  90 120 157 202 252 306 365
#     4  12  25  43  66  94 126 162 203 248 301 359
#     4  12  25  41  61  89 124 162 205 253 306 363
#     4  11  23  41  63  89 123 163 206 253 305 361
#     4   9  20  38  61  88 119 156 200 250 305 365
#     4  12  25  44  67  93 124 160 203 250 303 361
#
# _framework density 19.264343
#
# number of rings (size 3 to 8) (size 9 to 14) (size 15 to 20)
#    0.000    1.000    0.000    7.500    0.000    4.000 
#    0.000    0.000    0.000    0.000    0.000    0.000 
#    0.000    0.000    0.000    0.000    0.000    0.000 
#
# Total GULP energy -134342.541163 kJ/mol
# GULP energy per Si atom -5597.605882 kJ/mol
# Density = 1.922050 g / cm^3
# Si number density = 19.264343 Si / 1000 Ang^3
#
#
#
# Elastic Constant Matrix: (Units=GPa)
#
#
# Indices 1 2 3 4 5 6 
#
# 1 117.5668 17.9118 55.8575 0.0000 -2.1716 0.0000
# 2 17.9118 82.3392 23.1205 0.0000 -8.1532 0.0000
# 3 55.8575 23.1205 99.2375 0.0000 -4.2649 0.0000
# 4 0.0000 0.0000 0.0000 41.5390 0.0000 -1.7573
# 5 -2.1716 -8.1532 -4.2649 0.0000 36.6768 0.0000
# 6 0.0000 0.0000 0.0000 -1.7573 0.0000 35.4843
#
#
#
# Elastic Compliance Matrix: (Units=1/GPa)
#
#
# Indices 1 2 3 4 5 6 
#
# 1 0.011655 -0.000763 -0.006392 0.000000 -0.000223 0.000000
# 2 -0.000763 0.013287 -0.002554 0.000000 0.002611 0.000000
# 3 -0.006392 -0.002554 0.014301 0.000000 0.000717 0.000000
# 4 0.000000 0.000000 0.000000 0.024124 0.000000 0.001195
# 5 -0.000223 0.002611 0.000717 0.000000 0.027916 0.000000
# 6 0.000000 0.000000 0.000000 0.001195 0.000000 0.028241
#
#
# Mechanical properties :
#
#
# Convention : Reuss Voigt Hill
#
# Bulk Modulus (GPa) = 50.44239 54.76924 52.60582
# Shear Modulus (GPa) = 34.35291 36.22360 35.28825
#
# Velocity S-wave (km/s) = 4.22742 4.34100 4.28459
# Velocity P-wave (km/s) = 7.07597 7.32242 7.20025
#
# Compressibility (1/GPa) = 0.01982459
#
# Stress axis : x y z
#
# Youngs Moduli (GPa) = 85.80157 75.26421 69.92746
#
# Poissons Ratio (x) = 0.05739 0.44698
# Poissons Ratio (y) = 0.06543 0.17860
# Poissons Ratio (z) = 0.54844 0.19223
#
# Static dielectric constant tensor:
#      x y z
#    x 1.636590 0.000000 0.005270 
#    y 0.000000 1.642420 0.000000 
#    z 0.005270 0.000000 1.639060 
# 
# From -- ./inp_files/46605.got.cif
#   From: 2010.05.17/outbox.cif.g08.bks.cpg/sg11_24_cif.got.tgz:46605.got - 2010.06.03 12:22:45.
