data_PCOD9163206
_publ_section_title
;
Structure prediction by ZEFSAII (Michael W. Deem and Ramdas Pophale) SiO2 
 PCOD9163206
Probable space group: P 21/M
;
_chemical_formula_sum "Si O2"
_cell_formula_units_Z 28
_cell_length_a 25.929647
_cell_length_b 7.867625
_cell_length_c 10.277470
_cell_angle_alpha 90.000000
_cell_angle_beta 40.422300
_cell_angle_gamma 90.000000
_cell_volume 1359.503605
_symmetry_space_group_name_H-M "P 21/M"
_symmetry_group_IT_number 11
_symmetry_cell_setting 'monoclinic'
loop_
_space_group_symop_operation_xyz
x,y,z
-x,1/2+y,-z
-x,-y,-z
x,1/2-y,z
loop_
_atom_site_type_symbol
_atom_site_label
_atom_site_fract_x
_atom_site_fract_y
_atom_site_fract_z
Si Si1 0.432776 0.454571 0.732659
Si Si2 0.013895 0.544586 0.124344
Si Si3 0.191952 0.955542 0.841736
Si Si4 0.140933 0.447212 0.436470
Si Si5 0.256937 0.047113 0.995698
Si Si6 0.256027 0.949374 0.441060
Si Si7 0.567344 0.546534 0.973525
O O1 0.500000 0.500000 0.500000
O O2 0.429022 0.250000 0.742548
O O3 0.344915 0.519134 0.861503
O O4 0.452035 0.512303 0.842430
O O5 0.013126 0.750000 0.132179
O O6 0.941902 0.477814 0.352306
O O7 0.000000 0.500000 0.000000
O O8 0.100495 0.486330 0.004952
O O9 0.192356 0.750000 0.844600
O O10 0.236576 0.008751 0.624144
O O11 0.233800 0.017214 0.891662
O O12 0.124344 0.250000 0.436510
O O13 0.202022 0.456121 0.439570
O O14 0.188409 0.523878 0.223059
O O15 0.259714 0.250000 0.014094
O O16 0.234705 0.750000 0.473698
O O17 0.347957 0.972358 0.231132
O O18 0.575545 0.750000 0.960342
O O19 0.500000 0.500000 0.000000
#
# Coordination Sequence:
#
# PCOD9163206 Si02
#       7
#     4   4   4   4   4   4   4
#     4  10  23  42  62  86 119 154 194 242 292 349
#     4  10  20  36  59  87 120 155 196 246 299 348
#     4  10  23  39  56  88 125 155 195 248 295 346
#     4  10  20  38  63  86 116 158 200 245 295 349
#     4  10  22  41  60  85 117 157 201 239 290 358
#     4  11  22  38  61  89 121 157 198 243 294 352
#     4  11  24  43  64  91 123 154 196 247 295 350
#
# _framework density 20.595751
#
# number of rings (size 3 to 8) (size 9 to 14) (size 15 to 20)
#    0.000    1.714    2.857    0.857    2.000    4.571 
#    0.000    0.000    0.000    0.000    0.000    0.000 
#    0.000    0.000    0.000    0.000    0.000    0.000 
#
# Total GULP energy -156436.251568 kJ/mol
# GULP energy per Si atom -5587.008985 kJ/mol
# Density = 2.054887 g / cm^3
# Si number density = 20.595751 Si / 1000 Ang^3
#
#
#
# Elastic Constant Matrix: (Units=GPa)
#
#
# Indices 1 2 3 4 5 6 
#
# 1 109.8126 -7.9308 54.8759 0.0000 8.8852 0.0000
# 2 -7.9308 25.7789 -1.0665 0.0000 -2.1906 0.0000
# 3 54.8759 -1.0665 173.3885 0.0000 3.4929 0.0000
# 4 0.0000 0.0000 0.0000 22.2280 0.0000 6.1674
# 5 8.8852 -2.1906 3.4929 0.0000 35.0428 0.0000
# 6 0.0000 0.0000 0.0000 6.1674 0.0000 16.5890
#
#
#
# Elastic Compliance Matrix: (Units=1/GPa)
#
#
# Indices 1 2 3 4 5 6 
#
# 1 0.011269 0.003125 -0.003501 0.000000 -0.002313 0.000000
# 2 0.003125 0.039872 -0.000780 0.000000 0.001778 0.000000
# 3 -0.003501 -0.000780 0.006867 0.000000 0.000154 0.000000
# 4 0.000000 0.000000 0.000000 0.050163 0.000000 -0.018649
# 5 -0.002313 0.001778 0.000154 0.000000 0.029219 0.000000
# 6 0.000000 0.000000 0.000000 -0.018649 0.000000 0.067214
#
#
# Mechanical properties :
#
#
# Convention : Reuss Voigt Hill
#
# Bulk Modulus (GPa) = 17.95401 44.52634 31.24018
# Shear Modulus (GPa) = 22.17498 32.31206 27.24352
#
# Velocity S-wave (km/s) = 3.28484 3.96519 3.64094
# Velocity P-wave (km/s) = 4.80865 6.52915 5.73380
#
# Compressibility (1/GPa) = 0.05569787
#
# Stress axis : x y z
#
# Youngs Moduli (GPa) = 88.74209 25.08044 145.61562
#
# Poissons Ratio (x) = -0.07839 0.50974
# Poissons Ratio (y) = -0.27735 0.11354
# Poissons Ratio (z) = 0.31065 0.01956
#
# Static dielectric constant tensor:
#      x y z
#    x 1.682200 0.000000 -0.008960 
#    y 0.000000 1.769840 0.000000 
#    z -0.008960 0.000000 1.737280 
# 
# From -- ./inp_files/28392.got.cif
#   From: 2010.05.17/outbox.cif.g08.bks.cpg/sg11_15_cif.got.tgz:28392.got - 2010.06.03 12:22:45.
