data_PCOD9163595
_publ_section_title
;
Structure prediction by ZEFSAII (Michael W. Deem and Ramdas Pophale) SiO2 
 PCOD9163595
Probable space group: P 21/M
;
_chemical_formula_sum "Si O2"
_cell_formula_units_Z 32
_cell_length_a 9.281839
_cell_length_b 19.214117
_cell_length_c 15.846547
_cell_angle_alpha 90.000000
_cell_angle_beta 141.293844
_cell_angle_gamma 90.000000
_cell_volume 1767.241662
_symmetry_space_group_name_H-M "P 21/M"
_symmetry_group_IT_number 11
_symmetry_cell_setting 'monoclinic'
loop_
_space_group_symop_operation_xyz
x,y,z
-x,1/2+y,-z
-x,-y,-z
x,1/2-y,z
loop_
_atom_site_type_symbol
_atom_site_label
_atom_site_fract_x
_atom_site_fract_y
_atom_site_fract_z
Si Si1 0.928804 0.832358 0.302109
Si Si2 0.093609 0.167002 0.907198
Si Si3 0.178584 0.958628 0.140652
Si Si4 0.976873 0.066163 0.375231
Si Si5 0.694627 0.564597 0.318208
Si Si6 0.548754 0.332896 0.400835
Si Si7 0.573405 0.167576 0.216029
Si Si8 0.290321 0.458017 0.361670
O O1 0.891049 0.750000 0.295218
O O2 0.917848 0.848237 0.197783
O O3 0.750848 0.874974 0.277301
O O4 0.187257 0.848171 0.452653
O O5 0.047659 0.250000 0.898239
O O6 0.921912 0.116641 0.878785
O O7 0.349777 0.151806 0.058337
O O8 0.426559 0.949514 0.210145
O O9 0.215365 0.002322 0.243088
O O10 0.000000 0.000000 0.000000
O O11 0.802025 0.129950 0.289745
O O12 0.180456 0.080714 0.535509
O O13 0.088638 0.046781 0.337631
O O14 0.823926 0.003158 0.341356
O O15 0.508508 0.250000 0.393252
O O16 0.525193 0.351827 0.291484
O O17 0.382538 0.381612 0.378748
O O18 0.609769 0.250000 0.231710
O O19 0.500000 0.500000 0.500000
#
# Coordination Sequence:
#
# PCOD9163595 Si02
#       8
#     4   4   4   4   4   4   4   4
#     4  10  21  38  61  88 119 155 199 246 301 362
#     4  10  22  41  62  86 121 161 196 244 303 361
#     4  12  25  40  61  91 123 161 205 248 296 362
#     4  11  22  36  60  87 116 153 195 248 298 350
#     4  11  22  37  59  86 118 154 194 247 298 349
#     4  10  20  37  60  85 117 156 198 244 297 362
#     4  10  21  40  64  87 117 156 198 243 297 359
#     4  12  23  38  59  88 121 161 199 250 300 352
#
# _framework density 18.107313999999999
#
# number of rings (size 3 to 8) (size 9 to 14) (size 15 to 20)
#    0.000    1.250    2.500    4.500    0.000    2.000 
#    0.000    2.500    0.000    4.500    0.000    0.000 
#    0.000    0.000    0.000    0.000    0.000    0.000 
#
# Total GULP energy -178860.854775 kJ/mol
# GULP energy per Si atom -5589.401712 kJ/mol
# Density = 1.806610 g / cm^3
# Si number density = 18.107314 Si / 1000 Ang^3
#
#
#
# Elastic Constant Matrix: (Units=GPa)
#
#
# Indices 1 2 3 4 5 6 
#
# 1 117.3387 52.1556 49.6615 0.0000 12.7924 0.0000
# 2 52.1556 58.1543 38.6514 0.0000 7.8530 0.0000
# 3 49.6615 38.6514 113.4198 0.0000 -7.1639 0.0000
# 4 0.0000 0.0000 0.0000 16.9670 0.0000 6.6878
# 5 12.7924 7.8530 -7.1639 0.0000 30.0421 0.0000
# 6 0.0000 0.0000 0.0000 6.6878 0.0000 45.3211
#
#
#
# Elastic Compliance Matrix: (Units=1/GPa)
#
#
# Indices 1 2 3 4 5 6 
#
# 1 0.015214 -0.010911 -0.003221 0.000000 -0.004395 0.000000
# 2 -0.010911 0.031978 -0.006452 0.000000 -0.005252 0.000000
# 3 -0.003221 -0.006452 0.012812 0.000000 0.006113 0.000000
# 4 0.000000 0.000000 0.000000 0.062578 0.000000 -0.009234
# 5 -0.004395 -0.005252 0.006113 0.000000 0.037988 0.000000
# 6 0.000000 0.000000 0.000000 -0.009234 0.000000 0.023427
#
#
# Mechanical properties :
#
#
# Convention : Reuss Voigt Hill
#
# Bulk Modulus (GPa) = 53.08682 63.31664 58.20173
# Shear Modulus (GPa) = 21.60338 28.36233 24.98286
#
# Velocity S-wave (km/s) = 3.45784 3.96200 3.71848
# Velocity P-wave (km/s) = 6.73229 7.48153 7.11678
#
# Compressibility (1/GPa) = 0.01883707
#
# Stress axis : x y z
#
# Youngs Moduli (GPa) = 65.72723 31.27123 78.05157
#
# Poissons Ratio (x) = 0.34119 0.25141
# Poissons Ratio (y) = 0.71713 0.50359
# Poissons Ratio (z) = 0.21172 0.20176
#
# Static dielectric constant tensor:
#      x y z
#    x 1.586970 0.000000 -0.011610 
#    y 0.000000 1.650100 0.000000 
#    z -0.011610 0.000000 1.608480 
# 
# From -- ./inp_files/48284.got.cif
#   From: 2010.05.17/outbox.cif.g08.bks.cpg/sg11_25_cif.got.tgz:48284.got - 2010.06.03 12:22:45.
