data_PCOD9163609
_publ_section_title
;
Structure prediction by ZEFSAII (Michael W. Deem and Ramdas Pophale) SiO2 
 PCOD9163609
Probable space group: P 21/M
;
_chemical_formula_sum "Si O2"
_cell_formula_units_Z 32
_cell_length_a 22.861706
_cell_length_b 8.828299
_cell_length_c 15.422979
_cell_angle_alpha 90.000000
_cell_angle_beta 148.215522
_cell_angle_gamma 90.000000
_cell_volume 1639.601498
_symmetry_space_group_name_H-M "P 21/M"
_symmetry_group_IT_number 11
_symmetry_cell_setting 'monoclinic'
loop_
_space_group_symop_operation_xyz
x,y,z
-x,1/2+y,-z
-x,-y,-z
x,1/2-y,z
loop_
_atom_site_type_symbol
_atom_site_label
_atom_site_fract_x
_atom_site_fract_y
_atom_site_fract_z
Si Si1 0.505906 0.069884 0.736860
Si Si2 0.284191 0.568331 0.379018
Si Si3 0.257987 0.068341 0.999183
Si Si4 0.910926 0.434398 0.735484
Si Si5 0.877261 0.930852 0.342086
Si Si6 0.804250 0.427108 0.425927
Si Si7 0.453090 0.926653 0.853846
Si Si8 0.160138 0.068178 0.063960
O O1 0.501613 0.250000 0.728365
O O2 0.401489 0.001210 0.553930
O O3 0.495051 0.012655 0.822120
O O4 0.622695 0.010028 0.848473
O O5 0.291886 0.750000 0.392638
O O6 0.188372 0.517986 0.326376
O O7 0.242832 0.513857 0.233504
O O8 0.274130 0.250000 0.013225
O O9 0.189177 0.019159 0.827547
O O10 0.191703 0.038360 0.004077
O O11 0.910134 0.250000 0.733178
O O12 0.885347 0.482076 0.604586
O O13 0.032956 0.482144 0.919067
O O14 0.885552 0.750000 0.349598
O O15 0.815171 0.982270 0.351076
O O16 0.000000 0.000000 0.500000
O O17 0.829178 0.250000 0.438947
O O18 0.680349 0.434644 0.308165
O O19 0.485018 0.750000 0.888327
O O20 0.500000 0.000000 0.000000
O O21 0.166717 0.250000 0.085983
#
# Coordination Sequence:
#
# PCOD9163609 Si02
#       8
#     4   4   4   4   4   4   4   4
#     4  12  25  41  63  90 124 163 210 260 307 366
#     4  11  22  40  64  91 125 163 201 250 314 377
#     4  10  23  43  64  86 122 167 210 256 313 372
#     4   9  18  37  63  90 123 160 198 244 312 378
#     4  11  23  39  61  90 123 164 208 253 303 363
#     4  10  20  37  60  86 119 161 200 243 301 364
#     4  11  22  38  61  89 123 160 202 249 305 365
#     4  10  21  39  64  91 118 156 206 259 312 372
#
# _framework density 19.516938
#
# number of rings (size 3 to 8) (size 9 to 14) (size 15 to 20)
#    0.000    1.500    1.250    4.125    0.000    7.000 
#    0.000    2.500    0.000    0.000    0.000    0.000 
#    0.000    0.000    0.000    0.000    0.000    0.000 
#
# Total GULP energy -178920.051912 kJ/mol
# GULP energy per Si atom -5591.251622 kJ/mol
# Density = 1.947252 g / cm^3
# Si number density = 19.516938 Si / 1000 Ang^3
#
#
#
# Elastic Constant Matrix: (Units=GPa)
#
#
# Indices 1 2 3 4 5 6 
#
# 1 63.0413 31.4064 23.1217 0.0000 4.1963 0.0000
# 2 31.4064 56.2558 37.5336 0.0000 5.6540 0.0000
# 3 23.1217 37.5336 121.3122 0.0000 1.5855 0.0000
# 4 0.0000 0.0000 0.0000 29.6184 0.0000 -2.3098
# 5 4.1963 5.6540 1.5855 0.0000 35.8872 0.0000
# 6 0.0000 0.0000 0.0000 -2.3098 0.0000 27.1847
#
#
#
# Elastic Compliance Matrix: (Units=1/GPa)
#
#
# Indices 1 2 3 4 5 6 
#
# 1 0.022014 -0.011881 -0.000511 0.000000 -0.000680 0.000000
# 2 -0.011881 0.029191 -0.006729 0.000000 -0.002913 0.000000
# 3 -0.000511 -0.006729 0.010414 0.000000 0.000660 0.000000
# 4 0.000000 0.000000 0.000000 0.033988 0.000000 0.002888
# 5 -0.000680 -0.002913 0.000660 0.000000 0.028374 0.000000
# 6 0.000000 0.000000 0.000000 0.002888 0.000000 0.037031
#
#
# Mechanical properties :
#
#
# Convention : Reuss Voigt Hill
#
# Bulk Modulus (GPa) = 42.77655 47.19253 44.98454
# Shear Modulus (GPa) = 24.14918 28.44124 26.29521
#
# Velocity S-wave (km/s) = 3.52141 3.82155 3.67454
# Velocity P-wave (km/s) = 6.20475 6.61098 6.41109
#
# Compressibility (1/GPa) = 0.02337730
#
# Stress axis : x y z
#
# Youngs Moduli (GPa) = 45.42538 34.25711 96.02513
#
# Poissons Ratio (x) = 0.40700 0.04908
# Poissons Ratio (y) = 0.53969 0.64616
# Poissons Ratio (z) = 0.02322 0.23052
#
# Static dielectric constant tensor:
#      x y z
#    x 1.676110 0.000000 0.008330 
#    y 0.000000 1.659690 0.000000 
#    z 0.008330 0.000000 1.673620 
# 
# From -- ./inp_files/55704.got.cif
#   From: 2010.05.17/outbox.cif.g08.bks.cpg/sg11_28_cif.got.tgz:55704.got - 2010.06.03 12:22:45.
