data_PCOD9163450
_publ_section_title
;
Structure prediction by ZEFSAII (Michael W. Deem and Ramdas Pophale) SiO2 
 PCOD9163450
Probable space group: P 21/M
;
_chemical_formula_sum "Si O2"
_cell_formula_units_Z 32
_cell_length_a 12.555681
_cell_length_b 7.556745
_cell_length_c 22.024628
_cell_angle_alpha 90.000000
_cell_angle_beta 135.326982
_cell_angle_gamma 90.000000
_cell_volume 1469.183172
_symmetry_space_group_name_H-M "P 21/M"
_symmetry_group_IT_number 11
_symmetry_cell_setting 'monoclinic'
loop_
_space_group_symop_operation_xyz
x,y,z
-x,1/2+y,-z
-x,-y,-z
x,1/2-y,z
loop_
_atom_site_type_symbol
_atom_site_label
_atom_site_fract_x
_atom_site_fract_y
_atom_site_fract_z
Si Si1 0.319286 0.036775 0.319664
Si Si2 0.517627 0.462863 0.936224
Si Si3 0.340431 0.533211 0.545505
Si Si4 0.832276 0.039401 0.406321
Si Si5 0.111973 0.960217 0.349492
Si Si6 0.817082 0.043206 0.994845
Si Si7 0.213280 0.456064 0.751636
Si Si8 0.840454 0.965096 0.866808
O O1 0.323691 0.250000 0.320433
O O2 0.489973 0.974294 0.401292
O O3 0.262661 0.977375 0.230790
O O4 0.199758 0.985766 0.322511
O O5 0.523125 0.250000 0.929624
O O6 0.370776 0.532159 0.840260
O O7 0.500000 0.500000 0.000000
O O8 0.677044 0.533946 0.975273
O O9 0.339653 0.750000 0.544316
O O10 0.286204 0.478560 0.590433
O O11 0.218315 0.470405 0.446776
O O12 0.818443 0.250000 0.395176
O O13 0.803716 0.964753 0.327955
O O14 0.000000 0.000000 0.500000
O O15 0.098596 0.750000 0.354994
O O16 0.941922 0.034099 0.283645
O O17 0.828795 0.250000 0.015820
O O18 0.986581 0.970195 0.072733
O O19 0.785953 0.027264 0.910427
O O20 0.216823 0.250000 0.771249
O O21 0.841917 0.750000 0.869239
#
# Coordination Sequence:
#
# PCOD9163450 Si02
#       8
#     4   4   4   4   4   4   4   4
#     4  10  21  35  55  82 109 139 184 231 272 323
#     4  10  23  40  60  85 117 151 188 238 288 339
#     4   9  19  36  55  78 113 147 177 224 278 326
#     4  11  21  37  61  87 116 153 192 234 283 338
#     4  10  20  37  56  75 110 150 182 223 277 332
#     4   9  19  37  56  78 110 142 178 227 279 328
#     4  10  22  40  58  83 117 152 190 236 287 339
#     4   9  19  35  56  80 107 141 179 227 278 328
#
# _framework density 21.780809999999999
#
# number of rings (size 3 to 8) (size 9 to 14) (size 15 to 20)
#    0.000    2.250    1.250    0.750    3.500    2.000 
#    0.000    1.250    0.000    0.000    0.000    0.000 
#    0.000    0.000    0.000    0.000    0.000    0.000 
#
# Total GULP energy -178755.792897 kJ/mol
# GULP energy per Si atom -5586.118528 kJ/mol
# Density = 2.173124 g / cm^3
# Si number density = 21.780810 Si / 1000 Ang^3
#
#
#
# Elastic Constant Matrix: (Units=GPa)
#
#
# Indices 1 2 3 4 5 6 
#
# 1 109.4023 -6.7511 12.0105 0.0000 3.8134 0.0000
# 2 -6.7511 49.0691 -8.0310 0.0000 10.3839 0.0000
# 3 12.0105 -8.0310 67.5091 0.0000 2.8263 0.0000
# 4 0.0000 0.0000 0.0000 13.0269 0.0000 -9.8275
# 5 3.8134 10.3839 2.8263 0.0000 15.4298 0.0000
# 6 0.0000 0.0000 0.0000 -9.8275 0.0000 14.4834
#
#
#
# Elastic Compliance Matrix: (Units=1/GPa)
#
#
# Indices 1 2 3 4 5 6 
#
# 1 0.009514 0.001790 -0.001341 0.000000 -0.003310 0.000000
# 2 0.001790 0.024962 0.003399 0.000000 -0.017864 0.000000
# 3 -0.001341 0.003399 0.015658 0.000000 -0.004824 0.000000
# 4 0.000000 0.000000 0.000000 0.157267 0.000000 0.106711
# 5 -0.003310 -0.017864 -0.004824 0.000000 0.078534 0.000000
# 6 0.000000 0.000000 0.000000 0.106711 0.000000 0.141451
#
#
# Mechanical properties :
#
#
# Convention : Reuss Voigt Hill
#
# Bulk Modulus (GPa) = 17.29222 24.49303 20.89263
# Shear Modulus (GPa) = 11.39038 23.83816 17.61427
#
# Velocity S-wave (km/s) = 2.28930 3.31185 2.84686
# Velocity P-wave (km/s) = 3.86579 5.08862 4.51876
#
# Compressibility (1/GPa) = 0.05782948
#
# Stress axis : x y z
#
# Youngs Moduli (GPa) = 105.11224 40.06035 63.86628
#
# Poissons Ratio (x) = -0.07171 0.08565
# Poissons Ratio (y) = -0.18814 -0.21708
# Poissons Ratio (z) = 0.14096 -0.13617
#
# Static dielectric constant tensor:
#      x y z
#    x 1.782600 0.000000 0.049600 
#    y 0.000000 1.831300 0.000000 
#    z 0.049600 0.000000 1.808830 
# 
# From -- ./inp_files/64412.got.cif
#   From: 2010.05.17/outbox.cif.g08.bks.cpg/sg11_33_cif.got.tgz:64412.got - 2010.06.03 12:22:45.
