data_PCOD9163827
_publ_section_title
;
Structure prediction by ZEFSAII (Michael W. Deem and Ramdas Pophale) SiO2 
 PCOD9163827
Probable space group: P 21/M
;
_chemical_formula_sum "Si O2"
_cell_formula_units_Z 28
_cell_length_a 5.771443
_cell_length_b 10.747533
_cell_length_c 21.276018
_cell_angle_alpha 90.000000
_cell_angle_beta 113.410035
_cell_angle_gamma 90.000000
_cell_volume 1211.092196
_symmetry_space_group_name_H-M "P 21/M"
_symmetry_group_IT_number 11
_symmetry_cell_setting 'monoclinic'
loop_
_space_group_symop_operation_xyz
x,y,z
-x,1/2+y,-z
-x,-y,-z
x,1/2-y,z
loop_
_atom_site_type_symbol
_atom_site_label
_atom_site_fract_x
_atom_site_fract_y
_atom_site_fract_z
Si Si1 0.987240 0.612247 0.207404
Si Si2 0.448229 0.250000 0.209548
Si Si3 0.664143 0.391700 0.983506
Si Si4 0.643073 0.111370 0.549623
Si Si5 0.851152 0.535538 0.889922
Si Si6 0.069294 0.250000 0.289679
Si Si7 0.528337 0.616263 0.325035
Si Si8 0.941440 0.491179 0.335032
O O1 0.888294 0.750000 0.184093
O O2 0.978342 0.523538 0.147076
O O3 0.284828 0.619187 0.255321
O O4 0.892144 0.560001 0.263410
O O5 0.351099 0.129723 0.160823
O O6 0.758415 0.250000 0.244102
O O7 0.263606 0.250000 0.252285
O O8 0.566063 0.250000 0.979905
O O9 0.945418 0.396784 0.043782
O O10 0.500000 0.500000 0.000000
O O11 0.706730 0.432108 0.915693
O O12 0.626383 0.250000 0.519247
O O13 0.543663 0.119981 0.610153
O O14 0.500000 0.000000 0.500000
O O15 0.928270 0.069351 0.595508
O O16 0.100390 0.371867 0.335373
O O17 0.663101 0.750000 0.326717
O O18 0.659243 0.483155 0.328999
#
# Coordination Sequence:
#
# PCOD9163827 Si02
#       8
#     4   2   4   4   4   2   4   4
#     4  10  20  37  64  95 128 169 223 288 358 430
#     4  12  26  48  74 110 146 192 235 306 381 439
#     4  11  27  45  67  99 136 194 247 309 368 447
#     4  10  23  42  66  95 136 186 239 299 353 427
#     4  11  24  43  69  93 143 180 244 295 372 441
#     4  12  28  42  74 110 150 184 241 294 377 447
#     4   9  19  38  63  92 130 170 224 288 355 422
#     4  11  22  40  63  97 133 182 228 295 359 430
#
# _framework density 23.119629
#
# number of rings (size 3 to 8) (size 9 to 14) (size 15 to 20)
#    0.000    1.429    2.143    3.429    6.000    2.857 
#    1.286    0.000    0.000    0.000    0.000    0.000 
#    0.000    0.000    0.000    0.000    0.000    0.000 
#
# Total GULP energy -156146.023658 kJ/mol
# GULP energy per Si atom -5576.643702 kJ/mol
# Density = 2.306701 g / cm^3
# Si number density = 23.119629 Si / 1000 Ang^3
#
#
#
# Elastic Constant Matrix: (Units=GPa)
#
#
# Indices 1 2 3 4 5 6 
#
# 1 43.3907 -7.5442 -28.1499 0.0000 38.5497 0.0000
# 2 -7.5442 107.3058 -1.4899 0.0000 37.0645 0.0000
# 3 -28.1499 -1.4899 14.6537 0.0000 53.7667 0.0000
# 4 0.0000 0.0000 0.0000 12.6396 0.0000 2.1144
# 5 38.5497 37.0645 53.7667 0.0000 -33.1218 0.0000
# 6 0.0000 0.0000 0.0000 2.1144 0.0000 32.7025
#
#
#
# Elastic Compliance Matrix: (Units=1/GPa)
#
#
# Indices 1 2 3 4 5 6 
#
# 1 0.013429 -0.001842 -0.003475 0.000000 0.007927 0.000000
# 2 -0.001842 0.008948 -0.004529 0.000000 0.000518 0.000000
# 3 -0.003475 -0.004529 0.013591 0.000000 0.012950 0.000000
# 4 0.000000 0.000000 0.000000 0.079982 0.000000 -0.005171
# 5 0.007927 0.000518 0.012950 0.000000 0.000635 0.000000
# 6 0.000000 0.000000 0.000000 -0.005171 0.000000 0.030913
#
#
# Mechanical properties :
#
#
# Convention : Reuss Voigt Hill
#
# Bulk Modulus (GPa) = 61.44042 10.10913 35.77477
# Shear Modulus (GPa) = 28.96618 15.94632 22.45625
#
# Velocity S-wave (km/s) = 3.54345 2.62912 3.11996
# Velocity P-wave (km/s) = 6.58590 3.68760 5.33725
#
# Compressibility (1/GPa) = 0.01627593
#
# Stress axis : x y z
#
# Youngs Moduli (GPa) = 74.46562 111.75740 73.57834
#
# Poissons Ratio (x) = 0.20587 0.25570
# Poissons Ratio (y) = 0.13718 0.33321
# Poissons Ratio (z) = 0.25878 0.50611
#
# Static dielectric constant tensor:
#      x y z
#    x 1.914620 0.000000 0.030410 
#    y 0.000000 1.973190 0.000000 
#    z 0.030410 0.000000 1.787930 
# 
# From -- ./inp_files/62756.got.cif
#   From: 2010.05.17/outbox.cif.g08.bks.cpg/sg11_32_cif.got.tgz:62756.got - 2010.06.03 12:22:45.
