data_PCOD9163927
_publ_section_title
;
Structure prediction by ZEFSAII (Michael W. Deem and Ramdas Pophale) SiO2 
 PCOD9163927
Probable space group: P 21/M
;
_chemical_formula_sum "Si O2"
_cell_formula_units_Z 28
_cell_length_a 29.987860
_cell_length_b 8.551693
_cell_length_c 9.518211
_cell_angle_alpha 90.000000
_cell_angle_beta 37.500406
_cell_angle_gamma 90.000000
_cell_volume 1485.949474
_symmetry_space_group_name_H-M "P 21/M"
_symmetry_group_IT_number 11
_symmetry_cell_setting 'monoclinic'
loop_
_space_group_symop_operation_xyz
x,y,z
-x,1/2+y,-z
-x,-y,-z
x,1/2-y,z
loop_
_atom_site_type_symbol
_atom_site_label
_atom_site_fract_x
_atom_site_fract_y
_atom_site_fract_z
Si Si1 0.866427 0.060570 0.491053
Si Si2 0.431958 0.936928 0.260480
Si Si3 0.003152 0.438209 0.334824
Si Si4 0.138434 0.938100 0.819443
Si Si5 0.700198 0.936856 0.593847
Si Si6 0.699835 0.061503 0.910047
Si Si7 0.567188 0.563368 0.424879
O O1 0.866689 0.250000 0.494351
O O2 0.879950 0.015290 0.295504
O O3 0.783541 0.012647 0.735729
O O4 0.931108 0.005933 0.429912
O O5 0.432745 0.750000 0.257755
O O6 0.358754 0.998498 0.368073
O O7 0.436677 0.996798 0.408152
O O8 0.500000 0.000000 0.000000
O O9 0.003830 0.250000 0.332199
O O10 0.000000 0.500000 0.500000
O O11 0.075539 0.500455 0.077581
O O12 0.142924 0.750000 0.814534
O O13 0.218249 0.008132 0.651019
O O14 0.696475 0.750000 0.609142
O O15 0.685014 0.005339 0.787678
O O16 0.695604 0.250000 0.923800
O O17 0.641442 0.990837 0.162447
O O18 0.500000 0.500000 0.500000
O O19 0.563751 0.750000 0.438629
#
# Coordination Sequence:
#
# PCOD9163927 Si02
#       7
#     4   4   4   4   4   4   4
#     4   8  18  36  60  84 112 149 193 237 287 346
#     4  12  25  43  64  89 120 158 198 243 293 349
#     4  11  22  37  55  82 117 155 195 242 294 351
#     4  10  20  38  61  86 113 150 195 243 295 352
#     4  11  22  39  62  91 121 154 194 242 295 354
#     4  10  20  39  63  89 118 154 196 244 297 353
#     4  12  25  42  62  89 121 158 200 245 293 349
#
# _framework density 18.843171999999999
#
# number of rings (size 3 to 8) (size 9 to 14) (size 15 to 20)
#    0.000    1.429    0.000    7.286    0.000    1.143 
#    0.000   12.143    0.000    0.000    0.000    0.000 
#    0.000    0.000    0.000    0.000    0.000    0.000 
#
# Total GULP energy -156565.641767 kJ/mol
# GULP energy per Si atom -5591.630063 kJ/mol
# Density = 1.880028 g / cm^3
# Si number density = 18.843172 Si / 1000 Ang^3
#
#
#
# Elastic Constant Matrix: (Units=GPa)
#
#
# Indices 1 2 3 4 5 6 
#
# 1 188.5396 61.2202 112.0485 0.0000 -7.8870 0.0000
# 2 61.2202 133.6873 55.5556 0.0000 -3.2197 0.0000
# 3 112.0485 55.5556 186.6674 0.0000 4.1561 0.0000
# 4 0.0000 0.0000 0.0000 38.1074 0.0000 3.0541
# 5 -7.8870 -3.2197 4.1561 0.0000 15.2516 0.0000
# 6 0.0000 0.0000 0.0000 3.0541 0.0000 30.2003
#
#
#
# Elastic Compliance Matrix: (Units=1/GPa)
#
#
# Indices 1 2 3 4 5 6 
#
# 1 0.009187 -0.001968 -0.005056 0.000000 0.005713 0.000000
# 2 -0.001968 0.009054 -0.001542 0.000000 0.001314 0.000000
# 3 -0.005056 -0.001542 0.008971 0.000000 -0.005385 0.000000
# 4 0.000000 0.000000 0.000000 0.026456 0.000000 -0.002675
# 5 0.005713 0.001314 -0.005385 0.000000 0.070266 0.000000
# 6 0.000000 0.000000 0.000000 -0.002675 0.000000 0.033383
#
#
# Mechanical properties :
#
#
# Convention : Reuss Voigt Hill
#
# Bulk Modulus (GPa) = 99.22009 107.39368 103.30689
# Shear Modulus (GPa) = 28.12010 35.38320 31.75165
#
# Velocity S-wave (km/s) = 3.86725 4.33803 4.10939
# Velocity P-wave (km/s) = 8.52707 9.06689 8.80112
#
# Compressibility (1/GPa) = 0.01007860
#
# Stress axis : x y z
#
# Youngs Moduli (GPa) = 108.85370 110.44693 111.47270
#
# Poissons Ratio (x) = 0.21740 0.56358
# Poissons Ratio (y) = 0.21426 0.17194
# Poissons Ratio (z) = 0.55034 0.17036
#
# Static dielectric constant tensor:
#      x y z
#    x 1.621140 0.000000 -0.011820 
#    y 0.000000 1.640570 0.000000 
#    z -0.011820 0.000000 1.628770 
# 
# From -- ./inp_files/28234.got.cif
#   From: 2010.05.17/outbox.cif.g08.bks.cpg/sg11_15_cif.got.tgz:28234.got - 2010.06.03 12:22:45.
