data_PCOD9163614
_publ_section_title
;
Structure prediction by ZEFSAII (Michael W. Deem and Ramdas Pophale) SiO2 
 PCOD9163614
Probable space group: P 21/M
;
_chemical_formula_sum "Si O2"
_cell_formula_units_Z 28
_cell_length_a 20.814597
_cell_length_b 8.208978
_cell_length_c 8.179470
_cell_angle_alpha 90.000000
_cell_angle_beta 79.214756
_cell_angle_gamma 90.000000
_cell_volume 1372.910072
_symmetry_space_group_name_H-M "P 21/M"
_symmetry_group_IT_number 11
_symmetry_cell_setting 'monoclinic'
loop_
_space_group_symop_operation_xyz
x,y,z
-x,1/2+y,-z
-x,-y,-z
x,1/2-y,z
loop_
_atom_site_type_symbol
_atom_site_label
_atom_site_fract_x
_atom_site_fract_y
_atom_site_fract_z
Si Si1 0.847903 0.556945 0.239510
Si Si2 0.306936 0.934914 0.047951
Si Si3 0.294535 0.563184 0.663697
Si Si4 0.837264 0.946800 0.869250
Si Si5 0.562857 0.561668 0.872790
Si Si6 0.430060 0.934071 0.479831
Si Si7 0.925292 0.552653 0.520114
O O1 0.859332 0.750000 0.222847
O O2 0.773430 0.527125 0.333634
O O3 0.853692 0.493652 0.048080
O O4 0.894406 0.492604 0.362319
O O5 0.316662 0.750000 0.103072
O O6 0.302551 0.930740 0.854504
O O7 0.236763 0.000872 0.137684
O O8 0.369275 0.041865 0.064138
O O9 0.288191 0.750000 0.604438
O O10 0.361743 0.485392 0.566703
O O11 0.839008 0.750000 0.874173
O O12 0.884960 0.002148 0.700652
O O13 0.553346 0.750000 0.829340
O O14 0.569320 0.447830 0.713515
O O15 0.500000 0.500000 0.000000
O O16 0.426288 0.750000 0.544822
O O17 0.500000 0.000000 0.500000
O O18 0.921606 0.750000 0.519955
O O19 0.000000 0.500000 0.500000
#
# Coordination Sequence:
#
# PCOD9163614 Si02
#       7
#     4   4   4   4   4   4   4
#     4   9  19  36  58  83 114 152 193 238 291 351
#     4  10  20  37  60  87 116 148 190 241 295 356
#     4   9  20  37  58  84 114 146 187 238 291 349
#     4   9  19  37  58  83 117 154 194 241 293 352
#     4  12  25  40  58  82 114 154 198 247 300 356
#     4  11  23  39  58  84 116 154 197 244 298 356
#     4  10  22  38  57  85 117 152 195 243 295 357
#
# _framework density 20.394635000000001
#
# number of rings (size 3 to 8) (size 9 to 14) (size 15 to 20)
#    0.000    2.000    0.000    3.000    2.000    4.571 
#    0.000    0.000    0.000    0.000    0.000    0.000 
#    0.000    0.000    0.000    0.000    0.000    0.000 
#
# Total GULP energy -156191.970453 kJ/mol
# GULP energy per Si atom -5578.284659 kJ/mol
# Density = 2.034822 g / cm^3
# Si number density = 20.394635 Si / 1000 Ang^3
#
#
#
# Elastic Constant Matrix: (Units=GPa)
#
#
# Indices 1 2 3 4 5 6 
#
# 1 154.6101 5.7817 71.8603 0.0000 -3.8916 0.0000
# 2 5.7817 21.9395 4.9013 0.0000 1.8529 0.0000
# 3 71.8603 4.9013 89.0147 0.0000 -17.4806 0.0000
# 4 0.0000 0.0000 0.0000 14.2813 0.0000 -2.0304
# 5 -3.8916 1.8529 -17.4806 0.0000 41.6957 0.0000
# 6 0.0000 0.0000 0.0000 -2.0304 0.0000 34.0022
#
#
#
# Elastic Compliance Matrix: (Units=1/GPa)
#
#
# Indices 1 2 3 4 5 6 
#
# 1 0.010659 -0.000533 -0.009127 0.000000 -0.002808 0.000000
# 2 -0.000533 0.046620 -0.002782 0.000000 -0.003288 0.000000
# 3 -0.009127 -0.002782 0.020282 0.000000 0.007775 0.000000
# 4 0.000000 0.000000 0.000000 0.070621 0.000000 0.004217
# 5 -0.002808 -0.003288 0.007775 0.000000 0.027127 0.000000
# 6 0.000000 0.000000 0.000000 0.004217 0.000000 0.029662
#
#
# Mechanical properties :
#
#
# Convention : Reuss Voigt Hill
#
# Bulk Modulus (GPa) = 18.98388 47.85008 33.41698
# Shear Modulus (GPa) = 20.20898 30.19725 25.20311
#
# Velocity S-wave (km/s) = 3.15127 3.85209 3.51917
# Velocity P-wave (km/s) = 4.75070 6.58011 5.73877
#
# Compressibility (1/GPa) = 0.05267628
#
# Stress axis : x y z
#
# Youngs Moduli (GPa) = 93.81475 21.45022 49.30380
#
# Poissons Ratio (x) = 0.01143 0.45001
# Poissons Ratio (y) = 0.04999 0.13718
# Poissons Ratio (z) = 0.85626 0.05968
#
# Static dielectric constant tensor:
#      x y z
#    x 1.845560 0.000000 0.033970 
#    y 0.000000 1.734320 0.000000 
#    z 0.033970 0.000000 1.744680 
# 
# From -- ./inp_files/23974.got.cif
#   From: 2010.05.17/outbox.cif.g08.bks.cpg/sg11_12_cif.got.tgz:23974.got - 2010.06.03 12:22:45.
