data_PCOD9163222
_publ_section_title
;
Structure prediction by ZEFSAII (Michael W. Deem and Ramdas Pophale) SiO2 
 PCOD9163222
Probable space group: P 21/M
;
_chemical_formula_sum "Si O2"
_cell_formula_units_Z 24
_cell_length_a 14.542698
_cell_length_b 13.341996
_cell_length_c 12.293159
_cell_angle_alpha 90.000000
_cell_angle_beta 29.502520
_cell_angle_gamma 90.000000
_cell_volume 1174.632124
_symmetry_space_group_name_H-M "P 21/M"
_symmetry_group_IT_number 11
_symmetry_cell_setting 'monoclinic'
loop_
_space_group_symop_operation_xyz
x,y,z
-x,1/2+y,-z
-x,-y,-z
x,1/2-y,z
loop_
_atom_site_type_symbol
_atom_site_label
_atom_site_fract_x
_atom_site_fract_y
_atom_site_fract_z
Si Si1 0.468916 0.565340 0.902548
Si Si2 0.187741 0.972085 0.370994
Si Si3 0.239694 0.863846 0.947756
Si Si4 0.601058 0.636901 0.151456
Si Si5 0.714901 0.131454 0.348233
Si Si6 0.002502 0.443017 0.216638
O O1 0.680554 0.565194 0.726524
O O2 0.410131 0.626138 0.856950
O O3 0.434273 0.449264 0.900904
O O4 0.322057 0.587038 0.149642
O O5 0.124247 0.919854 0.547774
O O6 0.000000 0.000000 0.500000
O O7 0.170670 0.750000 0.019159
O O8 0.303390 0.891051 0.760132
O O9 0.083423 0.944290 0.142701
O O10 0.563429 0.750000 0.152328
O O11 0.469468 0.614600 0.390276
O O12 0.814937 0.625681 0.967879
O O13 0.758327 0.250000 0.312757
O O14 0.880809 0.071378 0.234833
#
# Coordination Sequence:
#
# PCOD9163222 Si02
#       6
#     4   4   4   4   4   4
#     4  10  22  39  63  82 119 159 195 241 303 353
#     4  11  20  40  63  85 117 158 196 250 295 353
#     4  10  22  41  61  88 125 160 201 250 300 361
#     4  10  20  36  59  89 118 153 197 242 297 358
#     4  10  21  39  61  90 125 157 199 252 299 357
#     4  11  21  38  64  88 121 160 201 245 306 354
#
# _framework density 20.431927999999999
#
# number of rings (size 3 to 8) (size 9 to 14) (size 15 to 20)
#    0.000    1.667    5.000    1.000    0.000    2.667 
#    3.000    8.333    0.000    0.000    0.000    0.000 
#    0.000    0.000    0.000    0.000    0.000    0.000 
#
# Total GULP energy -133919.713794 kJ/mol
# GULP energy per Si atom -5579.988075 kJ/mol
# Density = 2.038542 g / cm^3
# Si number density = 20.431928 Si / 1000 Ang^3
#
#
#
# Elastic Constant Matrix: (Units=GPa)
#
#
# Indices 1 2 3 4 5 6 
#
# 1 137.5717 6.5496 47.6293 0.0000 2.0115 0.0000
# 2 6.5496 71.0447 11.3125 0.0000 5.9522 0.0000
# 3 47.6293 11.3125 97.8088 0.0000 -7.9478 0.0000
# 4 0.0000 0.0000 0.0000 10.1653 0.0000 -2.9414
# 5 2.0115 5.9522 -7.9478 0.0000 39.3656 0.0000
# 6 0.0000 0.0000 0.0000 -2.9414 0.0000 15.8079
#
#
#
# Elastic Compliance Matrix: (Units=1/GPa)
#
#
# Indices 1 2 3 4 5 6 
#
# 1 0.008812 0.000000 -0.004400 0.000000 -0.001339 0.000000
# 2 0.000000 0.014595 -0.001899 0.000000 -0.002590 0.000000
# 3 -0.004400 -0.001899 0.012838 0.000000 0.003104 0.000000
# 4 0.000000 0.000000 0.000000 0.103972 0.000000 0.019346
# 5 -0.001339 -0.002590 0.003104 0.000000 0.026490 0.000000
# 6 0.000000 0.000000 0.000000 0.019346 0.000000 0.066859
#
#
# Mechanical properties :
#
#
# Convention : Reuss Voigt Hill
#
# Bulk Modulus (GPa) = 42.28539 48.60089 45.44314
# Shear Modulus (GPa) = 19.68155 29.13002 24.40578
#
# Velocity S-wave (km/s) = 3.10703 3.77995 3.45989
# Velocity P-wave (km/s) = 5.79760 6.54898 6.18471
#
# Compressibility (1/GPa) = 0.02364883
#
# Stress axis : x y z
#
# Youngs Moduli (GPa) = 113.48453 68.51685 77.89130
#
# Poissons Ratio (x) = -0.00003 0.34271
# Poissons Ratio (y) = -0.00004 0.14789
# Poissons Ratio (z) = 0.49931 0.13009
#
# Static dielectric constant tensor:
#      x y z
#    x 1.751370 0.000000 -0.001520 
#    y 0.000000 1.730730 0.000000 
#    z -0.001520 0.000000 1.729750 
# 
# From -- ./inp_files/39420.got.cif
#   From: 2010.05.17/outbox.cif.g08.bks.cpg/sg11_20_cif.got.tgz:39420.got - 2010.06.03 12:22:45.
