data_PCOD9163958
_publ_section_title
;
Structure prediction by ZEFSAII (Michael W. Deem and Ramdas Pophale) SiO2 
 PCOD9163958
Probable space group: P 21/M
;
_chemical_formula_sum "Si O2"
_cell_formula_units_Z 30
_cell_length_a 12.091961
_cell_length_b 14.613969
_cell_length_c 15.601994
_cell_angle_alpha 90.000000
_cell_angle_beta 153.764106
_cell_angle_gamma 90.000000
_cell_volume 1218.804299
_symmetry_space_group_name_H-M "P 21/M"
_symmetry_group_IT_number 11
_symmetry_cell_setting 'monoclinic'
loop_
_space_group_symop_operation_xyz
x,y,z
-x,1/2+y,-z
-x,-y,-z
x,1/2-y,z
loop_
_atom_site_type_symbol
_atom_site_label
_atom_site_fract_x
_atom_site_fract_y
_atom_site_fract_z
Si Si1 0.277805 0.852032 0.449777
Si Si2 0.234671 0.612527 0.852563
Si Si3 0.451689 0.454294 0.213384
Si Si4 0.129114 0.856055 0.589201
Si Si5 0.128554 0.250000 0.347438
Si Si6 0.793729 0.903520 0.206167
Si Si7 0.062046 0.855968 0.124627
Si Si8 0.459581 0.847146 0.259466
O O1 0.387756 0.750000 0.537437
O O2 0.422107 0.923409 0.609019
O O3 0.260973 0.873894 0.338456
O O4 0.991888 0.851068 0.285057
O O5 0.093678 0.639758 0.665635
O O6 0.231367 0.503258 0.854327
O O7 0.083460 0.669237 0.816736
O O8 0.523495 0.638050 0.037013
O O9 0.599944 0.396649 0.245341
O O10 0.497323 0.561386 0.232663
O O11 0.166801 0.423944 0.022240
O O12 0.115713 0.750000 0.553428
O O13 0.934050 0.910579 0.395271
O O14 0.334395 0.328606 0.522953
O O15 0.977395 0.750000 0.077255
O O16 0.199200 0.860371 0.129071
O O17 0.469924 0.750000 0.218221
#
# Coordination Sequence:
#
# PCOD9163958 Si02
#       8
#     4   4   4   4   2   4   4   4
#     4  10  21  36  61  92 123 145 190 259 305 354
#     4  11  22  38  60  82 117 163 198 235 302 356
#     4  11  20  37  64  90 120 158 197 251 308 352
#     4  11  22  36  60  92 119 151 197 251 300 357
#     4  10  20  38  62  78 116 168 194 234 304 348
#     4  10  22  36  57  90 118 150 196 251 287 362
#     4  10  20  38  63  92 121 155 199 248 306 364
#     4   9  22  39  59  85 121 164 206 246 294 363
#
# _framework density 24.61429
#
# number of rings (size 3 to 8) (size 9 to 14) (size 15 to 20)
#    0.400    1.333    0.667    5.600    1.867    1.600 
#    0.000    0.000    0.000    4.000    0.000    0.000 
#    0.000    0.000    0.000    0.000    0.000    0.000 
#
# Total GULP energy -167350.728386 kJ/mol
# GULP energy per Si atom -5578.357613 kJ/mol
# Density = 2.455827 g / cm^3
# Si number density = 24.614290 Si / 1000 Ang^3
#
#
#
# Elastic Constant Matrix: (Units=GPa)
#
#
# Indices 1 2 3 4 5 6 
#
# 1 44.0066 7.1669 8.2518 0.0000 4.2832 0.0000
# 2 7.1669 116.2297 14.4347 0.0000 -0.0587 0.0000
# 3 8.2518 14.4347 76.7490 0.0000 6.5197 0.0000
# 4 0.0000 0.0000 0.0000 39.2261 0.0000 1.2538
# 5 4.2832 -0.0587 6.5197 0.0000 27.1483 0.0000
# 6 0.0000 0.0000 0.0000 1.2538 0.0000 15.8470
#
#
#
# Elastic Compliance Matrix: (Units=1/GPa)
#
#
# Indices 1 2 3 4 5 6 
#
# 1 0.023617 -0.001205 -0.002037 0.000000 -0.003239 0.000000
# 2 -0.001205 0.008876 -0.001590 0.000000 0.000591 0.000000
# 3 -0.002037 -0.001590 0.013802 0.000000 -0.002997 0.000000
# 4 0.000000 0.000000 0.000000 0.025558 0.000000 -0.002022
# 5 -0.003239 0.000591 -0.002997 0.000000 0.038067 0.000000
# 6 0.000000 0.000000 0.000000 -0.002022 0.000000 0.063264
#
#
# Mechanical properties :
#
#
# Convention : Reuss Voigt Hill
#
# Bulk Modulus (GPa) = 27.29958 32.96579 30.13269
# Shear Modulus (GPa) = 25.63337 30.25307 27.94322
#
# Velocity S-wave (km/s) = 3.23058 3.50964 3.37299
# Velocity P-wave (km/s) = 5.00305 5.46310 5.23813
#
# Compressibility (1/GPa) = 0.03663059
#
# Stress axis : x y z
#
# Youngs Moduli (GPa) = 42.34161 112.66704 72.45254
#
# Poissons Ratio (x) = 0.13575 0.14762
# Poissons Ratio (y) = 0.05102 0.11520
# Poissons Ratio (z) = 0.08627 0.17914
#
# Static dielectric constant tensor:
#      x y z
#    x 1.987590 0.000000 -0.023790 
#    y 0.000000 1.823270 0.000000 
#    z -0.023790 0.000000 1.955640 
# 
# From -- ./inp_files/65702.got.cif
#   From: 2010.05.17/outbox.cif.g08.bks.cpg/sg11_33_cif.got.tgz:65702.got - 2010.06.03 12:22:45.
