data_PCOD9163439
_publ_section_title
;
Structure prediction by ZEFSAII (Michael W. Deem and Ramdas Pophale) SiO2 
 PCOD9163439
Probable space group: P 21/M
;
_chemical_formula_sum "Si O2"
_cell_formula_units_Z 30
_cell_length_a 9.322746
_cell_length_b 9.094315
_cell_length_c 26.241818
_cell_angle_alpha 90.000000
_cell_angle_beta 145.665682
_cell_angle_gamma 90.000000
_cell_volume 1254.881871
_symmetry_space_group_name_H-M "P 21/M"
_symmetry_group_IT_number 11
_symmetry_cell_setting 'monoclinic'
loop_
_space_group_symop_operation_xyz
x,y,z
-x,1/2+y,-z
-x,-y,-z
x,1/2-y,z
loop_
_atom_site_type_symbol
_atom_site_label
_atom_site_fract_x
_atom_site_fract_y
_atom_site_fract_z
Si Si1 0.665123 0.425170 0.869193
Si Si2 0.642460 0.924630 0.494883
Si Si3 0.600894 0.750000 0.039539
Si Si4 0.602224 0.973955 0.959229
Si Si5 0.987750 0.088695 0.224574
Si Si6 0.712739 0.425837 0.771991
Si Si7 0.723681 0.426185 0.415580
Si Si8 0.139305 0.920121 0.700873
O O1 0.699143 0.250000 0.886211
O O2 0.723888 0.509060 0.939195
O O3 0.786059 0.473319 0.850946
O O4 0.366445 0.464256 0.771813
O O5 0.581783 0.750000 0.471745
O O6 0.942435 0.935008 0.597153
O O7 0.500000 0.000000 0.500000
O O8 0.592772 0.015992 0.429269
O O9 0.724198 0.625833 0.037662
O O10 0.461439 0.626266 0.033600
O O11 0.318205 0.905428 0.869438
O O12 0.090755 0.250000 0.240608
O O13 0.023498 0.061242 0.294785
O O14 0.100673 0.971381 0.219177
O O15 0.675266 0.250000 0.760933
O O16 0.450221 0.508615 0.680295
O O17 0.741642 0.250000 0.418508
O O18 0.000000 0.500000 0.500000
O O19 0.235574 0.750000 0.729225
#
# Coordination Sequence:
#
# PCOD9163439 Si02
#       8
#     4   4   2   4   4   4   4   4
#     4  10  21  37  57  85 116 146 191 237 285 336
#     4  11  22  37  57  84 116 152 196 250 308 361
#     4  10  20  36  66  94 122 148 194 230 290 340
#     4  10  20  38  63  95 118 157 188 241 279 348
#     4  10  20  37  58  88 122 154 195 239 293 346
#     4  11  24  39  59  85 118 159 199 247 297 356
#     4  12  25  42  60  83 116 159 208 257 309 364
#     4   9  20  35  56  81 109 144 192 243 289 345
#
# _framework density 23.906634
#
# number of rings (size 3 to 8) (size 9 to 14) (size 15 to 20)
#    0.000    1.600    1.333    3.600    1.867    5.867 
#    0.000    0.000    0.000    4.800    0.000    0.000 
#    0.000    0.000    0.000    0.000    0.000    0.000 
#
# Total GULP energy -167293.089500 kJ/mol
# GULP energy per Si atom -5576.436317 kJ/mol
# Density = 2.385222 g / cm^3
# Si number density = 23.906634 Si / 1000 Ang^3
#
#
#
# Elastic Constant Matrix: (Units=GPa)
#
#
# Indices 1 2 3 4 5 6 
#
# 1 118.4545 27.6855 15.4105 0.0000 -23.3780 0.0000
# 2 27.6855 137.1500 24.2623 0.0000 -24.7890 0.0000
# 3 15.4105 24.2623 80.8658 0.0000 -22.9093 0.0000
# 4 0.0000 0.0000 0.0000 107.9986 0.0000 15.5203
# 5 -23.3780 -24.7890 -22.9093 0.0000 50.1928 0.0000
# 6 0.0000 0.0000 0.0000 15.5203 0.0000 8.0793
#
#
#
# Elastic Compliance Matrix: (Units=1/GPa)
#
#
# Indices 1 2 3 4 5 6 
#
# 1 0.009493 -0.001183 -0.000422 0.000000 0.003645 0.000000
# 2 -0.001183 0.008309 -0.001448 0.000000 0.002892 0.000000
# 3 -0.000422 -0.001448 0.014497 0.000000 0.005705 0.000000
# 4 0.000000 0.000000 0.000000 0.012790 0.000000 -0.024570
# 5 0.003645 0.002892 0.005705 0.000000 0.025653 0.000000
# 6 0.000000 0.000000 0.000000 -0.024570 0.000000 0.170973
#
#
# Mechanical properties :
#
#
# Convention : Reuss Voigt Hill
#
# Bulk Modulus (GPa) = 38.17747 52.35409 45.26578
# Shear Modulus (GPa) = 19.48925 51.19492 35.34208
#
# Velocity S-wave (km/s) = 2.85831 4.63260 3.84909
# Velocity P-wave (km/s) = 5.18626 7.11067 6.22330
#
# Compressibility (1/GPa) = 0.02619346
#
# Stress axis : x y z
#
# Youngs Moduli (GPa) = 105.34414 120.35266 68.97797
#
# Poissons Ratio (x) = 0.14236 0.02908
# Poissons Ratio (y) = 0.12461 0.09990
# Poissons Ratio (z) = 0.04441 0.17431
#
# Static dielectric constant tensor:
#      x y z
#    x 1.963710 0.000000 0.031670 
#    y 0.000000 1.797190 0.000000 
#    z 0.031670 0.000000 2.019940 
# 
# From -- ./inp_files/70713.got.cif
#   From: 2010.05.17/outbox.cif.g08.bks.cpg/sg11_36_cif.got.tgz:70713.got - 2010.06.03 12:22:45.
