data_PCOD9163064
_publ_section_title
;
Structure prediction by ZEFSAII (Michael W. Deem and Ramdas Pophale) SiO2 
 PCOD9163064
Probable space group: P 21/M
;
_chemical_formula_sum "Si O2"
_cell_formula_units_Z 28
_cell_length_a 26.100478
_cell_length_b 8.664538
_cell_length_c 9.674111
_cell_angle_alpha 90.000000
_cell_angle_beta 139.720388
_cell_angle_gamma 90.000000
_cell_volume 1414.444123
_symmetry_space_group_name_H-M "P 21/M"
_symmetry_group_IT_number 11
_symmetry_cell_setting 'monoclinic'
loop_
_space_group_symop_operation_xyz
x,y,z
-x,1/2+y,-z
-x,-y,-z
x,1/2-y,z
loop_
_atom_site_type_symbol
_atom_site_label
_atom_site_fract_x
_atom_site_fract_y
_atom_site_fract_z
Si Si1 0.424845 0.566909 0.428229
Si Si2 0.746542 0.935285 0.919214
Si Si3 0.766045 0.564756 0.643464
Si Si4 0.499425 0.065592 0.844473
Si Si5 0.323188 0.566285 0.785106
Si Si6 0.173501 0.935093 0.661677
Si Si7 0.918042 0.935381 0.774123
O O1 0.500000 0.500000 0.500000
O O2 0.422803 0.750000 0.406273
O O3 0.339685 0.497731 0.213311
O O4 0.440564 0.518772 0.619607
O O5 0.745491 0.750000 0.920929
O O6 0.760958 0.987989 0.790864
O O7 0.813949 0.997767 0.160488
O O8 0.764750 0.750000 0.642295
O O9 0.694411 0.509024 0.399179
O O10 0.846491 0.515603 0.730166
O O11 0.484893 0.250000 0.813633
O O12 0.589497 0.034886 0.979486
O O13 0.500000 0.000000 0.000000
O O14 0.317029 0.750000 0.754796
O O15 0.253644 0.516501 0.744462
O O16 0.169499 0.750000 0.658041
O O17 0.103550 0.000217 0.422088
O O18 0.919587 0.750000 0.773093
O O19 0.000000 0.000000 0.000000
#
# Coordination Sequence:
#
# PCOD9163064 Si02
#       7
#     4   4   4   4   4   4   4
#     4  12  25  40  57  80 111 152 197 245 296 346
#     4  11  22  38  58  83 114 149 188 234 284 340
#     4   9  20  36  57  83 113 146 183 227 279 334
#     4  11  22  36  53  78 110 146 189 240 291 342
#     4   9  19  34  53  75 103 139 184 230 275 328
#     4  10  20  36  58  84 111 145 185 227 274 331
#     4  10  20  38  62  89 117 147 183 227 276 333
#
# _framework density 19.795763000000001
#
# number of rings (size 3 to 8) (size 9 to 14) (size 15 to 20)
#    0.000    1.714    0.000    4.714    0.000    6.857 
#    0.000    0.714    0.000    0.000    0.000    0.000 
#    0.000    0.000    0.000    0.000    0.000    0.000 
#
# Total GULP energy -156483.947157 kJ/mol
# GULP energy per Si atom -5588.712398 kJ/mol
# Density = 1.975071 g / cm^3
# Si number density = 19.795763 Si / 1000 Ang^3
#
#
#
# Elastic Constant Matrix: (Units=GPa)
#
#
# Indices 1 2 3 4 5 6 
#
# 1 41.1931 11.1743 27.6176 0.0000 -11.3054 0.0000
# 2 11.1743 58.8738 38.6178 0.0000 -0.1262 0.0000
# 3 27.6176 38.6178 149.4785 0.0000 -11.1175 0.0000
# 4 0.0000 0.0000 0.0000 38.1450 0.0000 -2.3232
# 5 -11.3054 -0.1262 -11.1175 0.0000 34.6820 0.0000
# 6 0.0000 0.0000 0.0000 -2.3232 0.0000 20.6310
#
#
#
# Elastic Compliance Matrix: (Units=1/GPa)
#
#
# Indices 1 2 3 4 5 6 
#
# 1 0.030220 -0.002974 -0.004183 0.000000 0.008499 0.000000
# 2 -0.002974 0.020837 -0.005020 0.000000 -0.002503 0.000000
# 3 -0.004183 -0.005020 0.008868 0.000000 0.001461 0.000000
# 4 0.000000 0.000000 0.000000 0.026397 0.000000 0.002973
# 5 0.008499 -0.002503 0.001461 0.000000 0.032063 0.000000
# 6 0.000000 0.000000 0.000000 0.002973 0.000000 0.048805
#
#
# Mechanical properties :
#
#
# Convention : Reuss Voigt Hill
#
# Bulk Modulus (GPa) = 28.11211 44.92944 36.52077
# Shear Modulus (GPa) = 24.58192 30.16731 27.37461
#
# Velocity S-wave (km/s) = 3.52771 3.90799 3.72271
# Velocity P-wave (km/s) = 5.55201 6.56574 6.08004
#
# Compressibility (1/GPa) = 0.03557186
#
# Stress axis : x y z
#
# Youngs Moduli (GPa) = 33.09111 47.99062 112.76029
#
# Poissons Ratio (x) = 0.14271 0.47167
# Poissons Ratio (y) = 0.09840 0.56607
# Poissons Ratio (z) = 0.13842 0.24092
#
# Static dielectric constant tensor:
#      x y z
#    x 1.737400 0.000000 -0.013490 
#    y 0.000000 1.659520 0.000000 
#    z -0.013490 0.000000 1.691250 
# 
# From -- ./inp_files/28630.got.cif
#   From: 2010.05.17/outbox.cif.g08.bks.cpg/sg11_15_cif.got.tgz:28630.got - 2010.06.03 12:22:45.
