data_PCOD9163590
_publ_section_title
;
Structure prediction by ZEFSAII (Michael W. Deem and Ramdas Pophale) SiO2 
 PCOD9163590
Probable space group: P 21/M
;
_chemical_formula_sum "Si O2"
_cell_formula_units_Z 28
_cell_length_a 29.574467
_cell_length_b 8.424673
_cell_length_c 9.202308
_cell_angle_alpha 90.000000
_cell_angle_beta 141.121037
_cell_angle_gamma 90.000000
_cell_volume 1439.140341
_symmetry_space_group_name_H-M "P 21/M"
_symmetry_group_IT_number 11
_symmetry_cell_setting 'monoclinic'
loop_
_space_group_symop_operation_xyz
x,y,z
-x,1/2+y,-z
-x,-y,-z
x,1/2-y,z
loop_
_atom_site_type_symbol
_atom_site_label
_atom_site_fract_x
_atom_site_fract_y
_atom_site_fract_z
Si Si1 0.857841 0.942122 0.813704
Si Si2 0.857413 0.943713 0.477246
Si Si3 0.999168 0.440302 0.333101
Si Si4 0.429223 0.940225 0.905434
Si Si5 0.287332 0.057858 0.049964
Si Si6 0.287528 0.442074 0.386344
Si Si7 0.570855 0.440302 0.759599
O O1 0.858795 0.750000 0.817471
O O2 0.857731 0.994989 0.645697
O O3 0.785119 0.994038 0.713503
O O4 0.928182 0.001341 0.072943
O O5 0.857251 0.750000 0.476548
O O6 0.929170 0.995629 0.572665
O O7 0.785180 0.995053 0.213537
O O8 0.999852 0.250000 0.335750
O O9 0.000000 0.500000 0.500000
O O10 0.429998 0.750000 0.907388
O O11 0.357982 0.998666 0.645434
O O12 0.429216 0.995627 0.072981
O O13 0.500000 0.000000 0.000000
O O14 0.287920 0.250000 0.050452
O O15 0.287338 0.005928 0.217925
O O16 0.357934 0.999282 0.143834
O O17 0.288535 0.250000 0.390009
O O18 0.500000 0.500000 0.500000
O O19 0.570273 0.250000 0.757878
#
# Coordination Sequence:
#
# PCOD9163590 Si02
#       7
#     4   4   4   4   4   4   4
#     4  10  20  37  60  85 113 148 188 232 283 337
#     4   9  19  36  59  84 112 148 189 231 280 335
#     4  11  22  37  57  83 115 151 191 235 281 334
#     4  11  24  40  59  84 115 148 188 233 280 334
#     4  10  20  37  60  85 112 146 187 230 276 332
#     4  10  21  37  60  87 115 148 188 231 280 336
#     4  11  24  40  58  84 114 147 186 230 278 332
#
# _framework density 19.456060999999998
#
# number of rings (size 3 to 8) (size 9 to 14) (size 15 to 20)
#    0.000    1.714    0.000    4.286    0.000   10.286 
#    0.000    4.286    0.000    0.000    0.000    0.000 
#    0.000    0.000    0.000    0.000    0.000    0.000 
#
# Total GULP energy -156547.154081 kJ/mol
# GULP energy per Si atom -5590.969789 kJ/mol
# Density = 1.941178 g / cm^3
# Si number density = 19.456061 Si / 1000 Ang^3
#
#
#
# Elastic Constant Matrix: (Units=GPa)
#
#
# Indices 1 2 3 4 5 6 
#
# 1 248.5516 33.1852 153.6612 0.0000 -0.7553 0.0000
# 2 33.1852 16.4982 29.6841 0.0000 -1.7920 0.0000
# 3 153.6612 29.6841 246.1128 0.0000 -0.7526 0.0000
# 4 0.0000 0.0000 0.0000 35.9469 0.0000 2.8125
# 5 -0.7553 -1.7920 -0.7526 0.0000 47.5214 0.0000
# 6 0.0000 0.0000 0.0000 2.8125 0.0000 28.4700
#
#
#
# Elastic Compliance Matrix: (Units=1/GPa)
#
#
# Indices 1 2 3 4 5 6 
#
# 1 0.007356 -0.008377 -0.003583 0.000000 -0.000256 0.000000
# 2 -0.008377 0.087319 -0.005292 0.000000 0.003076 0.000000
# 3 -0.003583 -0.005292 0.006938 0.000000 -0.000147 0.000000
# 4 0.000000 0.000000 0.000000 0.028036 0.000000 -0.002770
# 5 -0.000256 0.003076 -0.000147 0.000000 0.021153 0.000000
# 6 0.000000 0.000000 0.000000 -0.002770 0.000000 0.035398
#
#
# Mechanical properties :
#
#
# Convention : Reuss Voigt Hill
#
# Bulk Modulus (GPa) = 14.90132 104.91373 59.90752
# Shear Modulus (GPa) = 20.56986 42.02981 31.29984
#
# Velocity S-wave (km/s) = 3.25506 4.65288 4.01527
# Velocity P-wave (km/s) = 4.66935 9.10529 7.23564
#
# Compressibility (1/GPa) = 0.06710814
#
# Stress axis : x y z
#
# Youngs Moduli (GPa) = 135.93719 11.45231 144.12898
#
# Poissons Ratio (x) = 0.09594 0.51646
# Poissons Ratio (y) = 1.13880 0.76270
# Poissons Ratio (z) = 0.48711 0.06060
#
# Static dielectric constant tensor:
#      x y z
#    x 1.657690 0.000000 -0.012070 
#    y 0.000000 1.678500 0.000000 
#    z -0.012070 0.000000 1.633840 
# 
# From -- ./inp_files/28238.got.cif
#   From: 2010.05.17/outbox.cif.g08.bks.cpg/sg11_15_cif.got.tgz:28238.got - 2010.06.03 12:22:45.
