data_PCOD9163887
_publ_section_title
;
Structure prediction by ZEFSAII (Michael W. Deem and Ramdas Pophale) SiO2 
 PCOD9163887
Probable space group: P 21/M
;
_chemical_formula_sum "Si O2"
_cell_formula_units_Z 32
_cell_length_a 16.333707
_cell_length_b 8.261587
_cell_length_c 25.119050
_cell_angle_alpha 90.000000
_cell_angle_beta 150.903658
_cell_angle_gamma 90.000000
_cell_volume 1648.304702
_symmetry_space_group_name_H-M "P 21/M"
_symmetry_group_IT_number 11
_symmetry_cell_setting 'monoclinic'
loop_
_space_group_symop_operation_xyz
x,y,z
-x,1/2+y,-z
-x,-y,-z
x,1/2-y,z
loop_
_atom_site_type_symbol
_atom_site_label
_atom_site_fract_x
_atom_site_fract_y
_atom_site_fract_z
Si Si1 0.924870 0.945798 0.636465
Si Si2 0.353241 0.560432 0.603107
Si Si3 0.723311 0.442316 0.835096
Si Si4 0.415413 0.935830 0.004611
Si Si5 0.813288 0.937565 0.386882
Si Si6 0.951845 0.051991 0.177979
Si Si7 0.026872 0.553359 0.932635
Si Si8 0.732026 0.434516 0.232133
O O1 0.917509 0.750000 0.630010
O O2 0.943574 0.994794 0.709407
O O3 0.098266 0.990559 0.702742
O O4 0.760144 0.012380 0.512601
O O5 0.324759 0.750000 0.596533
O O6 0.553100 0.526295 0.717715
O O7 0.282149 0.458828 0.612174
O O8 0.692428 0.250000 0.819341
O O9 0.873653 0.481595 0.879560
O O10 0.800494 0.491304 0.937169
O O11 0.376477 0.750000 0.974810
O O12 0.566555 0.959482 0.130573
O O13 0.237653 0.010579 0.918737
O O14 0.500000 0.000000 0.000000
O O15 0.808131 0.750000 0.366953
O O16 0.752661 0.055177 0.306423
O O17 0.000000 0.000000 0.500000
O O18 0.957487 0.250000 0.180209
O O19 0.990000 0.002735 0.138782
O O20 0.018609 0.750000 0.929998
O O21 0.700719 0.250000 0.196612
#
# Coordination Sequence:
#
# PCOD9163887 Si02
#       8
#     4   4   4   4   4   4   4   4
#     4  10  20  38  60  81 117 160 201 246 296 351
#     4  12  25  40  60  88 120 156 202 246 293 353
#     4  10  21  39  64  92 122 153 188 237 300 360
#     4  11  21  35  55  82 118 160 204 247 296 353
#     4  12  24  39  58  83 116 157 201 245 295 349
#     4   9  19  37  60  86 115 155 199 244 298 353
#     4   9  19  39  66  91 117 150 190 240 299 359
#     4  11  22  37  55  81 117 158 201 249 298 349
#
# _framework density 19.413886999999999
#
# number of rings (size 3 to 8) (size 9 to 14) (size 15 to 20)
#    0.000    1.500    2.500    3.375    1.750    1.000 
#    0.000    2.500    0.000    0.000    0.000    0.000 
#    0.000    0.000    0.000    0.000    0.000    0.000 
#
# Total GULP energy -178367.914692 kJ/mol
# GULP energy per Si atom -5573.997334 kJ/mol
# Density = 1.936970 g / cm^3
# Si number density = 19.413887 Si / 1000 Ang^3
#
#
#
# Elastic Constant Matrix: (Units=GPa)
#
#
# Indices 1 2 3 4 5 6 
#
# 1 86.8741 2.9175 48.9591 0.0000 -23.5876 0.0000
# 2 2.9175 41.8080 5.7004 0.0000 -0.3974 0.0000
# 3 48.9591 5.7004 119.9265 0.0000 -16.7157 0.0000
# 4 0.0000 0.0000 0.0000 25.8650 0.0000 0.8151
# 5 -23.5876 -0.3974 -16.7157 0.0000 34.8404 0.0000
# 6 0.0000 0.0000 0.0000 0.8151 0.0000 23.8072
#
#
#
# Elastic Compliance Matrix: (Units=1/GPa)
#
#
# Indices 1 2 3 4 5 6 
#
# 1 0.017174 -0.000329 -0.005761 0.000000 0.008859 0.000000
# 2 -0.000329 0.024084 -0.001075 0.000000 -0.000464 0.000000
# 3 -0.005761 -0.001075 0.010927 0.000000 0.001330 0.000000
# 4 0.000000 0.000000 0.000000 0.038704 0.000000 -0.001325
# 5 0.008859 -0.000464 0.001330 0.000000 0.035333 0.000000
# 6 0.000000 0.000000 0.000000 -0.001325 0.000000 0.042050
#
#
# Mechanical properties :
#
#
# Convention : Reuss Voigt Hill
#
# Bulk Modulus (GPa) = 26.41634 40.41807 33.41721
# Shear Modulus (GPa) = 25.61227 29.63796 27.62511
#
# Velocity S-wave (km/s) = 3.63612 3.91146 3.77630
# Velocity P-wave (km/s) = 5.59151 6.42368 6.02199
#
# Compressibility (1/GPa) = 0.03785536
#
# Stress axis : x y z
#
# Youngs Moduli (GPa) = 58.22786 41.52131 91.51915
#
# Poissons Ratio (x) = 0.01365 0.52721
# Poissons Ratio (y) = 0.01915 0.09840
# Poissons Ratio (z) = 0.33543 0.04464
#
# Static dielectric constant tensor:
#      x y z
#    x 1.649040 0.000000 0.031570 
#    y 0.000000 1.656780 0.000000 
#    z 0.031570 0.000000 1.651170 
# 
# From -- ./inp_files/69108.got.cif
#   From: 2010.05.17/outbox.cif.g08.bks.cpg/sg11_35_cif.got.tgz:69108.got - 2010.06.03 12:22:45.
