data_PCOD9163913
_publ_section_title
;
Structure prediction by ZEFSAII (Michael W. Deem and Ramdas Pophale) SiO2 
 PCOD9163913
Probable space group: P 21/M
;
_chemical_formula_sum "Si O2"
_cell_formula_units_Z 24
_cell_length_a 10.419843
_cell_length_b 24.281028
_cell_length_c 7.673716
_cell_angle_alpha 90.000000
_cell_angle_beta 149.052640
_cell_angle_gamma 90.000000
_cell_volume 998.409160
_symmetry_space_group_name_H-M "P 21/M"
_symmetry_group_IT_number 11
_symmetry_cell_setting 'monoclinic'
loop_
_space_group_symop_operation_xyz
x,y,z
-x,1/2+y,-z
-x,-y,-z
x,1/2-y,z
loop_
_atom_site_type_symbol
_atom_site_label
_atom_site_fract_x
_atom_site_fract_y
_atom_site_fract_z
Si Si1 0.147028 0.857843 0.552186
Si Si2 0.178947 0.036466 0.827233
Si Si3 0.043581 0.189787 0.347249
Si Si4 0.586099 0.584712 0.206205
Si Si5 0.265294 0.867875 0.302159
Si Si6 0.755267 0.936357 0.750869
O O1 0.050082 0.809575 0.561255
O O2 0.314324 0.890639 0.888243
O O3 0.936621 0.903087 0.270946
O O4 0.275970 0.845683 0.516341
O O5 0.402014 0.052553 0.961039
O O6 0.228004 0.017612 0.079868
O O7 0.000000 0.000000 0.500000
O O8 0.152786 0.250000 0.432717
O O9 0.832759 0.175858 0.956192
O O10 0.236207 0.138440 0.572415
O O11 0.663259 0.545997 0.453438
O O12 0.029993 0.910275 0.037858
O O13 0.528919 0.894753 0.549811
#
# Coordination Sequence:
#
# PCOD9163913 Si02
#       6
#     4   4   4   4   4   4
#     4  10  20  38  63  83 120 162 198 251 308 365
#     4  10  22  38  59  90 122 161 209 254 303 369
#     4  10  22  38  59  88 117 153 201 252 304 366
#     4  10  20  38  61  83 122 160 201 252 312 360
#     4  10  20  38  62  84 118 160 196 241 303 362
#     4  10  20  38  61  86 119 161 198 245 304 359
#
# _framework density 24.038242
#
# number of rings (size 3 to 8) (size 9 to 14) (size 15 to 20)
#    0.000    2.000    3.333    0.000    0.000    2.667 
#    0.000    0.833    0.000    0.000    0.000    0.000 
#    0.000    0.000    0.000    0.000    0.000    0.000 
#
# Total GULP energy -133751.745281 kJ/mol
# GULP energy per Si atom -5572.989387 kJ/mol
# Density = 2.398353 g / cm^3
# Si number density = 24.038242 Si / 1000 Ang^3
#
#
#
# Elastic Constant Matrix: (Units=GPa)
#
#
# Indices 1 2 3 4 5 6 
#
# 1 109.4685 32.8227 25.9050 0.0000 -29.5011 0.0000
# 2 32.8227 88.8615 23.6849 0.0000 0.6117 0.0000
# 3 25.9050 23.6849 98.5334 0.0000 -10.2041 0.0000
# 4 0.0000 0.0000 0.0000 9.0569 0.0000 0.0623
# 5 -29.5011 0.6117 -10.2041 0.0000 56.9702 0.0000
# 6 0.0000 0.0000 0.0000 0.0623 0.0000 20.6113
#
#
#
# Elastic Compliance Matrix: (Units=1/GPa)
#
#
# Indices 1 2 3 4 5 6 
#
# 1 0.012453 -0.004211 -0.001619 0.000000 0.006204 0.000000
# 2 -0.004211 0.013472 -0.002417 0.000000 -0.002758 0.000000
# 3 -0.001619 -0.002417 0.011281 0.000000 0.001208 0.000000
# 4 0.000000 0.000000 0.000000 0.110416 0.000000 -0.000334
# 5 0.006204 -0.002758 0.001208 0.000000 0.021011 0.000000
# 6 0.000000 0.000000 0.000000 -0.000334 0.000000 0.048518
#
#
# Mechanical properties :
#
#
# Convention : Reuss Voigt Hill
#
# Bulk Modulus (GPa) = 48.28265 51.29873 49.79069
# Shear Modulus (GPa) = 20.78588 31.62440 26.20514
#
# Velocity S-wave (km/s) = 2.94377 3.63104 3.30531
# Velocity P-wave (km/s) = 5.62883 6.24228 5.94347
#
# Compressibility (1/GPa) = 0.02071137
#
# Stress axis : x y z
#
# Youngs Moduli (GPa) = 80.30465 74.22836 88.64767
#
# Poissons Ratio (x) = 0.31255 0.14355
# Poissons Ratio (y) = 0.33814 0.21425
# Poissons Ratio (z) = 0.13004 0.17940
#
# Static dielectric constant tensor:
#      x y z
#    x 2.047420 0.000000 -0.068660 
#    y 0.000000 2.026490 0.000000 
#    z -0.068660 0.000000 1.986800 
# 
# From -- ./inp_files/19680.got.cif
#   From: 2010.05.17/outbox.cif.g08.bks.cpg/sg11_10_cif.got.tgz:19680.got - 2010.06.03 12:22:45.
