data_PCOD9163994
_publ_section_title
;
Structure prediction by ZEFSAII (Michael W. Deem and Ramdas Pophale) SiO2 
 PCOD9163994
Probable space group: P 21/M
;
_chemical_formula_sum "Si O2"
_cell_formula_units_Z 30
_cell_length_a 16.819978
_cell_length_b 11.658083
_cell_length_c 8.691008
_cell_angle_alpha 90.000000
_cell_angle_beta 73.905079
_cell_angle_gamma 90.000000
_cell_volume 1637.409847
_symmetry_space_group_name_H-M "P 21/M"
_symmetry_group_IT_number 11
_symmetry_cell_setting 'monoclinic'
loop_
_space_group_symop_operation_xyz
x,y,z
-x,1/2+y,-z
-x,-y,-z
x,1/2-y,z
loop_
_atom_site_type_symbol
_atom_site_label
_atom_site_fract_x
_atom_site_fract_y
_atom_site_fract_z
Si Si1 0.786612 0.387127 0.706642
Si Si2 0.240054 0.963345 0.628972
Si Si3 0.598977 0.881623 0.475797
Si Si4 0.090123 0.556677 0.116300
Si Si5 0.095975 0.384033 0.846508
Si Si6 0.192851 0.750000 0.865102
Si Si7 0.504519 0.971064 0.241174
Si Si8 0.612755 0.383154 0.961145
O O1 0.799867 0.250000 0.702100
O O2 0.770968 0.425082 0.541623
O O3 0.864237 0.447490 0.745255
O O4 0.704946 0.410160 0.853436
O O5 0.237829 0.851836 0.738406
O O6 0.323847 0.035664 0.596563
O O7 0.164392 0.045381 0.717247
O O8 0.623571 0.750000 0.483448
O O9 0.538506 0.894645 0.361799
O O10 0.551230 0.930507 0.650043
O O11 0.994972 0.594703 0.175175
O O12 0.093026 0.438632 0.019150
O O13 0.141086 0.650220 0.989716
O O14 0.114425 0.250000 0.840048
O O15 0.449127 0.901341 0.149608
O O16 0.578937 0.032689 0.110020
O O17 0.612574 0.250000 0.011710
#
# Coordination Sequence:
#
# PCOD9163994 Si02
#       8
#     4   4   4   4   4   2   4   4
#     4  11  21  38  60  90 124 150 195 257 306 355
#     4  11  23  37  61  91 122 163 195 249 304 366
#     4  11  23  41  59  88 126 160 202 247 297 360
#     4  10  21  38  66  90 119 154 202 253 300 352
#     4  10  21  40  62  88 121 160 201 242 300 365
#     4  10  20  38  62  92 116 152 206 248 294 352
#     4  10  22  39  60  86 116 162 202 243 298 351
#     4  10  21  37  61  87 115 151 198 250 296 351
#
# _framework density 18.321618999999998
#
# number of rings (size 3 to 8) (size 9 to 14) (size 15 to 20)
#    0.000    1.600    3.333    1.200    3.733    0.533 
#    4.800    1.333    0.000    0.000    0.000    0.000 
#    0.000    0.000    0.000    0.000    0.000    0.000 
#
# Total GULP energy -167007.319319 kJ/mol
# GULP energy per Si atom -5566.910644 kJ/mol
# Density = 1.827992 g / cm^3
# Si number density = 18.321619 Si / 1000 Ang^3
#
#
#
# Elastic Constant Matrix: (Units=GPa)
#
#
# Indices 1 2 3 4 5 6 
#
# 1 49.1009 10.6780 3.7037 0.0000 1.5187 0.0000
# 2 10.6780 91.7467 9.4941 0.0000 -15.6751 0.0000
# 3 3.7037 9.4941 35.7921 0.0000 -14.9679 0.0000
# 4 0.0000 0.0000 0.0000 20.9738 0.0000 -4.0259
# 5 1.5187 -15.6751 -14.9679 0.0000 18.7029 0.0000
# 6 0.0000 0.0000 0.0000 -4.0259 0.0000 12.9467
#
#
#
# Elastic Compliance Matrix: (Units=1/GPa)
#
#
# Indices 1 2 3 4 5 6 
#
# 1 0.021769 -0.003501 -0.004945 0.000000 -0.008660 0.000000
# 2 -0.003501 0.013348 0.002433 0.000000 0.013419 0.000000
# 3 -0.004945 0.002433 0.043327 0.000000 0.037115 0.000000
# 4 0.000000 0.000000 0.000000 0.050705 0.000000 0.015767
# 5 -0.008660 0.013419 0.037115 0.000000 0.095120 0.000000
# 6 0.000000 0.000000 0.000000 0.015767 0.000000 0.082143
#
#
# Mechanical properties :
#
#
# Convention : Reuss Voigt Hill
#
# Bulk Modulus (GPa) = 15.05655 24.93237 19.99446
# Shear Modulus (GPa) = 14.68098 20.70895 17.69496
#
# Velocity S-wave (km/s) = 2.83378 3.36564 3.11110
# Velocity P-wave (km/s) = 4.35234 5.36107 4.88283
#
# Compressibility (1/GPa) = 0.06641630
#
# Stress axis : x y z
#
# Youngs Moduli (GPa) = 45.93784 74.91820 23.08047
#
# Poissons Ratio (x) = 0.26232 0.11414
# Poissons Ratio (y) = 0.16084 -0.05616
# Poissons Ratio (z) = 0.22718 -0.18229
#
# Static dielectric constant tensor:
#      x y z
#    x 1.639850 0.000000 0.014960 
#    y 0.000000 1.598710 0.000000 
#    z 0.014960 0.000000 1.620660 
# 
# From -- ./inp_files/21475.got.cif
#   From: 2010.05.17/outbox.cif.g08.bks.cpg/sg11_11_cif.got.tgz:21475.got - 2010.06.03 12:22:45.
