data_PCOD9163607
_publ_section_title
;
Structure prediction by ZEFSAII (Michael W. Deem and Ramdas Pophale) SiO2 
 PCOD9163607
Probable space group: P 21/M
;
_chemical_formula_sum "Si O2"
_cell_formula_units_Z 32
_cell_length_a 15.402396
_cell_length_b 8.603473
_cell_length_c 23.009484
_cell_angle_alpha 90.000000
_cell_angle_beta 148.201148
_cell_angle_gamma 90.000000
_cell_volume 1606.678992
_symmetry_space_group_name_H-M "P 21/M"
_symmetry_group_IT_number 11
_symmetry_cell_setting 'monoclinic'
loop_
_space_group_symop_operation_xyz
x,y,z
-x,1/2+y,-z
-x,-y,-z
x,1/2-y,z
loop_
_atom_site_type_symbol
_atom_site_label
_atom_site_fract_x
_atom_site_fract_y
_atom_site_fract_z
Si Si1 0.842699 0.064474 0.943821
Si Si2 0.341525 0.436572 0.375983
Si Si3 0.252938 0.561402 0.586790
Si Si4 0.426761 0.437415 0.294889
Si Si5 0.382878 0.563877 0.787206
Si Si6 0.061523 0.061987 0.659145
Si Si7 0.016912 0.935394 0.253769
Si Si8 0.254809 0.936348 0.983762
O O1 0.846687 0.250000 0.944643
O O2 0.683943 0.003872 0.819459
O O3 0.832116 0.016120 0.004932
O O4 0.000000 0.000000 0.000000
O O5 0.500000 0.500000 0.500000
O O6 0.345232 0.250000 0.378448
O O7 0.359830 0.488992 0.319293
O O8 0.173692 0.491947 0.310441
O O9 0.247361 0.750000 0.585625
O O10 0.385131 0.518989 0.612213
O O11 0.322431 0.509408 0.688613
O O12 0.071903 0.508798 0.464892
O O13 0.416455 0.250000 0.287230
O O14 0.401097 0.750000 0.795915
O O15 0.236937 0.514521 0.747108
O O16 0.556680 0.490679 0.904037
O O17 0.077799 0.250000 0.665175
O O18 0.992456 0.022999 0.683569
O O19 0.031354 0.750000 0.258039
O O20 0.849738 0.989936 0.127438
O O21 0.249221 0.750000 0.975925
#
# Coordination Sequence:
#
# PCOD9163607 Si02
#       8
#     4   4   4   4   4   4   4   4
#     4  11  23  37  57  86 117 154 197 244 299 358
#     4  11  23  39  62  91 126 167 208 253 305 360
#     4   9  18  36  62  90 122 156 195 244 304 368
#     4  10  20  37  60  86 119 158 197 243 301 359
#     4  11  22  38  64  94 121 157 203 252 308 367
#     4  10  22  41  63  88 121 161 202 252 312 368
#     4  11  24  42  64  89 122 165 212 257 307 366
#     4  11  24  42  62  87 124 163 203 254 309 366
#
# _framework density 19.916861000000001
#
# number of rings (size 3 to 8) (size 9 to 14) (size 15 to 20)
#    0.000    1.500    1.250    3.750    0.000    9.000 
#    0.000    1.250    0.000    0.000    0.000    0.000 
#    0.000    0.000    0.000    0.000    0.000    0.000 
#
# Total GULP energy -178881.114401 kJ/mol
# GULP energy per Si atom -5590.034825 kJ/mol
# Density = 1.987153 g / cm^3
# Si number density = 19.916861 Si / 1000 Ang^3
#
#
#
# Elastic Constant Matrix: (Units=GPa)
#
#
# Indices 1 2 3 4 5 6 
#
# 1 70.4286 17.1726 11.5705 0.0000 5.0841 0.0000
# 2 17.1726 22.0027 8.7279 0.0000 -2.9133 0.0000
# 3 11.5705 8.7279 98.9962 0.0000 1.9644 0.0000
# 4 0.0000 0.0000 0.0000 32.2180 0.0000 4.0584
# 5 5.0841 -2.9133 1.9644 0.0000 38.9726 0.0000
# 6 0.0000 0.0000 0.0000 4.0584 0.0000 25.9979
#
#
#
# Elastic Compliance Matrix: (Units=1/GPa)
#
#
# Indices 1 2 3 4 5 6 
#
# 1 0.018037 -0.014212 -0.000788 0.000000 -0.003376 0.000000
# 2 -0.014212 0.058843 -0.003654 0.000000 0.006437 0.000000
# 3 -0.000788 -0.003654 0.010530 0.000000 -0.000701 0.000000
# 4 0.000000 0.000000 0.000000 0.031661 0.000000 -0.004943
# 5 -0.003376 0.006437 -0.000701 0.000000 0.026616 0.000000
# 6 0.000000 0.000000 0.000000 -0.004943 0.000000 0.039236
#
#
# Mechanical properties :
#
#
# Convention : Reuss Voigt Hill
#
# Bulk Modulus (GPa) = 19.95987 29.59662 24.77824
# Shear Modulus (GPa) = 20.92640 29.70146 25.31393
#
# Velocity S-wave (km/s) = 3.24495 3.86589 3.56895
# Velocity P-wave (km/s) = 4.90744 5.90077 5.42688
#
# Compressibility (1/GPa) = 0.05010053
#
# Stress axis : x y z
#
# Youngs Moduli (GPa) = 55.44077 16.99438 94.97011
#
# Poissons Ratio (x) = 0.24152 0.07486
# Poissons Ratio (y) = 0.78792 0.34707
# Poissons Ratio (z) = 0.04370 0.06211
#
# Static dielectric constant tensor:
#      x y z
#    x 1.709370 0.000000 -0.006570 
#    y 0.000000 1.675360 0.000000 
#    z -0.006570 0.000000 1.685680 
# 
# From -- ./inp_files/69152.got.cif
#   From: 2010.05.17/outbox.cif.g08.bks.cpg/sg11_35_cif.got.tgz:69152.got - 2010.06.03 12:22:45.
