data_PCOD9163842
_publ_section_title
;
Structure prediction by ZEFSAII (Michael W. Deem and Ramdas Pophale) SiO2 
 PCOD9163842
Probable space group: P 21/M
;
_chemical_formula_sum "Si O2"
_cell_formula_units_Z 22
_cell_length_a 14.352027
_cell_length_b 14.767938
_cell_length_c 9.280257
_cell_angle_alpha 90.000000
_cell_angle_beta 26.799585
_cell_angle_gamma 90.000000
_cell_volume 886.840426
_symmetry_space_group_name_H-M "P 21/M"
_symmetry_group_IT_number 11
_symmetry_cell_setting 'monoclinic'
loop_
_space_group_symop_operation_xyz
x,y,z
-x,1/2+y,-z
-x,-y,-z
x,1/2-y,z
loop_
_atom_site_type_symbol
_atom_site_label
_atom_site_fract_x
_atom_site_fract_y
_atom_site_fract_z
Si Si1 0.141104 0.416085 0.368341
Si Si2 0.983259 0.647409 0.751618
Si Si3 0.653077 0.943863 0.401709
Si Si4 0.963667 0.250000 0.776795
Si Si5 0.483710 0.750000 0.665558
Si Si6 0.386521 0.922987 0.291542
Si Si7 0.654075 0.250000 0.453241
O O1 0.000000 0.500000 0.500000
O O2 0.135415 0.353680 0.234549
O O3 0.066496 0.346728 0.596583
O O4 0.377342 0.441424 0.077822
O O5 0.997272 0.750000 0.787441
O O6 0.212989 0.606874 0.417949
O O7 0.856226 0.582457 0.032845
O O8 0.568884 0.848480 0.581014
O O9 0.500000 0.000000 0.500000
O O10 0.690612 0.001409 0.491739
O O11 0.757047 0.250000 0.963524
O O12 0.873484 0.250000 0.063996
O O13 0.499522 0.750000 0.469706
O O14 0.385877 0.836096 0.396741
#
# Coordination Sequence:
#
# PCOD9163842 Si02
#       7
#     4   4   4   2   2   4   2
#     4  12  26  46  73 101 141 194 233 286 353 431
#     4  12  26  44  74 107 141 185 241 293 357 417
#     4  12  21  40  71 106 134 181 233 296 349 412
#     4  10  23  40  66 101 140 178 233 282 351 414
#     4  10  20  37  66  97 137 178 232 275 348 417
#     4  12  25  45  77 102 144 181 242 295 352 423
#     4  10  21  39  72 108 133 182 237 293 351 405
#
# _framework density 24.807168000000001
#
# number of rings (size 3 to 8) (size 9 to 14) (size 15 to 20)
#    0.545    0.000    6.364    2.182    2.545    0.727 
#    0.000    0.000    4.000    0.000    0.000    0.000 
#    0.000    0.000    0.000    0.000    0.000    0.000 
#
# Total GULP energy -122899.176389 kJ/mol
# GULP energy per Si atom -5586.326200 kJ/mol
# Density = 2.475071 g / cm^3
# Si number density = 24.807168 Si / 1000 Ang^3
#
#
#
# Elastic Constant Matrix: (Units=GPa)
#
#
# Indices 1 2 3 4 5 6 
#
# 1 61.4872 12.9228 10.9416 0.0000 -30.1023 0.0000
# 2 12.9228 173.9710 50.0992 0.0000 -13.9711 0.0000
# 3 10.9416 50.0992 147.9277 0.0000 -26.7861 0.0000
# 4 0.0000 0.0000 0.0000 52.3571 0.0000 -1.5580
# 5 -30.1023 -13.9711 -26.7861 0.0000 37.9791 0.0000
# 6 0.0000 0.0000 0.0000 -1.5580 0.0000 34.5947
#
#
#
# Elastic Compliance Matrix: (Units=1/GPa)
#
#
# Indices 1 2 3 4 5 6 
#
# 1 0.027290 -0.000883 0.002452 0.000000 0.023034 0.000000
# 2 -0.000883 0.006427 -0.002075 0.000000 0.000201 0.000000
# 3 0.002452 -0.002075 0.008592 0.000000 0.007240 0.000000
# 4 0.000000 0.000000 0.000000 0.019125 0.000000 0.000861
# 5 0.023034 0.000201 0.007240 0.000000 0.049767 0.000000
# 6 0.000000 0.000000 0.000000 0.000861 0.000000 0.028945
#
#
# Mechanical properties :
#
#
# Convention : Reuss Voigt Hill
#
# Bulk Modulus (GPa) = 24.21558 59.03477 41.62517
# Shear Modulus (GPa) = 32.27356 45.61434 38.94395
#
# Velocity S-wave (km/s) = 3.61082 4.29272 3.96645
# Velocity P-wave (km/s) = 5.21217 6.95838 6.14759
#
# Compressibility (1/GPa) = 0.04129574
#
# Stress axis : x y z
#
# Youngs Moduli (GPa) = 36.64399 155.58403 116.38088
#
# Poissons Ratio (x) = 0.13743 -0.28531
# Poissons Ratio (y) = 0.03237 0.24150
# Poissons Ratio (z) = -0.08983 0.32285
#
# Static dielectric constant tensor:
#      x y z
#    x 1.940030 0.000000 -0.034980 
#    y 0.000000 -0.091620 0.000000 
#    z -0.034980 0.000000 2.002100 
# 
# From -- ./inp_files/41537.got.cif
#   From: 2010.05.17/outbox.cif.g08.bks.cpg/sg11_21_cif.got.tgz:41537.got - 2010.06.03 12:22:45.
