data_PCOD9163910
_publ_section_title
;
Structure prediction by ZEFSAII (Michael W. Deem and Ramdas Pophale) SiO2 
 PCOD9163910
Probable space group: P 21/M
;
_chemical_formula_sum "Si O2"
_cell_formula_units_Z 30
_cell_length_a 11.466462
_cell_length_b 21.980266
_cell_length_c 7.634459
_cell_angle_alpha 90.000000
_cell_angle_beta 36.224281
_cell_angle_gamma 90.000000
_cell_volume 1137.076316
_symmetry_space_group_name_H-M "P 21/M"
_symmetry_group_IT_number 11
_symmetry_cell_setting 'monoclinic'
loop_
_space_group_symop_operation_xyz
x,y,z
-x,1/2+y,-z
-x,-y,-z
x,1/2-y,z
loop_
_atom_site_type_symbol
_atom_site_label
_atom_site_fract_x
_atom_site_fract_y
_atom_site_fract_z
Si Si1 0.859633 0.463032 0.795095
Si Si2 0.623590 0.349500 0.445549
Si Si3 0.762172 0.010048 0.257319
Si Si4 0.588709 0.682523 0.961296
Si Si5 0.949231 0.680528 0.921310
Si Si6 0.272307 0.750000 0.930660
Si Si7 0.172559 0.843472 0.314109
Si Si8 0.210495 0.399290 0.573781
O O1 0.754494 0.411909 0.809898
O O2 0.000000 0.500000 0.500000
O O3 0.005999 0.421680 0.735351
O O4 0.740803 0.503524 0.076327
O O5 0.678994 0.421368 0.374162
O O6 0.829030 0.319132 0.263497
O O7 0.589784 0.306069 0.318986
O O8 0.448839 0.340452 0.796268
O O9 0.678682 0.960230 0.492252
O O10 0.000000 0.000000 0.000000
O O11 0.676503 0.750000 0.853704
O O12 0.689487 0.638156 0.701519
O O13 0.364283 0.688276 0.162186
O O14 0.880695 0.750000 0.000221
O O15 0.996162 0.656491 0.668508
O O16 0.830147 0.638654 0.200120
O O17 0.133095 0.803072 0.192521
#
# Coordination Sequence:
#
# PCOD9163910 Si02
#       8
#     4   4   4   4   4   2   4   4
#     4  11  23  40  65  96 128 163 215 273 321 373
#     4  11  20  36  68  87 124 168 217 250 313 395
#     4  10  20  38  60  93 122 168 212 261 315 379
#     4  11  24  44  62  96 128 173 215 260 317 397
#     4  11  19  36  62  95 117 168 218 261 310 385
#     4  12  18  38  62  96 120 156 216 268 314 360
#     4  11  22  39  68  96 125 160 218 272 317 378
#     4  11  24  42  65  89 135 173 210 266 327 378
#
# _framework density 26.383452999999999
#
# number of rings (size 3 to 8) (size 9 to 14) (size 15 to 20)
#    0.000    1.067    6.667    2.000    5.600    0.533 
#    1.200    3.333    0.000    0.000    0.000    0.000 
#    0.000    0.000    0.000    0.000    0.000    0.000 
#
# Total GULP energy -167220.089781 kJ/mol
# GULP energy per Si atom -5574.002993 kJ/mol
# Density = 2.632340 g / cm^3
# Si number density = 26.383453 Si / 1000 Ang^3
#
#
#
# Elastic Constant Matrix: (Units=GPa)
#
#
# Indices 1 2 3 4 5 6 
#
# 1 45.3953 8.1951 24.6401 0.0000 -5.5310 0.0000
# 2 8.1951 134.9966 62.6348 0.0000 22.2179 0.0000
# 3 24.6401 62.6348 158.8104 0.0000 29.8061 0.0000
# 4 0.0000 0.0000 0.0000 54.5413 0.0000 11.2022
# 5 -5.5310 22.2179 29.8061 0.0000 45.1181 0.0000
# 6 0.0000 0.0000 0.0000 11.2022 0.0000 23.6095
#
#
#
# Elastic Compliance Matrix: (Units=1/GPa)
#
#
# Indices 1 2 3 4 5 6 
#
# 1 0.025674 -0.000278 -0.005126 0.000000 0.006670 0.000000
# 2 -0.000278 0.009303 -0.003150 0.000000 -0.002534 0.000000
# 3 -0.005126 -0.003150 0.009316 0.000000 -0.005232 0.000000
# 4 0.000000 0.000000 0.000000 0.020314 0.000000 -0.009639
# 5 0.006670 -0.002534 -0.005232 0.000000 0.027686 0.000000
# 6 0.000000 0.000000 0.000000 -0.009639 0.000000 0.046929
#
#
# Mechanical properties :
#
#
# Convention : Reuss Voigt Hill
#
# Bulk Modulus (GPa) = 36.78490 58.90468 47.84479
# Shear Modulus (GPa) = 30.23099 40.90259 35.56679
#
# Velocity S-wave (km/s) = 3.38869 3.94167 3.67559
# Velocity P-wave (km/s) = 5.41143 6.56434 6.01557
#
# Compressibility (1/GPa) = 0.02718507
#
# Stress axis : x y z
#
# Youngs Moduli (GPa) = 38.95021 107.48906 107.33654
#
# Poissons Ratio (x) = 0.02991 0.55016
# Poissons Ratio (y) = 0.01084 0.33815
# Poissons Ratio (z) = 0.19964 0.33864
#
# Static dielectric constant tensor:
#      x y z
#    x 2.342040 0.000000 0.076270 
#    y 0.000000 2.074800 0.000000 
#    z 0.076270 0.000000 2.176780 
# 
# From -- ./inp_files/25300.got.cif
#   From: 2010.05.17/outbox.cif.g08.bks.cpg/sg11_13_cif.got.tgz:25300.got - 2010.06.03 12:22:45.
