data_PCOD9163377
_publ_section_title
;
Structure prediction by ZEFSAII (Michael W. Deem and Ramdas Pophale) SiO2 
 PCOD9163377
Probable space group: P 21/M
;
_chemical_formula_sum "Si O2"
_cell_formula_units_Z 32
_cell_length_a 18.585742
_cell_length_b 13.314254
_cell_length_c 26.219329
_cell_angle_alpha 90.000000
_cell_angle_beta 165.495609
_cell_angle_gamma 90.000000
_cell_volume 1624.974812
_symmetry_space_group_name_H-M "P 21/M"
_symmetry_group_IT_number 11
_symmetry_cell_setting 'monoclinic'
loop_
_space_group_symop_operation_xyz
x,y,z
-x,1/2+y,-z
-x,-y,-z
x,1/2-y,z
loop_
_atom_site_type_symbol
_atom_site_label
_atom_site_fract_x
_atom_site_fract_y
_atom_site_fract_z
Si Si1 0.894824 0.632927 0.739734
Si Si2 0.241190 0.631069 0.081102
Si Si3 0.920422 0.561475 0.173244
Si Si4 0.715483 0.130706 0.280975
Si Si5 0.749071 0.130717 0.500183
Si Si6 0.801160 0.999995 0.440583
Si Si7 0.224875 0.629239 0.278221
Si Si8 0.926656 0.871312 0.969075
O O1 0.919528 0.750000 0.742387
O O2 0.560807 0.602270 0.507429
O O3 0.075513 0.559495 0.827516
O O4 0.010479 0.623146 0.876922
O O5 0.317240 0.750000 0.136660
O O6 0.516561 0.565457 0.255720
O O7 0.108592 0.599098 0.044352
O O8 0.108092 0.601636 0.348505
O O9 0.067190 0.592551 0.220580
O O10 0.603410 0.606540 0.957679
O O11 0.761933 0.250000 0.315321
O O12 0.949710 0.074637 0.406988
O O13 0.739068 0.079429 0.352843
O O14 0.782209 0.250000 0.513617
O O15 0.409106 0.107019 0.267665
O O16 0.877436 0.063506 0.543027
O O17 0.214518 0.750000 0.272575
O O18 0.062205 0.594795 0.115613
O O19 0.943983 0.750000 0.982163
#
# Coordination Sequence:
#
# PCOD9163377 Si02
#       8
#     4   4   4   4   4   4   4   4
#     4  10  22  39  58  89 130 167 209 260 315 376
#     4  10  20  39  62  91 130 168 209 259 314 375
#     4  12  23  41  64  94 123 174 217 256 320 378
#     4  11  24  45  70  94 123 161 214 270 319 382
#     4  11  24  42  64  94 132 169 210 262 315 382
#     4  11  24  42  66  97 123 162 213 263 327 375
#     4  10  20  36  61  94 131 170 216 261 308 377
#     4   9  20  36  61  94 130 171 211 255 311 371
#
# _framework density 19.692613000000001
#
# number of rings (size 3 to 8) (size 9 to 14) (size 15 to 20)
#    0.000    1.500    1.250    3.750    1.750    4.000 
#    0.000    1.250    0.000    0.000    0.000    0.000 
#    0.000    0.000    0.000    0.000    0.000    0.000 
#
# Total GULP energy -178996.608383 kJ/mol
# GULP energy per Si atom -5593.644012 kJ/mol
# Density = 1.964779 g / cm^3
# Si number density = 19.692613 Si / 1000 Ang^3
#
#
#
# Elastic Constant Matrix: (Units=GPa)
#
#
# Indices 1 2 3 4 5 6 
#
# 1 134.2367 70.5044 75.6720 0.0000 -4.6305 0.0000
# 2 70.5044 143.8723 63.1183 0.0000 -3.0564 0.0000
# 3 75.6720 63.1183 118.7530 0.0000 -16.9126 0.0000
# 4 0.0000 0.0000 0.0000 29.9509 0.0000 0.0828
# 5 -4.6305 -3.0564 -16.9126 0.0000 25.7471 0.0000
# 6 0.0000 0.0000 0.0000 0.0828 0.0000 30.5268
#
#
#
# Elastic Compliance Matrix: (Units=1/GPa)
#
#
# Indices 1 2 3 4 5 6 
#
# 1 0.013018 -0.003436 -0.006833 0.000000 -0.002555 0.000000
# 2 -0.003436 0.010097 -0.003414 0.000000 -0.001662 0.000000
# 3 -0.006833 -0.003414 0.015838 0.000000 0.008770 0.000000
# 4 0.000000 0.000000 0.000000 0.033388 0.000000 -0.000091
# 5 -0.002555 -0.001662 0.008770 0.000000 0.043943 0.000000
# 6 0.000000 0.000000 0.000000 -0.000091 0.000000 0.032758
#
#
# Mechanical properties :
#
#
# Convention : Reuss Voigt Hill
#
# Bulk Modulus (GPa) = 86.29806 90.60570 88.45188
# Shear Modulus (GPa) = 27.73612 29.74946 28.74279
#
# Velocity S-wave (km/s) = 3.75701 3.89098 3.82458
# Velocity P-wave (km/s) = 7.92072 8.14225 8.03225
#
# Compressibility (1/GPa) = 0.01158775
#
# Stress axis : x y z
#
# Youngs Moduli (GPa) = 76.81716 99.04199 63.13817
#
# Poissons Ratio (x) = 0.34031 0.43142
# Poissons Ratio (y) = 0.26395 0.21553
# Poissons Ratio (z) = 0.52489 0.33810
#
# Static dielectric constant tensor:
#      x y z
#    x 1.656080 0.000000 -0.004170 
#    y 0.000000 1.750800 0.000000 
#    z -0.004170 0.000000 1.659550 
# 
# From -- ./inp_files/65802.got.cif
#   From: 2010.05.17/outbox.cif.g08.bks.cpg/sg11_33_cif.got.tgz:65802.got - 2010.06.03 12:22:45.
