data_PCOD9163803
_publ_section_title
;
Structure prediction by ZEFSAII (Michael W. Deem and Ramdas Pophale) SiO2 
 PCOD9163803
Probable space group: P 21/M
;
_chemical_formula_sum "Si O2"
_cell_formula_units_Z 32
_cell_length_a 12.224835
_cell_length_b 8.912317
_cell_length_c 31.656218
_cell_angle_alpha 90.000000
_cell_angle_beta 29.603764
_cell_angle_gamma 90.000000
_cell_volume 1703.800406
_symmetry_space_group_name_H-M "P 21/M"
_symmetry_group_IT_number 11
_symmetry_cell_setting 'monoclinic'
loop_
_space_group_symop_operation_xyz
x,y,z
-x,1/2+y,-z
-x,-y,-z
x,1/2-y,z
loop_
_atom_site_type_symbol
_atom_site_label
_atom_site_fract_x
_atom_site_fract_y
_atom_site_fract_z
Si Si1 0.682507 0.929242 0.758477
Si Si2 0.039759 0.428605 0.871234
Si Si3 0.838934 0.572056 0.611442
Si Si4 0.211818 0.571576 0.726412
Si Si5 0.130251 0.927164 0.223719
Si Si6 0.570810 0.927516 0.020643
Si Si7 0.789049 0.928837 0.093997
Si Si8 0.332482 0.926886 0.414423
O O1 0.672111 0.750000 0.766779
O O2 0.766403 0.964063 0.683092
O O3 0.842778 0.998525 0.739750
O O4 0.438427 0.998775 0.845205
O O5 0.028863 0.250000 0.867768
O O6 0.135175 0.506436 0.797486
O O7 0.181967 0.456917 0.865536
O O8 0.793527 0.492382 0.961164
O O9 0.799056 0.750000 0.617340
O O10 0.708265 0.478829 0.620099
O O11 0.100046 0.545269 0.516141
O O12 0.194577 0.750000 0.732787
O O13 0.463235 0.518287 0.635634
O O14 0.053389 0.503838 0.743823
O O15 0.086586 0.750000 0.241636
O O16 0.366500 0.946712 0.120942
O O17 0.611972 0.750000 0.001372
O O18 0.500000 0.000000 0.000000
O O19 0.785882 0.750000 0.088027
O O20 0.000000 0.000000 0.000000
O O21 0.381414 0.750000 0.399289
#
# Coordination Sequence:
#
# PCOD9163803 Si02
#       8
#     4   4   4   4   4   4   4   4
#     4  11  23  40  62  87 119 157 198 240 290 352
#     4  11  23  38  58  85 117 152 196 245 296 350
#     4   9  20  39  63  92 122 155 193 236 290 351
#     4  12  24  38  59  87 118 152 194 242 295 350
#     4  11  24  41  60  84 117 156 199 244 292 348
#     4  11  22  36  57  82 113 152 196 244 293 348
#     4  11  24  40  59  85 118 156 198 243 292 344
#     4  10  20  37  63  92 123 153 189 240 294 348
#
# _framework density 18.781542999999999
#
# number of rings (size 3 to 8) (size 9 to 14) (size 15 to 20)
#    0.000    1.250    1.250    4.875    0.000    9.000 
#    0.000    0.625    0.000    0.000    0.000    0.000 
#    0.000    0.000    0.000    0.000    0.000    0.000 
#
# Total GULP energy -179013.405102 kJ/mol
# GULP energy per Si atom -5594.168909 kJ/mol
# Density = 1.873880 g / cm^3
# Si number density = 18.781543 Si / 1000 Ang^3
#
#
#
# Elastic Constant Matrix: (Units=GPa)
#
#
# Indices 1 2 3 4 5 6 
#
# 1 108.3697 64.9417 45.3589 0.0000 -4.3918 0.0000
# 2 64.9417 88.3327 42.5110 0.0000 -1.5977 0.0000
# 3 45.3589 42.5110 66.2928 0.0000 1.6730 0.0000
# 4 0.0000 0.0000 0.0000 28.9183 0.0000 -3.7483
# 5 -4.3918 -1.5977 1.6730 0.0000 29.4812 0.0000
# 6 0.0000 0.0000 0.0000 -3.7483 0.0000 35.5989
#
#
#
# Elastic Compliance Matrix: (Units=1/GPa)
#
#
# Indices 1 2 3 4 5 6 
#
# 1 0.017938 -0.010425 -0.005650 0.000000 0.002428 0.000000
# 2 -0.010425 0.022498 -0.007296 0.000000 0.000080 0.000000
# 3 -0.005650 -0.007296 0.023694 0.000000 -0.002582 0.000000
# 4 0.000000 0.000000 0.000000 0.035059 0.000000 0.003691
# 5 0.002428 0.000080 -0.002582 0.000000 0.034432 0.000000
# 6 0.000000 0.000000 0.000000 0.003691 0.000000 0.028479
#
#
# Mechanical properties :
#
#
# Convention : Reuss Voigt Hill
#
# Bulk Modulus (GPa) = 57.50930 63.17983 60.34456
# Shear Modulus (GPa) = 23.29493 26.14525 24.72009
#
# Velocity S-wave (km/s) = 3.52562 3.73509 3.63187
# Velocity P-wave (km/s) = 6.87459 7.23281 7.05597
#
# Compressibility (1/GPa) = 0.01738849
#
# Stress axis : x y z
#
# Youngs Moduli (GPa) = 55.74714 44.44811 42.20466
#
# Poissons Ratio (x) = 0.46338 0.23844
# Poissons Ratio (y) = 0.58117 0.30793
# Poissons Ratio (z) = 0.31495 0.32430
#
# Static dielectric constant tensor:
#      x y z
#    x 1.632470 0.000000 0.001970 
#    y 0.000000 1.624390 0.000000 
#    z 0.001970 0.000000 1.641180 
# 
# From -- ./inp_files/73100.got.cif
#   From: 2010.05.17/outbox.cif.g08.bks.cpg/sg11_37_cif.got.tgz:73100.got - 2010.06.03 12:22:45.
