data_PCOD9163304
_publ_section_title
;
Structure prediction by ZEFSAII (Michael W. Deem and Ramdas Pophale) SiO2 
 PCOD9163304
Probable space group: P 21/M
;
_chemical_formula_sum "Si O2"
_cell_formula_units_Z 28
_cell_length_a 23.727161
_cell_length_b 9.085937
_cell_length_c 20.810518
_cell_angle_alpha 90.000000
_cell_angle_beta 19.824122
_cell_angle_gamma 90.000000
_cell_volume 1521.492208
_symmetry_space_group_name_H-M "P 21/M"
_symmetry_group_IT_number 11
_symmetry_cell_setting 'monoclinic'
loop_
_space_group_symop_operation_xyz
x,y,z
-x,1/2+y,-z
-x,-y,-z
x,1/2-y,z
loop_
_atom_site_type_symbol
_atom_site_label
_atom_site_fract_x
_atom_site_fract_y
_atom_site_fract_z
Si Si1 0.647160 0.585270 0.870860
Si Si2 0.103917 0.572914 0.032607
Si Si3 0.021520 0.082153 0.545607
Si Si4 0.762794 0.926706 0.888273
Si Si5 0.249000 0.927042 0.606906
Si Si6 0.595388 0.072734 0.189107
Si Si7 0.321914 0.574143 0.677238
O O1 0.596997 0.750000 0.939675
O O2 0.781520 0.590004 0.669791
O O3 0.703102 0.527780 0.880626
O O4 0.500000 0.500000 0.000000
O O5 0.077111 0.750000 0.062765
O O6 0.925573 0.493449 0.231921
O O7 0.252199 0.539733 0.924628
O O8 0.185636 0.530224 0.876435
O O9 0.956617 0.250000 0.613316
O O10 0.000000 0.000000 0.500000
O O11 0.948607 0.992655 0.683344
O O12 0.764368 0.750000 0.893022
O O13 0.656201 0.003890 0.056853
O O14 0.253114 0.750000 0.592551
O O15 0.259455 0.957047 0.672394
O O16 0.418377 0.000711 0.397914
O O17 0.578455 0.250000 0.204627
O O18 0.500000 0.500000 0.500000
O O19 0.345197 0.750000 0.658396
#
# Coordination Sequence:
#
# PCOD9163304 Si02
#       7
#     4   4   4   4   4   4   4
#     4   9  19  34  55  84 115 144 181 230 281 335
#     4  10  22  40  61  87 119 157 202 248 301 361
#     4   9  17  32  54  80 107 140 182 227 276 334
#     4  10  21  38  58  83 114 150 191 237 289 349
#     4  11  23  38  61  91 121 156 200 251 305 359
#     4  11  23  41  63  85 118 163 203 247 299 360
#     4  10  20  36  60  89 119 155 198 249 305 358
#
# _framework density 18.402987
#
# number of rings (size 3 to 8) (size 9 to 14) (size 15 to 20)
#    0.000    2.000    1.429    3.000    0.000    5.714 
#    2.571    0.000    0.000    0.000    0.000    0.000 
#    0.000    0.000    0.000    0.000    0.000    0.000 
#
# Total GULP energy -155872.585691 kJ/mol
# GULP energy per Si atom -5566.878060 kJ/mol
# Density = 1.836110 g / cm^3
# Si number density = 18.402987 Si / 1000 Ang^3
#
#
#
# Elastic Constant Matrix: (Units=GPa)
#
#
# Indices 1 2 3 4 5 6 
#
# 1 55.9798 28.2513 73.1149 0.0000 11.2428 0.0000
# 2 28.2513 59.5879 83.7956 0.0000 -1.1398 0.0000
# 3 73.1149 83.7956 159.4823 0.0000 7.1234 0.0000
# 4 0.0000 0.0000 0.0000 40.3192 0.0000 -2.1070
# 5 11.2428 -1.1398 7.1234 0.0000 34.9983 0.0000
# 6 0.0000 0.0000 0.0000 -2.1070 0.0000 25.2828
#
#
#
# Elastic Compliance Matrix: (Units=1/GPa)
#
#
# Indices 1 2 3 4 5 6 
#
# 1 0.066101 0.040187 -0.050993 0.000000 -0.009547 0.000000
# 2 0.040187 0.091670 -0.066753 0.000000 0.003662 0.000000
# 3 -0.050993 -0.066753 0.064675 0.000000 0.001043 0.000000
# 4 0.000000 0.000000 0.000000 0.024911 0.000000 0.002076
# 5 -0.009547 0.003662 0.001043 0.000000 0.031547 0.000000
# 6 0.000000 0.000000 0.000000 0.002076 0.000000 0.039726
#
#
# Mechanical properties :
#
#
# Convention : Reuss Voigt Hill
#
# Bulk Modulus (GPa) = 14.85254 71.70817 43.28036
# Shear Modulus (GPa) = 10.07679 26.11261 18.09470
#
# Velocity S-wave (km/s) = 2.34254 3.77096 3.13908
# Velocity P-wave (km/s) = 3.92491 7.61645 6.05868
#
# Compressibility (1/GPa) = 0.06732854
#
# Stress axis : x y z
#
# Youngs Moduli (GPa) = 15.12832 10.90866 15.46196
#
# Poissons Ratio (x) = -0.43838 0.78845
# Poissons Ratio (y) = -0.60796 1.03213
# Poissons Ratio (z) = 0.77143 0.72818
#
# Static dielectric constant tensor:
#      x y z
#    x 1.630630 0.000000 -0.045730 
#    y 0.000000 1.665660 0.000000 
#    z -0.045730 0.000000 1.707960 
# 
# From -- ./inp_files/66664.got.cif
#   From: 2010.05.17/outbox.cif.g08.bks.cpg/sg11_34_cif.got.tgz:66664.got - 2010.06.03 12:22:45.
