data_PCOD9163673
_publ_section_title
;
Structure prediction by ZEFSAII (Michael W. Deem and Ramdas Pophale) SiO2 
 PCOD9163673
Probable space group: P 21/M
;
_chemical_formula_sum "Si O2"
_cell_formula_units_Z 28
_cell_length_a 17.123182
_cell_length_b 14.189204
_cell_length_c 7.893581
_cell_angle_alpha 90.000000
_cell_angle_beta 39.623596
_cell_angle_gamma 90.000000
_cell_volume 1223.097524
_symmetry_space_group_name_H-M "P 21/M"
_symmetry_group_IT_number 11
_symmetry_cell_setting 'monoclinic'
loop_
_space_group_symop_operation_xyz
x,y,z
-x,1/2+y,-z
-x,-y,-z
x,1/2-y,z
loop_
_atom_site_type_symbol
_atom_site_label
_atom_site_fract_x
_atom_site_fract_y
_atom_site_fract_z
Si Si1 0.943832 0.066374 0.776583
Si Si2 0.951614 0.850239 0.872903
Si Si3 0.599735 0.969337 0.969558
Si Si4 0.267999 0.860557 0.075393
Si Si5 0.183234 0.399973 0.558859
Si Si6 0.807895 0.113078 0.338559
Si Si7 0.426729 0.853409 0.467661
O O1 0.869278 0.106541 0.743738
O O2 0.084308 0.093481 0.572762
O O3 0.880324 0.118285 0.040940
O O4 0.927948 0.952709 0.826151
O O5 0.924283 0.750000 0.829930
O O6 0.873760 0.849688 0.180995
O O7 0.095054 0.849121 0.688226
O O8 0.685170 0.886650 0.747246
O O9 0.676980 0.062271 0.890017
O O10 0.527709 0.929693 0.252095
O O11 0.500000 0.000000 0.000000
O O12 0.273078 0.750000 0.115259
O O13 0.350628 0.870808 0.766440
O O14 0.199767 0.503604 0.608750
O O15 0.673572 0.148591 0.517527
O O16 0.483125 0.750000 0.387976
#
# Coordination Sequence:
#
# PCOD9163673 Si02
#       7
#     4   4   4   4   4   4   4
#     4   8  17  34  60  86 119 154 202 250 299 347
#     4   9  16  29  56  92 125 159 198 241 298 359
#     4  12  24  39  61  87 128 161 196 249 308 359
#     4  10  23  44  67  86 109 157 215 255 297 362
#     4   9  18  33  54  87 125 160 191 248 305 353
#     4   8  14  31  55  83 117 158 203 248 286 341
#     4  10  20  37  61  86 116 160 209 247 290 355
#
# _framework density 22.892696999999998
#
# number of rings (size 3 to 8) (size 9 to 14) (size 15 to 20)
#    0.000    2.571    1.429    2.571    0.000    5.143 
#    0.000    1.429    0.000    0.000    0.000    0.000 
#    0.000    0.000    0.000    0.000    0.000    0.000 
#
# Total GULP energy -156131.538995 kJ/mol
# GULP energy per Si atom -5576.126393 kJ/mol
# Density = 2.284059 g / cm^3
# Si number density = 22.892697 Si / 1000 Ang^3
#
#
#
# Elastic Constant Matrix: (Units=GPa)
#
#
# Indices 1 2 3 4 5 6 
#
# 1 81.0560 11.9313 8.6981 0.0000 -5.8002 0.0000
# 2 11.9313 102.1219 4.6128 0.0000 -7.2950 0.0000
# 3 8.6981 4.6128 97.4751 0.0000 -4.1435 0.0000
# 4 0.0000 0.0000 0.0000 17.1839 0.0000 -1.4271
# 5 -5.8002 -7.2950 -4.1435 0.0000 31.8474 0.0000
# 6 0.0000 0.0000 0.0000 -1.4271 0.0000 -7.7804
#
#
#
# Elastic Compliance Matrix: (Units=1/GPa)
#
#
# Indices 1 2 3 4 5 6 
#
# 1 0.012773 -0.001312 -0.000997 0.000000 0.001896 0.000000
# 2 -0.001312 0.010104 -0.000274 0.000000 0.002040 0.000000
# 3 -0.000997 -0.000274 0.010408 0.000000 0.001110 0.000000
# 4 0.000000 0.000000 0.000000 0.057321 0.000000 -0.010514
# 5 0.001896 0.002040 0.001110 0.000000 0.032357 0.000000
# 6 0.000000 0.000000 0.000000 -0.010514 0.000000 -0.126599
#
#
# Mechanical properties :
#
#
# Convention : Reuss Voigt Hill
#
# Bulk Modulus (GPa) = 35.56431 36.79304 36.17867
# Shear Modulus (GPa) = 458.62712 25.27757 241.95235
#
# Velocity S-wave (km/s) = 14.16943 3.32652 10.29171
# Velocity P-wave (km/s) = 16.83050 5.55528 12.53250
#
# Compressibility (1/GPa) = 0.02811808
#
# Stress axis : x y z
#
# Youngs Moduli (GPa) = 78.29064 98.97482 96.07844
#
# Poissons Ratio (x) = 0.12984 0.09580
# Poissons Ratio (y) = 0.10270 0.02636
# Poissons Ratio (z) = 0.07806 0.02715
#
# Static dielectric constant tensor:
#      x y z
#    x 1.854180 0.000000 0.047970 
#    y 0.000000 1.872290 0.000000 
#    z 0.047970 0.000000 1.995180 
# 
# From -- ./inp_files/24925.got.cif
#   From: 2010.05.17/outbox.cif.g08.bks.cpg/sg11_13_cif.got.tgz:24925.got - 2010.06.03 12:22:45.
