data_PCOD9163637
_publ_section_title
;
Structure prediction by ZEFSAII (Michael W. Deem and Ramdas Pophale) SiO2 
 PCOD9163637
Probable space group: P 21/M
;
_chemical_formula_sum "Si O2"
_cell_formula_units_Z 28
_cell_length_a 18.582118
_cell_length_b 11.756221
_cell_length_c 7.922040
_cell_angle_alpha 90.000000
_cell_angle_beta 129.626981
_cell_angle_gamma 90.000000
_cell_volume 1332.940688
_symmetry_space_group_name_H-M "P 21/M"
_symmetry_group_IT_number 11
_symmetry_cell_setting 'monoclinic'
loop_
_space_group_symop_operation_xyz
x,y,z
-x,1/2+y,-z
-x,-y,-z
x,1/2-y,z
loop_
_atom_site_type_symbol
_atom_site_label
_atom_site_fract_x
_atom_site_fract_y
_atom_site_fract_z
Si Si1 0.917258 0.939149 0.981234
Si Si2 0.624759 0.037200 0.826723
Si Si3 0.576726 0.879388 0.449425
Si Si4 0.175222 0.624513 0.945550
Si Si5 0.071716 0.622707 0.452919
Si Si6 0.849542 0.627043 0.535769
Si Si7 0.628957 0.621214 0.151636
O O1 0.968714 0.880328 0.216480
O O2 0.848113 0.032449 0.950640
O O3 0.864964 0.869343 0.760183
O O4 0.000000 0.000000 0.000000
O O5 0.624551 0.959597 0.658699
O O6 0.606410 0.958637 0.961624
O O7 0.725006 0.097752 0.990319
O O8 0.534158 0.116741 0.679322
O O9 0.611532 0.750000 0.514880
O O10 0.594009 0.918063 0.282926
O O11 0.178253 0.750000 0.025167
O O12 0.092223 0.621620 0.682979
O O13 0.110389 0.750000 0.456804
O O14 0.113249 0.497977 0.464173
O O15 0.888719 0.750000 0.527846
O O16 0.740948 0.626066 0.329293
O O17 0.593094 0.750000 0.070588
#
# Coordination Sequence:
#
# PCOD9163637 Si02
#       7
#     4   4   4   4   4   4   4
#     4  10  22  38  59  85 118 161 204 255 315 378
#     4  11  21  39  64  89 124 164 210 259 321 383
#     4  10  22  38  60  91 125 164 209 261 316 384
#     4  11  23  40  63  89 124 163 207 264 324 382
#     4  10  21  39  61  90 123 160 207 259 315 378
#     4  10  20  37  60  89 123 163 209 259 312 374
#     4  10  20  37  60  89 127 165 209 262 316 377
#
# _framework density 21.006187000000001
#
# number of rings (size 3 to 8) (size 9 to 14) (size 15 to 20)
#    0.000    1.714    1.429    3.000    0.000    4.571 
#    0.000    3.571    0.000    4.286    0.000    0.000 
#    0.000    0.000    0.000    0.000    0.000    0.000 
#
# Total GULP energy -156042.317726 kJ/mol
# GULP energy per Si atom -5572.939919 kJ/mol
# Density = 2.095838 g / cm^3
# Si number density = 21.006187 Si / 1000 Ang^3
#
#
#
# Elastic Constant Matrix: (Units=GPa)
#
#
# Indices 1 2 3 4 5 6 
#
# 1 36.8626 36.4201 -3.8927 0.0000 -7.7896 0.0000
# 2 36.4201 146.1207 23.6510 0.0000 -11.6037 0.0000
# 3 -3.8927 23.6510 58.3346 0.0000 1.1176 0.0000
# 4 0.0000 0.0000 0.0000 2.8342 0.0000 7.5216
# 5 -7.7896 -11.6037 1.1176 0.0000 24.6473 0.0000
# 6 0.0000 0.0000 0.0000 7.5216 0.0000 142.9742
#
#
#
# Elastic Compliance Matrix: (Units=1/GPa)
#
#
# Indices 1 2 3 4 5 6 
#
# 1 0.039650 -0.010387 0.006717 0.000000 0.007336 0.000000
# 2 -0.010387 0.010376 -0.004935 0.000000 0.001826 0.000000
# 3 0.006717 -0.004935 0.019612 0.000000 -0.001090 0.000000
# 4 0.000000 0.000000 0.000000 0.410082 0.000000 -0.021574
# 5 0.007336 0.001826 -0.001090 0.000000 0.043800 0.000000
# 6 0.000000 0.000000 0.000000 -0.021574 0.000000 0.008129
#
#
# Mechanical properties :
#
#
# Convention : Reuss Voigt Hill
#
# Bulk Modulus (GPa) = 19.07402 39.29719 29.18560
# Shear Modulus (GPa) = 8.82866 46.43378 27.63122
#
# Velocity S-wave (km/s) = 2.05232 4.70668 3.63076
# Velocity P-wave (km/s) = 3.83613 6.94875 5.61253
#
# Compressibility (1/GPa) = 0.05242734
#
# Stress axis : x y z
#
# Youngs Moduli (GPa) = 25.22089 96.37241 50.98806
#
# Poissons Ratio (x) = 1.00103 -0.34247
# Poissons Ratio (y) = 0.26197 0.25163
# Poissons Ratio (z) = -0.16940 0.47561
#
# Static dielectric constant tensor:
#      x y z
#    x 1.744610 0.000000 -0.005750 
#    y 0.000000 1.801140 0.000000 
#    z -0.005750 0.000000 1.741910 
# 
# From -- ./inp_files/21299.got.cif
#   From: 2010.05.17/outbox.cif.g08.bks.cpg/sg11_11_cif.got.tgz:21299.got - 2010.06.03 12:22:45.
