data_PCOD9163527
_publ_section_title
;
Structure prediction by ZEFSAII (Michael W. Deem and Ramdas Pophale) SiO2 
 PCOD9163527
Probable space group: P 21/M
;
_chemical_formula_sum "Si O2"
_cell_formula_units_Z 30
_cell_length_a 21.125492
_cell_length_b 7.830076
_cell_length_c 16.376002
_cell_angle_alpha 90.000000
_cell_angle_beta 152.736311
_cell_angle_gamma 90.000000
_cell_volume 1240.874900
_symmetry_space_group_name_H-M "P 21/M"
_symmetry_group_IT_number 11
_symmetry_cell_setting 'monoclinic'
loop_
_space_group_symop_operation_xyz
x,y,z
-x,1/2+y,-z
-x,-y,-z
x,1/2-y,z
loop_
_atom_site_type_symbol
_atom_site_label
_atom_site_fract_x
_atom_site_fract_y
_atom_site_fract_z
Si Si1 0.816506 0.043272 0.549314
Si Si2 0.654765 0.446019 0.659601
Si Si3 0.640298 0.952653 0.113079
Si Si4 0.703982 0.945036 0.887117
Si Si5 0.066164 0.568151 0.739562
Si Si6 0.494439 0.954940 0.775716
Si Si7 0.163243 0.750000 0.693406
Si Si8 0.878233 0.044013 0.798921
O O1 0.816521 0.250000 0.543245
O O2 0.657765 0.983357 0.374528
O O3 0.887947 0.988854 0.716560
O O4 0.910608 0.972810 0.585139
O O5 0.500000 0.500000 0.500000
O O6 0.646445 0.250000 0.628240
O O7 0.735151 0.467621 0.837211
O O8 0.739410 0.527284 0.682523
O O9 0.674075 0.750000 0.162968
O O10 0.597730 0.982578 0.969399
O O11 0.753407 0.097226 0.259884
O O12 0.500000 0.000000 0.000000
O O13 0.671557 0.750000 0.827900
O O14 0.571708 0.021339 0.783631
O O15 0.829223 0.942916 0.095201
O O16 0.105868 0.750000 0.824209
O O17 0.094022 0.602182 0.676506
O O18 0.481247 0.750000 0.749516
O O19 0.872448 0.250000 0.787844
O O20 0.000000 0.000000 0.000000
#
# Coordination Sequence:
#
# PCOD9163527 Si02
#       8
#     4   4   4   4   4   4   2   4
#     4  10  20  37  59  82 112 159 205 255 308 362
#     4  11  23  37  53  77 111 149 191 251 312 370
#     4  11  21  38  67 101 131 165 199 252 305 360
#     4  11  20  35  59  82 111 150 198 250 310 366
#     4  10  21  36  54  84 119 148 192 243 292 349
#     4   9  19  36  59  90 118 152 203 253 302 367
#     4  10  22  40  60  98 132 156 206 250 294 368
#     4  10  22  38  55  77 111 151 203 252 300 364
#
# _framework density 24.176492
#
# number of rings (size 3 to 8) (size 9 to 14) (size 15 to 20)
#    0.400    1.333    2.000    2.800    0.000    6.400 
#    1.200    1.333    0.000    0.800    0.000    0.000 
#    0.000    0.000    0.000    0.000    0.000    0.000 
#
# Total GULP energy -167052.393789 kJ/mol
# GULP energy per Si atom -5568.413126 kJ/mol
# Density = 2.412147 g / cm^3
# Si number density = 24.176492 Si / 1000 Ang^3
#
#
#
# Elastic Constant Matrix: (Units=GPa)
#
#
# Indices 1 2 3 4 5 6 
#
# 1 123.7667 24.7307 29.9518 0.0000 26.6318 0.0000
# 2 24.7307 70.2270 16.6702 0.0000 -4.2398 0.0000
# 3 29.9518 16.6702 72.8340 0.0000 5.7723 0.0000
# 4 0.0000 0.0000 0.0000 -2.9816 0.0000 8.2479
# 5 26.6318 -4.2398 5.7723 0.0000 35.4968 0.0000
# 6 0.0000 0.0000 0.0000 8.2479 0.0000 25.4632
#
#
#
# Elastic Compliance Matrix: (Units=1/GPa)
#
#
# Indices 1 2 3 4 5 6 
#
# 1 0.011435 -0.003791 -0.003160 0.000000 -0.008518 0.000000
# 2 -0.003791 0.016517 -0.002637 0.000000 0.005246 0.000000
# 3 -0.003160 -0.002637 0.015672 0.000000 -0.000493 0.000000
# 4 0.000000 0.000000 0.000000 -0.176890 0.000000 0.057298
# 5 -0.008518 0.005246 -0.000493 0.000000 0.035269 0.000000
# 6 0.000000 0.000000 0.000000 0.057298 0.000000 0.020713
#
#
# Mechanical properties :
#
#
# Convention : Reuss Voigt Hill
#
# Bulk Modulus (GPa) = 40.90278 45.50366 43.20322
# Shear Modulus (GPa) = -100.08096 24.62735 -37.72680
#
# Velocity S-wave (km/s) = -6.44095 3.19509 -3.95457
# Velocity P-wave (km/s) = 6.19349 5.69858 1.71545
#
# Compressibility (1/GPa) = 0.02444822
#
# Stress axis : x y z
#
# Youngs Moduli (GPa) = 87.45270 60.54261 63.80866
#
# Poissons Ratio (x) = 0.22952 0.20161
# Poissons Ratio (y) = 0.33154 0.16828
# Poissons Ratio (z) = 0.27631 0.15966
#
# Static dielectric constant tensor:
#      x y z
#    x 2.000910 0.000000 -0.024160 
#    y 0.000000 1.777300 0.000000 
#    z -0.024160 0.000000 1.991840 
# 
# From -- ./inp_files/61393.got.cif
#   From: 2010.05.17/outbox.cif.g08.bks.cpg/sg11_31_cif.got.tgz:61393.got - 2010.06.03 12:22:45.
