data_PCOD9163700
_publ_section_title
;
Structure prediction by ZEFSAII (Michael W. Deem and Ramdas Pophale) SiO2 
 PCOD9163700
Probable space group: P 21/M
;
_chemical_formula_sum "Si O2"
_cell_formula_units_Z 32
_cell_length_a 23.865862
_cell_length_b 8.672113
_cell_length_c 14.835494
_cell_angle_alpha 90.000000
_cell_angle_beta 148.244382
_cell_angle_gamma 90.000000
_cell_volume 1615.977121
_symmetry_space_group_name_H-M "P 21/M"
_symmetry_group_IT_number 11
_symmetry_cell_setting 'monoclinic'
loop_
_space_group_symop_operation_xyz
x,y,z
-x,1/2+y,-z
-x,-y,-z
x,1/2-y,z
loop_
_atom_site_type_symbol
_atom_site_label
_atom_site_fract_x
_atom_site_fract_y
_atom_site_fract_z
Si Si1 0.325025 0.062010 0.010314
Si Si2 0.241335 0.435075 0.549037
Si Si3 0.921319 0.935576 0.316967
Si Si4 0.994868 0.064566 0.226712
Si Si5 0.401128 0.435421 0.921011
Si Si6 0.901786 0.566292 0.922669
Si Si7 0.690897 0.065661 0.542853
Si Si8 0.485396 0.435853 0.379735
O O1 0.328444 0.250000 0.014423
O O2 0.201592 0.017300 0.835774
O O3 0.387125 0.010499 0.004877
O O4 0.382145 0.012292 0.181044
O O5 0.244923 0.250000 0.543283
O O6 0.117707 0.481995 0.375817
O O7 0.295451 0.473061 0.718410
O O8 0.306491 0.509622 0.556538
O O9 0.925228 0.750000 0.322231
O O10 0.000000 0.000000 0.500000
O O11 0.959920 0.001395 0.274838
O O12 0.990359 0.250000 0.218459
O O13 0.919322 0.994892 0.047135
O O14 0.411289 0.250000 0.937253
O O15 0.500000 0.500000 0.000000
O O16 0.904487 0.750000 0.923627
O O17 0.793022 0.506738 0.731000
O O18 0.000000 0.500000 0.000000
O O19 0.699324 0.250000 0.555395
O O20 0.585892 0.021837 0.454509
O O21 0.500000 0.500000 0.500000
O O22 0.481720 0.250000 0.381364
#
# Coordination Sequence:
#
# PCOD9163700 Si02
#       8
#     4   4   4   4   4   4   4   4
#     4   9  20  41  64  86 120 164 206 252 314 376
#     4  10  21  37  60  88 120 159 198 246 311 375
#     4  11  23  41  65  93 125 168 214 261 318 377
#     4  11  23  40  62  90 124 162 206 255 311 373
#     4  10  20  37  61  88 117 153 198 247 307 370
#     4  12  24  40  62  92 127 165 207 255 313 375
#     4  11  23  39  62  90 123 161 207 258 313 372
#     4  10  23  42  63  89 119 161 212 261 315 372
#
# _framework density 19.80226
#
# number of rings (size 3 to 8) (size 9 to 14) (size 15 to 20)
#    0.000    1.500    1.250    3.750    1.750    5.000 
#    0.000    3.750    0.000    0.000    0.000    0.000 
#    0.000    0.000    0.000    0.000    0.000    0.000 
#
# Total GULP energy -178884.604738 kJ/mol
# GULP energy per Si atom -5590.143898 kJ/mol
# Density = 1.975719 g / cm^3
# Si number density = 19.802260 Si / 1000 Ang^3
#
#
#
# Elastic Constant Matrix: (Units=GPa)
#
#
# Indices 1 2 3 4 5 6 
#
# 1 131.2004 17.1361 49.6742 0.0000 -16.8430 0.0000
# 2 17.1361 16.1459 22.5241 0.0000 1.7595 0.0000
# 3 49.6742 22.5241 124.1105 0.0000 -13.4573 0.0000
# 4 0.0000 0.0000 0.0000 28.0437 0.0000 -4.3471
# 5 -16.8430 1.7595 -13.4573 0.0000 40.7461 0.0000
# 6 0.0000 0.0000 0.0000 -4.3471 0.0000 34.7373
#
#
#
# Elastic Compliance Matrix: (Units=1/GPa)
#
#
# Indices 1 2 3 4 5 6 
#
# 1 0.009955 -0.008015 -0.002122 0.000000 0.003760 0.000000
# 2 -0.008015 0.092595 -0.014924 0.000000 -0.012240 0.000000
# 3 -0.002122 -0.014924 0.012020 0.000000 0.003737 0.000000
# 4 0.000000 0.000000 0.000000 0.036364 0.000000 0.004551
# 5 0.003760 -0.012240 0.003737 0.000000 0.027859 0.000000
# 6 0.000000 0.000000 0.000000 0.004551 0.000000 0.029357
#
#
# Mechanical properties :
#
#
# Convention : Reuss Voigt Hill
#
# Bulk Modulus (GPa) = 15.51630 50.01395 32.76512
# Shear Modulus (GPa) = 17.87282 32.84691 25.35986
#
# Velocity S-wave (km/s) = 3.00753 4.07719 3.58251
# Velocity P-wave (km/s) = 4.46239 6.89029 5.80470
#
# Compressibility (1/GPa) = 0.06444836
#
# Stress axis : x y z
#
# Youngs Moduli (GPa) = 100.45277 10.79978 83.19229
#
# Poissons Ratio (x) = 0.08656 0.17654
# Poissons Ratio (y) = 0.80511 1.24154
# Poissons Ratio (z) = 0.21317 0.16117
#
# Static dielectric constant tensor:
#      x y z
#    x 1.668190 0.000000 0.008090 
#    y 0.000000 1.671010 0.000000 
#    z 0.008090 0.000000 1.680000 
# 
# From -- ./inp_files/55728.got.cif
#   From: 2010.05.17/outbox.cif.g08.bks.cpg/sg11_28_cif.got.tgz:55728.got - 2010.06.03 12:22:45.
