data_PCOD9163005
_publ_section_title
;
Structure prediction by ZEFSAII (Michael W. Deem and Ramdas Pophale) SiO2 
 PCOD9163005
Probable space group: P 21/M
;
_chemical_formula_sum "Si O2"
_cell_formula_units_Z 32
_cell_length_a 17.213772
_cell_length_b 8.586665
_cell_length_c 29.241485
_cell_angle_alpha 90.000000
_cell_angle_beta 22.033452
_cell_angle_gamma 90.000000
_cell_volume 1621.445918
_symmetry_space_group_name_H-M "P 21/M"
_symmetry_group_IT_number 11
_symmetry_cell_setting 'monoclinic'
loop_
_space_group_symop_operation_xyz
x,y,z
-x,1/2+y,-z
-x,-y,-z
x,1/2-y,z
loop_
_atom_site_type_symbol
_atom_site_label
_atom_site_fract_x
_atom_site_fract_y
_atom_site_fract_z
Si Si1 0.410322 0.430309 0.344709
Si Si2 0.184026 0.064142 0.100208
Si Si3 0.186546 0.432332 0.756136
Si Si4 0.784808 0.066498 0.635456
Si Si5 0.375658 0.559654 0.178806
Si Si6 0.089713 0.938051 0.249463
Si Si7 0.354558 0.061816 0.476107
Si Si8 0.848242 0.934614 0.120866
O O1 0.357759 0.250000 0.365076
O O2 0.366570 0.527493 0.323536
O O3 0.306443 0.481220 0.449208
O O4 0.648743 0.456792 0.225539
O O5 0.190503 0.250000 0.097979
O O6 0.389612 0.009855 0.960794
O O7 0.970466 0.012655 0.192919
O O8 0.187731 0.000303 0.149568
O O9 0.198052 0.250000 0.738860
O O10 0.423511 0.494841 0.629333
O O11 0.088938 0.449192 0.860343
O O12 0.807833 0.250000 0.628191
O O13 0.705668 0.004301 0.727423
O O14 0.000000 0.000000 0.500000
O O15 0.375687 0.750000 0.179836
O O16 0.221432 0.512698 0.222013
O O17 0.091686 0.750000 0.247592
O O18 0.848175 0.986478 0.385105
O O19 0.372016 0.250000 0.467484
O O20 0.803380 0.750000 0.137865
O O21 0.000000 0.000000 0.000000
#
# Coordination Sequence:
#
# PCOD9163005 Si02
#       8
#     4   4   4   4   4   4   4   4
#     4  10  20  36  57  85 117 153 194 238 287 348
#     4  11  23  39  60  87 118 155 196 241 295 355
#     4  10  22  39  58  85 119 154 196 246 292 342
#     4  11  22  38  59  87 119 156 197 241 293 351
#     4   9  21  40  61  85 117 156 195 238 294 356
#     4  10  20  39  64  86 112 150 196 246 299 353
#     4   9  19  37  62  87 116 156 196 240 298 357
#     4  10  21  36  56  83 115 153 194 238 286 343
#
# _framework density 19.735471
#
# number of rings (size 3 to 8) (size 9 to 14) (size 15 to 20)
#    0.000    2.000    0.000    3.000    1.750    5.000 
#    0.000    5.000    0.000    0.000    0.000    0.000 
#    0.000    0.000    0.000    0.000    0.000    0.000 
#
# Total GULP energy -178549.825562 kJ/mol
# GULP energy per Si atom -5579.682049 kJ/mol
# Density = 1.969055 g / cm^3
# Si number density = 19.735471 Si / 1000 Ang^3
#
#
#
# Elastic Constant Matrix: (Units=GPa)
#
#
# Indices 1 2 3 4 5 6 
#
# 1 101.2975 21.4282 52.5131 0.0000 5.3377 0.0000
# 2 21.4282 32.6822 24.3119 0.0000 5.2056 0.0000
# 3 52.5131 24.3119 123.3857 0.0000 18.5658 0.0000
# 4 0.0000 0.0000 0.0000 24.0309 0.0000 3.8036
# 5 5.3377 5.2056 18.5658 0.0000 25.9615 0.0000
# 6 0.0000 0.0000 0.0000 3.8036 0.0000 27.8619
#
#
#
# Elastic Compliance Matrix: (Units=1/GPa)
#
#
# Indices 1 2 3 4 5 6 
#
# 1 0.013494 -0.005464 -0.004946 0.000000 0.001858 0.000000
# 2 -0.005464 0.038199 -0.004726 0.000000 -0.003156 0.000000
# 3 -0.004946 -0.004726 0.012153 0.000000 -0.006726 0.000000
# 4 0.000000 0.000000 0.000000 0.042532 0.000000 -0.005806
# 5 0.001858 -0.003156 -0.006726 0.000000 0.043580 0.000000
# 6 0.000000 0.000000 0.000000 -0.005806 0.000000 0.036684
#
#
# Mechanical properties :
#
#
# Convention : Reuss Voigt Hill
#
# Bulk Modulus (GPa) = 29.78577 50.43020 40.10798
# Shear Modulus (GPa) = 21.91973 26.17834 24.04904
#
# Velocity S-wave (km/s) = 3.33630 3.64601 3.49459
# Velocity P-wave (km/s) = 5.47416 6.58279 6.05391
#
# Compressibility (1/GPa) = 0.03357308
#
# Stress axis : x y z
#
# Youngs Moduli (GPa) = 74.10779 26.17885 82.28369
#
# Poissons Ratio (x) = 0.14304 0.40697
# Poissons Ratio (y) = 0.40493 0.38890
# Poissons Ratio (z) = 0.36654 0.12373
#
# Static dielectric constant tensor:
#      x y z
#    x 1.299390 0.000000 0.254620 
#    y 0.000000 1.682370 0.000000 
#    z 0.254620 0.000000 1.589750 
# 
# From -- ./inp_files/68969.got.cif
#   From: 2010.05.17/outbox.cif.g08.bks.cpg/sg11_35_cif.got.tgz:68969.got - 2010.06.03 12:22:45.
