data_PCOD9163298
_publ_section_title
;
Structure prediction by ZEFSAII (Michael W. Deem and Ramdas Pophale) SiO2 
 PCOD9163298
Probable space group: P 21/M
;
_chemical_formula_sum "Si O2"
_cell_formula_units_Z 32
_cell_length_a 16.302392
_cell_length_b 8.620461
_cell_length_c 12.363299
_cell_angle_alpha 90.000000
_cell_angle_beta 79.612605
_cell_angle_gamma 90.000000
_cell_volume 1708.990481
_symmetry_space_group_name_H-M "P 21/M"
_symmetry_group_IT_number 11
_symmetry_cell_setting 'monoclinic'
loop_
_space_group_symop_operation_xyz
x,y,z
-x,1/2+y,-z
-x,-y,-z
x,1/2-y,z
loop_
_atom_site_type_symbol
_atom_site_label
_atom_site_fract_x
_atom_site_fract_y
_atom_site_fract_z
Si Si1 0.255169 0.435011 0.691377
Si Si2 0.624134 0.063673 0.713363
Si Si3 0.071716 0.937334 0.341748
Si Si4 0.474906 0.936642 0.888381
Si Si5 0.108669 0.565102 0.579416
Si Si6 0.718679 0.063285 0.086221
Si Si7 0.774335 0.439045 0.837373
Si Si8 0.406684 0.064131 0.511644
O O1 0.256660 0.250000 0.695537
O O2 0.183300 0.488313 0.626990
O O3 0.241295 0.499940 0.814297
O O4 0.344417 0.488734 0.621676
O O5 0.625217 0.250000 0.705255
O O6 0.698472 0.014515 0.776407
O O7 0.537545 0.008590 0.786549
O O8 0.631243 0.992531 0.592959
O O9 0.063083 0.750000 0.340400
O O10 0.107392 0.977623 0.452394
O O11 0.138266 0.986745 0.235977
O O12 0.980965 0.012069 0.353854
O O13 0.481621 0.750000 0.885621
O O14 0.379063 0.979835 0.890324
O O15 0.500000 0.000000 0.000000
O O16 0.116618 0.750000 0.584681
O O17 0.723294 0.250000 0.086271
O O18 0.758197 0.008349 0.963610
O O19 0.773265 0.250000 0.838652
O O20 0.410542 0.250000 0.511824
O O21 0.500000 0.000000 0.500000
#
# Coordination Sequence:
#
# PCOD9163298 Si02
#       8
#     4   4   4   4   4   4   4   4
#     4  11  24  40  58  82 114 151 193 236 281 336
#     4  11  21  36  58  84 115 149 190 237 289 346
#     4   9  18  35  61  88 115 144 180 229 283 338
#     4  11  21  35  55  81 114 153 196 240 285 335
#     4  10  20  36  60  89 116 147 184 224 281 345
#     4  10  21  38  57  79 111 151 195 237 280 338
#     4   9  18  35  57  83 112 146 185 229 285 339
#     4  11  24  40  57  82 114 150 191 238 287 337
#
# _framework density 18.724504
#
# number of rings (size 3 to 8) (size 9 to 14) (size 15 to 20)
#    0.000    1.750    1.250    3.375    0.000    6.500 
#    0.000    2.500    0.000    0.000    0.000    0.000 
#    0.000    0.000    0.000    0.000    0.000    0.000 
#
# Total GULP energy -178803.633582 kJ/mol
# GULP energy per Si atom -5587.613549 kJ/mol
# Density = 1.868189 g / cm^3
# Si number density = 18.724504 Si / 1000 Ang^3
#
#
#
# Elastic Constant Matrix: (Units=GPa)
#
#
# Indices 1 2 3 4 5 6 
#
# 1 86.5160 11.4068 49.4757 0.0000 -9.6302 0.0000
# 2 11.4068 17.6264 15.7843 0.0000 -2.3037 0.0000
# 3 49.4757 15.7843 120.7702 0.0000 -13.7206 0.0000
# 4 0.0000 0.0000 0.0000 29.4318 0.0000 2.1716
# 5 -9.6302 -2.3037 -13.7206 0.0000 33.6400 0.0000
# 6 0.0000 0.0000 0.0000 2.1716 0.0000 27.9942
#
#
#
# Elastic Compliance Matrix: (Units=1/GPa)
#
#
# Indices 1 2 3 4 5 6 
#
# 1 0.015572 -0.004882 -0.005529 0.000000 0.001868 0.000000
# 2 -0.004882 0.065817 -0.006552 0.000000 0.000437 0.000000
# 3 -0.005529 -0.006552 0.011714 0.000000 0.002746 0.000000
# 4 0.000000 0.000000 0.000000 0.034172 0.000000 -0.002651
# 5 0.001868 0.000437 0.002746 0.000000 0.031411 0.000000
# 6 0.000000 0.000000 0.000000 -0.002651 0.000000 0.035927
#
#
# Mechanical properties :
#
#
# Convention : Reuss Voigt Hill
#
# Bulk Modulus (GPa) = 16.89876 42.02738 29.46307
# Shear Modulus (GPa) = 20.13966 28.09625 24.11796
#
# Velocity S-wave (km/s) = 3.28316 3.87784 3.59282
# Velocity P-wave (km/s) = 4.83908 6.52258 5.74285
#
# Compressibility (1/GPa) = 0.05917594
#
# Stress axis : x y z
#
# Youngs Moduli (GPa) = 64.21747 15.19360 85.37058
#
# Poissons Ratio (x) = 0.07417 0.47202
# Poissons Ratio (y) = 0.31351 0.55939
# Poissons Ratio (z) = 0.35506 0.09956
#
# Static dielectric constant tensor:
#      x y z
#    x 1.619220 0.000000 0.009200 
#    y 0.000000 1.633890 0.000000 
#    z 0.009200 0.000000 1.593540 
# 
# From -- ./inp_files/38255.got.cif
#   From: 2010.05.17/outbox.cif.g08.bks.cpg/sg11_20_cif.got.tgz:38255.got - 2010.06.03 12:22:45.
