data_PCOD9163369
_publ_section_title
;
Structure prediction by ZEFSAII (Michael W. Deem and Ramdas Pophale) SiO2 
 PCOD9163369
Probable space group: P 21/M
;
_chemical_formula_sum "Si O2"
_cell_formula_units_Z 32
_cell_length_a 6.967364
_cell_length_b 13.932807
_cell_length_c 16.638197
_cell_angle_alpha 90.000000
_cell_angle_beta 81.817689
_cell_angle_gamma 90.000000
_cell_volume 1598.710046
_symmetry_space_group_name_H-M "P 21/M"
_symmetry_group_IT_number 11
_symmetry_cell_setting 'monoclinic'
loop_
_space_group_symop_operation_xyz
x,y,z
-x,1/2+y,-z
-x,-y,-z
x,1/2-y,z
loop_
_atom_site_type_symbol
_atom_site_label
_atom_site_fract_x
_atom_site_fract_y
_atom_site_fract_z
Si Si1 0.580816 0.495666 0.122134
Si Si2 0.626873 0.469664 0.415345
Si Si3 0.842914 0.857454 0.429780
Si Si4 0.969299 0.864275 0.597216
Si Si5 0.187104 0.644891 0.293101
Si Si6 0.693084 0.135522 0.965766
Si Si7 0.083941 0.360744 0.846277
Si Si8 0.367269 0.447066 0.286593
O O1 0.437775 0.574410 0.089441
O O2 0.464842 0.432521 0.194908
O O3 0.753426 0.558797 0.150843
O O4 0.660264 0.421842 0.050550
O O5 0.500000 0.500000 0.500000
O O6 0.716422 0.571790 0.384442
O O7 0.815901 0.406387 0.421268
O O8 0.506228 0.420761 0.352007
O O9 0.764112 0.750000 0.433074
O O10 0.861245 0.891346 0.520511
O O11 0.058139 0.856200 0.381006
O O12 0.976324 0.750000 0.600076
O O13 0.842622 0.903532 0.679163
O O14 0.273679 0.750000 0.275740
O O15 0.035997 0.628102 0.229490
O O16 0.339255 0.561444 0.289804
O O17 0.642820 0.250000 0.971364
O O18 0.916538 0.129876 0.924016
O O19 0.158381 0.250000 0.843817
#
# Coordination Sequence:
#
# PCOD9163369 Si02
#       8
#     4   4   4   4   4   4   4   4
#     4  11  23  37  66  96 121 165 211 255 311 378
#     4  12  23  38  66  92 122 165 216 260 309 366
#     4  10  20  38  61  87 122 161 207 260 313 366
#     4  11  25  44  61  84 127 174 214 259 310 362
#     4  10  20  36  61  91 124 159 200 259 319 366
#     4  10  22  42  63  91 129 160 202 260 319 378
#     4  10  20  38  63  92 128 162 200 253 319 380
#     4  12  24  39  65  91 128 164 210 259 308 375
#
# _framework density 20.016134999999998
#
# number of rings (size 3 to 8) (size 9 to 14) (size 15 to 20)
#    0.000    1.250    3.750    2.625    0.000    2.500 
#    0.000    0.000    0.000    0.000    0.000    0.000 
#    0.000    0.000    0.000    0.000    0.000    0.000 
#
# Total GULP energy -178595.596241 kJ/mol
# GULP energy per Si atom -5581.112383 kJ/mol
# Density = 1.997058 g / cm^3
# Si number density = 20.016135 Si / 1000 Ang^3
#
#
#
# Elastic Constant Matrix: (Units=GPa)
#
#
# Indices 1 2 3 4 5 6 
#
# 1 66.8382 29.5238 25.8835 0.0000 -10.0868 0.0000
# 2 29.5238 65.5544 24.0923 0.0000 -3.1480 0.0000
# 3 25.8835 24.0923 99.5568 0.0000 -23.0133 0.0000
# 4 0.0000 0.0000 0.0000 22.3919 0.0000 1.5799
# 5 -10.0868 -3.1480 -23.0133 0.0000 28.2397 0.0000
# 6 0.0000 0.0000 0.0000 1.5799 0.0000 8.1073
#
#
#
# Elastic Compliance Matrix: (Units=1/GPa)
#
#
# Indices 1 2 3 4 5 6 
#
# 1 0.020026 -0.007979 -0.002252 0.000000 0.004428 0.000000
# 2 -0.007979 0.019995 -0.003583 0.000000 -0.003541 0.000000
# 3 -0.002252 -0.003583 0.013823 0.000000 0.010061 0.000000
# 4 0.000000 0.000000 0.000000 0.045282 0.000000 -0.008824
# 5 0.004428 -0.003541 0.010061 0.000000 0.044797 0.000000
# 6 0.000000 0.000000 0.000000 -0.008824 0.000000 0.125066
#
#
# Mechanical properties :
#
#
# Convention : Reuss Voigt Hill
#
# Bulk Modulus (GPa) = 38.14423 43.43871 40.79147
# Shear Modulus (GPa) = 16.37442 21.91110 19.14276
#
# Velocity S-wave (km/s) = 2.86328 3.31217 3.09587
# Velocity P-wave (km/s) = 5.47990 6.03127 5.76218
#
# Compressibility (1/GPa) = 0.02621629
#
# Stress axis : x y z
#
# Youngs Moduli (GPa) = 49.93408 50.01336 72.34538
#
# Poissons Ratio (x) = 0.39906 0.16293
# Poissons Ratio (y) = 0.39842 0.25919
# Poissons Ratio (z) = 0.11245 0.17918
#
# Static dielectric constant tensor:
#      x y z
#    x 1.740690 0.000000 -0.025220 
#    y 0.000000 1.709550 0.000000 
#    z -0.025220 0.000000 1.762420 
# 
# From -- ./inp_files/57073.got.cif
#   From: 2010.05.17/outbox.cif.g08.bks.cpg/sg11_29_cif.got.tgz:57073.got - 2010.06.03 12:22:45.
