data_PCOD9163495
_publ_section_title
;
Structure prediction by ZEFSAII (Michael W. Deem and Ramdas Pophale) SiO2 
 PCOD9163495
Probable space group: P 21/M
;
_chemical_formula_sum "Si O2"
_cell_formula_units_Z 32
_cell_length_a 11.991358
_cell_length_b 8.773899
_cell_length_c 29.188403
_cell_angle_alpha 90.000000
_cell_angle_beta 148.428866
_cell_angle_gamma 90.000000
_cell_volume 1607.811324
_symmetry_space_group_name_H-M "P 21/M"
_symmetry_group_IT_number 11
_symmetry_cell_setting 'monoclinic'
loop_
_space_group_symop_operation_xyz
x,y,z
-x,1/2+y,-z
-x,-y,-z
x,1/2-y,z
loop_
_atom_site_type_symbol
_atom_site_label
_atom_site_fract_x
_atom_site_fract_y
_atom_site_fract_z
Si Si1 0.854959 0.565900 0.812160
Si Si2 0.357645 0.573563 0.410275
Si Si3 0.616690 0.565168 0.344356
Si Si4 0.155767 0.432684 0.669191
Si Si5 0.602933 0.934394 0.154971
Si Si6 0.889689 0.433999 0.006817
Si Si7 0.040959 0.567673 0.778702
Si Si8 0.241588 0.073429 0.510628
O O1 0.837629 0.750000 0.805406
O O2 0.621054 0.495569 0.733452
O O3 0.984773 0.521843 0.903124
O O4 0.970849 0.520282 0.805418
O O5 0.500000 0.500000 0.500000
O O6 0.311559 0.750000 0.405105
O O7 0.516913 0.567488 0.422641
O O8 0.141259 0.490664 0.320202
O O9 0.613289 0.750000 0.344493
O O10 0.717378 0.515378 0.331643
O O11 0.754825 0.512691 0.436402
O O12 0.160994 0.250000 0.671720
O O13 0.269846 0.486230 0.755075
O O14 0.914909 0.485448 0.577777
O O15 0.609310 0.750000 0.154916
O O16 0.733446 0.000293 0.158015
O O17 0.357152 0.980532 0.074078
O O18 0.893890 0.250000 0.004777
O O19 0.000000 0.500000 0.000000
O O20 0.048155 0.750000 0.779551
O O21 0.174747 0.250000 0.486977
#
# Coordination Sequence:
#
# PCOD9163495 Si02
#       8
#     4   4   4   4   4   4   4   4
#     4  10  22  39  61  89 120 154 196 248 301 352
#     4  11  22  37  57  83 116 158 204 249 296 350
#     4  10  20  37  58  83 115 152 195 240 291 356
#     4  10  21  35  55  82 113 151 194 240 293 350
#     4  10  22  40  60  85 118 156 196 242 297 356
#     4  10  22  42  66  93 123 155 195 244 300 361
#     4  11  23  39  59  86 119 156 200 248 297 351
#     4  10  21  35  53  80 113 149 193 240 289 347
#
# _framework density 19.902833999999999
#
# number of rings (size 3 to 8) (size 9 to 14) (size 15 to 20)
#    0.000    1.750    1.250    2.625    0.000    7.500 
#    0.000    0.000    0.000    0.000    0.000    0.000 
#    0.000    0.000    0.000    0.000    0.000    0.000 
#
# Total GULP energy -178795.557734 kJ/mol
# GULP energy per Si atom -5587.361179 kJ/mol
# Density = 1.985753 g / cm^3
# Si number density = 19.902834 Si / 1000 Ang^3
#
#
#
# Elastic Constant Matrix: (Units=GPa)
#
#
# Indices 1 2 3 4 5 6 
#
# 1 89.5144 16.0246 33.7043 0.0000 7.7911 0.0000
# 2 16.0246 15.5505 14.3952 0.0000 1.5195 0.0000
# 3 33.7043 14.3952 113.2950 0.0000 4.9460 0.0000
# 4 0.0000 0.0000 0.0000 22.7280 0.0000 4.6730
# 5 7.7911 1.5195 4.9460 0.0000 36.9300 0.0000
# 6 0.0000 0.0000 0.0000 4.6730 0.0000 30.1638
#
#
#
# Elastic Compliance Matrix: (Units=1/GPa)
#
#
# Indices 1 2 3 4 5 6 
#
# 1 0.014578 -0.012332 -0.002673 0.000000 -0.002210 0.000000
# 2 -0.012332 0.083425 -0.006936 0.000000 0.000098 0.000000
# 3 -0.002673 -0.006936 0.010528 0.000000 -0.000561 0.000000
# 4 0.000000 0.000000 0.000000 0.045446 0.000000 -0.007041
# 5 -0.002210 0.000098 -0.000561 0.000000 0.027616 0.000000
# 6 0.000000 0.000000 0.000000 -0.007041 0.000000 0.034243
#
#
# Mechanical properties :
#
#
# Convention : Reuss Voigt Hill
#
# Bulk Modulus (GPa) = 15.46814 38.51202 26.99008
# Shear Modulus (GPa) = 17.77673 28.24674 23.01174
#
# Velocity S-wave (km/s) = 2.99185 3.77136 3.40399
# Velocity P-wave (km/s) = 4.44112 6.19324 5.38887
#
# Compressibility (1/GPa) = 0.06464901
#
# Stress axis : x y z
#
# Youngs Moduli (GPa) = 68.59681 11.98681 94.98870
#
# Poissons Ratio (x) = 0.14782 0.25395
# Poissons Ratio (y) = 0.84591 0.65881
# Poissons Ratio (z) = 0.18339 0.08314
#
# Static dielectric constant tensor:
#      x y z
#    x 1.724070 0.000000 -0.012360 
#    y 0.000000 1.680810 0.000000 
#    z -0.012360 0.000000 1.672260 
# 
# From -- ./inp_files/38301.got.cif
#   From: 2010.05.17/outbox.cif.g08.bks.cpg/sg11_20_cif.got.tgz:38301.got - 2010.06.03 12:22:45.
