data_PCOD9163333
_publ_section_title
;
Structure prediction by ZEFSAII (Michael W. Deem and Ramdas Pophale) SiO2 
 PCOD9163333
Probable space group: P 21/M
;
_chemical_formula_sum "Si O2"
_cell_formula_units_Z 24
_cell_length_a 10.831583
_cell_length_b 14.487517
_cell_length_c 14.573526
_cell_angle_alpha 90.000000
_cell_angle_beta 27.647492
_cell_angle_gamma 90.000000
_cell_volume 1061.199420
_symmetry_space_group_name_H-M "P 21/M"
_symmetry_group_IT_number 11
_symmetry_cell_setting 'monoclinic'
loop_
_space_group_symop_operation_xyz
x,y,z
-x,1/2+y,-z
-x,-y,-z
x,1/2-y,z
loop_
_atom_site_type_symbol
_atom_site_label
_atom_site_fract_x
_atom_site_fract_y
_atom_site_fract_z
Si Si1 0.316952 0.443527 0.901153
Si Si2 0.811032 0.052083 0.438618
Si Si3 0.611773 0.601915 0.942375
Si Si4 0.751369 0.850762 0.506475
Si Si5 0.379768 0.848684 0.913189
Si Si6 0.779764 0.143204 0.265590
O O1 0.560853 0.438376 0.670487
O O2 0.260237 0.551165 0.965475
O O3 0.395116 0.388162 0.943072
O O4 0.044197 0.398633 0.045667
O O5 0.733340 0.083990 0.387942
O O6 0.076260 0.108063 0.288630
O O7 0.898579 0.944521 0.385357
O O8 0.444312 0.655770 0.977824
O O9 0.500000 0.500000 0.000000
O O10 0.867625 0.750000 0.408864
O O11 0.658405 0.852170 0.673168
O O12 0.474805 0.859274 0.632015
O O13 0.250299 0.750000 0.969606
O O14 0.826402 0.250000 0.259752
#
# Coordination Sequence:
#
# PCOD9163333 Si02
#       6
#     4   4   4   4   4   4
#     4   9  20  36  59  85 112 147 191 235 280 334
#     4  10  20  36  61  85 111 150 194 233 280 340
#     4   9  19  35  54  80 113 147 183 230 280 329
#     4   9  19  36  59  86 116 148 184 232 286 340
#     4   9  18  34  56  81 111 147 184 227 280 331
#     4  10  21  38  57  82 117 150 187 237 286 334
#
# _framework density 22.615919000000002
#
# number of rings (size 3 to 8) (size 9 to 14) (size 15 to 20)
#    0.000    2.667    0.000    0.500    0.000   12.000 
#    0.000    9.167    0.000   26.000    0.000    0.000 
#    0.000    0.000    0.000    0.000    0.000    0.000 
#
# Total GULP energy -133853.134798 kJ/mol
# GULP energy per Si atom -5577.213950 kJ/mol
# Density = 2.256444 g / cm^3
# Si number density = 22.615919 Si / 1000 Ang^3
#
#
#
# Elastic Constant Matrix: (Units=GPa)
#
#
# Indices 1 2 3 4 5 6 
#
# 1 62.7794 7.9039 25.9138 0.0000 9.9305 0.0000
# 2 7.9039 103.7877 24.3353 0.0000 15.8176 0.0000
# 3 25.9138 24.3353 133.5058 0.0000 8.6624 0.0000
# 4 0.0000 0.0000 0.0000 19.6290 0.0000 1.8879
# 5 9.9305 15.8176 8.6624 0.0000 20.3792 0.0000
# 6 0.0000 0.0000 0.0000 1.8879 0.0000 21.1514
#
#
#
# Elastic Compliance Matrix: (Units=1/GPa)
#
#
# Indices 1 2 3 4 5 6 
#
# 1 0.018440 0.000568 -0.003158 0.000000 -0.008084 0.000000
# 2 0.000568 0.011238 -0.001620 0.000000 -0.008311 0.000000
# 3 -0.003158 -0.001620 0.008450 0.000000 -0.000796 0.000000
# 4 0.000000 0.000000 0.000000 0.051386 0.000000 -0.004586
# 5 -0.008084 -0.008311 -0.000796 0.000000 0.059798 0.000000
# 6 0.000000 0.000000 0.000000 -0.004586 0.000000 0.047688
#
#
# Mechanical properties :
#
#
# Convention : Reuss Voigt Hill
#
# Bulk Modulus (GPa) = 33.65983 46.26431 39.96207
# Shear Modulus (GPa) = 23.22108 28.35991 25.79050
#
# Velocity S-wave (km/s) = 3.20778 3.54500 3.38060
# Velocity P-wave (km/s) = 5.35120 6.10385 5.73988
#
# Compressibility (1/GPa) = 0.02970901
#
# Stress axis : x y z
#
# Youngs Moduli (GPa) = 54.23110 88.98252 118.34071
#
# Poissons Ratio (x) = -0.05057 0.37375
# Poissons Ratio (y) = -0.03082 0.19165
# Poissons Ratio (z) = 0.17127 0.14411
#
# Static dielectric constant tensor:
#      x y z
#    x 1.846190 0.000000 0.010910 
#    y 0.000000 2.041630 0.000000 
#    z 0.010910 0.000000 1.838810 
# 
# From -- ./inp_files/50324.got.cif
#   From: 2010.05.17/outbox.cif.g08.bks.cpg/sg11_26_cif.got.tgz:50324.got - 2010.06.03 12:22:45.
