data_PCOD9163521
_publ_section_title
;
Structure prediction by ZEFSAII (Michael W. Deem and Ramdas Pophale) SiO2 
 PCOD9163521
Probable space group: P 21/M
;
_chemical_formula_sum "Si O2"
_cell_formula_units_Z 32
_cell_length_a 16.948129
_cell_length_b 9.860075
_cell_length_c 20.416814
_cell_angle_alpha 90.000000
_cell_angle_beta 28.643222
_cell_angle_gamma 90.000000
_cell_volume 1635.484173
_symmetry_space_group_name_H-M "P 21/M"
_symmetry_group_IT_number 11
_symmetry_cell_setting 'monoclinic'
loop_
_space_group_symop_operation_xyz
x,y,z
-x,1/2+y,-z
-x,-y,-z
x,1/2-y,z
loop_
_atom_site_type_symbol
_atom_site_label
_atom_site_fract_x
_atom_site_fract_y
_atom_site_fract_z
Si Si1 0.968488 0.592670 0.958982
Si Si2 0.286410 0.409511 0.097483
Si Si3 0.965390 0.907794 0.322541
Si Si4 0.552602 0.893801 0.386208
Si Si5 0.403233 0.412634 0.785599
Si Si6 0.306127 0.409433 0.370789
Si Si7 0.410054 0.094211 0.155578
Si Si8 0.772696 0.495604 0.338034
O O1 0.977869 0.750000 0.972220
O O2 0.099954 0.564027 0.806471
O O3 0.788327 0.569349 0.058847
O O4 0.000000 0.500000 0.000000
O O5 0.277911 0.250000 0.085358
O O6 0.322144 0.418087 0.149516
O O7 0.119211 0.491033 0.205969
O O8 0.439919 0.487630 0.952495
O O9 0.016405 0.750000 0.292172
O O10 0.847491 0.943264 0.470261
O O11 0.860485 0.925425 0.332312
O O12 0.623347 0.750000 0.314438
O O13 0.586717 0.976230 0.295935
O O14 0.357015 0.891769 0.536371
O O15 0.644561 0.921940 0.386325
O O16 0.441926 0.250000 0.763576
O O17 0.538110 0.497421 0.725790
O O18 0.342085 0.250000 0.357440
O O19 0.287372 0.424761 0.306160
O O20 0.474319 0.250000 0.113075
#
# Coordination Sequence:
#
# PCOD9163521 Si02
#       8
#     4   4   4   4   4   4   4   4
#     4  11  24  40  58  83 115 152 199 253 305 359
#     4  10  22  40  65  94 124 159 200 247 300 363
#     4  11  24  40  61  91 126 160 201 252 302 361
#     4  10  20  37  59  81 113 156 199 245 292 345
#     4  10  21  39  57  82 117 154 195 246 298 350
#     4  10  22  41  62  89 121 157 199 246 301 364
#     4   9  20  42  67  91 123 161 200 243 301 368
#     4  11  22  38  58  85 116 158 203 244 297 356
#
# _framework density 19.566072999999999
#
# number of rings (size 3 to 8) (size 9 to 14) (size 15 to 20)
#    0.000    1.750    2.500    1.125    1.750    4.000 
#    0.000    0.000    0.000    0.000    0.000    0.000 
#    0.000    0.000    0.000    0.000    0.000    0.000 
#
# Total GULP energy -178240.774251 kJ/mol
# GULP energy per Si atom -5570.024195 kJ/mol
# Density = 1.952154 g / cm^3
# Si number density = 19.566073 Si / 1000 Ang^3
#
#
#
# Elastic Constant Matrix: (Units=GPa)
#
#
# Indices 1 2 3 4 5 6 
#
# 1 44.7758 13.8935 20.9959 0.0000 4.4214 0.0000
# 2 13.8935 72.7969 25.3689 0.0000 -10.4851 0.0000
# 3 20.9959 25.3689 104.2833 0.0000 3.0452 0.0000
# 4 0.0000 0.0000 0.0000 18.3495 0.0000 -0.3380
# 5 4.4214 -10.4851 3.0452 0.0000 29.7146 0.0000
# 6 0.0000 0.0000 0.0000 -0.3380 0.0000 14.1053
#
#
#
# Elastic Compliance Matrix: (Units=1/GPa)
#
#
# Indices 1 2 3 4 5 6 
#
# 1 0.026054 -0.004273 -0.004061 0.000000 -0.004968 0.000000
# 2 -0.004273 0.016734 -0.003412 0.000000 0.006890 0.000000
# 3 -0.004061 -0.003412 0.011288 0.000000 -0.001756 0.000000
# 4 0.000000 0.000000 0.000000 0.054521 0.000000 0.001306
# 5 -0.004968 0.006890 -0.001756 0.000000 0.037004 0.000000
# 6 0.000000 0.000000 0.000000 0.001306 0.000000 0.070927
#
#
# Mechanical properties :
#
#
# Convention : Reuss Voigt Hill
#
# Bulk Modulus (GPa) = 32.69606 38.04139 35.36873
# Shear Modulus (GPa) = 19.98287 23.20706 21.59496
#
# Velocity S-wave (km/s) = 3.19925 3.44770 3.32579
# Velocity P-wave (km/s) = 5.51306 5.94420 5.73268
#
# Compressibility (1/GPa) = 0.03058472
#
# Stress axis : x y z
#
# Youngs Moduli (GPa) = 38.38147 59.75982 88.58838
#
# Poissons Ratio (x) = 0.25535 0.35977
# Poissons Ratio (y) = 0.16400 0.30224
# Poissons Ratio (z) = 0.15587 0.20388
#
# Static dielectric constant tensor:
#      x y z
#    x 1.697770 0.000000 0.044930 
#    y 0.000000 1.730840 0.000000 
#    z 0.044930 0.000000 1.716070 
# 
# From -- ./inp_files/60411.got.cif
#   From: 2010.05.17/outbox.cif.g08.bks.cpg/sg11_31_cif.got.tgz:60411.got - 2010.06.03 12:22:45.
