data_PCOD9163193
_publ_section_title
;
Structure prediction by ZEFSAII (Michael W. Deem and Ramdas Pophale) SiO2 
 PCOD9163193
Probable space group: P 21/M
;
_chemical_formula_sum "Si O2"
_cell_formula_units_Z 28
_cell_length_a 14.148225
_cell_length_b 8.877325
_cell_length_c 18.680281
_cell_angle_alpha 90.000000
_cell_angle_beta 32.728793
_cell_angle_gamma 90.000000
_cell_volume 1268.511018
_symmetry_space_group_name_H-M "P 21/M"
_symmetry_group_IT_number 11
_symmetry_cell_setting 'monoclinic'
loop_
_space_group_symop_operation_xyz
x,y,z
-x,1/2+y,-z
-x,-y,-z
x,1/2-y,z
loop_
_atom_site_type_symbol
_atom_site_label
_atom_site_fract_x
_atom_site_fract_y
_atom_site_fract_z
Si Si1 0.916482 0.431096 0.897065
Si Si2 0.478123 0.430657 0.592060
Si Si3 0.425873 0.924870 0.976559
Si Si4 0.751390 0.926301 0.134953
Si Si5 0.156617 0.066281 0.617149
Si Si6 0.444460 0.417274 0.254806
Si Si7 0.043129 0.082534 0.545471
O O1 0.917189 0.250000 0.902126
O O2 0.081509 0.474008 0.743180
O O3 0.749944 0.477260 0.953051
O O4 0.891157 0.494968 0.993280
O O5 0.500000 0.500000 0.500000
O O6 0.470049 0.250000 0.593223
O O7 0.310470 0.480020 0.746642
O O8 0.659256 0.485521 0.511731
O O9 0.394436 0.750000 0.013285
O O10 0.568211 0.937004 0.822377
O O11 0.500000 0.000000 0.000000
O O12 0.792107 0.750000 0.113222
O O13 0.569817 0.957894 0.207749
O O14 0.174628 0.250000 0.603350
O O15 0.019551 0.022527 0.641261
O O16 0.528058 0.250000 0.213349
O O17 0.253325 0.410011 0.407873
O O18 0.965938 0.250000 0.591564
O O19 0.000000 0.000000 0.500000
#
# Coordination Sequence:
#
# PCOD9163193 Si02
#       7
#     4   4   4   4   4   4   4
#     4   9  20  37  57  81 113 155 195 235 293 353
#     4  11  24  41  65  95 121 150 191 239 293 357
#     4   9  18  30  46  70 103 144 193 238 279 333
#     4  10  20  36  59  87 114 145 189 237 283 339
#     4  10  21  40  63  87 119 158 199 246 298 352
#     4   9  18  34  52  72 104 149 193 234 286 342
#     4  10  21  34  53  80 114 156 197 241 293 346
#
# _framework density 22.073125000000001
#
# number of rings (size 3 to 8) (size 9 to 14) (size 15 to 20)
#    0.000    2.286    1.429    1.714    2.000    5.714 
#    0.000    0.714    0.000    0.000    0.000    0.000 
#    0.000    0.000    0.000    0.000    0.000    0.000 
#
# Total GULP energy -156064.970675 kJ/mol
# GULP energy per Si atom -5573.748953 kJ/mol
# Density = 2.202289 g / cm^3
# Si number density = 22.073125 Si / 1000 Ang^3
#
#
#
# Elastic Constant Matrix: (Units=GPa)
#
#
# Indices 1 2 3 4 5 6 
#
# 1 88.0563 23.1527 28.0651 0.0000 35.7726 0.0000
# 2 23.1527 27.6171 28.4638 0.0000 14.1367 0.0000
# 3 28.0651 28.4638 154.3688 0.0000 31.8332 0.0000
# 4 0.0000 0.0000 0.0000 28.6634 0.0000 9.6156
# 5 35.7726 14.1367 31.8332 0.0000 36.6637 0.0000
# 6 0.0000 0.0000 0.0000 9.6156 0.0000 25.1585
#
#
#
# Elastic Compliance Matrix: (Units=1/GPa)
#
#
# Indices 1 2 3 4 5 6 
#
# 1 0.020678 -0.010023 0.001769 0.000000 -0.017847 0.000000
# 2 -0.010023 0.054615 -0.007214 0.000000 -0.005015 0.000000
# 3 0.001769 -0.007214 0.008854 0.000000 -0.006632 0.000000
# 4 0.000000 0.000000 0.000000 0.040019 0.000000 -0.015295
# 5 -0.017847 -0.005015 -0.006632 0.000000 0.052380 0.000000
# 6 0.000000 0.000000 0.000000 -0.015295 0.000000 0.045594
#
#
# Mechanical properties :
#
#
# Convention : Reuss Voigt Hill
#
# Bulk Modulus (GPa) = 18.79317 47.71173 33.25245
# Shear Modulus (GPa) = 18.46293 30.78781 24.62537
#
# Velocity S-wave (km/s) = 2.89527 3.73877 3.34372
# Velocity P-wave (km/s) = 4.43952 6.34823 5.47765
#
# Compressibility (1/GPa) = 0.05321081
#
# Stress axis : x y z
#
# Youngs Moduli (GPa) = 48.36005 18.31011 112.94109
#
# Poissons Ratio (x) = 0.18353 -0.19980
# Poissons Ratio (y) = 0.48473 0.81474
# Poissons Ratio (z) = -0.08555 0.13209
#
# Static dielectric constant tensor:
#      x y z
#    x 1.892070 0.000000 0.013300 
#    y 0.000000 1.786760 0.000000 
#    z 0.013300 0.000000 1.913850 
# 
# From -- ./inp_files/60080.got.cif
#   From: 2010.05.17/outbox.cif.g08.bks.cpg/sg11_31_cif.got.tgz:60080.got - 2010.06.03 12:22:45.
