data_PCOD9163108
_publ_section_title
;
Structure prediction by ZEFSAII (Michael W. Deem and Ramdas Pophale) SiO2 
 PCOD9163108
Probable space group: P 21/M
;
_chemical_formula_sum "Si O2"
_cell_formula_units_Z 32
_cell_length_a 15.564328
_cell_length_b 8.627793
_cell_length_c 14.587650
_cell_angle_alpha 90.000000
_cell_angle_beta 59.273941
_cell_angle_gamma 90.000000
_cell_volume 1683.921831
_symmetry_space_group_name_H-M "P 21/M"
_symmetry_group_IT_number 11
_symmetry_cell_setting 'monoclinic'
loop_
_space_group_symop_operation_xyz
x,y,z
-x,1/2+y,-z
-x,-y,-z
x,1/2-y,z
loop_
_atom_site_type_symbol
_atom_site_label
_atom_site_fract_x
_atom_site_fract_y
_atom_site_fract_z
Si Si1 0.553807 0.065416 0.201743
Si Si2 0.336348 0.935726 0.324422
Si Si3 0.751789 0.937197 0.441408
Si Si4 0.937463 0.435730 0.949867
Si Si5 0.812255 0.437616 0.754658
Si Si6 0.412263 0.063995 0.613335
Si Si7 0.977044 0.562480 0.296379
Si Si8 0.264280 0.434614 0.010818
O O1 0.556938 0.250000 0.198787
O O2 0.442604 0.007071 0.240083
O O3 0.579247 0.006335 0.290376
O O4 0.633845 0.998308 0.087124
O O5 0.344053 0.750000 0.319075
O O6 0.249968 0.984463 0.300401
O O7 0.307253 0.991850 0.441319
O O8 0.750887 0.750000 0.450970
O O9 0.692175 0.973397 0.380554
O O10 0.866242 0.993953 0.379407
O O11 0.928974 0.250000 0.959323
O O12 0.827637 0.508524 0.002359
O O13 0.993346 0.475586 0.824182
O O14 0.000000 0.500000 0.000000
O O15 0.812077 0.250000 0.759667
O O16 0.759614 0.499549 0.875225
O O17 0.928379 0.489477 0.694228
O O18 0.421644 0.250000 0.614502
O O19 0.500000 0.000000 0.500000
O O20 0.973254 0.750000 0.304406
O O21 0.266201 0.250000 0.012726
#
# Coordination Sequence:
#
# PCOD9163108 Si02
#       8
#     4   4   4   4   4   4   4   4
#     4  12  25  41  61  87 119 158 201 248 298 359
#     4  11  23  39  61  88 118 155 199 249 301 357
#     4  10  21  37  59  87 119 158 198 238 293 355
#     4  10  20  36  58  86 120 159 202 247 296 352
#     4   9  20  41  64  86 118 156 196 247 302 355
#     4  11  22  37  59  86 121 160 197 243 296 353
#     4   8  17  36  59  83 116 155 194 239 291 346
#     4  11  23  40  62  88 119 155 197 248 303 361
#
# _framework density 19.003257000000001
#
# number of rings (size 3 to 8) (size 9 to 14) (size 15 to 20)
#    0.000    1.750    1.250    4.125    1.750    2.500 
#    0.000    3.125    0.000    0.000    0.000    0.000 
#    0.000    0.000    0.000    0.000    0.000    0.000 
#
# Total GULP energy -178777.381460 kJ/mol
# GULP energy per Si atom -5586.793171 kJ/mol
# Density = 1.896000 g / cm^3
# Si number density = 19.003257 Si / 1000 Ang^3
#
#
#
# Elastic Constant Matrix: (Units=GPa)
#
#
# Indices 1 2 3 4 5 6 
#
# 1 104.2477 26.5805 8.3971 0.0000 -6.5974 0.0000
# 2 26.5805 47.8680 0.7394 0.0000 -2.1687 0.0000
# 3 8.3971 0.7394 17.0087 0.0000 -23.5251 0.0000
# 4 0.0000 0.0000 0.0000 23.9418 0.0000 2.4354
# 5 -6.5974 -2.1687 -23.5251 0.0000 40.2864 0.0000
# 6 0.0000 0.0000 0.0000 2.4354 0.0000 26.2978
#
#
#
# Elastic Compliance Matrix: (Units=1/GPa)
#
#
# Indices 1 2 3 4 5 6 
#
# 1 0.012254 -0.006930 -0.018140 0.000000 -0.008959 0.000000
# 2 -0.006930 0.024898 0.013639 0.000000 0.008170 0.000000
# 3 -0.018140 0.013639 0.333085 0.000000 0.192267 0.000000
# 4 0.000000 0.000000 0.000000 0.042165 0.000000 -0.003905
# 5 -0.008959 0.008170 0.192267 0.000000 0.136068 0.000000
# 6 0.000000 0.000000 0.000000 -0.003905 0.000000 0.038388
#
#
# Mechanical properties :
#
#
# Convention : Reuss Voigt Hill
#
# Bulk Modulus (GPa) = 2.87873 26.72868 14.80370
# Shear Modulus (GPa) = 6.89169 26.99904 16.94537
#
# Velocity S-wave (km/s) = 1.90642 3.77338 2.98939
# Velocity P-wave (km/s) = 2.52272 5.75156 4.44097
#
# Compressibility (1/GPa) = 0.34737520
#
# Stress axis : x y z
#
# Youngs Moduli (GPa) = 81.60813 40.16321 3.00224
#
# Poissons Ratio (x) = 0.27833 0.05446
# Poissons Ratio (y) = 0.56555 -0.04095
# Poissons Ratio (z) = 1.48034 -0.54777
#
# Static dielectric constant tensor:
#      x y z
#    x 1.679950 0.000000 -0.011260 
#    y 0.000000 1.635340 0.000000 
#    z -0.011260 0.000000 1.620560 
# 
# From -- ./inp_files/51687.got.cif
#   From: 2010.05.17/outbox.cif.g08.bks.cpg/sg11_26_cif.got.tgz:51687.got - 2010.06.03 12:22:45.
