data_PCOD9163071
_publ_section_title
;
Structure prediction by ZEFSAII (Michael W. Deem and Ramdas Pophale) SiO2 
 PCOD9163071
Probable space group: P 21/M
;
_chemical_formula_sum "Si O2"
_cell_formula_units_Z 32
_cell_length_a 28.517023
_cell_length_b 8.492307
_cell_length_c 10.948755
_cell_angle_alpha 90.000000
_cell_angle_beta 144.600621
_cell_angle_gamma 90.000000
_cell_volume 1535.951134
_symmetry_space_group_name_H-M "P 21/M"
_symmetry_group_IT_number 11
_symmetry_cell_setting 'monoclinic'
loop_
_space_group_symop_operation_xyz
x,y,z
-x,1/2+y,-z
-x,-y,-z
x,1/2-y,z
loop_
_atom_site_type_symbol
_atom_site_label
_atom_site_fract_x
_atom_site_fract_y
_atom_site_fract_z
Si Si1 0.971403 0.562227 0.253747
Si Si2 0.881174 0.938572 0.818305
Si Si3 0.270802 0.939700 0.382898
Si Si4 0.120804 0.437678 0.451858
Si Si5 0.541558 0.060603 0.212495
Si Si6 0.540480 0.439429 0.711673
Si Si7 0.728408 0.440466 0.107813
Si Si8 0.178765 0.561102 0.938420
O O1 0.969566 0.750000 0.253526
O O2 0.911982 0.500611 0.232462
O O3 0.063382 0.508169 0.434397
O O4 0.929838 0.500702 0.039091
O O5 0.889427 0.750000 0.835933
O O6 0.906907 0.998223 0.740276
O O7 0.787980 0.983214 0.643152
O O8 0.266118 0.750000 0.384319
O O9 0.363923 0.986724 0.588883
O O10 0.232184 0.983763 0.170093
O O11 0.114455 0.250000 0.442303
O O12 0.213118 0.489287 0.665959
O O13 0.537617 0.250000 0.205669
O O14 0.501866 0.999111 0.254068
O O15 0.500000 0.000000 0.000000
O O16 0.500000 0.500000 0.500000
O O17 0.537243 0.250000 0.703370
O O18 0.635049 0.488148 0.914841
O O19 0.731134 0.250000 0.119803
O O20 0.771680 0.492569 0.074127
O O21 0.174033 0.750000 0.923764
#
# Coordination Sequence:
#
# PCOD9163071 Si02
#       8
#     4   4   4   4   4   4   4   4
#     4  10  20  36  58  84 114 150 192 239 292 354
#     4   9  20  36  56  84 116 150 193 242 292 350
#     4   9  19  36  60  85 112 150 195 241 296 357
#     4  11  23  37  55  83 118 154 194 241 294 352
#     4  11  24  41  62  93 130 168 211 262 320 381
#     4  11  24  44  69  96 127 167 214 263 318 385
#     4  10  23  41  61  85 117 155 198 244 297 358
#     4   9  18  37  61  83 109 146 193 245 291 345
#
# _framework density 20.833998000000001
#
# number of rings (size 3 to 8) (size 9 to 14) (size 15 to 20)
#    0.000    2.000    0.000    2.625    1.750    6.500 
#    0.000    2.500    0.000    0.000    0.000    0.000 
#    0.000    0.000    0.000    0.000    0.000    0.000 
#
# Total GULP energy -178765.542155 kJ/mol
# GULP energy per Si atom -5586.423192 kJ/mol
# Density = 2.078658 g / cm^3
# Si number density = 20.833998 Si / 1000 Ang^3
#
#
#
# Elastic Constant Matrix: (Units=GPa)
#
#
# Indices 1 2 3 4 5 6 
#
# 1 125.2711 13.0998 44.9054 0.0000 3.6645 0.0000
# 2 13.0998 15.0822 10.9095 0.0000 0.3833 0.0000
# 3 44.9054 10.9095 95.8734 0.0000 14.0094 0.0000
# 4 0.0000 0.0000 0.0000 30.0046 0.0000 3.4148
# 5 3.6645 0.3833 14.0094 0.0000 41.2326 0.0000
# 6 0.0000 0.0000 0.0000 3.4148 0.0000 28.3640
#
#
#
# Elastic Compliance Matrix: (Units=1/GPa)
#
#
# Indices 1 2 3 4 5 6 
#
# 1 0.010050 -0.005752 -0.004135 0.000000 0.000565 0.000000
# 2 -0.005752 0.075738 -0.006204 0.000000 0.001915 0.000000
# 3 -0.004135 -0.006204 0.013691 0.000000 -0.004226 0.000000
# 4 0.000000 0.000000 0.000000 0.033791 0.000000 -0.004068
# 5 0.000565 0.001915 -0.004226 0.000000 0.025621 0.000000
# 6 0.000000 0.000000 0.000000 -0.004068 0.000000 0.035746
#
#
# Mechanical properties :
#
#
# Convention : Reuss Voigt Hill
#
# Bulk Modulus (GPa) = 14.85966 41.56177 28.21072
# Shear Modulus (GPa) = 20.06005 31.07438 25.56722
#
# Velocity S-wave (km/s) = 3.10635 3.86621 3.50692
# Velocity P-wave (km/s) = 4.47368 6.31842 5.47432
#
# Compressibility (1/GPa) = 0.06729630
#
# Stress axis : x y z
#
# Youngs Moduli (GPa) = 99.50213 13.20338 73.04138
#
# Poissons Ratio (x) = 0.07595 0.30205
# Poissons Ratio (y) = 0.57236 0.45314
# Poissons Ratio (z) = 0.41147 0.08191
#
# Static dielectric constant tensor:
#      x y z
#    x 1.751510 0.000000 -0.031280 
#    y 0.000000 1.705350 0.000000 
#    z -0.031280 0.000000 1.775580 
# 
# From -- ./inp_files/45363.got.cif
#   From: 2010.05.17/outbox.cif.g08.bks.cpg/sg11_23_cif.got.tgz:45363.got - 2010.06.03 12:22:45.
