data_PCOD9163354
_publ_section_title
;
Structure prediction by ZEFSAII (Michael W. Deem and Ramdas Pophale) SiO2 
 PCOD9163354
Probable space group: P 21/M
;
_chemical_formula_sum "Si O2"
_cell_formula_units_Z 32
_cell_length_a 24.503791
_cell_length_b 9.331821
_cell_length_c 24.264111
_cell_angle_alpha 90.000000
_cell_angle_beta 17.854984
_cell_angle_gamma 90.000000
_cell_volume 1701.174200
_symmetry_space_group_name_H-M "P 21/M"
_symmetry_group_IT_number 11
_symmetry_cell_setting 'monoclinic'
loop_
_space_group_symop_operation_xyz
x,y,z
-x,1/2+y,-z
-x,-y,-z
x,1/2-y,z
loop_
_atom_site_type_symbol
_atom_site_label
_atom_site_fract_x
_atom_site_fract_y
_atom_site_fract_z
Si Si1 0.516194 0.412110 0.928185
Si Si2 0.150052 0.920358 0.093894
Si Si3 0.981839 0.920549 0.886150
Si Si4 0.320898 0.419745 0.603261
Si Si5 0.681974 0.581499 0.263635
Si Si6 0.477196 0.579801 0.857298
Si Si7 0.106149 0.419065 0.558009
Si Si8 0.060303 0.588514 0.494972
O O1 0.448312 0.250000 0.999429
O O2 0.435619 0.493781 0.953105
O O3 0.726217 0.404628 0.713852
O O4 0.500000 0.500000 0.000000
O O5 0.148513 0.750000 0.082163
O O6 0.995532 0.947222 0.287522
O O7 0.113573 0.013356 0.075352
O O8 0.336404 0.953979 0.944945
O O9 0.006043 0.750000 0.857477
O O10 0.854746 0.947558 0.060966
O O11 0.168883 0.999044 0.715902
O O12 0.317332 0.250000 0.595936
O O13 0.515434 0.485341 0.405503
O O14 0.285943 0.443456 0.702281
O O15 0.635526 0.750000 0.301988
O O16 0.462556 0.750000 0.883069
O O17 0.681903 0.551178 0.643065
O O18 0.085808 0.250000 0.564979
O O19 0.021982 0.508429 0.588913
O O20 0.989177 0.750000 0.562110
O O21 0.000000 0.500000 0.500000
#
# Coordination Sequence:
#
# PCOD9163354 Si02
#       8
#     4   4   4   4   4   4   4   4
#     4  10  21  35  53  79 108 137 172 216 271 333
#     4  10  22  38  57  81 109 147 195 237 281 341
#     4  11  23  38  57  85 121 157 197 243 291 346
#     4  10  20  36  61  89 119 157 199 244 294 346
#     4   9  20  38  59  87 122 159 197 241 295 348
#     4   9  19  37  57  76 104 140 179 228 280 328
#     4   9  19  37  57  77 106 141 179 228 281 331
#     4  10  21  35  53  79 108 138 174 218 272 333
#
# _framework density 18.810537
#
# number of rings (size 3 to 8) (size 9 to 14) (size 15 to 20)
#    0.000    2.250    0.000    1.875    1.750    5.000 
#    0.000    1.250    0.000    0.000    0.000    0.000 
#    0.000    0.000    0.000    0.000    0.000    0.000 
#
# Total GULP energy -178693.032556 kJ/mol
# GULP energy per Si atom -5584.157267 kJ/mol
# Density = 1.876772 g / cm^3
# Si number density = 18.810537 Si / 1000 Ang^3
#
#
#
# Elastic Constant Matrix: (Units=GPa)
#
#
# Indices 1 2 3 4 5 6 
#
# 1 55.1833 35.5760 8.7942 0.0000 -26.9622 0.0000
# 2 35.5760 63.7025 23.1143 0.0000 -16.4551 0.0000
# 3 8.7942 23.1143 44.8280 0.0000 -14.7678 0.0000
# 4 0.0000 0.0000 0.0000 21.5431 0.0000 -1.1455
# 5 -26.9622 -16.4551 -14.7678 0.0000 27.3691 0.0000
# 6 0.0000 0.0000 0.0000 -1.1455 0.0000 37.2273
#
#
#
# Elastic Compliance Matrix: (Units=1/GPa)
#
#
# Indices 1 2 3 4 5 6 
#
# 1 0.055318 -0.024719 0.018182 0.000000 0.049444 0.000000
# 2 -0.024719 0.031744 -0.016119 0.000000 -0.013963 0.000000
# 3 0.018182 -0.016119 0.036193 0.000000 0.027750 0.000000
# 4 0.000000 0.000000 0.000000 0.046495 0.000000 0.001431
# 5 0.049444 -0.013963 0.027750 0.000000 0.091825 0.000000
# 6 0.000000 0.000000 0.000000 0.001431 0.000000 0.026906
#
#
# Mechanical properties :
#
#
# Convention : Reuss Voigt Hill
#
# Bulk Modulus (GPa) = 12.82960 33.18698 23.00829
# Shear Modulus (GPa) = 13.89764 23.64321 18.77042
#
# Velocity S-wave (km/s) = 2.72108 3.54914 3.16233
# Velocity P-wave (km/s) = 4.08749 5.87165 5.05885
#
# Compressibility (1/GPa) = 0.07794476
#
# Stress axis : x y z
#
# Youngs Moduli (GPa) = 18.07738 31.50153 27.62938
#
# Poissons Ratio (x) = 0.77867 -0.50235
# Poissons Ratio (y) = 0.44685 0.44535
# Poissons Ratio (z) = -0.32868 0.50776
#
# Static dielectric constant tensor:
#      x y z
#    x 1.617840 0.000000 -0.004440 
#    y 0.000000 1.642820 0.000000 
#    z -0.004440 0.000000 1.653450 
# 
# From -- ./inp_files/69984.got.cif
#   From: 2010.05.17/outbox.cif.g08.bks.cpg/sg11_35_cif.got.tgz:69984.got - 2010.06.03 12:22:45.
