data_PCOD9163046
_publ_section_title
;
Structure prediction by ZEFSAII (Michael W. Deem and Ramdas Pophale) SiO2 
 PCOD9163046
Probable space group: P 21/M
;
_chemical_formula_sum "Si O2"
_cell_formula_units_Z 26
_cell_length_a 11.909443
_cell_length_b 17.677599
_cell_length_c 15.963379
_cell_angle_alpha 90.000000
_cell_angle_beta 23.719249
_cell_angle_gamma 90.000000
_cell_volume 1351.890178
_symmetry_space_group_name_H-M "P 21/M"
_symmetry_group_IT_number 11
_symmetry_cell_setting 'monoclinic'
loop_
_space_group_symop_operation_xyz
x,y,z
-x,1/2+y,-z
-x,-y,-z
x,1/2-y,z
loop_
_atom_site_type_symbol
_atom_site_label
_atom_site_fract_x
_atom_site_fract_y
_atom_site_fract_z
Si Si1 0.630345 0.250000 0.777268
Si Si2 0.137877 0.481029 0.536886
Si Si3 0.758508 0.443967 0.134700
Si Si4 0.685933 0.111708 0.354960
Si Si5 0.922781 0.554004 0.241157
Si Si6 0.650857 0.750000 0.859059
Si Si7 0.996327 0.250000 0.223194
Si Si8 0.059730 0.122802 0.428384
O O1 0.074007 0.250000 0.268126
O O2 0.800135 0.177512 0.628764
O O3 0.594787 0.250000 0.903812
O O4 0.463990 0.486927 0.337824
O O5 0.996356 0.446955 0.716650
O O6 0.123124 0.424024 0.469021
O O7 0.016824 0.560908 0.589757
O O8 0.743499 0.380051 0.216009
O O9 0.000000 0.500000 0.000000
O O10 0.837641 0.422483 0.986671
O O11 0.352861 0.103319 0.589222
O O12 0.823530 0.177385 0.313795
O O13 0.825311 0.032453 0.288360
O O14 0.690529 0.676083 0.775092
O O15 0.693250 0.750000 0.030197
#
# Coordination Sequence:
#
# PCOD9163046 Si02
#       8
#     2   4   4   4   4   2   2   4
#     4   9  23  38  56  79 113 151 184 231 288 329
#     4  10  21  34  60  85 115 148 192 236 279 338
#     4   9  19  33  56  82 112 145 181 229 280 330
#     4   9  18  34  52  83 115 143 185 233 283 335
#     4   9  18  35  55  82 114 150 181 231 285 328
#     4   9  21  38  56  79 113 149 188 237 286 332
#     4  10  20  36  58  82 112 148 190 236 282 341
#     4  10  21  39  55  86 115 149 191 236 285 333
#
# _framework density 19.232332
#
# number of rings (size 3 to 8) (size 9 to 14) (size 15 to 20)
#    0.462    2.154    0.000    1.846    4.308    1.231 
#    2.769    9.231    0.000    0.000    0.000    0.000 
#    0.000    0.000    0.000    0.000    0.000    0.000 
#
# Total GULP energy -144871.052884 kJ/mol
# GULP energy per Si atom -5571.963572 kJ/mol
# Density = 1.918856 g / cm^3
# Si number density = 19.232332 Si / 1000 Ang^3
#
#
#
# Elastic Constant Matrix: (Units=GPa)
#
#
# Indices 1 2 3 4 5 6 
#
# 1 62.4026 8.5127 4.0660 0.0000 15.4060 0.0000
# 2 8.5127 52.6871 3.7962 0.0000 -7.8840 0.0000
# 3 4.0660 3.7962 64.9560 0.0000 24.7244 0.0000
# 4 0.0000 0.0000 0.0000 9.7268 0.0000 -1.1163
# 5 15.4060 -7.8840 24.7244 0.0000 32.5099 0.0000
# 6 0.0000 0.0000 0.0000 -1.1163 0.0000 21.7990
#
#
#
# Elastic Compliance Matrix: (Units=1/GPa)
#
#
# Indices 1 2 3 4 5 6 
#
# 1 0.020047 -0.005711 0.004535 0.000000 -0.014334 0.000000
# 2 -0.005711 0.022162 -0.005649 0.000000 0.012376 0.000000
# 3 0.004535 -0.005649 0.023617 0.000000 -0.021480 0.000000
# 4 0.000000 0.000000 0.000000 0.103416 0.000000 0.005296
# 5 -0.014334 0.012376 -0.021480 0.000000 0.056890 0.000000
# 6 0.000000 0.000000 0.000000 0.005296 0.000000 0.046145
#
#
# Mechanical properties :
#
#
# Convention : Reuss Voigt Hill
#
# Bulk Modulus (GPa) = 19.16542 23.64394 21.40468
# Shear Modulus (GPa) = 16.48431 23.71855 20.10143
#
# Velocity S-wave (km/s) = 2.93083 3.51560 3.23645
# Velocity P-wave (km/s) = 4.63032 5.36654 5.01197
#
# Compressibility (1/GPa) = 0.05217732
#
# Stress axis : x y z
#
# Youngs Moduli (GPa) = 49.88217 45.12302 42.34158
#
# Poissons Ratio (x) = 0.25768 -0.19201
# Poissons Ratio (y) = 0.28486 0.23917
# Poissons Ratio (z) = -0.22621 0.25488
#
# Static dielectric constant tensor:
#      x y z
#    x 1.710330 0.000000 0.048740 
#    y 0.000000 1.637960 0.000000 
#    z 0.048740 0.000000 1.689700 
# 
# From -- ./inp_files/50539.got.cif
#   From: 2010.05.17/outbox.cif.g08.bks.cpg/sg11_26_cif.got.tgz:50539.got - 2010.06.03 12:22:45.
