data_PCOD9163512
_publ_section_title
;
Structure prediction by ZEFSAII (Michael W. Deem and Ramdas Pophale) SiO2 
 PCOD9163512
Probable space group: P 21/M
;
_chemical_formula_sum "Si O2"
_cell_formula_units_Z 32
_cell_length_a 29.200339
_cell_length_b 8.393510
_cell_length_c 11.981104
_cell_angle_alpha 90.000000
_cell_angle_beta 32.030886
_cell_angle_gamma 90.000000
_cell_volume 1557.444158
_symmetry_space_group_name_H-M "P 21/M"
_symmetry_group_IT_number 11
_symmetry_cell_setting 'monoclinic'
loop_
_space_group_symop_operation_xyz
x,y,z
-x,1/2+y,-z
-x,-y,-z
x,1/2-y,z
loop_
_atom_site_type_symbol
_atom_site_label
_atom_site_fract_x
_atom_site_fract_y
_atom_site_fract_z
Si Si1 0.765274 0.561621 0.957457
Si Si2 0.070721 0.054691 0.525437
Si Si3 0.371706 0.939252 0.325883
Si Si4 0.454375 0.557271 0.922390
Si Si5 0.921333 0.940779 0.237550
Si Si6 0.811438 0.936292 0.266022
Si Si7 0.879771 0.436367 0.905665
Si Si8 0.419640 0.940097 0.740403
O O1 0.757290 0.750000 0.958056
O O2 0.844920 0.501630 0.715906
O O3 0.802507 0.525399 0.002956
O O4 0.672784 0.488712 0.119757
O O5 0.069725 0.250000 0.524862
O O6 0.078470 0.998597 0.637162
O O7 0.976142 0.003450 0.677582
O O8 0.357009 0.750000 0.361228
O O9 0.454500 0.984042 0.228581
O O10 0.288676 0.029728 0.541867
O O11 0.391370 0.984252 0.156010
O O12 0.461853 0.750000 0.906793
O O13 0.427255 0.504552 0.854315
O O14 0.927062 0.750000 0.233520
O O15 0.837252 0.981087 0.338752
O O16 0.000000 0.000000 0.000000
O O17 0.831402 0.750000 0.207706
O O18 0.866243 0.037350 0.065002
O O19 0.874177 0.250000 0.890314
O O20 0.424217 0.750000 0.732606
O O21 0.500000 0.000000 0.500000
#
# Coordination Sequence:
#
# PCOD9163512 Si02
#       8
#     4   4   4   4   4   4   4   4
#     4  11  24  42  65  92 123 160 205 256 311 368
#     4   9  20  39  63  90 123 161 203 253 307 362
#     4  10  21  38  63  92 121 157 199 246 302 365
#     4   9  21  42  64  88 121 155 198 252 304 360
#     4  10  20  37  58  86 121 159 199 243 296 355
#     4  11  23  36  58  90 125 161 200 248 303 364
#     4  11  22  40  64  88 123 165 210 258 302 360
#     4  11  25  45  66  91 123 161 206 255 308 365
#
# _framework density 20.546482999999998
#
# number of rings (size 3 to 8) (size 9 to 14) (size 15 to 20)
#    0.000    1.750    1.250    2.250    3.500    2.000 
#    0.000    3.125    0.000    0.000    0.000    0.000 
#    0.000    0.000    0.000    0.000    0.000    0.000 
#
# Total GULP energy -178715.706503 kJ/mol
# GULP energy per Si atom -5584.865828 kJ/mol
# Density = 2.049972 g / cm^3
# Si number density = 20.546483 Si / 1000 Ang^3
#
#
#
# Elastic Constant Matrix: (Units=GPa)
#
#
# Indices 1 2 3 4 5 6 
#
# 1 118.2956 13.4404 41.6850 0.0000 -2.8936 0.0000
# 2 13.4404 16.4294 17.1090 0.0000 -2.0798 0.0000
# 3 41.6850 17.1090 88.8595 0.0000 -18.9344 0.0000
# 4 0.0000 0.0000 0.0000 23.9894 0.0000 2.0760
# 5 -2.8936 -2.0798 -18.9344 0.0000 30.0570 0.0000
# 6 0.0000 0.0000 0.0000 2.0760 0.0000 22.4842
#
#
#
# Elastic Compliance Matrix: (Units=1/GPa)
#
#
# Indices 1 2 3 4 5 6 
#
# 1 0.010482 -0.004062 -0.004597 0.000000 -0.002168 0.000000
# 2 -0.004062 0.078255 -0.013966 0.000000 -0.003774 0.000000
# 3 -0.004597 -0.013966 0.018248 0.000000 0.010087 0.000000
# 4 0.000000 0.000000 0.000000 0.042021 0.000000 -0.003880
# 5 -0.002168 -0.003774 0.010087 0.000000 0.039154 0.000000
# 6 0.000000 0.000000 0.000000 -0.003880 0.000000 0.044834
#
#
# Mechanical properties :
#
#
# Convention : Reuss Voigt Hill
#
# Bulk Modulus (GPa) = 16.19804 40.89478 28.54641
# Shear Modulus (GPa) = 16.73230 25.39614 21.06422
#
# Velocity S-wave (km/s) = 2.85680 3.51954 3.20535
# Velocity P-wave (km/s) = 4.33387 6.03846 5.25573
#
# Compressibility (1/GPa) = 0.06173587
#
# Stress axis : x y z
#
# Youngs Moduli (GPa) = 95.40381 12.77866 54.79920
#
# Poissons Ratio (x) = 0.05191 0.25191
# Poissons Ratio (y) = 0.38755 0.76532
# Poissons Ratio (z) = 0.43856 0.17846
#
# Static dielectric constant tensor:
#      x y z
#    x 1.747110 0.000000 0.018090 
#    y 0.000000 1.703290 0.000000 
#    z 0.018090 0.000000 1.733130 
# 
# From -- ./inp_files/45226.got.cif
#   From: 2010.05.17/outbox.cif.g08.bks.cpg/sg11_23_cif.got.tgz:45226.got - 2010.06.03 12:22:45.
