data_PCOD9163398
_publ_section_title
;
Structure prediction by ZEFSAII (Michael W. Deem and Ramdas Pophale) SiO2 
 PCOD9163398
Probable space group: P 21/M
;
_chemical_formula_sum "Si O2"
_cell_formula_units_Z 28
_cell_length_a 8.106974
_cell_length_b 13.729696
_cell_length_c 12.631176
_cell_angle_alpha 90.000000
_cell_angle_beta 69.098746
_cell_angle_gamma 90.000000
_cell_volume 1313.414484
_symmetry_space_group_name_H-M "P 21/M"
_symmetry_group_IT_number 11
_symmetry_cell_setting 'monoclinic'
loop_
_space_group_symop_operation_xyz
x,y,z
-x,1/2+y,-z
-x,-y,-z
x,1/2-y,z
loop_
_atom_site_type_symbol
_atom_site_label
_atom_site_fract_x
_atom_site_fract_y
_atom_site_fract_z
Si Si1 0.918484 0.530706 0.631503
Si Si2 0.260146 0.362014 0.174148
Si Si3 0.279188 0.863111 0.585015
Si Si4 0.661279 0.361177 0.059421
Si Si5 0.666478 0.992386 0.251763
Si Si6 0.332875 0.862130 0.319147
Si Si7 0.954658 0.029629 0.890247
O O1 0.754101 0.602206 0.699482
O O2 0.830565 0.427323 0.685820
O O3 0.000000 0.500000 0.500000
O O4 0.079015 0.596953 0.638240
O O5 0.209040 0.250000 0.177835
O O6 0.454714 0.372969 0.080518
O O7 0.132933 0.435457 0.142748
O O8 0.296224 0.750000 0.616958
O O9 0.377960 0.944604 0.632948
O O10 0.325136 0.864206 0.449994
O O11 0.691116 0.250000 0.081856
O O12 0.685590 0.427768 0.156084
O O13 0.799395 0.391758 0.938240
O O14 0.862281 0.943889 0.210385
O O15 0.517046 0.915884 0.253497
O O16 0.326487 0.750000 0.286354
O O17 0.000000 0.000000 0.000000
#
# Coordination Sequence:
#
# PCOD9163398 Si02
#       7
#     4   4   4   4   4   4   4
#     4  10  20  37  62  92 126 159 204 256 297 361
#     4  11  21  40  69  92 119 162 207 253 310 373
#     4  10  20  36  62  92 123 160 204 255 311 366
#     4  10  22  39  61  88 119 154 203 259 310 366
#     4  11  20  37  61  88 122 162 204 253 302 371
#     4  10  22  39  57  85 127 170 205 247 307 369
#     4  10  23  38  60  88 122 152 201 260 312 363
#
# _framework density 21.318480999999998
#
# number of rings (size 3 to 8) (size 9 to 14) (size 15 to 20)
#    0.000    1.714    2.857    1.714    0.000    3.429 
#    0.000    3.571    0.000    0.857    0.000    0.000 
#    0.000    0.000    0.000    0.000    0.000    0.000 
#
# Total GULP energy -155873.181407 kJ/mol
# GULP energy per Si atom -5566.899336 kJ/mol
# Density = 2.126996 g / cm^3
# Si number density = 21.318481 Si / 1000 Ang^3
#
#
#
# Elastic Constant Matrix: (Units=GPa)
#
#
# Indices 1 2 3 4 5 6 
#
# 1 60.6123 46.2226 18.5328 0.0000 -25.6596 0.0000
# 2 46.2226 133.0677 30.2557 0.0000 -27.2709 0.0000
# 3 18.5328 30.2557 77.7987 0.0000 -19.1208 0.0000
# 4 0.0000 0.0000 0.0000 30.4162 0.0000 3.6686
# 5 -25.6596 -27.2709 -19.1208 0.0000 33.8923 0.0000
# 6 0.0000 0.0000 0.0000 3.6686 0.0000 24.4015
#
#
#
# Elastic Compliance Matrix: (Units=1/GPa)
#
#
# Indices 1 2 3 4 5 6 
#
# 1 0.028334 -0.006484 -0.000276 0.000000 0.016078 0.000000
# 2 -0.006484 0.010758 -0.001995 0.000000 0.002622 0.000000
# 3 -0.000276 -0.001995 0.015382 0.000000 0.006864 0.000000
# 4 0.000000 0.000000 0.000000 0.033484 0.000000 -0.005034
# 5 0.016078 0.002622 0.006864 0.000000 0.047660 0.000000
# 6 0.000000 0.000000 0.000000 -0.005034 0.000000 0.041738
#
#
# Mechanical properties :
#
#
# Convention : Reuss Voigt Hill
#
# Bulk Modulus (GPa) = 27.05348 51.27790 39.16569
# Shear Modulus (GPa) = 24.13255 29.50652 26.81953
#
# Velocity S-wave (km/s) = 3.36817 3.72436 3.55074
# Velocity P-wave (km/s) = 5.27672 6.52686 5.93480
#
# Compressibility (1/GPa) = 0.03696382
#
# Stress axis : x y z
#
# Youngs Moduli (GPa) = 35.29300 92.95184 65.01010
#
# Poissons Ratio (x) = 0.60273 0.01796
# Poissons Ratio (y) = 0.22885 0.12968
# Poissons Ratio (z) = 0.00975 0.18542
#
# Static dielectric constant tensor:
#      x y z
#    x 1.884050 0.000000 0.037250 
#    y 0.000000 1.741690 0.000000 
#    z 0.037250 0.000000 1.896590 
# 
# From -- ./inp_files/47107.got.cif
#   From: 2010.05.17/outbox.cif.g08.bks.cpg/sg11_24_cif.got.tgz:47107.got - 2010.06.03 12:22:45.
