data_PCOD9163758
_publ_section_title
;
Structure prediction by ZEFSAII (Michael W. Deem and Ramdas Pophale) SiO2 
 PCOD9163758
Probable space group: P 21/M
;
_chemical_formula_sum "Si O2"
_cell_formula_units_Z 20
_cell_length_a 9.588557
_cell_length_b 13.982320
_cell_length_c 8.563939
_cell_angle_alpha 90.000000
_cell_angle_beta 64.600899
_cell_angle_gamma 90.000000
_cell_volume 1037.189880
_symmetry_space_group_name_H-M "P 21/M"
_symmetry_group_IT_number 11
_symmetry_cell_setting 'monoclinic'
loop_
_space_group_symop_operation_xyz
x,y,z
-x,1/2+y,-z
-x,-y,-z
x,1/2-y,z
loop_
_atom_site_type_symbol
_atom_site_label
_atom_site_fract_x
_atom_site_fract_y
_atom_site_fract_z
Si Si1 0.237482 0.862209 0.473301
Si Si2 0.374706 0.012982 0.194353
Si Si3 0.949816 0.552878 0.777539
Si Si4 0.595734 0.360350 0.277651
Si Si5 0.928601 0.360918 0.963242
O O1 0.211592 0.750000 0.462955
O O2 0.317701 0.912193 0.289511
O O3 0.345308 0.874727 0.574439
O O4 0.077465 0.914090 0.592778
O O5 0.222407 0.064689 0.202890
O O6 0.459393 0.071342 0.290171
O O7 0.500000 0.000000 0.000000
O O8 0.971249 0.441713 0.817400
O O9 0.979652 0.613744 0.921274
O O10 0.548994 0.250000 0.282641
O O11 0.748460 0.374960 0.096971
O O12 0.952025 0.250000 0.908340
#
# Coordination Sequence:
#
# PCOD9163758 Si02
#       5
#     4   4   4   4   4
#     4  10  23  43  63  83 119 169 205 242 301 364
#     4  12  23  37  62  94 124 153 196 260 306 354
#     4  10  20  37  62  89 120 160 203 248 296 354
#     4   9  19  38  61  85 121 163 200 242 300 359
#     4   9  18  36  61  87 121 164 201 241 298 360
#
# _framework density 19.282872999999999
#
# number of rings (size 3 to 8) (size 9 to 14) (size 15 to 20)
#    0.000    2.000    2.000    3.000    0.000    3.200 
#    0.000    1.000    0.000    0.000    0.000    0.000 
#    0.000    0.000    0.000    0.000    0.000    0.000 
#
# Total GULP energy -111721.992105 kJ/mol
# GULP energy per Si atom -5586.099605 kJ/mol
# Density = 1.923898 g / cm^3
# Si number density = 19.282873 Si / 1000 Ang^3
#
#
#
# Elastic Constant Matrix: (Units=GPa)
#
#
# Indices 1 2 3 4 5 6 
#
# 1 114.7208 62.8869 32.4736 0.0000 -4.8631 0.0000
# 2 62.8869 106.5543 47.4803 0.0000 -11.3742 0.0000
# 3 32.4736 47.4803 93.6075 0.0000 -25.0348 0.0000
# 4 0.0000 0.0000 0.0000 25.6510 0.0000 -9.5761
# 5 -4.8631 -11.3742 -25.0348 0.0000 16.0102 0.0000
# 6 0.0000 0.0000 0.0000 -9.5761 0.0000 17.8050
#
#
#
# Elastic Compliance Matrix: (Units=1/GPa)
#
#
# Indices 1 2 3 4 5 6 
#
# 1 0.013104 -0.007305 -0.002001 0.000000 -0.004338 0.000000
# 2 -0.007305 0.016226 -0.005511 0.000000 0.000691 0.000000
# 3 -0.002001 -0.005511 0.022280 0.000000 0.030316 0.000000
# 4 0.000000 0.000000 0.000000 0.048779 0.000000 0.026235
# 5 -0.004338 0.000691 0.030316 0.000000 0.109037 0.000000
# 6 0.000000 0.000000 0.000000 0.026235 0.000000 0.070274
#
#
# Mechanical properties :
#
#
# Convention : Reuss Voigt Hill
#
# Bulk Modulus (GPa) = 45.50467 66.72935 56.11701
# Shear Modulus (GPa) = 15.78981 23.36268 19.57624
#
# Velocity S-wave (km/s) = 2.86466 3.48455 3.18970
# Velocity P-wave (km/s) = 5.88145 7.13232 6.53688
#
# Compressibility (1/GPa) = 0.02197577
#
# Stress axis : x y z
#
# Youngs Moduli (GPa) = 76.31383 61.62997 44.88288
#
# Poissons Ratio (x) = 0.45022 0.08979
# Poissons Ratio (y) = 0.55749 0.24736
# Poissons Ratio (z) = 0.15267 0.33966
#
# Static dielectric constant tensor:
#      x y z
#    x 1.659660 0.000000 0.029240 
#    y 0.000000 1.659730 0.000000 
#    z 0.029240 0.000000 1.686760 
# 
# From -- ./inp_files/12235.got.cif
#   From: 2010.05.17/outbox.cif.g08.bks.cpg/sg11_7_cif.got.tgz:12235.got - 2010.06.03 12:22:45.
