data_PCOD9163684
_publ_section_title
;
Structure prediction by ZEFSAII (Michael W. Deem and Ramdas Pophale) SiO2 
 PCOD9163684
Probable space group: P 21/M
;
_chemical_formula_sum "Si O2"
_cell_formula_units_Z 24
_cell_length_a 21.649734
_cell_length_b 8.949901
_cell_length_c 9.799590
_cell_angle_alpha 90.000000
_cell_angle_beta 146.541381
_cell_angle_gamma 90.000000
_cell_volume 1046.872845
_symmetry_space_group_name_H-M "P 21/M"
_symmetry_group_IT_number 11
_symmetry_cell_setting 'monoclinic'
loop_
_space_group_symop_operation_xyz
x,y,z
-x,1/2+y,-z
-x,-y,-z
x,1/2-y,z
loop_
_atom_site_type_symbol
_atom_site_label
_atom_site_fract_x
_atom_site_fract_y
_atom_site_fract_z
Si Si1 0.379501 0.574635 0.257289
Si Si2 0.580299 0.076221 0.977835
Si Si3 0.071359 0.421905 0.435153
Si Si4 0.882724 0.425369 0.745781
Si Si5 0.153480 0.423312 0.899906
Si Si6 0.664477 0.924375 0.402938
O O1 0.500000 0.500000 0.500000
O O2 0.381799 0.750000 0.298309
O O3 0.361581 0.563925 0.060502
O O4 0.277396 0.489566 0.140721
O O5 0.589380 0.250000 0.041807
O O6 0.447129 0.044264 0.715703
O O7 0.625446 0.968404 0.177764
O O8 0.075971 0.250000 0.396879
O O9 0.134119 0.525924 0.442947
O O10 0.121221 0.428042 0.679109
O O11 0.943488 0.479590 0.208786
O O12 0.890462 0.250000 0.772216
O O13 0.777475 0.485660 0.636700
O O14 0.000000 0.500000 0.000000
O O15 0.148323 0.250000 0.934568
O O16 0.689862 0.750000 0.458981
#
# Coordination Sequence:
#
# PCOD9163684 Si02
#       6
#     4   4   4   4   4   4
#     4  11  23  38  56  81 116 154 193 237 287 343
#     4   9  20  38  60  85 113 148 189 235 285 337
#     4  10  21  39  63  89 115 148 192 238 286 341
#     4  12  25  40  58  83 118 156 194 237 288 344
#     4  10  21  38  61  88 117 150 190 237 288 343
#     4  10  20  37  61  87 114 146 189 238 286 339
#
# _framework density 22.925419999999999
#
# number of rings (size 3 to 8) (size 9 to 14) (size 15 to 20)
#    0.000    1.667    0.000    4.500    0.000    8.000 
#    0.000    5.000    0.000    0.000    0.000    0.000 
#    0.000    0.000    0.000    0.000    0.000    0.000 
#
# Total GULP energy -134367.829529 kJ/mol
# GULP energy per Si atom -5598.659564 kJ/mol
# Density = 2.287324 g / cm^3
# Si number density = 22.925420 Si / 1000 Ang^3
#
#
#
# Elastic Constant Matrix: (Units=GPa)
#
#
# Indices 1 2 3 4 5 6 
#
# 1 61.5668 16.6646 12.0661 0.0000 18.2927 0.0000
# 2 16.6646 117.7487 49.0396 0.0000 27.9644 0.0000
# 3 12.0661 49.0396 111.4269 0.0000 29.5614 0.0000
# 4 0.0000 0.0000 0.0000 37.2090 0.0000 7.5325
# 5 18.2927 27.9644 29.5614 0.0000 46.5745 0.0000
# 6 0.0000 0.0000 0.0000 7.5325 0.0000 27.4357
#
#
#
# Elastic Compliance Matrix: (Units=1/GPa)
#
#
# Indices 1 2 3 4 5 6 
#
# 1 0.018504 -0.001132 0.000291 0.000000 -0.006773 0.000000
# 2 -0.001132 0.011132 -0.003753 0.000000 -0.003857 0.000000
# 3 0.000291 -0.003753 0.012058 0.000000 -0.005514 0.000000
# 4 0.000000 0.000000 0.000000 0.028457 0.000000 -0.007813
# 5 -0.006773 -0.003857 -0.005514 0.000000 0.029947 0.000000
# 6 0.000000 0.000000 0.000000 -0.007813 0.000000 0.038594
#
#
# Mechanical properties :
#
#
# Convention : Reuss Voigt Hill
#
# Bulk Modulus (GPa) = 30.76332 49.58699 40.17515
# Shear Modulus (GPa) = 31.50309 36.44199 33.97254
#
# Velocity S-wave (km/s) = 3.71098 3.99129 3.85369
# Velocity P-wave (km/s) = 5.64002 6.55112 6.11257
#
# Compressibility (1/GPa) = 0.03250625
#
# Stress axis : x y z
#
# Youngs Moduli (GPa) = 54.04195 89.83048 82.93444
#
# Poissons Ratio (x) = 0.10165 -0.02415
# Poissons Ratio (y) = 0.06115 0.31129
# Poissons Ratio (z) = -0.01573 0.33718
#
# Static dielectric constant tensor:
#      x y z
#    x 1.886280 0.000000 -0.051140 
#    y 0.000000 1.758380 0.000000 
#    z -0.051140 0.000000 1.898320 
# 
# From -- ./inp_files/44019.got.cif
#   From: 2010.05.17/outbox.cif.g08.bks.cpg/sg11_23_cif.got.tgz:44019.got - 2010.06.03 12:22:45.
