data_PCOD9163273
_publ_section_title
;
Structure prediction by ZEFSAII (Michael W. Deem and Ramdas Pophale) SiO2 
 PCOD9163273
Probable space group: P 21/M
;
_chemical_formula_sum "Si O2"
_cell_formula_units_Z 20
_cell_length_a 10.753818
_cell_length_b 11.463110
_cell_length_c 13.510284
_cell_angle_alpha 90.000000
_cell_angle_beta 144.332935
_cell_angle_gamma 90.000000
_cell_volume 971.076685
_symmetry_space_group_name_H-M "P 21/M"
_symmetry_group_IT_number 11
_symmetry_cell_setting 'monoclinic'
loop_
_space_group_symop_operation_xyz
x,y,z
-x,1/2+y,-z
-x,-y,-z
x,1/2-y,z
loop_
_atom_site_type_symbol
_atom_site_label
_atom_site_fract_x
_atom_site_fract_y
_atom_site_fract_z
Si Si1 0.602167 0.874168 0.550962
Si Si2 0.220760 0.616798 0.812066
Si Si3 0.430467 0.039315 0.107636
Si Si4 0.779017 0.881781 0.443301
Si Si5 0.121735 0.123092 0.076645
O O1 0.476793 0.750000 0.480386
O O2 0.693541 0.875347 0.500101
O O3 0.777233 0.869399 0.749616
O O4 0.500000 0.000000 0.500000
O O5 0.173438 0.750000 0.810836
O O6 0.433953 0.613417 0.883501
O O7 0.021258 0.574759 0.616318
O O8 0.265548 0.537464 0.936256
O O9 0.304402 0.107958 0.110971
O O10 0.608992 0.956996 0.273406
O O11 0.788078 0.750000 0.407336
O O12 0.010979 0.250000 0.987129
O O13 0.000000 0.000000 0.000000
#
# Coordination Sequence:
#
# PCOD9163273 Si02
#       5
#     4   4   4   4   4
#     4  10  20  37  58  85 119 156 198 248 301 362
#     4  10  22  38  58  88 121 156 204 259 307 366
#     4  11  21  38  63  84 119 162 205 250 311 362
#     4  10  20  36  60  87 118 158 202 248 309 373
#     4  11  24  40  62  91 125 163 208 256 312 369
#
# _framework density 20.595694000000002
#
# number of rings (size 3 to 8) (size 9 to 14) (size 15 to 20)
#    0.000    1.600    2.000    3.000    0.000    4.000 
#    0.000    0.000    0.000    6.000    0.000    0.000 
#    0.000    0.000    0.000    0.000    0.000    0.000 
#
# Total GULP energy -111486.412483 kJ/mol
# GULP energy per Si atom -5574.320624 kJ/mol
# Density = 2.054882 g / cm^3
# Si number density = 20.595694 Si / 1000 Ang^3
#
#
#
# Elastic Constant Matrix: (Units=GPa)
#
#
# Indices 1 2 3 4 5 6 
#
# 1 41.9463 14.2859 -3.7622 0.0000 -4.7297 0.0000
# 2 14.2859 156.0367 55.8243 0.0000 5.5795 0.0000
# 3 -3.7622 55.8243 80.3132 0.0000 -10.6655 0.0000
# 4 0.0000 0.0000 0.0000 29.9559 0.0000 14.1174
# 5 -4.7297 5.5795 -10.6655 0.0000 30.2197 0.0000
# 6 0.0000 0.0000 0.0000 14.1174 0.0000 -15.1701
#
#
#
# Elastic Compliance Matrix: (Units=1/GPa)
#
#
# Indices 1 2 3 4 5 6 
#
# 1 0.026674 -0.004613 0.005375 0.000000 0.006923 0.000000
# 2 -0.004613 0.009776 -0.007708 0.000000 -0.005248 0.000000
# 3 0.005375 -0.007708 0.019265 0.000000 0.009064 0.000000
# 4 0.000000 0.000000 0.000000 0.023205 0.000000 0.021595
# 5 0.006923 -0.005248 0.009064 0.000000 0.038342 0.000000
# 6 0.000000 0.000000 0.000000 0.021595 0.000000 -0.045823
#
#
# Mechanical properties :
#
#
# Convention : Reuss Voigt Hill
#
# Bulk Modulus (GPa) = 23.91032 45.66580 34.78806
# Shear Modulus (GPa) = 50.36626 23.13099 36.74862
#
# Velocity S-wave (km/s) = 4.95054 3.35490 4.22866
# Velocity P-wave (km/s) = 6.65670 6.10146 6.38512
#
# Compressibility (1/GPa) = 0.04182295
#
# Stress axis : x y z
#
# Youngs Moduli (GPa) = 37.49007 102.28615 51.90849
#
# Poissons Ratio (x) = 0.47182 -0.27902
# Poissons Ratio (y) = 0.17293 0.40013
# Poissons Ratio (z) = -0.20151 0.78846
#
# Static dielectric constant tensor:
#      x y z
#    x 1.713020 0.000000 0.039260 
#    y 0.000000 1.795220 0.000000 
#    z 0.039260 0.000000 1.734160 
# 
# From -- ./inp_files/20806.got.cif
#   From: 2010.05.17/outbox.cif.g08.bks.cpg/sg11_11_cif.got.tgz:20806.got - 2010.06.03 12:22:45.
