data_PCOD9163894
_publ_section_title
;
Structure prediction by ZEFSAII (Michael W. Deem and Ramdas Pophale) SiO2 
 PCOD9163894
Probable space group: P 21/M
;
_chemical_formula_sum "Si O2"
_cell_formula_units_Z 24
_cell_length_a 16.740253
_cell_length_b 17.202703
_cell_length_c 9.524082
_cell_angle_alpha 90.000000
_cell_angle_beta 151.861445
_cell_angle_gamma 90.000000
_cell_volume 1293.482551
_symmetry_space_group_name_H-M "P 21/M"
_symmetry_group_IT_number 11
_symmetry_cell_setting 'monoclinic'
loop_
_space_group_symop_operation_xyz
x,y,z
-x,1/2+y,-z
-x,-y,-z
x,1/2-y,z
loop_
_atom_site_type_symbol
_atom_site_label
_atom_site_fract_x
_atom_site_fract_y
_atom_site_fract_z
Si Si1 0.016114 0.000009 0.694066
Si Si2 0.154305 0.660432 0.520020
Si Si3 0.622270 0.072020 0.667422
Si Si4 0.398847 0.600414 0.689906
Si Si5 0.478463 0.658970 0.216993
Si Si6 0.303942 0.428357 0.654541
O O1 0.876404 0.945896 0.555088
O O2 0.193059 0.962695 0.013598
O O3 0.000000 0.000000 0.500000
O O4 0.981753 0.090547 0.684175
O O5 0.100094 0.750000 0.463680
O O6 0.254060 0.655700 0.527411
O O7 0.307624 0.636962 0.864744
O O8 0.603373 0.101176 0.479800
O O9 0.562113 0.134041 0.688662
O O10 0.500000 0.000000 0.500000
O O11 0.356054 0.514365 0.682380
O O12 0.580871 0.611393 0.045461
O O13 0.496522 0.750000 0.231794
O O14 0.644274 0.620776 0.403082
#
# Coordination Sequence:
#
# PCOD9163894 Si02
#       6
#     4   4   4   4   4   4
#     4  11  21  36  62  91 114 153 201 244 289 343
#     4   9  19  37  60  85 116 154 196 241 294 351
#     4  12  22  36  59  90 121 153 199 246 289 353
#     4   9  18  33  60  83 114 149 191 235 289 350
#     4  10  20  38  60  84 118 160 194 239 301 351
#     4   9  18  37  58  84 111 152 198 234 282 357
#
# _framework density 18.554559999999999
#
# number of rings (size 3 to 8) (size 9 to 14) (size 15 to 20)
#    0.000    2.000    3.333    2.000    0.000    3.333 
#    0.000    2.500    0.000    2.000    0.000    0.000 
#    0.000    0.000    0.000    0.000    0.000    0.000 
#
# Total GULP energy -133632.709417 kJ/mol
# GULP energy per Si atom -5568.029559 kJ/mol
# Density = 1.851233 g / cm^3
# Si number density = 18.554560 Si / 1000 Ang^3
#
#
#
# Elastic Constant Matrix: (Units=GPa)
#
#
# Indices 1 2 3 4 5 6 
#
# 1 140.2715 13.3111 51.2860 0.0000 -8.1895 0.0000
# 2 13.3111 55.4395 5.0349 0.0000 11.1825 0.0000
# 3 51.2860 5.0349 45.6054 0.0000 9.8669 0.0000
# 4 0.0000 0.0000 0.0000 12.7564 0.0000 1.8667
# 5 -8.1895 11.1825 9.8669 0.0000 36.9318 0.0000
# 6 0.0000 0.0000 0.0000 1.8667 0.0000 28.6057
#
#
#
# Elastic Compliance Matrix: (Units=1/GPa)
#
#
# Indices 1 2 3 4 5 6 
#
# 1 0.014591 -0.003719 -0.017981 0.000000 0.009166 0.000000
# 2 -0.003719 0.020195 0.003666 0.000000 -0.007919 0.000000
# 3 -0.017981 0.003666 0.045475 0.000000 -0.017247 0.000000
# 4 0.000000 0.000000 0.000000 0.079148 0.000000 -0.005165
# 5 0.009166 -0.007919 -0.017247 0.000000 0.036115 0.000000
# 6 0.000000 0.000000 0.000000 -0.005165 0.000000 0.035295
#
#
# Mechanical properties :
#
#
# Convention : Reuss Voigt Hill
#
# Bulk Modulus (GPa) = 22.62824 42.28671 32.45747
# Shear Modulus (GPa) = 17.75454 27.10442 22.42948
#
# Velocity S-wave (km/s) = 3.09671 3.82618 3.48061
# Velocity P-wave (km/s) = 5.00081 6.50842 5.80378
#
# Compressibility (1/GPa) = 0.04419257
#
# Stress axis : x y z
#
# Youngs Moduli (GPa) = 68.53359 49.51717 21.99020
#
# Poissons Ratio (x) = 0.18416 0.39541
# Poissons Ratio (y) = 0.25489 -0.08062
# Poissons Ratio (z) = 1.23232 -0.18154
#
# Static dielectric constant tensor:
#      x y z
#    x 1.626690 0.000000 0.001690 
#    y 0.000000 1.630840 0.000000 
#    z 0.001690 0.000000 1.688030 
# 
# From -- ./inp_files/22845.got.cif
#   From: 2010.05.17/outbox.cif.g08.bks.cpg/sg11_12_cif.got.tgz:22845.got - 2010.06.03 12:22:45.
