data_PCOD9163632
_publ_section_title
;
Structure prediction by ZEFSAII (Michael W. Deem and Ramdas Pophale) SiO2 
 PCOD9163632
Probable space group: P 21/M
;
_chemical_formula_sum "Si O2"
_cell_formula_units_Z 28
_cell_length_a 11.160587
_cell_length_b 8.506951
_cell_length_c 15.283655
_cell_angle_alpha 90.000000
_cell_angle_beta 67.076907
_cell_angle_gamma 90.000000
_cell_volume 1336.476297
_symmetry_space_group_name_H-M "P 21/M"
_symmetry_group_IT_number 11
_symmetry_cell_setting 'monoclinic'
loop_
_space_group_symop_operation_xyz
x,y,z
-x,1/2+y,-z
-x,-y,-z
x,1/2-y,z
loop_
_atom_site_type_symbol
_atom_site_label
_atom_site_fract_x
_atom_site_fract_y
_atom_site_fract_z
Si Si1 0.351333 0.935333 0.537194
Si Si2 0.414981 0.061085 0.839553
Si Si3 0.015122 0.429678 0.092003
Si Si4 0.213441 0.065056 0.746521
Si Si5 0.680636 0.561515 0.756418
Si Si6 0.147487 0.060826 0.449501
Si Si7 0.318433 0.432649 0.049895
O O1 0.360172 0.750000 0.518911
O O2 0.500000 0.000000 0.500000
O O3 0.279636 0.971388 0.649349
O O4 0.253648 0.006875 0.491661
O O5 0.431737 0.250000 0.838547
O O6 0.290685 0.031930 0.814570
O O7 0.539712 0.983227 0.759758
O O8 0.391980 0.998253 0.944809
O O9 0.968388 0.250000 0.105143
O O10 0.933848 0.520539 0.188658
O O11 0.167107 0.430539 0.069076
O O12 0.000000 0.500000 0.000000
O O13 0.225010 0.250000 0.723676
O O14 0.693654 0.750000 0.759046
O O15 0.793813 0.506415 0.660553
O O16 0.676365 0.493119 0.855692
O O17 0.143829 0.250000 0.452651
O O18 0.000000 0.000000 0.500000
O O19 0.362025 0.250000 0.044266
#
# Coordination Sequence:
#
# PCOD9163632 Si02
#       7
#     4   4   4   4   4   4   4
#     4  12  26  46  71  99 131 173 223 281 343 403
#     4  10  20  37  60  88 126 164 199 248 309 373
#     4  11  21  37  60  87 125 168 210 257 315 378
#     4  11  23  40  63  94 128 164 209 263 322 389
#     4  10  22  39  62  88 120 160 206 255 309 375
#     4  11  25  45  68  97 133 174 223 280 338 397
#     4   9  19  37  58  85 123 163 199 247 307 369
#
# _framework density 20.950616
#
# number of rings (size 3 to 8) (size 9 to 14) (size 15 to 20)
#    0.000    1.429    1.429    3.857    2.000    4.571 
#    0.000    1.429    0.000    0.000    0.000    0.000 
#    0.000    0.000    0.000    0.000    0.000    0.000 
#
# Total GULP energy -156366.102432 kJ/mol
# GULP energy per Si atom -5584.503658 kJ/mol
# Density = 2.090293 g / cm^3
# Si number density = 20.950616 Si / 1000 Ang^3
#
#
#
# Elastic Constant Matrix: (Units=GPa)
#
#
# Indices 1 2 3 4 5 6 
#
# 1 89.7757 27.6664 48.6486 0.0000 -13.5009 0.0000
# 2 27.6664 46.2350 17.5334 0.0000 0.8889 0.0000
# 3 48.6486 17.5334 133.2612 0.0000 -21.6981 0.0000
# 4 0.0000 0.0000 0.0000 27.4495 0.0000 -6.8453
# 5 -13.5009 0.8889 -21.6981 0.0000 37.7872 0.0000
# 6 0.0000 0.0000 0.0000 -6.8453 0.0000 30.0670
#
#
#
# Elastic Compliance Matrix: (Units=1/GPa)
#
#
# Indices 1 2 3 4 5 6 
#
# 1 0.016636 -0.008362 -0.004383 0.000000 0.003624 0.000000
# 2 -0.008362 0.027182 -0.001229 0.000000 -0.004333 0.000000
# 3 -0.004383 -0.001229 0.009945 0.000000 0.004174 0.000000
# 4 0.000000 0.000000 0.000000 0.038623 0.000000 0.008793
# 5 0.003624 -0.004333 0.004174 0.000000 0.030257 0.000000
# 6 0.000000 0.000000 0.000000 0.008793 0.000000 0.035261
#
#
# Mechanical properties :
#
#
# Convention : Reuss Voigt Hill
#
# Bulk Modulus (GPa) = 38.73766 50.77430 44.75598
# Shear Modulus (GPa) = 25.71244 30.75563 28.23404
#
# Velocity S-wave (km/s) = 3.50707 3.83561 3.67501
# Velocity P-wave (km/s) = 5.91012 6.62599 6.27827
#
# Compressibility (1/GPa) = 0.02581467
#
# Stress axis : x y z
#
# Youngs Moduli (GPa) = 60.11099 36.78918 100.54911
#
# Poissons Ratio (x) = 0.30764 0.44069
# Poissons Ratio (y) = 0.50266 0.12359
# Poissons Ratio (z) = 0.26346 0.04522
#
# Static dielectric constant tensor:
#      x y z
#    x 1.759230 0.000000 0.023170 
#    y 0.000000 1.725120 0.000000 
#    z 0.023170 0.000000 1.778920 
# 
# From -- ./inp_files/37407.got.cif
#   From: 2010.05.17/outbox.cif.g08.bks.cpg/sg11_19_cif.got.tgz:37407.got - 2010.06.03 12:22:45.
