data_PCOD9163657
_publ_section_title
;
Structure prediction by ZEFSAII (Michael W. Deem and Ramdas Pophale) SiO2 
 PCOD9163657
Probable space group: P 21/M
;
_chemical_formula_sum "Si O2"
_cell_formula_units_Z 32
_cell_length_a 26.782146
_cell_length_b 8.599874
_cell_length_c 20.757909
_cell_angle_alpha 90.000000
_cell_angle_beta 21.044326
_cell_angle_gamma 90.000000
_cell_volume 1716.818909
_symmetry_space_group_name_H-M "P 21/M"
_symmetry_group_IT_number 11
_symmetry_cell_setting 'monoclinic'
loop_
_space_group_symop_operation_xyz
x,y,z
-x,1/2+y,-z
-x,-y,-z
x,1/2-y,z
loop_
_atom_site_type_symbol
_atom_site_label
_atom_site_fract_x
_atom_site_fract_y
_atom_site_fract_z
Si Si1 0.844472 0.063738 0.686677
Si Si2 0.374586 0.062072 0.793745
Si Si3 0.179179 0.437891 0.913013
Si Si4 0.330467 0.562307 0.367722
Si Si5 0.132115 0.064075 0.716813
Si Si6 0.677327 0.562084 0.392605
Si Si7 0.347532 0.562165 0.200539
Si Si8 0.358805 0.437792 0.960306
O O1 0.848542 0.250000 0.681286
O O2 0.761327 0.010971 0.722728
O O3 0.000000 0.000000 0.500000
O O4 0.756477 0.007308 0.853993
O O5 0.377735 0.250000 0.789778
O O6 0.259740 0.010659 0.880335
O O7 0.344130 0.012550 0.903676
O O8 0.525585 0.003256 0.590505
O O9 0.175593 0.250000 0.917374
O O10 0.264782 0.487592 0.746573
O O11 0.022712 0.497952 0.098115
O O12 0.320989 0.750000 0.382963
O O13 0.219950 0.491105 0.549534
O O14 0.308848 0.514416 0.319687
O O15 0.486902 0.518311 0.200852
O O16 0.125745 0.250000 0.725363
O O17 0.216095 0.012534 0.679568
O O18 0.670048 0.750000 0.401995
O O19 0.353112 0.750000 0.193073
O O20 0.500000 0.500000 0.000000
O O21 0.349447 0.250000 0.974420
#
# Coordination Sequence:
#
# PCOD9163657 Si02
#       8
#     4   4   4   4   4   4   4   4
#     4  11  24  40  60  87 119 153 188 230 282 337
#     4  10  21  37  60  87 113 149 193 234 281 341
#     4  10  22  39  57  81 116 153 190 235 287 338
#     4  10  20  37  61  85 113 150 189 233 284 336
#     4  11  23  37  56  85 116 149 192 238 284 335
#     4  10  21  37  58  84 114 150 191 237 285 337
#     4  10  21  37  60  87 112 145 188 232 278 330
#     4  10  20  37  61  86 114 149 189 232 281 338
#
# _framework density 18.639123999999999
#
# number of rings (size 3 to 8) (size 9 to 14) (size 15 to 20)
#    0.000    1.750    2.500    1.500    0.000    4.500 
#    0.000    5.000    0.000    0.000    0.000    0.000 
#    0.000    0.000    0.000    0.000    0.000    0.000 
#
# Total GULP energy -178792.714876 kJ/mol
# GULP energy per Si atom -5587.272340 kJ/mol
# Density = 1.859670 g / cm^3
# Si number density = 18.639124 Si / 1000 Ang^3
#
#
#
# Elastic Constant Matrix: (Units=GPa)
#
#
# Indices 1 2 3 4 5 6 
#
# 1 133.6821 22.6793 45.4522 0.0000 7.7398 0.0000
# 2 22.6793 7.1562 15.0291 0.0000 1.5000 0.0000
# 3 45.4522 15.0291 69.4861 0.0000 2.4938 0.0000
# 4 0.0000 0.0000 0.0000 37.4009 0.0000 -0.7783
# 5 7.7398 1.5000 2.4938 0.0000 39.1995 0.0000
# 6 0.0000 0.0000 0.0000 -0.7783 0.0000 15.7165
#
#
#
# Elastic Compliance Matrix: (Units=1/GPa)
#
#
# Indices 1 2 3 4 5 6 
#
# 1 0.016271 -0.053225 0.000913 0.000000 -0.001234 0.000000
# 2 -0.053225 0.431706 -0.058476 0.000000 -0.002290 0.000000
# 3 0.000913 -0.058476 0.026428 0.000000 0.000376 0.000000
# 4 0.000000 0.000000 0.000000 0.026765 0.000000 0.001326
# 5 -0.001234 -0.002290 0.000376 0.000000 0.025818 0.000000
# 6 0.000000 0.000000 0.000000 0.001326 0.000000 0.063693
#
#
# Mechanical properties :
#
#
# Convention : Reuss Voigt Hill
#
# Bulk Modulus (GPa) = 3.95523 41.84952 22.90237
# Shear Modulus (GPa) = 5.57704 26.94098 16.25901
#
# Velocity S-wave (km/s) = 1.73165 3.80597 2.95669
# Velocity P-wave (km/s) = 2.47482 6.46646 4.89591
#
# Compressibility (1/GPa) = 0.25282974
#
# Stress axis : x y z
#
# Youngs Moduli (GPa) = 61.45894 2.31639 37.83798
#
# Poissons Ratio (x) = 0.12329 -0.03455
# Poissons Ratio (y) = 3.27112 2.21262
# Poissons Ratio (z) = -0.05611 0.13545
#
# Static dielectric constant tensor:
#      x y z
#    x 1.653030 0.000000 0.002300 
#    y 0.000000 1.637670 0.000000 
#    z 0.002300 0.000000 1.584080 
# 
# From -- ./inp_files/67023.got.cif
#   From: 2010.05.17/outbox.cif.g08.bks.cpg/sg11_34_cif.got.tgz:67023.got - 2010.06.03 12:22:45.
