data_PCOD9163192
_publ_section_title
;
Structure prediction by ZEFSAII (Michael W. Deem and Ramdas Pophale) SiO2 
 PCOD9163192
Probable space group: P 21/M
;
_chemical_formula_sum "Si O2"
_cell_formula_units_Z 28
_cell_length_a 19.247423
_cell_length_b 13.840505
_cell_length_c 9.298907
_cell_angle_alpha 90.000000
_cell_angle_beta 39.896996
_cell_angle_gamma 90.000000
_cell_volume 1588.882412
_symmetry_space_group_name_H-M "P 21/M"
_symmetry_group_IT_number 11
_symmetry_cell_setting 'monoclinic'
loop_
_space_group_symop_operation_xyz
x,y,z
-x,1/2+y,-z
-x,-y,-z
x,1/2-y,z
loop_
_atom_site_type_symbol
_atom_site_label
_atom_site_fract_x
_atom_site_fract_y
_atom_site_fract_z
Si Si1 0.830132 0.863496 0.459111
Si Si2 0.369866 0.457552 0.058885
Si Si3 0.403402 0.865217 0.208458
Si Si4 0.042032 0.970840 0.089594
Si Si5 0.740983 0.362058 0.286026
Si Si6 0.627564 0.982545 0.280387
Si Si7 0.198850 0.361970 0.840759
O O1 0.847303 0.750000 0.460686
O O2 0.727362 0.903974 0.706326
O O3 0.806612 0.872211 0.324305
O O4 0.936896 0.925182 0.330581
O O5 0.382532 0.564762 0.106639
O O6 0.480697 0.398761 0.912782
O O7 0.349612 0.463379 0.922054
O O8 0.402515 0.750000 0.180084
O O9 0.313639 0.887188 0.473772
O O10 0.133851 0.890548 0.919121
O O11 0.106420 0.064571 0.047107
O O12 0.000000 0.000000 0.000000
O O13 0.724450 0.250000 0.291122
O O14 0.683153 0.421805 0.253725
O O15 0.685580 0.898838 0.282812
O O16 0.500000 0.000000 0.500000
O O17 0.180161 0.250000 0.906058
#
# Coordination Sequence:
#
# PCOD9163192 Si02
#       7
#     4   4   4   4   4   4   4
#     4  10  20  36  59  87 113 149 189 234 285 332
#     4  11  22  36  56  79 117 143 188 231 283 338
#     4  10  21  36  56  80 108 146 187 233 282 329
#     4   9  17  33  59  84 113 142 188 234 284 320
#     4  10  20  37  58  83 111 144 188 230 275 334
#     4  11  22  37  55  79 112 151 186 226 281 332
#     4   9  20  36  57  84 115 149 193 234 278 332
#
# _framework density 17.622450000000001
#
# number of rings (size 3 to 8) (size 9 to 14) (size 15 to 20)
#    0.000    2.000    1.429    3.429    2.000    2.857 
#    0.000    3.571    0.000    1.714    0.000    0.000 
#    0.000    0.000    0.000    0.000    0.000    0.000 
#
# Total GULP energy -156117.631167 kJ/mol
# GULP energy per Si atom -5575.629685 kJ/mol
# Density = 1.758234 g / cm^3
# Si number density = 17.622450 Si / 1000 Ang^3
#
#
#
# Elastic Constant Matrix: (Units=GPa)
#
#
# Indices 1 2 3 4 5 6 
#
# 1 67.9265 25.7176 24.9314 0.0000 -9.1783 0.0000
# 2 25.7176 101.2771 19.8895 0.0000 6.1904 0.0000
# 3 24.9314 19.8895 56.1667 0.0000 -2.4978 0.0000
# 4 0.0000 0.0000 0.0000 24.8098 0.0000 0.6289
# 5 -9.1783 6.1904 -2.4978 0.0000 22.4518 0.0000
# 6 0.0000 0.0000 0.0000 0.6289 0.0000 12.5603
#
#
#
# Elastic Compliance Matrix: (Units=1/GPa)
#
#
# Indices 1 2 3 4 5 6 
#
# 1 0.020066 -0.004241 -0.007023 0.000000 0.008591 0.000000
# 2 -0.004241 0.011767 -0.002518 0.000000 -0.005258 0.000000
# 3 -0.007023 -0.002518 0.021824 0.000000 0.000251 0.000000
# 4 0.000000 0.000000 0.000000 0.040358 0.000000 -0.002021
# 5 0.008591 -0.005258 0.000251 0.000000 0.049530 0.000000
# 6 0.000000 0.000000 0.000000 -0.002021 0.000000 0.079717
#
#
# Mechanical properties :
#
#
# Convention : Reuss Voigt Hill
#
# Bulk Modulus (GPa) = 38.32504 40.71638 39.52071
# Shear Modulus (GPa) = 19.26602 22.28649 20.77625
#
# Velocity S-wave (km/s) = 3.31004 3.56007 3.43733
# Velocity P-wave (km/s) = 6.03354 6.32881 6.18294
#
# Compressibility (1/GPa) = 0.02609260
#
# Stress axis : x y z
#
# Youngs Moduli (GPa) = 49.83519 84.98466 45.82027
#
# Poissons Ratio (x) = 0.36045 0.32180
# Poissons Ratio (y) = 0.21137 0.11538
# Poissons Ratio (z) = 0.34999 0.21399
#
# Static dielectric constant tensor:
#      x y z
#    x 1.582940 0.000000 -0.004830 
#    y 0.000000 1.592440 0.000000 
#    z -0.004830 0.000000 1.599430 
# 
# From -- ./inp_files/17716.got.cif
#   From: 2010.05.17/outbox.cif.g08.bks.cpg/sg11_9_cif.got.tgz:17716.got - 2010.06.03 12:22:45.
