data_PCOD9163349
_publ_section_title
;
Structure prediction by ZEFSAII (Michael W. Deem and Ramdas Pophale) SiO2 
 PCOD9163349
Probable space group: P 21/M
;
_chemical_formula_sum "Si O2"
_cell_formula_units_Z 24
_cell_length_a 15.569177
_cell_length_b 8.456590
_cell_length_c 15.228661
_cell_angle_alpha 90.000000
_cell_angle_beta 140.114451
_cell_angle_gamma 90.000000
_cell_volume 1285.743011
_symmetry_space_group_name_H-M "P 21/M"
_symmetry_group_IT_number 11
_symmetry_cell_setting 'monoclinic'
loop_
_space_group_symop_operation_xyz
x,y,z
-x,1/2+y,-z
-x,-y,-z
x,1/2-y,z
loop_
_atom_site_type_symbol
_atom_site_label
_atom_site_fract_x
_atom_site_fract_y
_atom_site_fract_z
Si Si1 0.886777 0.060479 0.345604
Si Si2 0.414211 0.558728 0.850086
Si Si3 0.081666 0.060214 0.148613
Si Si4 0.616261 0.941108 0.654567
Si Si5 0.391630 0.057293 0.150533
Si Si6 0.894773 0.560300 0.154625
O O1 0.887075 0.250000 0.346239
O O2 0.738913 0.005413 0.260134
O O3 0.910409 0.001906 0.265243
O O4 0.000000 0.000000 0.500000
O O5 0.415288 0.750000 0.851869
O O6 0.488863 0.506057 0.819852
O O7 0.500000 0.500000 0.000000
O O8 0.078786 0.250000 0.145687
O O9 0.236048 0.008249 0.261242
O O10 0.009458 0.998448 0.179055
O O11 0.000000 0.000000 0.000000
O O12 0.614812 0.750000 0.653833
O O13 0.596170 0.995450 0.739435
O O14 0.500000 0.000000 0.500000
O O15 0.391074 0.250000 0.150900
O O16 0.249282 0.007735 0.997546
O O17 0.895294 0.750000 0.156318
#
# Coordination Sequence:
#
# PCOD9163349 Si02
#       6
#     4   4   4   4   4   4
#     4  11  24  40  59  90 127 162 199 247 303 361
#     4  10  20  36  61  89 116 152 197 245 298 357
#     4  11  22  38  61  91 124 158 202 250 298 359
#     4  10  22  40  59  86 122 158 196 245 300 356
#     4   9  18  36  60  85 116 152 194 242 297 356
#     4  11  21  38  64  89 117 160 203 251 306 354
#
# _framework density 18.666250000000002
#
# number of rings (size 3 to 8) (size 9 to 14) (size 15 to 20)
#    0.000    1.667    3.333    1.500    0.000    3.333 
#    0.000    2.500    0.000    0.000    0.000    0.000 
#    0.000    0.000    0.000    0.000    0.000    0.000 
#
# Total GULP energy -134083.792327 kJ/mol
# GULP energy per Si atom -5586.824680 kJ/mol
# Density = 1.862376 g / cm^3
# Si number density = 18.666250 Si / 1000 Ang^3
#
#
#
# Elastic Constant Matrix: (Units=GPa)
#
#
# Indices 1 2 3 4 5 6 
#
# 1 231.6880 35.3233 126.8922 0.0000 -1.2973 0.0000
# 2 35.3233 30.0634 31.7696 0.0000 1.8883 0.0000
# 3 126.8922 31.7696 198.0756 0.0000 -1.1431 0.0000
# 4 0.0000 0.0000 0.0000 33.1583 0.0000 -5.0952
# 5 -1.2973 1.8883 -1.1431 0.0000 35.6765 0.0000
# 6 0.0000 0.0000 0.0000 -5.0952 0.0000 26.1552
#
#
#
# Elastic Compliance Matrix: (Units=1/GPa)
#
#
# Indices 1 2 3 4 5 6 
#
# 1 0.007076 -0.004273 -0.003846 0.000000 0.000360 0.000000
# 2 -0.004273 0.042825 -0.004146 0.000000 -0.002555 0.000000
# 3 -0.003846 -0.004146 0.008179 0.000000 0.000342 0.000000
# 4 0.000000 0.000000 0.000000 0.031089 0.000000 0.006056
# 5 0.000360 -0.002555 0.000342 0.000000 0.028189 0.000000
# 6 0.000000 0.000000 0.000000 0.006056 0.000000 0.039413
#
#
# Mechanical properties :
#
#
# Convention : Reuss Voigt Hill
#
# Bulk Modulus (GPa) = 29.80520 94.19968 62.00244
# Shear Modulus (GPa) = 25.97619 36.72079 31.34849
#
# Velocity S-wave (km/s) = 3.73448 4.44016 4.10252
# Velocity P-wave (km/s) = 5.88194 8.76707 7.46521
#
# Compressibility (1/GPa) = 0.03355119
#
# Stress axis : x y z
#
# Youngs Moduli (GPa) = 141.32890 23.35064 122.26222
#
# Poissons Ratio (x) = 0.09977 0.47016
# Poissons Ratio (y) = 0.60383 0.50696
# Poissons Ratio (z) = 0.54348 0.09682
#
# Static dielectric constant tensor:
#      x y z
#    x 1.640270 0.000000 0.015000 
#    y 0.000000 1.647080 0.000000 
#    z 0.015000 0.000000 1.603610 
# 
# From -- ./inp_files/46487.got.cif
#   From: 2010.05.17/outbox.cif.g08.bks.cpg/sg11_24_cif.got.tgz:46487.got - 2010.06.03 12:22:45.
