data_PCOD9163585
_publ_section_title
;
Structure prediction by ZEFSAII (Michael W. Deem and Ramdas Pophale) SiO2 
 PCOD9163585
Probable space group: P 21/M
;
_chemical_formula_sum "Si O2"
_cell_formula_units_Z 28
_cell_length_a 12.340445
_cell_length_b 13.400636
_cell_length_c 9.188058
_cell_angle_alpha 90.000000
_cell_angle_beta 61.004472
_cell_angle_gamma 90.000000
_cell_volume 1328.978656
_symmetry_space_group_name_H-M "P 21/M"
_symmetry_group_IT_number 11
_symmetry_cell_setting 'monoclinic'
loop_
_space_group_symop_operation_xyz
x,y,z
-x,1/2+y,-z
-x,-y,-z
x,1/2-y,z
loop_
_atom_site_type_symbol
_atom_site_label
_atom_site_fract_x
_atom_site_fract_y
_atom_site_fract_z
Si Si1 0.317022 0.058870 0.711912
Si Si2 0.417761 0.997512 0.908439
Si Si3 0.016527 0.959422 0.651174
Si Si4 0.823656 0.135784 0.240169
Si Si5 0.044198 0.362957 0.862995
Si Si6 0.399957 0.363481 0.354448
Si Si7 0.236711 0.363535 0.175769
O O1 0.421979 0.072984 0.766475
O O2 0.188356 0.120044 0.812794
O O3 0.368144 0.074932 0.518211
O O4 0.271864 0.944592 0.758849
O O5 0.472947 0.896439 0.804849
O O6 0.288695 0.039975 0.055183
O O7 0.500000 0.000000 0.000000
O O8 0.908708 0.878164 0.737915
O O9 0.140345 0.902736 0.622124
O O10 0.000000 0.000000 0.500000
O O11 0.011381 0.054080 0.764072
O O12 0.783219 0.250000 0.263774
O O13 0.948372 0.127017 0.059412
O O14 0.032079 0.250000 0.814136
O O15 0.405691 0.250000 0.397840
O O16 0.292159 0.373028 0.302764
O O17 0.271305 0.250000 0.104312
#
# Coordination Sequence:
#
# PCOD9163585 Si02
#       7
#     4   4   4   4   4   4   4
#     4  11  20  36  59  83 112 148 190 235 284 343
#     4  10  22  39  59  84 111 141 189 247 292 335
#     4  11  21  34  57  89 124 153 184 231 279 333
#     4  10  21  36  55  81 115 155 192 228 276 336
#     4  10  21  37  58  86 119 155 194 230 273 337
#     4  10  22  39  59  83 113 150 192 240 291 338
#     4  10  20  37  60  84 115 156 195 233 280 334
#
# _framework density 21.068812999999999
#
# number of rings (size 3 to 8) (size 9 to 14) (size 15 to 20)
#    0.000    1.714    0.000    6.429    0.000    5.143 
#    0.000    1.429    0.000    5.143    0.000    0.000 
#    0.000    0.000    0.000    0.000    0.000    0.000 
#
# Total GULP energy -155876.145932 kJ/mol
# GULP energy per Si atom -5567.005212 kJ/mol
# Density = 2.102086 g / cm^3
# Si number density = 21.068813 Si / 1000 Ang^3
#
#
#
# Elastic Constant Matrix: (Units=GPa)
#
#
# Indices 1 2 3 4 5 6 
#
# 1 85.5557 16.8896 13.8072 0.0000 15.6754 0.0000
# 2 16.8896 114.5780 33.1638 0.0000 4.4691 0.0000
# 3 13.8072 33.1638 59.6808 0.0000 15.8339 0.0000
# 4 0.0000 0.0000 0.0000 21.0905 0.0000 -2.3060
# 5 15.6754 4.4691 15.8339 0.0000 24.7941 0.0000
# 6 0.0000 0.0000 0.0000 -2.3060 0.0000 17.9750
#
#
#
# Elastic Compliance Matrix: (Units=1/GPa)
#
#
# Indices 1 2 3 4 5 6 
#
# 1 0.013531 -0.001668 -0.000016 0.000000 -0.008243 0.000000
# 2 -0.001668 0.010706 -0.006418 0.000000 0.003224 0.000000
# 3 -0.000016 -0.006418 0.024100 0.000000 -0.014223 0.000000
# 4 0.000000 0.000000 0.000000 0.048089 0.000000 0.006169
# 5 -0.008243 0.003224 -0.014223 0.000000 0.054046 0.000000
# 6 0.000000 0.000000 0.000000 0.006169 0.000000 0.056424
#
#
# Mechanical properties :
#
#
# Convention : Reuss Voigt Hill
#
# Bulk Modulus (GPa) = 31.12335 43.05952 37.09144
# Shear Modulus (GPa) = 21.38480 25.83553 23.61016
#
# Velocity S-wave (km/s) = 3.18936 3.50558 3.35120
# Velocity P-wave (km/s) = 5.32607 6.07185 5.71114
#
# Compressibility (1/GPa) = 0.03213021
#
# Stress axis : x y z
#
# Youngs Moduli (GPa) = 73.90675 93.40924 41.49420
#
# Poissons Ratio (x) = 0.15583 0.00067
# Poissons Ratio (y) = 0.12330 0.26632
# Poissons Ratio (z) = 0.00120 0.59953
#
# Static dielectric constant tensor:
#      x y z
#    x 1.813620 0.000000 0.014170 
#    y 0.000000 1.765720 0.000000 
#    z 0.014170 0.000000 1.806030 
# 
# From -- ./inp_files/17935.got.cif
#   From: 2010.05.17/outbox.cif.g08.bks.cpg/sg11_9_cif.got.tgz:17935.got - 2010.06.03 12:22:45.
