data_PCOD9163129
_publ_section_title
;
Structure prediction by ZEFSAII (Michael W. Deem and Ramdas Pophale) SiO2 
 PCOD9163129
Probable space group: P 21/M
;
_chemical_formula_sum "Si O2"
_cell_formula_units_Z 32
_cell_length_a 24.259921
_cell_length_b 13.887969
_cell_length_c 8.479349
_cell_angle_alpha 90.000000
_cell_angle_beta 31.988242
_cell_angle_gamma 90.000000
_cell_volume 1513.413760
_symmetry_space_group_name_H-M "P 21/M"
_symmetry_group_IT_number 11
_symmetry_cell_setting 'monoclinic'
loop_
_space_group_symop_operation_xyz
x,y,z
-x,1/2+y,-z
-x,-y,-z
x,1/2-y,z
loop_
_atom_site_type_symbol
_atom_site_label
_atom_site_fract_x
_atom_site_fract_y
_atom_site_fract_z
Si Si1 0.593078 0.143711 0.092830
Si Si2 0.307206 0.507147 0.644485
Si Si3 0.138674 0.861405 0.866090
Si Si4 0.010900 0.987712 0.660307
Si Si5 0.171825 0.855748 0.409883
Si Si6 0.185032 0.135952 0.796737
Si Si7 0.622505 0.550132 0.830947
Si Si8 0.457288 0.860855 0.456452
O O1 0.574227 0.250000 0.065242
O O2 0.513698 0.126537 0.429511
O O3 0.704920 0.149248 0.906806
O O4 0.609460 0.054214 0.940331
O O5 0.229380 0.580696 0.739898
O O6 0.236648 0.411878 0.829879
O O7 0.396466 0.468072 0.308497
O O8 0.366848 0.564128 0.631776
O O9 0.141657 0.750000 0.905195
O O10 0.154468 0.867193 0.639884
O O11 0.029427 0.912364 0.169800
O O12 0.121074 0.943702 0.440366
O O13 0.928991 0.909557 0.929636
O O14 0.000000 0.000000 0.500000
O O15 0.129318 0.750000 0.464513
O O16 0.185844 0.250000 0.795021
O O17 0.259995 0.094144 0.475006
O O18 0.550581 0.618834 0.108260
O O19 0.424346 0.750000 0.515872
#
# Coordination Sequence:
#
# PCOD9163129 Si02
#       8
#     4   4   4   4   4   4   4   4
#     4  10  21  36  58  87 119 153 188 240 292 341
#     4   9  20  35  57  84 110 152 194 242 285 331
#     4  10  20  37  58  82 114 150 194 239 283 340
#     4  11  23  36  57  89 116 153 187 238 296 343
#     4  10  20  36  59  83 111 152 196 232 281 343
#     4   9  20  38  58  80 114 155 192 233 288 343
#     4  10  20  38  58  85 110 156 194 240 283 344
#     4  11  22  35  57  88 120 153 194 238 293 345
#
# _framework density 21.144251000000001
#
# number of rings (size 3 to 8) (size 9 to 14) (size 15 to 20)
#    0.750    1.250    1.250    2.250    3.500    1.500 
#    0.000    0.625    0.000    2.250    0.000    0.000 
#    0.000    0.000    0.000    0.000    0.000    0.000 
#
# Total GULP energy -178217.469429 kJ/mol
# GULP energy per Si atom -5569.295920 kJ/mol
# Density = 2.109613 g / cm^3
# Si number density = 21.144251 Si / 1000 Ang^3
#
#
#
# Elastic Constant Matrix: (Units=GPa)
#
#
# Indices 1 2 3 4 5 6 
#
# 1 15.8944 9.0039 1.5598 0.0000 -1.6832 0.0000
# 2 9.0039 126.5350 11.6539 0.0000 2.8353 0.0000
# 3 1.5598 11.6539 43.8661 0.0000 9.1406 0.0000
# 4 0.0000 0.0000 0.0000 25.7570 0.0000 -2.5054
# 5 -1.6832 2.8353 9.1406 0.0000 30.3436 0.0000
# 6 0.0000 0.0000 0.0000 -2.5054 0.0000 24.7609
#
#
#
# Elastic Compliance Matrix: (Units=1/GPa)
#
#
# Indices 1 2 3 4 5 6 
#
# 1 0.066246 -0.004625 -0.002115 0.000000 0.004744 0.000000
# 2 -0.004625 0.008425 -0.001980 0.000000 -0.000447 0.000000
# 3 -0.002115 -0.001980 0.024950 0.000000 -0.007448 0.000000
# 4 0.000000 0.000000 0.000000 0.039210 0.000000 0.003967
# 5 0.004744 -0.000447 -0.007448 0.000000 0.035505 0.000000
# 6 0.000000 0.000000 0.000000 0.003967 0.000000 0.040788
#
#
# Mechanical properties :
#
#
# Convention : Reuss Voigt Hill
#
# Bulk Modulus (GPa) = 12.16875 25.63675 18.90275
# Shear Modulus (GPa) = 19.23391 27.11082 23.17236
#
# Velocity S-wave (km/s) = 3.01932 3.58464 3.31406
# Velocity P-wave (km/s) = 4.23351 5.41146 4.85832
#
# Compressibility (1/GPa) = 0.08217768
#
# Stress axis : x y z
#
# Youngs Moduli (GPa) = 15.09535 118.70130 40.08010
#
# Poissons Ratio (x) = 0.54904 0.08478
# Poissons Ratio (y) = 0.06982 0.07938
# Poissons Ratio (z) = 0.03193 0.23509
#
# Static dielectric constant tensor:
#      x y z
#    x 1.808210 0.000000 -0.011690 
#    y 0.000000 1.763870 0.000000 
#    z -0.011690 0.000000 1.856150 
# 
# From -- ./inp_files/28851.got.cif
#   From: 2010.05.17/outbox.cif.g08.bks.cpg/sg11_15_cif.got.tgz:28851.got - 2010.06.03 12:22:45.
