data_PCOD9163811
_publ_section_title
;
Structure prediction by ZEFSAII (Michael W. Deem and Ramdas Pophale) SiO2 
 PCOD9163811
Probable space group: P 21/M
;
_chemical_formula_sum "Si O2"
_cell_formula_units_Z 20
_cell_length_a 20.778043
_cell_length_b 8.848998
_cell_length_c 12.787982
_cell_angle_alpha 90.000000
_cell_angle_beta 23.842702
_cell_angle_gamma 90.000000
_cell_volume 950.443214
_symmetry_space_group_name_H-M "P 21/M"
_symmetry_group_IT_number 11
_symmetry_cell_setting 'monoclinic'
loop_
_space_group_symop_operation_xyz
x,y,z
-x,1/2+y,-z
-x,-y,-z
x,1/2-y,z
loop_
_atom_site_type_symbol
_atom_site_label
_atom_site_fract_x
_atom_site_fract_y
_atom_site_fract_z
Si Si1 0.190075 0.916034 0.808186
Si Si2 0.822237 0.068592 0.779115
Si Si3 0.666639 0.927101 0.217312
Si Si4 0.812631 0.916184 0.384420
Si Si5 0.347472 0.070299 0.168002
O O1 0.251785 0.750000 0.746812
O O2 0.226828 0.041232 0.839105
O O3 0.254335 0.965388 0.599330
O O4 0.999863 0.905460 0.085653
O O5 0.832390 0.250000 0.764561
O O6 0.709650 0.011564 0.851776
O O7 0.000000 0.000000 0.500000
O O8 0.745087 0.009692 0.001647
O O9 0.651787 0.750000 0.217630
O O10 0.500000 0.000000 0.500000
O O11 0.739804 0.750000 0.473286
O O12 0.787553 0.950697 0.542647
O O13 0.368840 0.250000 0.117556
O O14 0.500000 0.000000 0.000000
#
# Coordination Sequence:
#
# PCOD9163811 Si02
#       5
#     4   4   4   4   4
#     4  10  20  37  63  93 125 164 212 265 322 388
#     4  12  26  47  73 102 137 181 232 283 343 412
#     4  12  26  44  67  96 133 175 222 276 338 400
#     4   9  20  38  61  89 125 167 212 261 318 386
#     4  11  24  42  65  95 134 177 225 277 334 397
#
# _framework density 21.042814
#
# number of rings (size 3 to 8) (size 9 to 14) (size 15 to 20)
#    0.000    1.200    0.000    6.000    2.800    4.000 
#    0.000    0.000    0.000    0.000    0.000    0.000 
#    0.000    0.000    0.000    0.000    0.000    0.000 
#
# Total GULP energy -111731.090070 kJ/mol
# GULP energy per Si atom -5586.554503 kJ/mol
# Density = 2.099492 g / cm^3
# Si number density = 21.042814 Si / 1000 Ang^3
#
#
#
# Elastic Constant Matrix: (Units=GPa)
#
#
# Indices 1 2 3 4 5 6 
#
# 1 98.6282 54.1577 20.9653 0.0000 5.3742 0.0000
# 2 54.1577 162.1156 49.7523 0.0000 3.6679 0.0000
# 3 20.9653 49.7523 67.9219 0.0000 7.9004 0.0000
# 4 0.0000 0.0000 0.0000 30.7861 0.0000 0.9530
# 5 5.3742 3.6679 7.9004 0.0000 33.3058 0.0000
# 6 0.0000 0.0000 0.0000 0.9530 0.0000 43.5463
#
#
#
# Elastic Compliance Matrix: (Units=1/GPa)
#
#
# Indices 1 2 3 4 5 6 
#
# 1 0.012535 -0.003893 -0.000855 0.000000 -0.001391 0.000000
# 2 -0.003893 0.009175 -0.005630 0.000000 0.000953 0.000000
# 3 -0.000855 -0.005630 0.019562 0.000000 -0.003882 0.000000
# 4 0.000000 0.000000 0.000000 0.032504 0.000000 -0.000711
# 5 -0.001391 0.000953 -0.003882 0.000000 0.031065 0.000000
# 6 0.000000 0.000000 0.000000 -0.000711 0.000000 0.022980
#
#
# Mechanical properties :
#
#
# Convention : Reuss Voigt Hill
#
# Bulk Modulus (GPa) = 48.74536 64.26847 56.50692
# Shear Modulus (GPa) = 32.17149 35.11366 33.64257
#
# Velocity S-wave (km/s) = 3.91430 4.08938 4.00280
# Velocity P-wave (km/s) = 6.60637 7.27361 6.94801
#
# Compressibility (1/GPa) = 0.02051477
#
# Stress axis : x y z
#
# Youngs Moduli (GPa) = 79.77899 108.98751 51.11874
#
# Poissons Ratio (x) = 0.42434 0.04372
# Poissons Ratio (y) = 0.31062 0.28780
# Poissons Ratio (z) = 0.06824 0.61360
#
# Static dielectric constant tensor:
#      x y z
#    x 1.737560 0.000000 0.023360 
#    y 0.000000 1.818780 0.000000 
#    z 0.023360 0.000000 1.734520 
# 
# From -- ./inp_files/40871.got.cif
#   From: 2010.05.17/outbox.cif.g08.bks.cpg/sg11_21_cif.got.tgz:40871.got - 2010.06.03 12:22:45.
