data_PCOD9163571
_publ_section_title
;
Structure prediction by ZEFSAII (Michael W. Deem and Ramdas Pophale) SiO2 
 PCOD9163571
Probable space group: P 21/M
;
_chemical_formula_sum "Si O2"
_cell_formula_units_Z 28
_cell_length_a 7.387527
_cell_length_b 9.123394
_cell_length_c 19.348647
_cell_angle_alpha 90.000000
_cell_angle_beta 76.497655
_cell_angle_gamma 90.000000
_cell_volume 1268.041190
_symmetry_space_group_name_H-M "P 21/M"
_symmetry_group_IT_number 11
_symmetry_cell_setting 'monoclinic'
loop_
_space_group_symop_operation_xyz
x,y,z
-x,1/2+y,-z
-x,-y,-z
x,1/2-y,z
loop_
_atom_site_type_symbol
_atom_site_label
_atom_site_fract_x
_atom_site_fract_y
_atom_site_fract_z
Si Si1 0.433842 0.575754 0.609241
Si Si2 0.110462 0.921828 0.550518
Si Si3 0.755303 0.577664 0.669177
Si Si4 0.230454 0.581863 0.916445
Si Si5 0.795342 0.423753 0.804994
Si Si6 0.193130 0.576380 0.769306
Si Si7 0.775906 0.581398 0.946305
O O1 0.448599 0.750000 0.593564
O O2 0.307135 0.513423 0.559010
O O3 0.636516 0.522288 0.613762
O O4 0.320119 0.558715 0.691108
O O5 0.131211 0.750000 0.531317
O O6 0.970872 0.929181 0.628739
O O7 0.000000 0.000000 0.500000
O O8 0.710031 0.750000 0.684388
O O9 0.713548 0.489181 0.741729
O O10 0.278918 0.750000 0.926772
O O11 0.293578 0.543306 0.833362
O O12 0.003380 0.574025 0.930956
O O13 0.291632 0.484500 0.975234
O O14 0.780446 0.250000 0.808464
O O15 0.720626 0.493742 0.882630
O O16 0.011234 0.476092 0.782122
O O17 0.136896 0.750000 0.777501
O O18 0.723734 0.750000 0.943685
#
# Coordination Sequence:
#
# PCOD9163571 Si02
#       7
#     4   4   4   4   4   4   4
#     4   9  18  35  60  85 109 145 188 225 266 324
#     4  10  21  38  60  86 116 146 181 219 264 324
#     4  10  20  37  60  82 109 147 187 225 269 324
#     4   8  14  23  40  68 101 135 176 229 280 324
#     4  11  20  30  49  77 109 143 183 232 281 325
#     4   9  16  31  53  76 105 143 186 228 275 333
#     4   9  16  26  42  66 101 143 186 229 275 330
#
# _framework density 22.081302000000001
#
# number of rings (size 3 to 8) (size 9 to 14) (size 15 to 20)
#    0.000    2.571    1.429    2.571    0.000    4.571 
#    0.000    1.429    0.000    0.857    0.000    0.000 
#    0.000    0.000    0.000    0.000    0.000    0.000 
#
# Total GULP energy -156353.400273 kJ/mol
# GULP energy per Si atom -5584.050010 kJ/mol
# Density = 2.203104 g / cm^3
# Si number density = 22.081302 Si / 1000 Ang^3
#
#
#
# Elastic Constant Matrix: (Units=GPa)
#
#
# Indices 1 2 3 4 5 6 
#
# 1 85.5736 17.4346 25.2554 0.0000 17.1581 0.0000
# 2 17.4346 83.9040 55.1381 0.0000 19.1811 0.0000
# 3 25.2554 55.1381 107.3135 0.0000 34.2481 0.0000
# 4 0.0000 0.0000 0.0000 32.7120 0.0000 11.7326
# 5 17.1581 19.1811 34.2481 0.0000 34.9718 0.0000
# 6 0.0000 0.0000 0.0000 11.7326 0.0000 8.6340
#
#
#
# Elastic Compliance Matrix: (Units=1/GPa)
#
#
# Indices 1 2 3 4 5 6 
#
# 1 0.013172 -0.000916 -0.001058 0.000000 -0.004924 0.000000
# 2 -0.000916 0.018092 -0.008810 0.000000 -0.000845 0.000000
# 3 -0.001058 -0.008810 0.018017 0.000000 -0.012294 0.000000
# 4 0.000000 0.000000 0.000000 0.059635 0.000000 -0.081037
# 5 -0.004924 -0.000845 -0.012294 0.000000 0.043513 0.000000
# 6 0.000000 0.000000 0.000000 -0.081037 0.000000 0.225941
#
#
# Mechanical properties :
#
#
# Convention : Reuss Voigt Hill
#
# Bulk Modulus (GPa) = 36.08405 52.49415 44.28910
# Shear Modulus (GPa) = 12.21967 27.19442 19.70705
#
# Velocity S-wave (km/s) = 2.35499 3.51316 2.99068
# Velocity P-wave (km/s) = 4.87561 6.34674 5.65918
#
# Compressibility (1/GPa) = 0.02771307
#
# Stress axis : x y z
#
# Youngs Moduli (GPa) = 75.91852 55.27405 55.50180
#
# Poissons Ratio (x) = 0.05065 0.05870
# Poissons Ratio (y) = 0.06957 0.48898
# Poissons Ratio (z) = 0.08029 0.48697
#
# Static dielectric constant tensor:
#      x y z
#    x 1.872580 0.000000 0.004360 
#    y 0.000000 1.738410 0.000000 
#    z 0.004360 0.000000 1.830940 
# 
# From -- ./inp_files/63069.got.cif
#   From: 2010.05.17/outbox.cif.g08.bks.cpg/sg11_32_cif.got.tgz:63069.got - 2010.06.03 12:22:45.
