data_PCOD9163694
_publ_section_title
;
Structure prediction by ZEFSAII (Michael W. Deem and Ramdas Pophale) SiO2 
 PCOD9163694
Probable space group: P 21/M
;
_chemical_formula_sum "Si O2"
_cell_formula_units_Z 28
_cell_length_a 15.056585
_cell_length_b 11.805653
_cell_length_c 10.385905
_cell_angle_alpha 90.000000
_cell_angle_beta 125.256203
_cell_angle_gamma 90.000000
_cell_volume 1507.506116
_symmetry_space_group_name_H-M "P 21/M"
_symmetry_group_IT_number 11
_symmetry_cell_setting 'monoclinic'
loop_
_space_group_symop_operation_xyz
x,y,z
-x,1/2+y,-z
-x,-y,-z
x,1/2-y,z
loop_
_atom_site_type_symbol
_atom_site_label
_atom_site_fract_x
_atom_site_fract_y
_atom_site_fract_z
Si Si1 0.218839 0.115072 0.558972
Si Si2 0.385589 0.621303 0.312407
Si Si3 0.418708 0.967266 0.623656
Si Si4 0.215216 0.379654 0.847024
Si Si5 0.524613 0.623396 0.954630
Si Si6 0.156094 0.960570 0.030959
Si Si7 0.918179 0.877844 0.803024
O O1 0.242672 0.250000 0.582139
O O2 0.324745 0.047759 0.600909
O O3 0.188085 0.082903 0.678753
O O4 0.125084 0.095070 0.375764
O O5 0.422184 0.750000 0.329505
O O6 0.474534 0.540136 0.322536
O O7 0.379858 0.589863 0.458807
O O8 0.268159 0.604360 0.149794
O O9 0.456018 0.881976 0.765896
O O10 0.177691 0.250000 0.834237
O O11 0.346553 0.379380 0.964400
O O12 0.169205 0.460000 0.917808
O O13 0.503789 0.750000 0.999257
O O14 0.500000 0.500000 0.000000
O O15 0.134208 0.038075 0.137796
O O16 0.047900 0.887251 0.921657
O O17 0.882716 0.750000 0.803358
#
# Coordination Sequence:
#
# PCOD9163694 Si02
#       7
#     4   4   4   4   4   4   4
#     4  10  20  37  61  87 118 157 199 243 297 364
#     4  11  23  36  56  87 120 154 197 249 301 354
#     4  11  21  38  56  85 120 161 195 244 294 358
#     4  10  21  37  59  87 120 154 194 245 299 361
#     4  11  22  37  59  88 124 163 203 244 296 362
#     4  11  21  39  60  86 114 150 196 251 302 356
#     4  10  22  39  61  83 111 152 200 251 301 361
#
# _framework density 18.573720999999999
#
# number of rings (size 3 to 8) (size 9 to 14) (size 15 to 20)
#    0.000    1.429    4.286    1.714    0.000    1.143 
#    0.000    0.000    0.000    0.000    0.000    0.000 
#    0.000    0.000    0.000    0.000    0.000    0.000 
#
# Total GULP energy -156237.761605 kJ/mol
# GULP energy per Si atom -5579.920057 kJ/mol
# Density = 1.853145 g / cm^3
# Si number density = 18.573721 Si / 1000 Ang^3
#
#
#
# Elastic Constant Matrix: (Units=GPa)
#
#
# Indices 1 2 3 4 5 6 
#
# 1 23.5418 11.8839 10.3938 0.0000 -0.0527 0.0000
# 2 11.8839 78.0120 22.2561 0.0000 -10.1947 0.0000
# 3 10.3938 22.2561 111.5286 0.0000 -2.7222 0.0000
# 4 0.0000 0.0000 0.0000 12.4573 0.0000 -12.2767
# 5 -0.0527 -10.1947 -2.7222 0.0000 28.5101 0.0000
# 6 0.0000 0.0000 0.0000 -12.2767 0.0000 1.6590
#
#
#
# Elastic Compliance Matrix: (Units=1/GPa)
#
#
# Indices 1 2 3 4 5 6 
#
# 1 0.047206 -0.006633 -0.003139 0.000000 -0.002584 0.000000
# 2 -0.006633 0.015158 -0.002280 0.000000 0.005190 0.000000
# 3 -0.003139 -0.002280 0.009716 0.000000 0.000107 0.000000
# 4 0.000000 0.000000 0.000000 -0.012757 0.000000 -0.094400
# 5 -0.002584 0.005190 0.000107 0.000000 0.036937 0.000000
# 6 0.000000 0.000000 0.000000 -0.094400 0.000000 -0.095789
#
#
# Mechanical properties :
#
#
# Convention : Reuss Voigt Hill
#
# Bulk Modulus (GPa) = 20.84365 33.57221 27.20793
# Shear Modulus (GPa) = 123.25303 19.76186 71.50744
#
# Velocity S-wave (km/s) = 8.15493 3.26539 6.21151
# Velocity P-wave (km/s) = 9.99585 5.68607 8.13168
#
# Compressibility (1/GPa) = 0.04797625
#
# Stress axis : x y z
#
# Youngs Moduli (GPa) = 21.18368 65.97291 102.91890
#
# Poissons Ratio (x) = 0.43763 0.32303
# Poissons Ratio (y) = 0.14052 0.23465
# Poissons Ratio (z) = 0.06649 0.15041
#
# Static dielectric constant tensor:
#      x y z
#    x 1.601400 0.000000 -0.012560 
#    y 0.000000 1.640480 0.000000 
#    z -0.012560 0.000000 1.654970 
# 
# From -- ./inp_files/21616.got.cif
#   From: 2010.05.17/outbox.cif.g08.bks.cpg/sg11_11_cif.got.tgz:21616.got - 2010.06.03 12:22:45.
