data_PCOD9163257
_publ_section_title
;
Structure prediction by ZEFSAII (Michael W. Deem and Ramdas Pophale) SiO2 
 PCOD9163257
Probable space group: P 21/M
;
_chemical_formula_sum "Si O2"
_cell_formula_units_Z 20
_cell_length_a 21.067105
_cell_length_b 9.407849
_cell_length_c 12.875287
_cell_angle_alpha 90.000000
_cell_angle_beta 23.487792
_cell_angle_gamma 90.000000
_cell_volume 1017.042076
_symmetry_space_group_name_H-M "P 21/M"
_symmetry_group_IT_number 11
_symmetry_cell_setting 'monoclinic'
loop_
_space_group_symop_operation_xyz
x,y,z
-x,1/2+y,-z
-x,-y,-z
x,1/2-y,z
loop_
_atom_site_type_symbol
_atom_site_label
_atom_site_fract_x
_atom_site_fract_y
_atom_site_fract_z
Si Si1 0.665624 0.419534 0.732166
Si Si2 0.190926 0.408399 0.300630
Si Si3 0.170051 0.921457 0.736320
Si Si4 0.644031 0.416562 0.337467
Si Si5 0.187559 0.905432 0.122714
O O1 0.647111 0.250000 0.769081
O O2 0.775417 0.482676 0.658003
O O3 0.743614 0.450249 0.502961
O O4 0.500000 0.500000 0.000000
O O5 0.255655 0.250000 0.223326
O O6 0.255026 0.474006 0.096906
O O7 0.000732 0.397550 0.576945
O O8 0.145841 0.750000 0.781090
O O9 0.286278 0.965340 0.656936
O O10 0.000000 0.000000 0.000000
O O11 0.500000 0.500000 0.500000
O O12 0.601112 0.250000 0.412048
O O13 0.782033 0.429272 0.043808
O O14 0.257222 0.750000 0.044979
#
# Coordination Sequence:
#
# PCOD9163257 Si02
#       5
#     4   4   4   4   4
#     4  11  24  40  60  89 125 161 203 252 304 363
#     4  10  20  36  60  86 116 154 197 247 300 355
#     4  10  23  43  66  92 125 163 208 257 307 370
#     4  10  22  39  59  87 122 157 198 249 302 360
#     4   9  19  36  58  85 117 153 195 243 298 359
#
# _framework density 19.664871000000002
#
# number of rings (size 3 to 8) (size 9 to 14) (size 15 to 20)
#    0.000    2.000    0.000    2.400    2.800    5.600 
#    0.000    0.000    0.000    0.000    0.000    0.000 
#    0.000    0.000    0.000    0.000    0.000    0.000 
#
# Total GULP energy -111573.058708 kJ/mol
# GULP energy per Si atom -5578.652935 kJ/mol
# Density = 1.962011 g / cm^3
# Si number density = 19.664871 Si / 1000 Ang^3
#
#
#
# Elastic Constant Matrix: (Units=GPa)
#
#
# Indices 1 2 3 4 5 6 
#
# 1 136.5714 65.4322 28.4590 0.0000 8.0550 0.0000
# 2 65.4322 94.3592 45.5034 0.0000 8.6119 0.0000
# 3 28.4590 45.5034 57.7215 0.0000 4.1080 0.0000
# 4 0.0000 0.0000 0.0000 21.2777 0.0000 -7.4037
# 5 8.0550 8.6119 4.1080 0.0000 29.9723 0.0000
# 6 0.0000 0.0000 0.0000 -7.4037 0.0000 34.6125
#
#
#
# Elastic Compliance Matrix: (Units=1/GPa)
#
#
# Indices 1 2 3 4 5 6 
#
# 1 0.011015 -0.008026 0.000952 0.000000 -0.000785 0.000000
# 2 -0.008026 0.023235 -0.014176 0.000000 -0.002576 0.000000
# 3 0.000952 -0.014176 0.028032 0.000000 -0.000025 0.000000
# 4 0.000000 0.000000 0.000000 0.050777 0.000000 0.010861
# 5 -0.000785 -0.002576 -0.000025 0.000000 0.034319 0.000000
# 6 0.000000 0.000000 0.000000 0.010861 0.000000 0.031215
#
#
# Mechanical properties :
#
#
# Convention : Reuss Voigt Hill
#
# Bulk Modulus (GPa) = 50.55048 63.04904 56.79976
# Shear Modulus (GPa) = 21.96005 27.12300 24.54152
#
# Velocity S-wave (km/s) = 3.34535 3.71787 3.53652
# Velocity P-wave (km/s) = 6.37837 7.11066 6.75445
#
# Compressibility (1/GPa) = 0.01978221
#
# Stress axis : x y z
#
# Youngs Moduli (GPa) = 90.78240 43.03943 35.67308
#
# Poissons Ratio (x) = 0.34543 -0.03396
# Poissons Ratio (y) = 0.72861 0.50570
# Poissons Ratio (z) = -0.08641 0.61013
#
# Static dielectric constant tensor:
#      x y z
#    x 1.655460 0.000000 0.059360 
#    y 0.000000 1.717980 0.000000 
#    z 0.059360 0.000000 1.599470 
# 
# From -- ./inp_files/55343.got.cif
#   From: 2010.05.17/outbox.cif.g08.bks.cpg/sg11_28_cif.got.tgz:55343.got - 2010.06.03 12:22:45.
