data_PCOD9163956
_publ_section_title
;
Structure prediction by ZEFSAII (Michael W. Deem and Ramdas Pophale) SiO2 
 PCOD9163956
Probable space group: P 21/M
;
_chemical_formula_sum "Si O2"
_cell_formula_units_Z 22
_cell_length_a 14.006286
_cell_length_b 8.404506
_cell_length_c 7.229014
_cell_angle_alpha 90.000000
_cell_angle_beta 90.785072
_cell_angle_gamma 90.000000
_cell_volume 850.890113
_symmetry_space_group_name_H-M "P 21/M"
_symmetry_group_IT_number 11
_symmetry_cell_setting 'monoclinic'
loop_
_space_group_symop_operation_xyz
x,y,z
-x,1/2+y,-z
-x,-y,-z
x,1/2-y,z
loop_
_atom_site_type_symbol
_atom_site_label
_atom_site_fract_x
_atom_site_fract_y
_atom_site_fract_z
Si Si1 0.605820 0.250000 0.240659
Si Si2 0.873258 0.567493 0.833387
Si Si3 0.065500 0.433928 0.734195
Si Si4 0.474290 0.750000 0.369040
Si Si5 0.672103 0.514211 0.747724
Si Si6 0.727956 0.932386 0.341864
Si Si7 0.426548 0.250000 0.985464
O O1 0.529395 0.250000 0.410137
O O2 0.668415 0.413540 0.259839
O O3 0.535319 0.250000 0.064351
O O4 0.842822 0.750000 0.796711
O O5 0.779150 0.461021 0.803264
O O6 0.966457 0.527544 0.716132
O O7 0.904925 0.556599 0.047479
O O8 0.046055 0.250000 0.688133
O O9 0.161969 0.490288 0.638704
O O10 0.411537 0.603811 0.303836
O O11 0.564344 0.750000 0.236198
O O12 0.687891 0.589724 0.546552
O O13 0.630577 0.607350 0.921542
O O14 0.741420 0.750000 0.258645
#
# Coordination Sequence:
#
# PCOD9163956 Si02
#       7
#     2   4   4   2   4   4   2
#     4  10  26  44  69 103 132 181 227 282 335 402
#     4  10  20  38  61  90 130 168 212 271 324 404
#     4   9  21  37  61  97 123 170 216 261 336 397
#     4  10  26  44  66  99 130 173 232 280 334 403
#     4  11  23  44  62  94 130 169 222 273 338 397
#     4  10  21  44  66  97 136 171 221 277 336 401
#     4  12  24  48  67  98 132 176 227 282 341 397
#
# _framework density 25.855277999999998
#
# number of rings (size 3 to 8) (size 9 to 14) (size 15 to 20)
#    0.000    1.818    1.818    0.545    5.091    3.636 
#    4.909    0.000    0.000    0.000    0.000    0.000 
#    0.000    0.000    0.000    0.000    0.000    0.000 
#
# Total GULP energy -122917.703614 kJ/mol
# GULP energy per Si atom -5587.168346 kJ/mol
# Density = 2.579643 g / cm^3
# Si number density = 25.855278 Si / 1000 Ang^3
#
#
#
# Elastic Constant Matrix: (Units=GPa)
#
#
# Indices 1 2 3 4 5 6 
#
# 1 140.7831 17.6878 21.6441 0.0000 -10.4843 0.0000
# 2 17.6878 67.3481 30.9246 0.0000 -3.2306 0.0000
# 3 21.6441 30.9246 114.3336 0.0000 -14.0308 0.0000
# 4 0.0000 0.0000 0.0000 29.7418 0.0000 -0.8381
# 5 -10.4843 -3.2306 -14.0308 0.0000 50.9486 0.0000
# 6 0.0000 0.0000 0.0000 -0.8381 0.0000 34.7699
#
#
#
# Elastic Compliance Matrix: (Units=1/GPa)
#
#
# Indices 1 2 3 4 5 6 
#
# 1 0.007517 -0.001520 -0.000863 0.000000 0.001213 0.000000
# 2 -0.001520 0.017263 -0.004435 0.000000 -0.000440 0.000000
# 3 -0.000863 -0.004435 0.010405 0.000000 0.002407 0.000000
# 4 0.000000 0.000000 0.000000 0.033646 0.000000 0.000811
# 5 0.001213 -0.000440 0.002407 0.000000 0.020512 0.000000
# 6 0.000000 0.000000 0.000000 0.000811 0.000000 0.028780
#
#
# Mechanical properties :
#
#
# Convention : Reuss Voigt Hill
#
# Bulk Modulus (GPa) = 46.40784 51.44196 48.92490
# Shear Modulus (GPa) = 35.98628 39.90594 37.94611
#
# Velocity S-wave (km/s) = 3.73478 3.93292 3.83513
# Velocity P-wave (km/s) = 6.04865 6.36892 6.21085
#
# Compressibility (1/GPa) = 0.02154808
#
# Stress axis : x y z
#
# Youngs Moduli (GPa) = 133.03037 57.92758 96.10998
#
# Poissons Ratio (x) = 0.08803 0.08296
# Poissons Ratio (y) = 0.20217 0.42629
# Poissons Ratio (z) = 0.11482 0.25694
#
# Static dielectric constant tensor:
#      x y z
#    x 1.999480 0.000000 0.017650 
#    y 0.000000 2.035070 0.000000 
#    z 0.017650 0.000000 2.051450 
# 
# From -- ./inp_files/20437.got.cif
#   From: 2010.05.17/outbox.cif.g08.bks.cpg/sg11_11_cif.got.tgz:20437.got - 2010.06.03 12:22:45.
