data_PCOD9163877
_publ_section_title
;
Structure prediction by ZEFSAII (Michael W. Deem and Ramdas Pophale) SiO2 
 PCOD9163877
Probable space group: P 21/M
;
_chemical_formula_sum "Si O2"
_cell_formula_units_Z 32
_cell_length_a 7.180060
_cell_length_b 23.505510
_cell_length_c 12.743538
_cell_angle_alpha 90.000000
_cell_angle_beta 144.247877
_cell_angle_gamma 90.000000
_cell_volume 1256.633390
_symmetry_space_group_name_H-M "P 21/M"
_symmetry_group_IT_number 11
_symmetry_cell_setting 'monoclinic'
loop_
_space_group_symop_operation_xyz
x,y,z
-x,1/2+y,-z
-x,-y,-z
x,1/2-y,z
loop_
_atom_site_type_symbol
_atom_site_label
_atom_site_fract_x
_atom_site_fract_y
_atom_site_fract_z
Si Si1 0.833970 0.901222 0.831819
Si Si2 0.106818 0.142722 0.519225
Si Si3 0.652736 0.187802 0.460855
Si Si4 0.741693 0.018311 0.703157
Si Si5 0.628877 0.422988 0.174368
Si Si6 0.888898 0.864049 0.166818
Si Si7 0.285775 0.032231 0.689613
Si Si8 0.782459 0.185716 0.872737
O O1 0.605639 0.862127 0.655739
O O2 0.925204 0.960244 0.818191
O O3 0.610104 0.916044 0.831997
O O4 0.125632 0.862103 0.000920
O O5 0.163556 0.096302 0.639204
O O6 0.442857 0.173226 0.662496
O O7 0.825222 0.183791 0.426699
O O8 0.964351 0.105789 0.359267
O O9 0.513759 0.250000 0.415389
O O10 0.945037 0.175543 0.671854
O O11 0.500000 0.000000 0.500000
O O12 0.566302 0.033502 0.732545
O O13 0.917388 0.076112 0.752880
O O14 0.657287 0.491502 0.185536
O O15 0.468004 0.387885 0.007892
O O16 0.949994 0.825495 0.091706
O O17 0.000000 0.000000 0.500000
O O18 0.786224 0.250000 0.914724
#
# Coordination Sequence:
#
# PCOD9163877 Si02
#       8
#     4   4   4   4   4   4   4   4
#     4   9  20  36  60  85 115 151 193 239 295 354
#     4  10  20  38  59  84 112 153 198 242 292 348
#     4  11  22  40  58  80 116 161 198 239 293 356
#     4  11  20  35  60  93 122 151 193 246 303 357
#     4   8  19  35  58  84 114 153 189 232 291 359
#     4  11  22  37  60  89 120 151 199 245 294 352
#     4   9  18  34  57  82 118 151 188 234 294 353
#     4  11  22  38  60  88 113 150 202 250 290 345
#
# _framework density 25.464866000000001
#
# number of rings (size 3 to 8) (size 9 to 14) (size 15 to 20)
#    0.000    2.000    2.500    1.875    1.750    1.500 
#    0.000    6.250    0.000    0.000    0.000    0.000 
#    0.000    0.000    0.000    0.000    0.000    0.000 
#
# Total GULP energy -178858.055770 kJ/mol
# GULP energy per Si atom -5589.314243 kJ/mol
# Density = 2.540691 g / cm^3
# Si number density = 25.464866 Si / 1000 Ang^3
#
#
#
# Elastic Constant Matrix: (Units=GPa)
#
#
# Indices 1 2 3 4 5 6 
#
# 1 57.8739 12.7140 -7.6320 0.0000 -1.2769 0.0000
# 2 12.7140 133.1533 14.1422 0.0000 7.1167 0.0000
# 3 -7.6320 14.1422 105.9206 0.0000 5.2182 0.0000
# 4 0.0000 0.0000 0.0000 23.6039 0.0000 0.3606
# 5 -1.2769 7.1167 5.2182 0.0000 26.8638 0.0000
# 6 0.0000 0.0000 0.0000 0.3606 0.0000 21.1886
#
#
#
# Elastic Compliance Matrix: (Units=1/GPa)
#
#
# Indices 1 2 3 4 5 6 
#
# 1 0.017923 -0.001928 0.001496 0.000000 0.001072 0.000000
# 2 -0.001928 0.007916 -0.001099 0.000000 -0.001975 0.000000
# 3 0.001496 -0.001099 0.009771 0.000000 -0.001536 0.000000
# 4 0.000000 0.000000 0.000000 0.042377 0.000000 -0.000721
# 5 0.001072 -0.001975 -0.001536 0.000000 0.038098 0.000000
# 6 0.000000 0.000000 0.000000 -0.000721 0.000000 0.047207
#
#
# Mechanical properties :
#
#
# Convention : Reuss Voigt Hill
#
# Bulk Modulus (GPa) = 30.72130 37.26626 33.99378
# Shear Modulus (GPa) = 28.21618 32.84615 30.53117
#
# Velocity S-wave (km/s) = 3.33234 3.59536 3.46635
# Velocity P-wave (km/s) = 5.18617 5.64815 5.42208
#
# Compressibility (1/GPa) = 0.03255070
#
# Stress axis : x y z
#
# Youngs Moduli (GPa) = 55.79314 126.31921 102.34194
#
# Poissons Ratio (x) = 0.24349 -0.15310
# Poissons Ratio (y) = 0.10755 0.11243
# Poissons Ratio (z) = -0.08347 0.13877
#
# Static dielectric constant tensor:
#      x y z
#    x 2.126670 0.000000 -0.014520 
#    y 0.000000 1.984500 0.000000 
#    z -0.014520 0.000000 2.045980 
# 
# From -- ./inp_files/48486.got.cif
#   From: 2010.05.17/outbox.cif.g08.bks.cpg/sg11_25_cif.got.tgz:48486.got - 2010.06.03 12:22:45.
