data_PCOD9163002
_publ_section_title
;
Structure prediction by ZEFSAII (Michael W. Deem and Ramdas Pophale) SiO2 
 PCOD9163002
Probable space group: P 21/M
;
_chemical_formula_sum "Si O2"
_cell_formula_units_Z 32
_cell_length_a 12.046537
_cell_length_b 7.965373
_cell_length_c 29.303955
_cell_angle_alpha 90.000000
_cell_angle_beta 148.613941
_cell_angle_gamma 90.000000
_cell_volume 1464.425097
_symmetry_space_group_name_H-M "P 21/M"
_symmetry_group_IT_number 11
_symmetry_cell_setting 'monoclinic'
loop_
_space_group_symop_operation_xyz
x,y,z
-x,1/2+y,-z
-x,-y,-z
x,1/2-y,z
loop_
_atom_site_type_symbol
_atom_site_label
_atom_site_fract_x
_atom_site_fract_y
_atom_site_fract_z
Si Si1 0.890587 0.952019 0.009445
Si Si2 0.611821 0.943669 0.332192
Si Si3 0.382780 0.548332 0.412185
Si Si4 0.045092 0.048946 0.783264
Si Si5 0.165524 0.555384 0.674627
Si Si6 0.850476 0.944339 0.810654
Si Si7 0.597012 0.048630 0.154752
Si Si8 0.244002 0.044203 0.522595
O O1 0.893472 0.750000 0.014058
O O2 0.645125 0.012032 0.926326
O O3 0.017406 0.024025 0.097017
O O4 0.000000 0.000000 0.000000
O O5 0.668182 0.750000 0.343116
O O6 0.749741 0.011950 0.422937
O O7 0.655188 0.043816 0.301434
O O8 0.367907 0.952630 0.262220
O O9 0.500000 0.500000 0.500000
O O10 0.374003 0.750000 0.408514
O O11 0.538636 0.493573 0.426084
O O12 0.144243 0.486537 0.317442
O O13 0.044284 0.250000 0.782201
O O14 0.273447 0.988734 0.845624
O O15 0.982482 0.992492 0.811988
O O16 0.115077 0.750000 0.666595
O O17 0.258937 0.477899 0.753277
O O18 0.953595 0.482867 0.576933
O O19 0.790553 0.750000 0.786593
O O20 0.585987 0.250000 0.156431
O O21 0.238726 0.250000 0.522097
#
# Coordination Sequence:
#
# PCOD9163002 Si02
#       8
#     4   4   4   4   4   4   4   4
#     4  11  24  44  70 100 132 166 207 257 314 377
#     4  11  21  37  59  86 124 164 207 259 314 373
#     4  10  20  36  57  84 120 163 210 257 309 364
#     4  11  23  41  65  92 126 164 209 262 314 372
#     4  10  20  36  59  88 123 164 207 254 310 375
#     4  12  25  42  66  93 124 166 214 264 319 379
#     4  10  23  42  64  91 126 163 203 252 311 375
#     4   9  18  34  55  81 121 163 201 250 309 369
#
# _framework density 21.851578
#
# number of rings (size 3 to 8) (size 9 to 14) (size 15 to 20)
#    0.000    1.500    1.250    4.125    0.000    5.000 
#    0.000    1.250    0.000    0.000    0.000    0.000 
#    0.000    0.000    0.000    0.000    0.000    0.000 
#
# Total GULP energy -178893.196901 kJ/mol
# GULP energy per Si atom -5590.412403 kJ/mol
# Density = 2.180184 g / cm^3
# Si number density = 21.851578 Si / 1000 Ang^3
#
#
#
# Elastic Constant Matrix: (Units=GPa)
#
#
# Indices 1 2 3 4 5 6 
#
# 1 94.0393 -21.7960 41.6468 0.0000 18.4380 0.0000
# 2 -21.7960 30.5720 0.1455 0.0000 5.1136 0.0000
# 3 41.6468 0.1455 110.3744 0.0000 4.0856 0.0000
# 4 0.0000 0.0000 0.0000 15.8374 0.0000 -1.0788
# 5 18.4380 5.1136 4.0856 0.0000 35.8726 0.0000
# 6 0.0000 0.0000 0.0000 -1.0788 0.0000 22.9439
#
#
#
# Elastic Compliance Matrix: (Units=1/GPa)
#
#
# Indices 1 2 3 4 5 6 
#
# 1 0.019763 0.016072 -0.007047 0.000000 -0.011646 0.000000
# 2 0.016072 0.046580 -0.005598 0.000000 -0.014263 0.000000
# 3 -0.007047 -0.005598 0.011612 0.000000 0.003098 0.000000
# 4 0.000000 0.000000 0.000000 0.063344 0.000000 0.002978
# 5 -0.011646 -0.014263 0.003098 0.000000 0.035543 0.000000
# 6 0.000000 0.000000 0.000000 0.002978 0.000000 0.043725
#
#
# Mechanical properties :
#
#
# Convention : Reuss Voigt Hill
#
# Bulk Modulus (GPa) = 11.79122 30.55315 21.17218
# Shear Modulus (GPa) = 20.66257 29.26342 24.96300
#
# Velocity S-wave (km/s) = 3.07838 3.66346 3.38359
# Velocity P-wave (km/s) = 4.24770 5.64864 4.99750
#
# Compressibility (1/GPa) = 0.08480888
#
# Stress axis : x y z
#
# Youngs Moduli (GPa) = 50.59874 21.46836 86.11870
#
# Poissons Ratio (x) = -0.34503 0.60690
# Poissons Ratio (y) = -0.81321 0.48206
# Poissons Ratio (z) = 0.35658 0.12017
#
# Static dielectric constant tensor:
#      x y z
#    x 1.784880 0.000000 0.006430 
#    y 0.000000 1.788420 0.000000 
#    z 0.006430 0.000000 1.819310 
# 
# From -- ./inp_files/73172.got.cif
#   From: 2010.05.17/outbox.cif.g08.bks.cpg/sg11_37_cif.got.tgz:73172.got - 2010.06.03 12:22:45.
