data_PCOD9163453
_publ_section_title
;
Structure prediction by ZEFSAII (Michael W. Deem and Ramdas Pophale) SiO2 
 PCOD9163453
Probable space group: P 21/M
;
_chemical_formula_sum "Si O2"
_cell_formula_units_Z 32
_cell_length_a 7.509113
_cell_length_b 12.769162
_cell_length_c 15.314975
_cell_angle_alpha 90.000000
_cell_angle_beta 80.586568
_cell_angle_gamma 90.000000
_cell_volume 1448.702863
_symmetry_space_group_name_H-M "P 21/M"
_symmetry_group_IT_number 11
_symmetry_cell_setting 'monoclinic'
loop_
_space_group_symop_operation_xyz
x,y,z
-x,1/2+y,-z
-x,-y,-z
x,1/2-y,z
loop_
_atom_site_type_symbol
_atom_site_label
_atom_site_fract_x
_atom_site_fract_y
_atom_site_fract_z
Si Si1 0.310027 0.515949 0.397477
Si Si2 0.060660 0.365740 0.317368
Si Si3 0.296039 0.551180 0.592752
Si Si4 0.646408 0.371283 0.141339
Si Si5 0.714255 0.367644 0.942808
Si Si6 0.968843 0.971712 0.846670
Si Si7 0.835413 0.866139 0.288552
Si Si8 0.483506 0.917966 0.218286
O O1 0.146989 0.444477 0.379249
O O2 0.274656 0.571310 0.492129
O O3 0.493225 0.447873 0.399498
O O4 0.352768 0.590053 0.311928
O O5 0.113696 0.250000 0.336525
O O6 0.842763 0.379184 0.340575
O O7 0.122821 0.391538 0.213668
O O8 0.232982 0.432958 0.623223
O O9 0.631494 0.250000 0.171124
O O10 0.853591 0.413222 0.132716
O O11 0.530696 0.458727 0.200322
O O12 0.603724 0.375830 0.041423
O O13 0.800159 0.250000 0.937835
O O14 0.595297 0.375688 0.865065
O O15 0.848692 0.467023 0.925845
O O16 0.021009 0.065099 0.775108
O O17 0.894431 0.750000 0.305472
O O18 0.667646 0.865275 0.234781
#
# Coordination Sequence:
#
# PCOD9163453 Si02
#       8
#     4   4   4   4   4   4   4   4
#     4  10  20  39  60  83 118 156 192 242 295 346
#     4  11  22  37  60  87 120 158 197 240 292 351
#     4   9  21  38  60  84 121 155 191 243 295 346
#     4  10  22  38  58  82 114 153 194 239 298 357
#     4  11  21  36  58  85 113 149 193 242 298 356
#     4  10  20  37  56  81 117 150 190 241 288 347
#     4   9  18  34  57  82 109 149 190 233 291 349
#     4  10  20  37  58  82 115 147 190 247 292 349
#
# _framework density 22.088726999999999
#
# number of rings (size 3 to 8) (size 9 to 14) (size 15 to 20)
#    0.000    2.000    1.250    3.000    0.000    1.500 
#    0.000    5.625    0.000    5.250    0.000    0.000 
#    0.000    0.000    0.000    0.000    0.000    0.000 
#
# Total GULP energy -178589.124804 kJ/mol
# GULP energy per Si atom -5580.910150 kJ/mol
# Density = 2.203845 g / cm^3
# Si number density = 22.088727 Si / 1000 Ang^3
#
#
#
# Elastic Constant Matrix: (Units=GPa)
#
#
# Indices 1 2 3 4 5 6 
#
# 1 25.9291 -8.2670 -10.5954 0.0000 6.4380 0.0000
# 2 -8.2670 78.8034 5.5356 0.0000 -5.9760 0.0000
# 3 -10.5954 5.5356 110.0107 0.0000 7.2503 0.0000
# 4 0.0000 0.0000 0.0000 13.4700 0.0000 0.7968
# 5 6.4380 -5.9760 7.2503 0.0000 30.4368 0.0000
# 6 0.0000 0.0000 0.0000 0.7968 0.0000 8.4474
#
#
#
# Elastic Compliance Matrix: (Units=1/GPa)
#
#
# Indices 1 2 3 4 5 6 
#
# 1 0.044039 0.003551 0.004705 0.000000 -0.009739 0.000000
# 2 0.003551 0.013243 -0.000453 0.000000 0.001957 0.000000
# 3 0.004705 -0.000453 0.009791 0.000000 -0.003416 0.000000
# 4 0.000000 0.000000 0.000000 0.074656 0.000000 -0.007042
# 5 -0.009739 0.001957 -0.003416 0.000000 0.036113 0.000000
# 6 0.000000 0.000000 0.000000 -0.007042 0.000000 0.119045
#
#
# Mechanical properties :
#
#
# Convention : Reuss Voigt Hill
#
# Bulk Modulus (GPa) = 12.09516 20.89886 16.49701
# Shear Modulus (GPa) = 16.18957 25.67550 20.93254
#
# Velocity S-wave (km/s) = 2.71021 3.41307 3.08174
# Velocity P-wave (km/s) = 3.90913 5.00139 4.48861
#
# Compressibility (1/GPa) = 0.08267767
#
# Stress axis : x y z
#
# Youngs Moduli (GPa) = 22.70698 75.51401 102.13343
#
# Poissons Ratio (x) = -0.26815 -0.48050
# Poissons Ratio (y) = -0.08063 0.04630
# Poissons Ratio (z) = -0.10683 0.03423
#
# Static dielectric constant tensor:
#      x y z
#    x 1.851640 0.000000 -0.005260 
#    y 0.000000 1.842830 0.000000 
#    z -0.005260 0.000000 1.801940 
# 
# From -- ./inp_files/47192.got.cif
#   From: 2010.05.17/outbox.cif.g08.bks.cpg/sg11_24_cif.got.tgz:47192.got - 2010.06.03 12:22:45.
