data_PCOD9163794
_publ_section_title
;
Structure prediction by ZEFSAII (Michael W. Deem and Ramdas Pophale) SiO2 
 PCOD9163794
Probable space group: P 21/M
;
_chemical_formula_sum "Si O2"
_cell_formula_units_Z 32
_cell_length_a 20.222418
_cell_length_b 9.024252
_cell_length_c 25.790783
_cell_angle_alpha 90.000000
_cell_angle_beta 158.243606
_cell_angle_gamma 90.000000
_cell_volume 1744.559635
_symmetry_space_group_name_H-M "P 21/M"
_symmetry_group_IT_number 11
_symmetry_cell_setting 'monoclinic'
loop_
_space_group_symop_operation_xyz
x,y,z
-x,1/2+y,-z
-x,-y,-z
x,1/2-y,z
loop_
_atom_site_type_symbol
_atom_site_label
_atom_site_fract_x
_atom_site_fract_y
_atom_site_fract_z
Si Si1 0.641016 0.576187 0.065332
Si Si2 0.149479 0.428178 0.571704
Si Si3 0.830857 0.572083 0.628262
Si Si4 0.529569 0.072696 0.577002
Si Si5 0.050551 0.924534 0.391876
Si Si6 0.066844 0.572205 0.101598
Si Si7 0.103018 0.572246 0.920822
Si Si8 0.442528 0.927851 0.103963
O O1 0.602757 0.750000 0.033066
O O2 0.837165 0.558559 0.232033
O O3 0.500000 0.500000 0.000000
O O4 0.627683 0.503040 0.999315
O O5 0.133191 0.250000 0.561752
O O6 0.119355 0.487401 0.491782
O O7 0.351576 0.467677 0.735977
O O8 0.000000 0.500000 0.500000
O O9 0.840730 0.750000 0.627127
O O10 0.633793 0.532055 0.504681
O O11 0.874123 0.488908 0.606863
O O12 0.971079 0.536562 0.776466
O O13 0.522986 0.250000 0.566034
O O14 0.724554 0.033118 0.739508
O O15 0.500000 0.000000 0.500000
O O16 0.091065 0.750000 0.426526
O O17 0.050586 0.750000 0.087736
O O18 0.961497 0.510022 0.074730
O O19 0.000000 0.500000 0.000000
O O20 0.091848 0.750000 0.921068
O O21 0.304032 0.534936 0.049117
O O22 0.434047 0.750000 0.091129
#
# Coordination Sequence:
#
# PCOD9163794 Si02
#       8
#     4   4   4   4   4   4   4   4
#     4  11  23  37  58  87 118 152 194 243 291 348
#     4  11  24  42  63  87 120 159 199 244 298 356
#     4  10  20  37  63  90 118 156 199 245 299 354
#     4  10  21  37  60  89 118 155 201 247 295 351
#     4  11  24  40  59  88 122 155 196 245 294 349
#     4  11  24  40  60  88 125 162 200 246 295 350
#     4  10  20  38  64  89 119 156 196 245 300 356
#     4  10  22  40  62  88 117 154 197 243 297 355
#
# _framework density 18.342738000000001
#
# number of rings (size 3 to 8) (size 9 to 14) (size 15 to 20)
#    0.000    1.500    2.500    2.250    0.000    8.500 
#    0.000    5.000    0.000    0.000    0.000    0.000 
#    0.000    0.000    0.000    0.000    0.000    0.000 
#
# Total GULP energy -178825.184860 kJ/mol
# GULP energy per Si atom -5588.287027 kJ/mol
# Density = 1.830099 g / cm^3
# Si number density = 18.342738 Si / 1000 Ang^3
#
#
#
# Elastic Constant Matrix: (Units=GPa)
#
#
# Indices 1 2 3 4 5 6 
#
# 1 65.4314 11.3177 18.2381 0.0000 8.4292 0.0000
# 2 11.3177 21.4715 30.2731 0.0000 2.0672 0.0000
# 3 18.2381 30.2731 89.3304 0.0000 6.5688 0.0000
# 4 0.0000 0.0000 0.0000 28.3732 0.0000 -1.5453
# 5 8.4292 2.0672 6.5688 0.0000 39.6514 0.0000
# 6 0.0000 0.0000 0.0000 -1.5453 0.0000 38.8270
#
#
#
# Elastic Compliance Matrix: (Units=1/GPa)
#
#
# Indices 1 2 3 4 5 6 
#
# 1 0.017228 -0.007938 -0.000596 0.000000 -0.003150 0.000000
# 2 -0.007938 0.092850 -0.029979 0.000000 0.001813 0.000000
# 3 -0.000596 -0.029979 0.021614 0.000000 -0.001891 0.000000
# 4 0.000000 0.000000 0.000000 0.035321 0.000000 0.001406
# 5 -0.003150 0.001813 -0.001891 0.000000 0.026108 0.000000
# 6 0.000000 0.000000 0.000000 0.001406 0.000000 0.025811
#
#
# Mechanical properties :
#
#
# Convention : Reuss Voigt Hill
#
# Bulk Modulus (GPa) = 18.29209 32.87679 25.58444
# Shear Modulus (GPa) = 15.91446 29.13062 22.52254
#
# Velocity S-wave (km/s) = 2.94873 3.98946 3.50790
# Velocity P-wave (km/s) = 4.64622 6.25967 5.51230
#
# Compressibility (1/GPa) = 0.05466843
#
# Stress axis : x y z
#
# Youngs Moduli (GPa) = 58.04500 10.77006 46.26532
#
# Poissons Ratio (x) = 0.08549 0.02756
# Poissons Ratio (y) = 0.46075 1.38697
# Poissons Ratio (z) = 0.03458 0.32287
#
# Static dielectric constant tensor:
#      x y z
#    x 1.595760 0.000000 0.017660 
#    y 0.000000 1.616270 0.000000 
#    z 0.017660 0.000000 1.616600 
# 
# From -- ./inp_files/72202.got.cif
#   From: 2010.05.17/outbox.cif.g08.bks.cpg/sg11_37_cif.got.tgz:72202.got - 2010.06.03 12:22:45.
