data_PCOD9163198
_publ_section_title
;
Structure prediction by ZEFSAII (Michael W. Deem and Ramdas Pophale) SiO2 
 PCOD9163198
Probable space group: P 21/M
;
_chemical_formula_sum "Si O2"
_cell_formula_units_Z 28
_cell_length_a 14.012459
_cell_length_b 8.864204
_cell_length_c 17.810278
_cell_angle_alpha 90.000000
_cell_angle_beta 135.840939
_cell_angle_gamma 90.000000
_cell_volume 1541.136500
_symmetry_space_group_name_H-M "P 21/M"
_symmetry_group_IT_number 11
_symmetry_cell_setting 'monoclinic'
loop_
_space_group_symop_operation_xyz
x,y,z
-x,1/2+y,-z
-x,-y,-z
x,1/2-y,z
loop_
_atom_site_type_symbol
_atom_site_label
_atom_site_fract_x
_atom_site_fract_y
_atom_site_fract_z
Si Si1 0.661422 0.429582 0.828033
Si Si2 0.833882 0.930115 0.053363
Si Si3 0.851409 0.069210 0.794165
Si Si4 0.625828 0.070068 0.381084
Si Si5 0.202471 0.070141 0.393156
Si Si6 0.858762 0.069780 0.389837
Si Si7 0.093094 0.069488 0.737366
O O1 0.641352 0.250000 0.817354
O O2 0.772655 0.465885 0.826039
O O3 0.520667 0.510444 0.727556
O O4 0.722891 0.485006 0.941350
O O5 0.817480 0.750000 0.034450
O O6 0.833106 0.963081 0.141850
O O7 0.987711 0.971228 0.112825
O O8 0.844816 0.250000 0.777080
O O9 0.785867 0.986237 0.685800
O O10 0.623304 0.250000 0.390416
O O11 0.737819 0.035336 0.379835
O O12 0.677561 0.991221 0.486230
O O13 0.195492 0.250000 0.392455
O O14 0.059470 0.999639 0.342430
O O15 0.873016 0.250000 0.392645
O O16 0.834876 0.000354 0.294289
O O17 0.000000 0.000000 0.500000
O O18 0.080391 0.250000 0.722542
#
# Coordination Sequence:
#
# PCOD9163198 Si02
#       7
#     4   4   4   4   4   4   4
#     4  11  23  38  58  84 114 151 194 239 283 335
#     4   9  19  37  60  84 114 151 188 231 285 339
#     4   9  20  38  59  84 115 150 190 236 286 336
#     4  11  24  40  57  80 117 156 188 230 288 345
#     4  11  21  34  57  87 115 147 190 236 283 338
#     4  11  22  36  60  88 114 148 189 235 285 341
#     4  10  20  36  59  87 118 149 185 234 287 336
#
# _framework density 18.168410000000002
#
# number of rings (size 3 to 8) (size 9 to 14) (size 15 to 20)
#    0.000    1.714    1.429    4.286    0.000    6.286 
#    0.000    0.714    0.000    0.000    0.000    0.000 
#    0.000    0.000    0.000    0.000    0.000    0.000 
#
# Total GULP energy -156458.753482 kJ/mol
# GULP energy per Si atom -5587.812624 kJ/mol
# Density = 1.812706 g / cm^3
# Si number density = 18.168410 Si / 1000 Ang^3
#
#
#
# Elastic Constant Matrix: (Units=GPa)
#
#
# Indices 1 2 3 4 5 6 
#
# 1 15.6618 12.7404 15.6066 0.0000 -12.5449 0.0000
# 2 12.7404 45.8520 39.8694 0.0000 -7.4532 0.0000
# 3 15.6066 39.8694 121.1553 0.0000 -7.5485 0.0000
# 4 0.0000 0.0000 0.0000 31.9439 0.0000 -5.0447
# 5 -12.5449 -7.4532 -7.5485 0.0000 18.8161 0.0000
# 6 0.0000 0.0000 0.0000 -5.0447 0.0000 27.8815
#
#
#
# Elastic Compliance Matrix: (Units=1/GPa)
#
#
# Indices 1 2 3 4 5 6 
#
# 1 0.174982 -0.024921 -0.007883 0.000000 0.103629 0.000000
# 2 -0.024921 0.035411 -0.008825 0.000000 -0.006129 0.000000
# 3 -0.007883 -0.008825 0.011926 0.000000 -0.003967 0.000000
# 4 0.000000 0.000000 0.000000 0.032226 0.000000 0.005831
# 5 0.103629 -0.006129 -0.003967 0.000000 0.118218 0.000000
# 6 0.000000 0.000000 0.000000 0.005831 0.000000 0.036921
#
#
# Mechanical properties :
#
#
# Convention : Reuss Voigt Hill
#
# Bulk Modulus (GPa) = 7.19103 35.45577 21.32340
# Shear Modulus (GPa) = 9.27136 23.35848 16.31492
#
# Velocity S-wave (km/s) = 2.26144 3.58951 2.99989
# Velocity P-wave (km/s) = 3.28411 6.06109 4.87454
#
# Compressibility (1/GPa) = 0.13906216
#
# Stress axis : x y z
#
# Youngs Moduli (GPa) = 5.71486 28.23998 83.84977
#
# Poissons Ratio (x) = 0.70378 0.66097
# Poissons Ratio (y) = 0.14242 0.73993
# Poissons Ratio (z) = 0.04505 0.24920
#
# Static dielectric constant tensor:
#      x y z
#    x 1.617600 0.000000 -0.014350 
#    y 0.000000 1.599180 0.000000 
#    z -0.014350 0.000000 1.600950 
# 
# From -- ./inp_files/60121.got.cif
#   From: 2010.05.17/outbox.cif.g08.bks.cpg/sg11_31_cif.got.tgz:60121.got - 2010.06.03 12:22:45.
