data_PCOD9163348
_publ_section_title
;
Structure prediction by ZEFSAII (Michael W. Deem and Ramdas Pophale) SiO2 
 PCOD9163348
Probable space group: P 21/M
;
_chemical_formula_sum "Si O2"
_cell_formula_units_Z 28
_cell_length_a 9.615177
_cell_length_b 7.912162
_cell_length_c 28.075651
_cell_angle_alpha 90.000000
_cell_angle_beta 38.283225
_cell_angle_gamma 90.000000
_cell_volume 1323.299405
_symmetry_space_group_name_H-M "P 21/M"
_symmetry_group_IT_number 11
_symmetry_cell_setting 'monoclinic'
loop_
_space_group_symop_operation_xyz
x,y,z
-x,1/2+y,-z
-x,-y,-z
x,1/2-y,z
loop_
_atom_site_type_symbol
_atom_site_label
_atom_site_fract_x
_atom_site_fract_y
_atom_site_fract_z
Si Si1 0.256940 0.553771 0.428877
Si Si2 0.462856 0.457189 0.735200
Si Si3 0.051532 0.545681 0.126409
Si Si4 0.288011 0.957255 0.160648
Si Si5 0.795894 0.950093 0.019923
Si Si6 0.708545 0.951416 0.475789
Si Si7 0.853307 0.455976 0.699609
O O1 0.253622 0.750000 0.418722
O O2 0.408368 0.478322 0.346488
O O3 0.341780 0.523634 0.458853
O O4 0.000000 0.500000 0.500000
O O5 0.454125 0.250000 0.737594
O O6 0.619122 0.505183 0.737676
O O7 0.206610 0.514414 0.804413
O O8 0.050685 0.750000 0.128463
O O9 0.184577 0.487146 0.137860
O O10 0.155522 0.494923 0.047996
O O11 0.287785 0.750000 0.160026
O O12 0.545220 0.016007 0.098552
O O13 0.146388 0.009074 0.245359
O O14 0.781159 0.750000 0.028241
O O15 0.000000 0.000000 0.000000
O O16 0.730107 0.750000 0.474811
O O17 0.938454 0.014069 0.388977
O O18 0.500000 0.000000 0.500000
O O19 0.862030 0.250000 0.696902
#
# Coordination Sequence:
#
# PCOD9163348 Si02
#       7
#     4   4   4   4   4   4   4
#     4  11  21  37  60  87 117 155 199 245 296 348
#     4   9  18  33  57  85 112 149 196 235 276 343
#     4  10  20  36  61  89 114 145 189 235 282 340
#     4   9  19  34  58  87 114 147 189 233 277 336
#     4  11  22  38  60  86 117 151 189 232 282 338
#     4  11  23  38  58  84 117 154 198 249 298 350
#     4   9  17  33  55  81 111 147 193 236 273 334
#
# _framework density 21.159233
#
# number of rings (size 3 to 8) (size 9 to 14) (size 15 to 20)
#    0.000    2.000    1.429    2.571    2.000    2.286 
#    0.000    2.143    0.000    2.571    0.000    0.000 
#    0.000    0.000    0.000    0.000    0.000    0.000 
#
# Total GULP energy -156329.113704 kJ/mol
# GULP energy per Si atom -5583.182632 kJ/mol
# Density = 2.111107 g / cm^3
# Si number density = 21.159233 Si / 1000 Ang^3
#
#
#
# Elastic Constant Matrix: (Units=GPa)
#
#
# Indices 1 2 3 4 5 6 
#
# 1 101.3048 -11.9015 10.7298 0.0000 5.7964 0.0000
# 2 -11.9015 16.8939 -3.1757 0.0000 -5.6262 0.0000
# 3 10.7298 -3.1757 82.9941 0.0000 9.4005 0.0000
# 4 0.0000 0.0000 0.0000 20.8387 0.0000 4.1340
# 5 5.7964 -5.6262 9.4005 0.0000 39.7146 0.0000
# 6 0.0000 0.0000 0.0000 4.1340 0.0000 23.1010
#
#
#
# Elastic Compliance Matrix: (Units=1/GPa)
#
#
# Indices 1 2 3 4 5 6 
#
# 1 0.010867 0.007356 -0.001091 0.000000 -0.000286 0.000000
# 2 0.007356 0.067265 0.000684 0.000000 0.008294 0.000000
# 3 -0.001091 0.000684 0.012523 0.000000 -0.002708 0.000000
# 4 0.000000 0.000000 0.000000 0.049754 0.000000 -0.008904
# 5 -0.000286 0.008294 -0.002708 0.000000 0.027037 0.000000
# 6 0.000000 0.000000 0.000000 -0.008904 0.000000 0.044881
#
#
# Mechanical properties :
#
#
# Convention : Reuss Voigt Hill
#
# Bulk Modulus (GPa) = 9.56466 21.38864 15.47665
# Shear Modulus (GPa) = 21.43320 30.43356 25.93338
#
# Velocity S-wave (km/s) = 3.18614 3.79662 3.50470
# Velocity P-wave (km/s) = 4.25034 5.41752 4.86903
#
# Compressibility (1/GPa) = 0.10455153
#
# Stress axis : x y z
#
# Youngs Moduli (GPa) = 92.01940 14.86649 79.85301
#
# Poissons Ratio (x) = -0.10935 0.08713
# Poissons Ratio (y) = -0.67685 -0.05458
# Poissons Ratio (z) = 0.10041 -0.01016
#
# Static dielectric constant tensor:
#      x y z
#    x 1.805240 0.000000 0.081950 
#    y 0.000000 1.784430 0.000000 
#    z 0.081950 0.000000 1.840540 
# 
# From -- ./inp_files/70837.got.cif
#   From: 2010.05.17/outbox.cif.g08.bks.cpg/sg11_36_cif.got.tgz:70837.got - 2010.06.03 12:22:45.
