data_PCOD9163613
_publ_section_title
;
Structure prediction by ZEFSAII (Michael W. Deem and Ramdas Pophale) SiO2 
 PCOD9163613
Probable space group: P 21/M
;
_chemical_formula_sum "Si O2"
_cell_formula_units_Z 24
_cell_length_a 15.288785
_cell_length_b 13.136206
_cell_length_c 7.632561
_cell_angle_alpha 90.000000
_cell_angle_beta 40.629774
_cell_angle_gamma 90.000000
_cell_volume 998.175065
_symmetry_space_group_name_H-M "P 21/M"
_symmetry_group_IT_number 11
_symmetry_cell_setting 'monoclinic'
loop_
_space_group_symop_operation_xyz
x,y,z
-x,1/2+y,-z
-x,-y,-z
x,1/2-y,z
loop_
_atom_site_type_symbol
_atom_site_label
_atom_site_fract_x
_atom_site_fract_y
_atom_site_fract_z
Si Si1 0.532882 0.872931 0.332627
Si Si2 0.915090 0.865265 0.059381
Si Si3 0.224161 0.000382 0.197545
Si Si4 0.029538 0.563945 0.230159
Si Si5 0.390558 0.371948 0.403380
Si Si6 0.389497 0.871514 0.212196
O O1 0.548874 0.750000 0.296038
O O2 0.525522 0.899547 0.549264
O O3 0.664264 0.928220 0.058139
O O4 0.412719 0.898685 0.380460
O O5 0.908320 0.750000 0.003267
O O6 0.009389 0.870827 0.086988
O O7 0.765151 0.901229 0.344029
O O8 0.965139 0.947127 0.845372
O O9 0.102892 0.070848 0.450475
O O10 0.160885 0.924701 0.148444
O O11 0.280032 0.934406 0.273165
O O12 0.384663 0.250000 0.413461
O O13 0.471854 0.395225 0.104116
O O14 0.364989 0.750000 0.237154
#
# Coordination Sequence:
#
# PCOD9163613 Si02
#       6
#     4   4   4   4   4   4
#     4  10  20  37  60  87 115 154 202 243 293 351
#     4  10  20  40  62  83 114 154 199 248 292 339
#     4  11  22  39  58  85 123 154 191 244 294 351
#     4  10  23  38  58  88 117 154 202 237 283 360
#     4   9  18  36  61  85 111 149 201 247 286 345
#     4  10  22  38  57  88 123 153 192 242 299 356
#
# _framework density 24.043880000000001
#
# number of rings (size 3 to 8) (size 9 to 14) (size 15 to 20)
#    0.000    2.000    1.667    1.500    0.000    4.000 
#    6.000    3.333    0.000    0.000    0.000    0.000 
#    0.000    0.000    0.000    0.000    0.000    0.000 
#
# Total GULP energy -134330.316252 kJ/mol
# GULP energy per Si atom -5597.096510 kJ/mol
# Density = 2.398916 g / cm^3
# Si number density = 24.043880 Si / 1000 Ang^3
#
#
#
# Elastic Constant Matrix: (Units=GPa)
#
#
# Indices 1 2 3 4 5 6 
#
# 1 170.1420 21.5412 12.2015 0.0000 5.9174 0.0000
# 2 21.5412 88.2693 21.8685 0.0000 2.1938 0.0000
# 3 12.2015 21.8685 39.9191 0.0000 2.1318 0.0000
# 4 0.0000 0.0000 0.0000 23.3707 0.0000 4.3148
# 5 5.9174 2.1938 2.1318 0.0000 34.6546 0.0000
# 6 0.0000 0.0000 0.0000 4.3148 0.0000 26.4919
#
#
#
# Elastic Compliance Matrix: (Units=1/GPa)
#
#
# Indices 1 2 3 4 5 6 
#
# 1 0.006143 -0.001184 -0.001181 0.000000 -0.000901 0.000000
# 2 -0.001184 0.013342 -0.006935 0.000000 -0.000216 0.000000
# 3 -0.001181 -0.006935 0.029273 0.000000 -0.001160 0.000000
# 4 0.000000 0.000000 0.000000 0.044115 0.000000 -0.007185
# 5 -0.000901 -0.000216 -0.001160 0.000000 0.029095 0.000000
# 6 0.000000 0.000000 0.000000 -0.007185 0.000000 0.038918
#
#
# Mechanical properties :
#
#
# Convention : Reuss Voigt Hill
#
# Bulk Modulus (GPa) = 33.15983 45.50587 39.33285
# Shear Modulus (GPa) = 26.37981 33.08472 29.73227
#
# Velocity S-wave (km/s) = 3.31592 3.71349 3.52032
# Velocity P-wave (km/s) = 5.33683 6.11179 5.73741
#
# Compressibility (1/GPa) = 0.03015697
#
# Stress axis : x y z
#
# Youngs Moduli (GPa) = 162.77592 74.95384 34.16138
#
# Poissons Ratio (x) = 0.08877 0.04034
# Poissons Ratio (y) = 0.19277 0.23692
# Poissons Ratio (z) = 0.19221 0.51983
#
# Static dielectric constant tensor:
#      x y z
#    x 1.967300 0.000000 -0.008290 
#    y 0.000000 1.934110 0.000000 
#    z -0.008290 0.000000 1.893950 
# 
# From -- ./inp_files/22006.got.cif
#   From: 2010.05.17/outbox.cif.g08.bks.cpg/sg11_12_cif.got.tgz:22006.got - 2010.06.03 12:22:45.
