data_PCOD9163880
_publ_section_title
;
Structure prediction by ZEFSAII (Michael W. Deem and Ramdas Pophale) SiO2 
 PCOD9163880
Probable space group: P 21/M
;
_chemical_formula_sum "Si O2"
_cell_formula_units_Z 24
_cell_length_a 19.268262
_cell_length_b 13.377279
_cell_length_c 13.813071
_cell_angle_alpha 90.000000
_cell_angle_beta 161.153394
_cell_angle_gamma 90.000000
_cell_volume 1150.140733
_symmetry_space_group_name_H-M "P 21/M"
_symmetry_group_IT_number 11
_symmetry_cell_setting 'monoclinic'
loop_
_space_group_symop_operation_xyz
x,y,z
-x,1/2+y,-z
-x,-y,-z
x,1/2-y,z
loop_
_atom_site_type_symbol
_atom_site_label
_atom_site_fract_x
_atom_site_fract_y
_atom_site_fract_z
Si Si1 0.608637 0.526231 0.245309
Si Si2 0.261565 0.573045 0.408570
Si Si3 0.204340 0.865164 0.763363
Si Si4 0.964601 0.493999 0.290339
Si Si5 0.788034 0.637255 0.754143
Si Si6 0.617294 0.864389 0.733946
O O1 0.606236 0.432735 0.316913
O O2 0.856812 0.545409 0.548538
O O3 0.500000 0.500000 0.000000
O O4 0.457448 0.612491 0.087056
O O5 0.232014 0.455469 0.344506
O O6 0.393735 0.620134 0.494732
O O7 0.031616 0.624998 0.116576
O O8 0.155059 0.750000 0.686123
O O9 0.081243 0.930036 0.519382
O O10 0.131004 0.906593 0.770245
O O11 0.780759 0.555766 0.994173
O O12 0.762155 0.750000 0.681927
O O13 0.623319 0.622648 0.626047
O O14 0.689995 0.750000 0.847367
#
# Coordination Sequence:
#
# PCOD9163880 Si02
#       6
#     4   4   4   4   4   4
#     4  10  21  38  61  86 123 159 196 246 298 354
#     4  11  21  40  63  87 122 157 198 253 303 355
#     4  10  21  37  58  85 121 163 203 242 298 360
#     4  10  20  38  59  86 121 158 199 251 299 348
#     4  10  23  40  62  87 117 158 203 250 302 358
#     4  11  21  37  62  90 116 152 204 251 300 357
#
# _framework density 20.867010000000001
#
# number of rings (size 3 to 8) (size 9 to 14) (size 15 to 20)
#    0.000    1.667    3.333    1.500    0.000    1.333 
#    0.000    0.833    0.000    0.000    0.000    0.000 
#    0.000    0.000    0.000    0.000    0.000    0.000 
#
# Total GULP energy -134001.885422 kJ/mol
# GULP energy per Si atom -5583.411893 kJ/mol
# Density = 2.081952 g / cm^3
# Si number density = 20.867010 Si / 1000 Ang^3
#
#
#
# Elastic Constant Matrix: (Units=GPa)
#
#
# Indices 1 2 3 4 5 6 
#
# 1 101.7173 28.8195 7.5010 0.0000 30.8845 0.0000
# 2 28.8195 80.5572 5.4163 0.0000 12.2002 0.0000
# 3 7.5010 5.4163 31.4048 0.0000 5.9148 0.0000
# 4 0.0000 0.0000 0.0000 16.2310 0.0000 1.7057
# 5 30.8845 12.2002 5.9148 0.0000 33.6299 0.0000
# 6 0.0000 0.0000 0.0000 1.7057 0.0000 20.2326
#
#
#
# Elastic Compliance Matrix: (Units=1/GPa)
#
#
# Indices 1 2 3 4 5 6 
#
# 1 0.014446 -0.003316 -0.000627 0.000000 -0.011954 0.000000
# 2 -0.003316 0.013957 -0.001277 0.000000 -0.001794 0.000000
# 3 -0.000627 -0.001277 0.033113 0.000000 -0.004785 0.000000
# 4 0.000000 0.000000 0.000000 0.062161 0.000000 -0.005240
# 5 -0.011954 -0.001794 -0.004785 0.000000 0.042206 0.000000
# 6 0.000000 0.000000 0.000000 -0.005240 0.000000 0.049867
#
#
# Mechanical properties :
#
#
# Convention : Reuss Voigt Hill
#
# Bulk Modulus (GPa) = 19.57845 33.01700 26.29773
# Shear Modulus (GPa) = 20.55775 25.48153 23.01964
#
# Velocity S-wave (km/s) = 3.14216 3.49827 3.32499
# Velocity P-wave (km/s) = 4.75048 5.67223 5.23169
#
# Compressibility (1/GPa) = 0.05107655
#
# Stress axis : x y z
#
# Youngs Moduli (GPa) = 69.22130 71.64730 30.19917
#
# Poissons Ratio (x) = 0.23756 0.01894
# Poissons Ratio (y) = 0.22951 0.03858
# Poissons Ratio (z) = 0.04342 0.09152
#
# Static dielectric constant tensor:
#      x y z
#    x 1.788670 0.000000 -0.019890 
#    y 0.000000 1.714750 0.000000 
#    z -0.019890 0.000000 1.775960 
# 
# From -- ./inp_files/31149.got.cif
#   From: 2010.05.17/outbox.cif.g08.bks.cpg/sg11_16_cif.got.tgz:31149.got - 2010.06.03 12:22:45.
