data_PCOD9163766
_publ_section_title
;
Structure prediction by ZEFSAII (Michael W. Deem and Ramdas Pophale) SiO2 
 PCOD9163766
Probable space group: P 21/M
;
_chemical_formula_sum "Si O2"
_cell_formula_units_Z 20
_cell_length_a 12.137972
_cell_length_b 8.520415
_cell_length_c 8.272250
_cell_angle_alpha 90.000000
_cell_angle_beta 95.752655
_cell_angle_gamma 90.000000
_cell_volume 851.212207
_symmetry_space_group_name_H-M "P 21/M"
_symmetry_group_IT_number 11
_symmetry_cell_setting 'monoclinic'
loop_
_space_group_symop_operation_xyz
x,y,z
-x,1/2+y,-z
-x,-y,-z
x,1/2-y,z
loop_
_atom_site_type_symbol
_atom_site_label
_atom_site_fract_x
_atom_site_fract_y
_atom_site_fract_z
Si Si1 0.249878 0.932060 0.896330
Si Si2 0.936188 0.933031 0.335158
Si Si3 0.650406 0.936578 0.616455
Si Si4 0.446387 0.435373 0.748628
Si Si5 0.870930 0.567167 0.815781
O O1 0.240419 0.750000 0.935815
O O2 0.375829 0.975898 0.872772
O O3 0.173619 0.973728 0.730229
O O4 0.195593 0.033641 0.030562
O O5 0.910354 0.750000 0.352855
O O6 0.023382 0.960085 0.201406
O O7 0.000000 0.000000 0.500000
O O8 0.632751 0.750000 0.632671
O O9 0.609493 0.980311 0.432289
O O10 0.778975 0.966596 0.664962
O O11 0.573776 0.021457 0.737270
O O12 0.433845 0.250000 0.771496
O O13 0.903885 0.750000 0.811925
#
# Coordination Sequence:
#
# PCOD9163766 Si02
#       5
#     4   4   4   4   4
#     4  12  25  41  61  88 123 161 202 249 303 359
#     4  12  25  43  66  92 121 156 200 246 298 358
#     4   9  20  38  61  88 119 156 199 247 299 358
#     4  10  20  37  62  90 120 156 201 251 301 357
#     4  11  23  41  63  89 123 161 202 249 302 358
#
# _framework density 23.495902999999998
#
# number of rings (size 3 to 8) (size 9 to 14) (size 15 to 20)
#    0.000    1.200    0.000    6.600    0.000    4.800 
#    0.000    0.000    0.000    0.000    0.000    0.000 
#    0.000    0.000    0.000    0.000    0.000    0.000 
#
# Total GULP energy -112035.876341 kJ/mol
# GULP energy per Si atom -5601.793817 kJ/mol
# Density = 2.344243 g / cm^3
# Si number density = 23.495903 Si / 1000 Ang^3
#
#
#
# Elastic Constant Matrix: (Units=GPa)
#
#
# Indices 1 2 3 4 5 6 
#
# 1 68.5431 16.5370 -7.8691 0.0000 -18.3758 0.0000
# 2 16.5370 40.0745 -5.0865 0.0000 -2.9087 0.0000
# 3 -7.8691 -5.0865 56.9170 0.0000 -8.6515 0.0000
# 4 0.0000 0.0000 0.0000 30.7971 0.0000 -7.8810
# 5 -18.3758 -2.9087 -8.6515 0.0000 37.1264 0.0000
# 6 0.0000 0.0000 0.0000 -7.8810 0.0000 35.2113
#
#
#
# Elastic Compliance Matrix: (Units=1/GPa)
#
#
# Indices 1 2 3 4 5 6 
#
# 1 0.019271 -0.006788 0.003553 0.000000 0.009835 0.000000
# 2 -0.006788 0.027874 0.001424 0.000000 -0.000844 0.000000
# 3 0.003553 0.001424 0.019150 0.000000 0.006333 0.000000
# 4 0.000000 0.000000 0.000000 0.034443 0.000000 0.007709
# 5 0.009835 -0.000844 0.006333 0.000000 0.033212 0.000000
# 6 0.000000 0.000000 0.000000 0.007709 0.000000 0.030125
#
#
# Mechanical properties :
#
#
# Convention : Reuss Voigt Hill
#
# Bulk Modulus (GPa) = 15.95547 19.18858 17.57203
# Shear Modulus (GPa) = 26.51254 31.42385 28.96819
#
# Velocity S-wave (km/s) = 3.36280 3.66104 3.51508
# Velocity P-wave (km/s) = 4.67796 5.10446 4.89586
#
# Compressibility (1/GPa) = 0.06267444
#
# Stress axis : x y z
#
# Youngs Moduli (GPa) = 51.89030 35.87562 52.21802
#
# Poissons Ratio (x) = 0.24351 -0.18551
# Poissons Ratio (y) = 0.35222 -0.07437
# Poissons Ratio (z) = -0.18435 -0.05110
#
# Static dielectric constant tensor:
#      x y z
#    x 1.888630 0.000000 0.041310 
#    y 0.000000 1.813880 0.000000 
#    z 0.041310 0.000000 1.966960 
# 
# From -- ./inp_files/15927.got.cif
#   From: 2010.05.17/outbox.cif.g08.bks.cpg/sg11_8_cif.got.tgz:15927.got - 2010.06.03 12:22:45.
