data_PCOD9163346
_publ_section_title
;
Structure prediction by ZEFSAII (Michael W. Deem and Ramdas Pophale) SiO2 
 PCOD9163346
Probable space group: P 21/M
;
_chemical_formula_sum "Si O2"
_cell_formula_units_Z 24
_cell_length_a 15.112052
_cell_length_b 11.528532
_cell_length_c 15.061161
_cell_angle_alpha 90.000000
_cell_angle_beta 154.717351
_cell_angle_gamma 90.000000
_cell_volume 1120.648105
_symmetry_space_group_name_H-M "P 21/M"
_symmetry_group_IT_number 11
_symmetry_cell_setting 'monoclinic'
loop_
_space_group_symop_operation_xyz
x,y,z
-x,1/2+y,-z
-x,-y,-z
x,1/2-y,z
loop_
_atom_site_type_symbol
_atom_site_label
_atom_site_fract_x
_atom_site_fract_y
_atom_site_fract_z
Si Si1 0.936502 0.617232 0.211403
Si Si2 0.568170 0.120303 0.672403
Si Si3 0.808590 0.538561 0.419867
Si Si4 0.622951 0.071457 0.909339
Si Si5 0.699267 0.116108 0.594732
Si Si6 0.231931 0.629327 0.764629
O O1 0.913814 0.750000 0.214506
O O2 0.061617 0.551478 0.402610
O O3 0.081214 0.606299 0.255596
O O4 0.714836 0.557938 0.995949
O O5 0.463369 0.250000 0.572414
O O6 0.692035 0.119989 0.877398
O O7 0.702699 0.112698 0.704772
O O8 0.433760 0.999675 0.551833
O O9 0.623530 0.587137 0.310149
O O10 0.705315 0.474930 0.242162
O O11 0.981958 0.623475 0.539967
O O12 0.703708 0.123136 0.074675
O O13 0.622233 0.250000 0.501846
O O14 0.308229 0.750000 0.795092
#
# Coordination Sequence:
#
# PCOD9163346 Si02
#       6
#     4   4   4   4   4   4
#     4  10  21  37  59  87 118 156 201 248 298 353
#     4  10  20  36  61  88 120 161 200 244 302 359
#     4  10  21  40  58  82 116 152 194 246 299 353
#     4  11  22  37  57  90 119 151 197 249 300 359
#     4   9  19  38  60  87 121 158 203 248 294 355
#     4  10  22  38  58  82 113 153 196 242 298 362
#
# _framework density 21.416179
#
# number of rings (size 3 to 8) (size 9 to 14) (size 15 to 20)
#    0.000    2.000    1.667    1.500    0.000    4.000 
#    0.000    0.833    0.000    0.000    0.000    0.000 
#    0.000    0.000    0.000    0.000    0.000    0.000 
#
# Total GULP energy -133625.681311 kJ/mol
# GULP energy per Si atom -5567.736721 kJ/mol
# Density = 2.136743 g / cm^3
# Si number density = 21.416179 Si / 1000 Ang^3
#
#
#
# Elastic Constant Matrix: (Units=GPa)
#
#
# Indices 1 2 3 4 5 6 
#
# 1 79.9186 9.0073 8.0861 0.0000 -20.2617 0.0000
# 2 9.0073 105.2929 -2.5093 0.0000 -0.2082 0.0000
# 3 8.0861 -2.5093 30.1419 0.0000 -9.2078 0.0000
# 4 0.0000 0.0000 0.0000 1.1188 0.0000 15.5423
# 5 -20.2617 -0.2082 -9.2078 0.0000 34.9834 0.0000
# 6 0.0000 0.0000 0.0000 15.5423 0.0000 -13.4883
#
#
#
# Elastic Compliance Matrix: (Units=1/GPa)
#
#
# Indices 1 2 3 4 5 6 
#
# 1 0.014900 -0.001297 -0.001600 0.000000 0.008201 0.000000
# 2 -0.001297 0.009632 0.001020 0.000000 -0.000425 0.000000
# 3 -0.001600 0.001020 0.036330 0.000000 0.008642 0.000000
# 4 0.000000 0.000000 0.000000 0.052554 0.000000 0.060558
# 5 0.008201 -0.000425 0.008642 0.000000 0.035607 0.000000
# 6 0.000000 0.000000 0.000000 0.060558 0.000000 -0.004359
#
#
# Mechanical properties :
#
#
# Convention : Reuss Voigt Hill
#
# Bulk Modulus (GPa) = 17.51043 27.16907 22.33975
# Shear Modulus (GPa) = 29.85899 17.90739 23.88319
#
# Velocity S-wave (km/s) = 3.73798 2.89478 3.34307
# Velocity P-wave (km/s) = 5.17919 4.88741 5.03542
#
# Compressibility (1/GPa) = 0.05710884
#
# Stress axis : x y z
#
# Youngs Moduli (GPa) = 67.11453 103.82395 27.52511
#
# Poissons Ratio (x) = 0.13461 0.04404
# Poissons Ratio (y) = 0.08702 -0.02807
# Poissons Ratio (z) = 0.10737 -0.10587
#
# Static dielectric constant tensor:
#      x y z
#    x 1.746100 0.000000 -0.029910 
#    y 0.000000 1.863060 0.000000 
#    z -0.029910 0.000000 1.770910 
# 
# From -- ./inp_files/52342.got.cif
#   From: 2010.05.17/outbox.cif.g08.bks.cpg/sg11_27_cif.got.tgz:52342.got - 2010.06.03 12:22:45.
