data_PCOD9163385
_publ_section_title
;
Structure prediction by ZEFSAII (Michael W. Deem and Ramdas Pophale) SiO2 
 PCOD9163385
Probable space group: P 21/M
;
_chemical_formula_sum "Si O2"
_cell_formula_units_Z 32
_cell_length_a 12.713411
_cell_length_b 9.351993
_cell_length_c 28.505104
_cell_angle_alpha 90.000000
_cell_angle_beta 153.177194
_cell_angle_gamma 90.000000
_cell_volume 1529.288916
_symmetry_space_group_name_H-M "P 21/M"
_symmetry_group_IT_number 11
_symmetry_cell_setting 'monoclinic'
loop_
_space_group_symop_operation_xyz
x,y,z
-x,1/2+y,-z
-x,-y,-z
x,1/2-y,z
loop_
_atom_site_type_symbol
_atom_site_label
_atom_site_fract_x
_atom_site_fract_y
_atom_site_fract_z
Si Si1 0.352228 0.910750 0.978171
Si Si2 0.808472 0.915874 0.659060
Si Si3 0.794169 0.578307 0.446552
Si Si4 0.202757 0.093946 0.781484
Si Si5 0.450185 0.910933 0.810640
Si Si6 0.379402 0.083866 0.522116
Si Si7 0.922856 0.918848 0.059464
Si Si8 0.605330 0.918027 0.766281
O O1 0.282115 0.750000 0.935150
O O2 0.542726 0.892260 0.095001
O O3 0.500000 0.000000 0.000000
O O4 0.151587 0.006882 0.921242
O O5 0.834559 0.750000 0.679958
O O6 0.735903 0.931486 0.575088
O O7 0.608191 0.985688 0.610831
O O8 0.048844 0.000951 0.755579
O O9 0.805858 0.750000 0.443610
O O10 0.786362 0.552788 0.499638
O O11 0.554378 0.509707 0.332106
O O12 0.000000 0.500000 0.500000
O O13 0.093828 0.250000 0.732194
O O14 0.258859 0.016663 0.755227
O O15 0.372485 0.750000 0.791964
O O16 0.484415 0.923036 0.769082
O O17 0.703263 0.929726 0.936268
O O18 0.450957 0.250000 0.555262
O O19 0.972678 0.750000 0.084980
O O20 0.144072 0.007080 0.129762
O O21 0.625464 0.750000 0.760952
#
# Coordination Sequence:
#
# PCOD9163385 Si02
#       8
#     4   4   4   4   4   4   4   4
#     4  10  21  37  56  81 115 153 191 234 287 345
#     4  10  20  36  62  90 114 147 191 241 297 353
#     4  11  25  44  63  87 121 160 202 248 298 357
#     4  10  21  35  55  85 117 149 189 237 289 347
#     4   9  20  37  58  85 119 155 195 243 291 346
#     4   9  21  41  61  83 115 150 190 244 297 345
#     4  10  20  37  60  86 116 152 195 242 292 349
#     4  11  23  39  60  87 118 156 197 241 295 351
#
# _framework density 20.924758000000001
#
# number of rings (size 3 to 8) (size 9 to 14) (size 15 to 20)
#    0.000    2.000    0.000    2.625    1.750    5.500 
#    0.000    1.250    0.000    0.000    0.000    0.000 
#    0.000    0.000    0.000    0.000    0.000    0.000 
#
# Total GULP energy -178660.035028 kJ/mol
# GULP energy per Si atom -5583.126095 kJ/mol
# Density = 2.087713 g / cm^3
# Si number density = 20.924758 Si / 1000 Ang^3
#
#
#
# Elastic Constant Matrix: (Units=GPa)
#
#
# Indices 1 2 3 4 5 6 
#
# 1 94.9710 52.0412 4.7705 0.0000 8.5582 0.0000
# 2 52.0412 125.5217 30.8027 0.0000 11.6161 0.0000
# 3 4.7705 30.8027 32.1431 0.0000 5.9430 0.0000
# 4 0.0000 0.0000 0.0000 27.3295 0.0000 9.2493
# 5 8.5582 11.6161 5.9430 0.0000 28.5330 0.0000
# 6 0.0000 0.0000 0.0000 9.2493 0.0000 35.9296
#
#
#
# Elastic Compliance Matrix: (Units=1/GPa)
#
#
# Indices 1 2 3 4 5 6 
#
# 1 0.014294 -0.006913 0.004967 0.000000 -0.002508 0.000000
# 2 -0.006913 0.013900 -0.012098 0.000000 -0.001066 0.000000
# 3 0.004967 -0.012098 0.042987 0.000000 -0.005518 0.000000
# 4 0.000000 0.000000 0.000000 0.040083 0.000000 -0.010318
# 5 -0.002508 -0.001066 -0.005518 0.000000 0.037383 0.000000
# 6 0.000000 0.000000 0.000000 -0.010318 0.000000 0.030488
#
#
# Mechanical properties :
#
#
# Convention : Reuss Voigt Hill
#
# Bulk Modulus (GPa) = 23.20495 47.54051 35.37273
# Shear Modulus (GPa) = 22.56443 29.35984 25.96214
#
# Velocity S-wave (km/s) = 3.28740 3.74988 3.52623
# Velocity P-wave (km/s) = 5.05204 6.44344 5.78969
#
# Compressibility (1/GPa) = 0.04309425
#
# Stress axis : x y z
#
# Youngs Moduli (GPa) = 69.95824 71.94075 23.26273
#
# Poissons Ratio (x) = 0.49734 -0.11555
# Poissons Ratio (y) = 0.48364 0.28142
# Poissons Ratio (z) = -0.34749 0.87031
#
# Static dielectric constant tensor:
#      x y z
#    x 1.734410 0.000000 -0.034340 
#    y 0.000000 1.754730 0.000000 
#    z -0.034340 0.000000 1.796960 
# 
# From -- ./inp_files/38238.got.cif
#   From: 2010.05.17/outbox.cif.g08.bks.cpg/sg11_20_cif.got.tgz:38238.got - 2010.06.03 12:22:45.
