data_PCOD9163252
_publ_section_title
;
Structure prediction by ZEFSAII (Michael W. Deem and Ramdas Pophale) SiO2 
 PCOD9163252
Probable space group: P 21/M
;
_chemical_formula_sum "Si O2"
_cell_formula_units_Z 32
_cell_length_a 27.906171
_cell_length_b 7.779847
_cell_length_c 21.527353
_cell_angle_alpha 90.000000
_cell_angle_beta 161.228496
_cell_angle_gamma 90.000000
_cell_volume 1503.976381
_symmetry_space_group_name_H-M "P 21/M"
_symmetry_group_IT_number 11
_symmetry_cell_setting 'monoclinic'
loop_
_space_group_symop_operation_xyz
x,y,z
-x,1/2+y,-z
-x,-y,-z
x,1/2-y,z
loop_
_atom_site_type_symbol
_atom_site_label
_atom_site_fract_x
_atom_site_fract_y
_atom_site_fract_z
Si Si1 0.523055 0.038955 0.347923
Si Si2 0.633440 0.043513 0.617608
Si Si3 0.332997 0.953733 0.813624
Si Si4 0.199708 0.460502 0.910755
Si Si5 0.233442 0.951714 0.447910
Si Si6 0.034155 0.544152 0.970179
Si Si7 0.837596 0.952204 0.274912
Si Si8 0.876439 0.461190 0.555029
O O1 0.526596 0.250000 0.352320
O O2 0.592507 0.981257 0.498300
O O3 0.625916 0.977703 0.417355
O O4 0.352804 0.984901 0.130530
O O5 0.643516 0.250000 0.626734
O O6 0.798025 0.981990 0.838576
O O7 0.500000 0.000000 0.500000
O O8 0.319308 0.750000 0.795488
O O9 0.217484 0.020750 0.619959
O O10 0.284162 0.008447 0.822282
O O11 0.500000 0.000000 0.000000
O O12 0.200996 0.250000 0.912288
O O13 0.193030 0.524026 0.831235
O O14 0.048065 0.513551 0.758500
O O15 0.264781 0.750000 0.495888
O O16 0.195834 0.023286 0.469513
O O17 0.090166 0.967906 0.227567
O O18 0.027931 0.750000 0.955810
O O19 0.000000 0.500000 0.000000
O O20 0.839889 0.750000 0.269243
O O21 0.000000 0.000000 0.500000
O O22 0.874922 0.250000 0.553446
#
# Coordination Sequence:
#
# PCOD9163252 Si02
#       8
#     4   4   4   4   4   4   4   4
#     4   9  18  34  55  82 113 144 186 237 279 334
#     4  10  22  38  57  84 114 145 186 234 284 335
#     4  11  23  40  60  88 121 155 201 250 297 356
#     4   9  18  33  56  85 113 146 193 239 282 340
#     4  10  20  36  60  86 113 149 194 239 287 341
#     4  11  22  39  60  84 116 152 192 237 287 345
#     4  11  21  37  62  88 117 156 197 245 298 352
#     4   9  19  35  57  85 114 149 194 237 282 349
#
# _framework density 21.276928000000002
#
# number of rings (size 3 to 8) (size 9 to 14) (size 15 to 20)
#    0.000    2.000    2.500    1.125    3.500    1.000 
#    0.000    1.250    0.000    1.500    0.000    0.000 
#    0.000    0.000    0.000    0.000    0.000    0.000 
#
# Total GULP energy -178779.732840 kJ/mol
# GULP energy per Si atom -5586.866651 kJ/mol
# Density = 2.122850 g / cm^3
# Si number density = 21.276928 Si / 1000 Ang^3
#
#
#
# Elastic Constant Matrix: (Units=GPa)
#
#
# Indices 1 2 3 4 5 6 
#
# 1 94.5393 -2.6250 2.0418 0.0000 23.1225 0.0000
# 2 -2.6250 27.4088 -6.1129 0.0000 0.8319 0.0000
# 3 2.0418 -6.1129 88.9778 0.0000 27.5063 0.0000
# 4 0.0000 0.0000 0.0000 22.1353 0.0000 2.2446
# 5 23.1225 0.8319 27.5063 0.0000 38.9679 0.0000
# 6 0.0000 0.0000 0.0000 2.2446 0.0000 21.5055
#
#
#
# Elastic Compliance Matrix: (Units=1/GPa)
#
#
# Indices 1 2 3 4 5 6 
#
# 1 0.012965 0.002178 0.002871 0.000000 -0.009766 0.000000
# 2 0.002178 0.037755 0.004084 0.000000 -0.004981 0.000000
# 3 0.002871 0.004084 0.015358 0.000000 -0.012632 0.000000
# 4 0.000000 0.000000 0.000000 0.045660 0.000000 -0.004766
# 5 -0.009766 -0.004981 -0.012632 0.000000 0.040480 0.000000
# 6 0.000000 0.000000 0.000000 -0.004766 0.000000 0.046997
#
#
# Mechanical properties :
#
#
# Convention : Reuss Voigt Hill
#
# Bulk Modulus (GPa) = 11.85604 21.94817 16.90211
# Shear Modulus (GPa) = 23.91616 31.02989 27.47302
#
# Velocity S-wave (km/s) = 3.35631 3.82302 3.59724
# Velocity P-wave (km/s) = 4.53917 5.46124 5.02142
#
# Compressibility (1/GPa) = 0.08434517
#
# Stress axis : x y z
#
# Youngs Moduli (GPa) = 77.13250 26.48640 65.11073
#
# Poissons Ratio (x) = -0.05770 -0.18695
# Poissons Ratio (y) = -0.16803 -0.26589
# Poissons Ratio (z) = -0.22147 -0.10816
#
# Static dielectric constant tensor:
#      x y z
#    x 1.778800 0.000000 0.020970 
#    y 0.000000 1.798100 0.000000 
#    z 0.020970 0.000000 1.804590 
# 
# From -- ./inp_files/67136.got.cif
#   From: 2010.05.17/outbox.cif.g08.bks.cpg/sg11_34_cif.got.tgz:67136.got - 2010.06.03 12:22:45.
