data_PCOD9163622
_publ_section_title
;
Structure prediction by ZEFSAII (Michael W. Deem and Ramdas Pophale) SiO2 
 PCOD9163622
Probable space group: P 21/M
;
_chemical_formula_sum "Si O2"
_cell_formula_units_Z 24
_cell_length_a 14.651640
_cell_length_b 17.520571
_cell_length_c 7.922415
_cell_angle_alpha 90.000000
_cell_angle_beta 139.790965
_cell_angle_gamma 90.000000
_cell_volume 1312.927933
_symmetry_space_group_name_H-M "P 21/M"
_symmetry_group_IT_number 11
_symmetry_cell_setting 'monoclinic'
loop_
_space_group_symop_operation_xyz
x,y,z
-x,1/2+y,-z
-x,-y,-z
x,1/2-y,z
loop_
_atom_site_type_symbol
_atom_site_label
_atom_site_fract_x
_atom_site_fract_y
_atom_site_fract_z
Si Si1 0.652300 0.467566 0.166319
Si Si2 0.366040 0.840572 0.612327
Si Si3 0.898128 0.587790 0.178889
Si Si4 0.047647 0.839293 0.076068
Si Si5 0.406190 0.049295 0.242620
Si Si6 0.923777 0.563658 0.599015
O O1 0.657046 0.381496 0.238707
O O2 0.777236 0.518043 0.423487
O O3 0.500000 0.500000 0.000000
O O4 0.658359 0.487020 0.978872
O O5 0.392780 0.750000 0.660359
O O6 0.216548 0.853530 0.306953
O O7 0.492250 0.887974 0.702308
O O8 0.910369 0.605384 0.397285
O O9 0.991244 0.636515 0.181092
O O10 0.958482 0.502048 0.249517
O O11 0.734933 0.590252 0.890722
O O12 0.024771 0.750000 0.021287
O O13 0.965948 0.884383 0.814979
O O14 0.500000 0.000000 0.500000
#
# Coordination Sequence:
#
# PCOD9163622 Si02
#       6
#     4   4   4   4   4   4
#     4   9  19  35  59  86 107 151 196 229 290 343
#     4  10  21  39  57  83 122 153 188 241 298 348
#     4  10  21  36  62  87 113 151 199 247 284 342
#     4  11  23  37  60  88 119 159 192 238 302 349
#     4  10  21  36  61  86 116 150 196 243 286 350
#     4  10  20  37  60  88 117 152 198 246 288 343
#
# _framework density 18.279755000000002
#
# number of rings (size 3 to 8) (size 9 to 14) (size 15 to 20)
#    0.000    2.000    1.667    1.500    4.667    1.333 
#    0.000    7.500    0.000    0.000    0.000    0.000 
#    0.000    0.000    0.000    0.000    0.000    0.000 
#
# Total GULP energy -133721.332140 kJ/mol
# GULP energy per Si atom -5571.722173 kJ/mol
# Density = 1.823815 g / cm^3
# Si number density = 18.279755 Si / 1000 Ang^3
#
#
#
# Elastic Constant Matrix: (Units=GPa)
#
#
# Indices 1 2 3 4 5 6 
#
# 1 70.2931 34.2731 33.5506 0.0000 24.7808 0.0000
# 2 34.2731 95.4130 62.8202 0.0000 -2.1792 0.0000
# 3 33.5506 62.8202 98.8936 0.0000 18.9617 0.0000
# 4 0.0000 0.0000 0.0000 13.7982 0.0000 7.1680
# 5 24.7808 -2.1792 18.9617 0.0000 36.2176 0.0000
# 6 0.0000 0.0000 0.0000 7.1680 0.0000 19.5562
#
#
#
# Elastic Compliance Matrix: (Units=1/GPa)
#
#
# Indices 1 2 3 4 5 6 
#
# 1 0.025216 -0.010727 0.001880 0.000000 -0.018883 0.000000
# 2 -0.010727 0.024848 -0.015383 0.000000 0.016888 0.000000
# 3 0.001880 -0.015383 0.021865 0.000000 -0.013659 0.000000
# 4 0.000000 0.000000 0.000000 0.089518 0.000000 -0.032811
# 5 -0.018883 0.016888 -0.013659 0.000000 0.048698 0.000000
# 6 0.000000 0.000000 0.000000 -0.032811 0.000000 0.063161
#
#
# Mechanical properties :
#
#
# Convention : Reuss Voigt Hill
#
# Bulk Modulus (GPa) = 42.61018 58.43195 50.52107
# Shear Modulus (GPa) = 15.17041 22.84478 19.00759
#
# Velocity S-wave (km/s) = 2.88393 3.53899 3.22812
# Velocity P-wave (km/s) = 5.86941 6.98098 6.44919
#
# Compressibility (1/GPa) = 0.02346857
#
# Stress axis : x y z
#
# Youngs Moduli (GPa) = 39.65773 40.24499 45.73518
#
# Poissons Ratio (x) = 0.43169 -0.08597
# Poissons Ratio (y) = 0.42539 0.70355
# Poissons Ratio (z) = -0.07454 0.61909
#
# Static dielectric constant tensor:
#      x y z
#    x 1.699700 0.000000 0.008720 
#    y 0.000000 1.604420 0.000000 
#    z 0.008720 0.000000 1.655660 
# 
# From -- ./inp_files/25154.got.cif
#   From: 2010.05.17/outbox.cif.g08.bks.cpg/sg11_13_cif.got.tgz:25154.got - 2010.06.03 12:22:45.
