data_PCOD9163032
_publ_section_title
;
Structure prediction by ZEFSAII (Michael W. Deem and Ramdas Pophale) SiO2 
 PCOD9163032
Probable space group: P 21/M
;
_chemical_formula_sum "Si O2"
_cell_formula_units_Z 32
_cell_length_a 20.523910
_cell_length_b 15.042796
_cell_length_c 17.825754
_cell_angle_alpha 90.000000
_cell_angle_beta 160.604112
_cell_angle_gamma 90.000000
_cell_volume 1827.666159
_symmetry_space_group_name_H-M "P 21/M"
_symmetry_group_IT_number 11
_symmetry_cell_setting 'monoclinic'
loop_
_space_group_symop_operation_xyz
x,y,z
-x,1/2+y,-z
-x,-y,-z
x,1/2-y,z
loop_
_atom_site_type_symbol
_atom_site_label
_atom_site_fract_x
_atom_site_fract_y
_atom_site_fract_z
Si Si1 0.142091 0.646377 0.064322
Si Si2 0.149365 0.351574 0.549052
Si Si3 0.501041 0.852249 0.552219
Si Si4 0.574459 0.076618 0.024970
Si Si5 0.318058 0.147592 0.417649
Si Si6 0.368574 0.513795 0.202353
Si Si7 0.157105 0.505083 0.817941
Si Si8 0.030763 0.648916 0.481434
O O1 0.175612 0.750000 0.077540
O O2 0.273578 0.634145 0.281850
O O3 0.222633 0.576709 0.091675
O O4 0.913291 0.633894 0.829010
O O5 0.103703 0.250000 0.480070
O O6 0.008607 0.418952 0.352578
O O7 0.090910 0.365220 0.573349
O O8 0.379512 0.370359 0.790318
O O9 0.528169 0.750000 0.606984
O O10 0.612180 0.862536 0.592981
O O11 0.573917 0.926623 0.688110
O O12 0.686342 0.037639 0.074310
O O13 0.742432 0.131814 0.250776
O O14 0.500000 0.000000 0.000000
O O15 0.360957 0.250000 0.486402
O O16 0.439549 0.076390 0.597293
O O17 0.269221 0.488874 0.016576
O O18 0.046322 0.420593 0.662714
O O19 0.002869 0.750000 0.426949
#
# Coordination Sequence:
#
# PCOD9163032 Si02
#       8
#     4   4   4   4   4   4   4   4
#     4   9  18  35  58  80 104 139 178 221 264 308
#     4  10  20  36  59  81 102 135 180 226 270 316
#     4   9  19  35  55  78 104 138 184 223 253 304
#     4  11  18  37  62  77 103 136 183 228 267 307
#     4   9  18  35  58  81 104 137 179 221 261 310
#     4  11  22  33  51  80 114 143 174 210 269 324
#     4  11  23  36  51  82 114 145 172 221 271 323
#     4  10  20  36  58  81 102 136 183 222 264 319
#
# _framework density 17.508668
#
# number of rings (size 3 to 8) (size 9 to 14) (size 15 to 20)
#    0.000    2.000    2.500    3.750    0.000    5.000 
#    0.000    1.250    0.000    0.000    0.000    0.000 
#    0.000    0.000    0.000    0.000    0.000    0.000 
#
# Total GULP energy -178553.516215 kJ/mol
# GULP energy per Si atom -5579.797382 kJ/mol
# Density = 1.746882 g / cm^3
# Si number density = 17.508668 Si / 1000 Ang^3
#
#
#
# Elastic Constant Matrix: (Units=GPa)
#
#
# Indices 1 2 3 4 5 6 
#
# 1 17.2782 10.7382 27.9700 0.0000 2.2632 0.0000
# 2 10.7382 59.3923 29.1566 0.0000 -0.8136 0.0000
# 3 27.9700 29.1566 101.5656 0.0000 18.3591 0.0000
# 4 0.0000 0.0000 0.0000 10.7090 0.0000 11.8405
# 5 2.2632 -0.8136 18.3591 0.0000 27.6172 0.0000
# 6 0.0000 0.0000 0.0000 11.8405 0.0000 6.9927
#
#
#
# Elastic Compliance Matrix: (Units=1/GPa)
#
#
# Indices 1 2 3 4 5 6 
#
# 1 0.109014 -0.004426 -0.030815 0.000000 0.011421 0.000000
# 2 -0.004426 0.020382 -0.005463 0.000000 0.004595 0.000000
# 3 -0.030815 -0.005463 0.022132 0.000000 -0.012349 0.000000
# 4 0.000000 0.000000 0.000000 -0.107064 0.000000 0.181289
# 5 0.011421 0.004595 -0.012349 0.000000 0.043618 0.000000
# 6 0.000000 0.000000 0.000000 0.181289 0.000000 -0.163965
#
#
# Mechanical properties :
#
#
# Convention : Reuss Voigt Hill
#
# Bulk Modulus (GPa) = 14.26104 34.88506 24.57305
# Shear Modulus (GPa) = 173.01233 16.42186 94.71710
#
# Velocity S-wave (km/s) = 9.95137 3.06588 7.36306
# Velocity P-wave (km/s) = 11.84071 5.70093 9.29255
#
# Compressibility (1/GPa) = 0.07012113
#
# Stress axis : x y z
#
# Youngs Moduli (GPa) = 9.17309 49.06254 45.18275
#
# Poissons Ratio (x) = 0.21715 1.39231
# Poissons Ratio (y) = 0.04060 0.24683
# Poissons Ratio (z) = 0.28267 0.26802
#
# Static dielectric constant tensor:
#      x y z
#    x 1.572740 0.000000 0.015870 
#    y 0.000000 1.606240 0.000000 
#    z 0.015870 0.000000 1.596420 
# 
# From -- ./inp_files/61633.got.cif
#   From: 2010.05.17/outbox.cif.g08.bks.cpg/sg11_31_cif.got.tgz:61633.got - 2010.06.03 12:22:45.
