data_PCOD9163197
_publ_section_title
;
Structure prediction by ZEFSAII (Michael W. Deem and Ramdas Pophale) SiO2 
 PCOD9163197
Probable space group: P 21/M
;
_chemical_formula_sum "Si O2"
_cell_formula_units_Z 28
_cell_length_a 26.626119
_cell_length_b 8.691937
_cell_length_c 9.763013
_cell_angle_alpha 90.000000
_cell_angle_beta 38.427472
_cell_angle_gamma 90.000000
_cell_volume 1404.319222
_symmetry_space_group_name_H-M "P 21/M"
_symmetry_group_IT_number 11
_symmetry_cell_setting 'monoclinic'
loop_
_space_group_symop_operation_xyz
x,y,z
-x,1/2+y,-z
-x,-y,-z
x,1/2-y,z
loop_
_atom_site_type_symbol
_atom_site_label
_atom_site_fract_x
_atom_site_fract_y
_atom_site_fract_z
Si Si1 0.965371 0.064911 0.930911
Si Si2 0.496785 0.932483 0.158413
Si Si3 0.261269 0.065248 0.973633
Si Si4 0.574249 0.433224 0.252571
Si Si5 0.869398 0.936871 0.531546
Si Si6 0.309058 0.931414 0.588702
Si Si7 0.805702 0.566180 0.368595
O O1 0.960182 0.250000 0.946397
O O2 0.035912 0.019303 0.673736
O O3 0.876429 0.994773 0.116630
O O4 0.000000 0.000000 0.000000
O O5 0.513462 0.750000 0.122922
O O6 0.404470 0.956154 0.405027
O O7 0.556047 0.017851 0.135860
O O8 0.500000 0.000000 0.000000
O O9 0.262916 0.250000 0.969496
O O10 0.342009 0.003954 0.874567
O O11 0.263666 0.005231 0.814152
O O12 0.183927 0.011735 0.226773
O O13 0.500000 0.500000 0.500000
O O14 0.576204 0.250000 0.263710
O O15 0.867988 0.750000 0.532947
O O16 0.827805 0.985714 0.476065
O O17 0.294265 0.750000 0.616411
O O18 0.277343 0.004121 0.515476
O O19 0.805964 0.750000 0.367530
#
# Coordination Sequence:
#
# PCOD9163197 Si02
#       7
#     4   4   4   4   4   4   4
#     4   9  16  32  56  84 117 151 189 237 287 344
#     4  11  25  43  63  88 120 154 196 246 297 351
#     4  11  22  39  62  87 116 155 196 241 292 349
#     4  12  24  41  63  88 117 156 200 242 293 350
#     4   8  18  35  58  88 116 146 190 238 286 341
#     4  11  24  41  58  84 119 155 193 240 293 349
#     4  10  20  36  59  87 117 153 193 240 293 347
#
# _framework density 19.938486999999999
#
# number of rings (size 3 to 8) (size 9 to 14) (size 15 to 20)
#    0.000    1.714    1.429    4.286    2.000    1.714 
#    0.000    8.571    0.000    0.000    0.000    0.000 
#    0.000    0.000    0.000    0.000    0.000    0.000 
#
# Total GULP energy -156385.153674 kJ/mol
# GULP energy per Si atom -5585.184060 kJ/mol
# Density = 1.989311 g / cm^3
# Si number density = 19.938487 Si / 1000 Ang^3
#
#
#
# Elastic Constant Matrix: (Units=GPa)
#
#
# Indices 1 2 3 4 5 6 
#
# 1 37.8399 8.4628 -20.5200 0.0000 10.5138 0.0000
# 2 8.4628 64.7153 21.8981 0.0000 -1.8106 0.0000
# 3 -20.5200 21.8981 80.0732 0.0000 16.4417 0.0000
# 4 0.0000 0.0000 0.0000 25.0991 0.0000 -1.4759
# 5 10.5138 -1.8106 16.4417 0.0000 26.3357 0.0000
# 6 0.0000 0.0000 0.0000 -1.4759 0.0000 33.3483
#
#
#
# Elastic Compliance Matrix: (Units=1/GPa)
#
#
# Indices 1 2 3 4 5 6 
#
# 1 0.057558 -0.018299 0.028367 0.000000 -0.041946 0.000000
# 2 -0.018299 0.023363 -0.014807 0.000000 0.018156 0.000000
# 3 0.028367 -0.014807 0.030215 0.000000 -0.031206 0.000000
# 4 0.000000 0.000000 0.000000 0.039946 0.000000 0.001768
# 5 -0.041946 0.018156 -0.031206 0.000000 0.075448 0.000000
# 6 0.000000 0.000000 0.000000 0.001768 0.000000 0.030065
#
#
# Mechanical properties :
#
#
# Convention : Reuss Voigt Hill
#
# Bulk Modulus (GPa) = 9.83680 22.47891 16.15785
# Shear Modulus (GPa) = 16.66899 28.47579 22.57239
#
# Velocity S-wave (km/s) = 2.89454 3.78323 3.36832
# Velocity P-wave (km/s) = 4.01440 5.51202 4.82171
#
# Compressibility (1/GPa) = 0.10165911
#
# Stress axis : x y z
#
# Youngs Moduli (GPa) = 17.37391 42.80187 33.09599
#
# Poissons Ratio (x) = 0.78324 -0.93885
# Poissons Ratio (y) = 0.31793 0.49004
# Poissons Ratio (z) = -0.49285 0.63376
#
# Static dielectric constant tensor:
#      x y z
#    x 1.645610 0.000000 0.008290 
#    y 0.000000 1.669130 0.000000 
#    z 0.008290 0.000000 1.736470 
# 
# From -- ./inp_files/28396.got.cif
#   From: 2010.05.17/outbox.cif.g08.bks.cpg/sg11_15_cif.got.tgz:28396.got - 2010.06.03 12:22:45.
