data_PCOD9163650
_publ_section_title
;
Structure prediction by ZEFSAII (Michael W. Deem and Ramdas Pophale) SiO2 
 PCOD9163650
Probable space group: P 21/M
;
_chemical_formula_sum "Si O2"
_cell_formula_units_Z 20
_cell_length_a 9.212393
_cell_length_b 24.076816
_cell_length_c 8.896934
_cell_angle_alpha 90.000000
_cell_angle_beta 147.997782
_cell_angle_gamma 90.000000
_cell_volume 1045.799647
_symmetry_space_group_name_H-M "P 21/M"
_symmetry_group_IT_number 11
_symmetry_cell_setting 'monoclinic'
loop_
_space_group_symop_operation_xyz
x,y,z
-x,1/2+y,-z
-x,-y,-z
x,1/2-y,z
loop_
_atom_site_type_symbol
_atom_site_label
_atom_site_fract_x
_atom_site_fract_y
_atom_site_fract_z
Si Si1 0.350614 0.313674 0.109927
Si Si2 0.872622 0.952253 0.493073
Si Si3 0.521975 0.082328 0.420209
Si Si4 0.116220 0.865263 0.495136
Si Si5 0.706687 0.468441 0.887446
O O1 0.357626 0.250000 0.162673
O O2 0.377558 0.358127 0.269530
O O3 0.613122 0.329241 0.236511
O O4 0.084865 0.328375 0.781119
O O5 0.546781 0.958005 0.221154
O O6 0.964011 0.894412 0.498028
O O7 0.000000 0.000000 0.500000
O O8 0.012562 0.957935 0.779359
O O9 0.764436 0.086399 0.509549
O O10 0.647764 0.070134 0.692303
O O11 0.327533 0.031569 0.200853
#
# Coordination Sequence:
#
# PCOD9163650 Si02
#       5
#     4   4   4   4   4
#     4  10  20  37  61  82 105 146 197 242 270 320
#     4  12  21  36  54  86 118 154 174 222 281 345
#     4   9  23  36  57  88 112 148 190 229 278 343
#     4  10  21  35  58  84 109 141 197 223 274 336
#     4  11  23  34  59  84 125 146 178 229 291 335
#
# _framework density 19.124122
#
# number of rings (size 3 to 8) (size 9 to 14) (size 15 to 20)
#    1.200    0.400    2.000    3.600    2.800    1.600 
#    0.000    0.000    0.000    7.200    0.000    0.000 
#    0.000    0.000    0.000    0.000    0.000    0.000 
#
# Total GULP energy -111594.152701 kJ/mol
# GULP energy per Si atom -5579.707635 kJ/mol
# Density = 1.908059 g / cm^3
# Si number density = 19.124122 Si / 1000 Ang^3
#
#
#
# Elastic Constant Matrix: (Units=GPa)
#
#
# Indices 1 2 3 4 5 6 
#
# 1 45.7940 10.1790 -6.1082 0.0000 -2.9486 0.0000
# 2 10.1790 105.4968 5.6305 0.0000 -15.3839 0.0000
# 3 -6.1082 5.6305 53.5112 0.0000 2.0575 0.0000
# 4 0.0000 0.0000 0.0000 22.9594 0.0000 -1.9046
# 5 -2.9486 -15.3839 2.0575 0.0000 29.9523 0.0000
# 6 0.0000 0.0000 0.0000 -1.9046 0.0000 16.1320
#
#
#
# Elastic Compliance Matrix: (Units=1/GPa)
#
#
# Indices 1 2 3 4 5 6 
#
# 1 0.022760 -0.002212 0.002796 0.000000 0.000912 0.000000
# 2 -0.002212 0.010550 -0.001567 0.000000 0.005309 0.000000
# 3 0.002796 -0.001567 0.019243 0.000000 -0.001851 0.000000
# 4 0.000000 0.000000 0.000000 0.043986 0.000000 0.005193
# 5 0.000912 0.005309 -0.001851 0.000000 0.036330 0.000000
# 6 0.000000 0.000000 0.000000 0.005193 0.000000 0.062602
#
#
# Mechanical properties :
#
#
# Convention : Reuss Voigt Hill
#
# Bulk Modulus (GPa) = 19.76798 24.91163 22.33980
# Shear Modulus (GPa) = 23.33182 26.81545 25.07363
#
# Velocity S-wave (km/s) = 3.49667 3.74863 3.62484
# Velocity P-wave (km/s) = 5.16346 5.63834 5.40612
#
# Compressibility (1/GPa) = 0.05058686
#
# Stress axis : x y z
#
# Youngs Moduli (GPa) = 43.93611 94.78550 51.96733
#
# Poissons Ratio (x) = 0.20969 -0.14529
# Poissons Ratio (y) = 0.09720 0.08142
# Poissons Ratio (z) = -0.12283 0.14850
#
# Static dielectric constant tensor:
#      x y z
#    x 1.700690 0.000000 0.026110 
#    y 0.000000 1.665340 0.000000 
#    z 0.026110 0.000000 1.654980 
# 
# From -- ./inp_files/15234.got.cif
#   From: 2010.05.17/outbox.cif.g08.bks.cpg/sg11_8_cif.got.tgz:15234.got - 2010.06.03 12:22:45.
