data_PCOD9163435
_publ_section_title
;
Structure prediction by ZEFSAII (Michael W. Deem and Ramdas Pophale) SiO2 
 PCOD9163435
Probable space group: P 21/M
;
_chemical_formula_sum "Si O2"
_cell_formula_units_Z 30
_cell_length_a 9.419986
_cell_length_b 9.244139
_cell_length_c 14.672387
_cell_angle_alpha 90.000000
_cell_angle_beta 99.883493
_cell_angle_gamma 90.000000
_cell_volume 1258.704391
_symmetry_space_group_name_H-M "P 21/M"
_symmetry_group_IT_number 11
_symmetry_cell_setting 'monoclinic'
loop_
_space_group_symop_operation_xyz
x,y,z
-x,1/2+y,-z
-x,-y,-z
x,1/2-y,z
loop_
_atom_site_type_symbol
_atom_site_label
_atom_site_fract_x
_atom_site_fract_y
_atom_site_fract_z
Si Si1 0.013498 0.910887 0.731341
Si Si2 0.015096 0.250000 0.540135
Si Si3 0.435395 0.917141 0.378721
Si Si4 0.614778 0.077588 0.077136
Si Si5 0.791740 0.415156 0.814090
Si Si6 0.341416 0.581210 0.711945
Si Si7 0.153719 0.423257 0.006360
Si Si8 0.815489 0.972304 0.539884
O O1 0.016578 0.750000 0.775987
O O2 0.172488 0.942980 0.712803
O O3 0.942482 0.033088 0.785987
O O4 0.907141 0.902292 0.633256
O O5 0.139572 0.374371 0.539007
O O6 0.889445 0.126261 0.535083
O O7 0.454113 0.750000 0.408002
O O8 0.324435 0.918753 0.279497
O O9 0.347562 0.008146 0.444468
O O10 0.578563 0.987711 0.354081
O O11 0.621594 0.250000 0.060236
O O12 0.586832 0.057299 0.180970
O O13 0.500000 0.000000 0.000000
O O14 0.763644 0.998845 0.067650
O O15 0.801013 0.250000 0.849350
O O16 0.763030 0.526292 0.892578
O O17 0.356575 0.750000 0.688957
O O18 0.147100 0.250000 0.998048
O O19 0.000000 0.500000 0.000000
#
# Coordination Sequence:
#
# PCOD9163435 Si02
#       8
#     4   2   4   4   4   4   4   4
#     4  10  20  37  58  86 119 154 197 239 291 343
#     4  10  20  36  64  94 120 146 192 228 288 340
#     4  10  21  37  57  86 117 146 191 236 282 333
#     4  11  23  40  59  83 116 157 206 253 302 360
#     4  10  21  36  58  84 112 147 194 249 294 349
#     4  10  23  38  57  81 114 156 196 239 287 346
#     4  12  24  38  57  82 114 151 196 250 309 360
#     4  10  20  37  63  93 117 155 186 239 278 345
#
# _framework density 23.834029999999998
#
# number of rings (size 3 to 8) (size 9 to 14) (size 15 to 20)
#    0.000    1.600    1.333    3.600    1.867    5.867 
#    0.000    0.000    0.000    4.800    0.000    0.000 
#    0.000    0.000    0.000    0.000    0.000    0.000 
#
# Total GULP energy -167417.767302 kJ/mol
# GULP energy per Si atom -5580.592243 kJ/mol
# Density = 2.377978 g / cm^3
# Si number density = 23.834030 Si / 1000 Ang^3
#
#
#
# Elastic Constant Matrix: (Units=GPa)
#
#
# Indices 1 2 3 4 5 6 
#
# 1 141.4721 39.4358 9.9491 0.0000 -19.5675 0.0000
# 2 39.4358 163.1633 36.1500 0.0000 -25.1076 0.0000
# 3 9.9491 36.1500 67.4963 0.0000 2.7538 0.0000
# 4 0.0000 0.0000 0.0000 -25.8940 0.0000 2.0421
# 5 -19.5675 -25.1076 2.7538 0.0000 34.0528 0.0000
# 6 0.0000 0.0000 0.0000 2.0421 0.0000 21.5034
#
#
#
# Elastic Compliance Matrix: (Units=1/GPa)
#
#
# Indices 1 2 3 4 5 6 
#
# 1 0.007969 -0.001196 -0.000687 0.000000 0.003753 0.000000
# 2 -0.001196 0.008311 -0.004512 0.000000 0.005805 0.000000
# 3 -0.000687 -0.004512 0.017543 0.000000 -0.005140 0.000000
# 4 0.000000 0.000000 0.000000 -0.038332 0.000000 0.003640
# 5 0.003753 0.005805 -0.005140 0.000000 0.036218 0.000000
# 6 0.000000 0.000000 0.000000 0.003640 0.000000 0.046159
#
#
# Mechanical properties :
#
#
# Convention : Reuss Voigt Hill
#
# Bulk Modulus (GPa) = 47.54435 60.35572 53.95004
# Shear Modulus (GPa) = 51.19290 25.03887 38.11589
#
# Velocity S-wave (km/s) = 4.63956 3.24474 4.00336
# Velocity P-wave (km/s) = 6.97797 6.27822 6.63733
#
# Compressibility (1/GPa) = 0.02103299
#
# Stress axis : x y z
#
# Youngs Moduli (GPa) = 125.47944 120.32406 57.00288
#
# Poissons Ratio (x) = 0.14397 0.03916
# Poissons Ratio (y) = 0.15013 0.25718
# Poissons Ratio (z) = 0.08621 0.54286
#
# Static dielectric constant tensor:
#      x y z
#    x 1.958630 0.000000 0.064280 
#    y 0.000000 1.851500 0.000000 
#    z 0.064280 0.000000 2.027220 
# 
# From -- ./inp_files/63221.got.cif
#   From: 2010.05.17/outbox.cif.g08.bks.cpg/sg11_32_cif.got.tgz:63221.got - 2010.06.03 12:22:45.
