data_PCOD9163487
_publ_section_title
;
Structure prediction by ZEFSAII (Michael W. Deem and Ramdas Pophale) SiO2 
 PCOD9163487
Probable space group: P 21/M
;
_chemical_formula_sum "Si O2"
_cell_formula_units_Z 32
_cell_length_a 12.426061
_cell_length_b 13.899588
_cell_length_c 17.946223
_cell_angle_alpha 90.000000
_cell_angle_beta 33.060813
_cell_angle_gamma 90.000000
_cell_volume 1690.932289
_symmetry_space_group_name_H-M "P 21/M"
_symmetry_group_IT_number 11
_symmetry_cell_setting 'monoclinic'
loop_
_space_group_symop_operation_xyz
x,y,z
-x,1/2+y,-z
-x,-y,-z
x,1/2-y,z
loop_
_atom_site_type_symbol
_atom_site_label
_atom_site_fract_x
_atom_site_fract_y
_atom_site_fract_z
Si Si1 0.764493 0.360736 0.270508
Si Si2 0.279265 0.861644 0.880880
Si Si3 0.331901 0.459284 0.044464
Si Si4 0.856596 0.640889 0.716618
Si Si5 0.428530 0.365637 0.582907
Si Si6 0.686811 0.136921 0.575285
Si Si7 0.603678 0.998827 0.759416
Si Si8 0.002723 0.043787 0.841536
O O1 0.808401 0.250000 0.264166
O O2 0.722237 0.367331 0.207315
O O3 0.577117 0.391627 0.429431
O O4 0.944227 0.431897 0.180238
O O5 0.280174 0.750000 0.902226
O O6 0.470234 0.916280 0.799831
O O7 0.091046 0.911254 0.029544
O O8 0.232450 0.375716 0.149727
O O9 0.169014 0.541289 0.120492
O O10 0.500000 0.500000 0.000000
O O11 0.450586 0.440861 0.899703
O O12 0.812553 0.750000 0.715893
O O13 0.764390 0.558667 0.716065
O O14 0.091918 0.630541 0.584963
O O15 0.416377 0.250000 0.590143
O O16 0.530832 0.393860 0.602054
O O17 0.208546 0.405955 0.702932
O O18 0.650055 0.250000 0.614265
O O19 0.680373 0.069294 0.651071
#
# Coordination Sequence:
#
# PCOD9163487 Si02
#       8
#     4   4   4   4   4   4   4   4
#     4  10  21  35  53  81 114 145 185 231 277 332
#     4  10  21  36  54  80 111 143 183 232 279 330
#     4   9  21  37  54  79 108 139 181 228 275 327
#     4  10  20  37  60  83 110 148 188 231 282 337
#     4  10  21  37  56  82 114 149 189 233 280 332
#     4  10  21  36  56  83 115 148 187 234 281 331
#     4  10  20  37  58  82 112 147 188 230 280 337
#     4  11  20  35  58  80 108 147 186 227 281 338
#
# _framework density 18.924472000000002
#
# number of rings (size 3 to 8) (size 9 to 14) (size 15 to 20)
#    0.000    2.000    0.000    3.375    0.000    4.000 
#    0.000    5.000    0.000    3.000    0.000    0.000 
#    0.000    0.000    0.000    0.000    0.000    0.000 
#
# Total GULP energy -178484.711780 kJ/mol
# GULP energy per Si atom -5577.647243 kJ/mol
# Density = 1.888140 g / cm^3
# Si number density = 18.924472 Si / 1000 Ang^3
#
#
#
# Elastic Constant Matrix: (Units=GPa)
#
#
# Indices 1 2 3 4 5 6 
#
# 1 77.3258 30.9298 35.6344 0.0000 -5.6897 0.0000
# 2 30.9298 63.2713 37.5271 0.0000 2.3493 0.0000
# 3 35.6344 37.5271 86.8577 0.0000 1.0179 0.0000
# 4 0.0000 0.0000 0.0000 26.9745 0.0000 4.9037
# 5 -5.6897 2.3493 1.0179 0.0000 27.4424 0.0000
# 6 0.0000 0.0000 0.0000 4.9037 0.0000 26.5178
#
#
#
# Elastic Compliance Matrix: (Units=1/GPa)
#
#
# Indices 1 2 3 4 5 6 
#
# 1 0.017883 -0.006082 -0.004761 0.000000 0.004405 0.000000
# 2 -0.006082 0.023379 -0.007571 0.000000 -0.002982 0.000000
# 3 -0.004761 -0.007571 0.016748 0.000000 -0.000960 0.000000
# 4 0.000000 0.000000 0.000000 0.038362 0.000000 -0.007094
# 5 0.004405 -0.002982 -0.000960 0.000000 0.037644 0.000000
# 6 0.000000 0.000000 0.000000 -0.007094 0.000000 0.039022
#
#
# Mechanical properties :
#
#
# Convention : Reuss Voigt Hill
#
# Bulk Modulus (GPa) = 47.20608 48.40414 47.80511
# Shear Modulus (GPa) = 23.04923 24.41116 23.73020
#
# Velocity S-wave (km/s) = 3.49371 3.59545 3.54495
# Velocity P-wave (km/s) = 6.42443 6.54747 6.48624
#
# Compressibility (1/GPa) = 0.02118371
#
# Stress axis : x y z
#
# Youngs Moduli (GPa) = 55.91898 42.77308 59.70706
#
# Poissons Ratio (x) = 0.26014 0.28424
# Poissons Ratio (y) = 0.34010 0.45204
# Poissons Ratio (z) = 0.26621 0.32383
#
# Static dielectric constant tensor:
#      x y z
#    x 1.670390 0.000000 0.004740 
#    y 0.000000 1.662440 0.000000 
#    z 0.004740 0.000000 1.659150 
# 
# From -- ./inp_files/41698.got.cif
#   From: 2010.05.17/outbox.cif.g08.bks.cpg/sg11_21_cif.got.tgz:41698.got - 2010.06.03 12:22:45.
