data_PCOD9163986
_publ_section_title
;
Structure prediction by ZEFSAII (Michael W. Deem and Ramdas Pophale) SiO2 
 PCOD9163986
Probable space group: P 21/M
;
_chemical_formula_sum "Si O2"
_cell_formula_units_Z 20
_cell_length_a 9.288535
_cell_length_b 15.579736
_cell_length_c 8.272374
_cell_angle_alpha 90.000000
_cell_angle_beta 44.410752
_cell_angle_gamma 90.000000
_cell_volume 837.741065
_symmetry_space_group_name_H-M "P 21/M"
_symmetry_group_IT_number 11
_symmetry_cell_setting 'monoclinic'
loop_
_space_group_symop_operation_xyz
x,y,z
-x,1/2+y,-z
-x,-y,-z
x,1/2-y,z
loop_
_atom_site_type_symbol
_atom_site_label
_atom_site_fract_x
_atom_site_fract_y
_atom_site_fract_z
Si Si1 0.048350 0.943681 0.302075
Si Si2 0.309850 0.651257 0.560430
Si Si3 0.841408 0.888263 0.956641
Si Si4 0.448198 0.907713 0.116001
Si Si5 0.676352 0.650521 0.447053
O O1 0.835888 0.899165 0.428435
O O2 0.241838 0.880849 0.185657
O O3 0.000000 0.000000 0.500000
O O4 0.118845 0.010492 0.106938
O O5 0.373483 0.750000 0.472710
O O6 0.373453 0.590561 0.361750
O O7 0.436341 0.624902 0.619360
O O8 0.066467 0.650821 0.765125
O O9 0.669104 0.861465 0.961258
O O10 0.757956 0.864557 0.199133
O O11 0.500000 0.000000 0.000000
O O12 0.683715 0.750000 0.485808
#
# Coordination Sequence:
#
# PCOD9163986 Si02
#       5
#     4   4   4   4   4
#     4  11  21  40  62  92 125 163 204 258 311 371
#     4  10  20  38  62  89 120 164 210 254 308 372
#     4  10  20  40  64  88 120 164 207 253 305 374
#     4   9  20  37  61  89 125 158 201 256 307 367
#     4  10  23  41  60  87 123 161 207 259 311 370
#
# _framework density 23.873726000000001
#
# number of rings (size 3 to 8) (size 9 to 14) (size 15 to 20)
#    0.000    2.000    2.000    1.200    0.000    2.400 
#   10.800    0.000    0.000    0.000    0.000    0.000 
#    0.000    0.000    0.000    0.000    0.000    0.000 
#
# Total GULP energy -111597.873140 kJ/mol
# GULP energy per Si atom -5579.893657 kJ/mol
# Density = 2.381939 g / cm^3
# Si number density = 23.873726 Si / 1000 Ang^3
#
#
#
# Elastic Constant Matrix: (Units=GPa)
#
#
# Indices 1 2 3 4 5 6 
#
# 1 224.3654 74.2070 38.6266 0.0000 -54.1431 0.0000
# 2 74.2070 55.8710 11.2625 0.0000 -11.6968 0.0000
# 3 38.6266 11.2625 70.9483 0.0000 -24.4274 0.0000
# 4 0.0000 0.0000 0.0000 -0.3721 0.0000 -45.7394
# 5 -54.1431 -11.6968 -24.4274 0.0000 46.7422 0.0000
# 6 0.0000 0.0000 0.0000 -45.7394 0.0000 -40.1409
#
#
#
# Elastic Compliance Matrix: (Units=1/GPa)
#
#
# Indices 1 2 3 4 5 6 
#
# 1 0.010892 -0.012397 -0.000837 0.000000 0.009077 0.000000
# 2 -0.012397 0.033163 -0.000734 0.000000 -0.006445 0.000000
# 3 -0.000837 -0.000734 0.017401 0.000000 0.007941 0.000000
# 4 0.000000 0.000000 0.000000 0.019325 0.000000 -0.022020
# 5 0.009077 -0.006445 0.007941 0.000000 0.034445 0.000000
# 6 0.000000 0.000000 0.000000 -0.022020 0.000000 0.000179
#
#
# Mechanical properties :
#
#
# Convention : Reuss Voigt Hill
#
# Bulk Modulus (GPa) = 29.83335 66.59744 48.21539
# Shear Modulus (GPa) = 32.35961 16.38509 24.37235
#
# Velocity S-wave (km/s) = 3.68564 2.62262 3.19860
# Velocity P-wave (km/s) = 5.53492 6.09320 5.82076
#
# Compressibility (1/GPa) = 0.03351953
#
# Stress axis : x y z
#
# Youngs Moduli (GPa) = 91.81258 30.15409 57.46865
#
# Poissons Ratio (x) = 0.37383 0.04809
# Poissons Ratio (y) = 1.13823 0.04218
# Poissons Ratio (z) = 0.07682 0.02213
#
# Static dielectric constant tensor:
#      x y z
#    x 2.012240 0.000000 -0.062140 
#    y 0.000000 1.901200 0.000000 
#    z -0.062140 0.000000 1.936950 
# 
# From -- ./inp_files/13052.got.cif
#   From: 2010.05.17/outbox.cif.g08.bks.cpg/sg11_7_cif.got.tgz:13052.got - 2010.06.03 12:22:45.
