data_PCOD9163801
_publ_section_title
;
Structure prediction by ZEFSAII (Michael W. Deem and Ramdas Pophale) SiO2 
 PCOD9163801
Probable space group: P 21/M
;
_chemical_formula_sum "Si O2"
_cell_formula_units_Z 32
_cell_length_a 13.990579
_cell_length_b 24.931779
_cell_length_c 9.126274
_cell_angle_alpha 90.000000
_cell_angle_beta 147.613448
_cell_angle_gamma 90.000000
_cell_volume 1705.085745
_symmetry_space_group_name_H-M "P 21/M"
_symmetry_group_IT_number 11
_symmetry_cell_setting 'monoclinic'
loop_
_space_group_symop_operation_xyz
x,y,z
-x,1/2+y,-z
-x,-y,-z
x,1/2-y,z
loop_
_atom_site_type_symbol
_atom_site_label
_atom_site_fract_x
_atom_site_fract_y
_atom_site_fract_z
Si Si1 0.256773 0.313121 0.242345
Si Si2 0.917327 0.525029 0.535970
Si Si3 0.736416 0.476830 0.556078
Si Si4 0.553317 0.592063 0.344654
Si Si5 0.455593 0.311987 0.188538
Si Si6 0.555520 0.586858 0.011271
Si Si7 0.805671 0.408940 0.934529
Si Si8 0.140553 0.688348 0.192940
O O1 0.284788 0.250000 0.319148
O O2 0.332910 0.356262 0.456565
O O3 0.360870 0.321291 0.223428
O O4 0.042393 0.321666 0.954706
O O5 0.890604 0.483643 0.634934
O O6 0.725156 0.548443 0.247283
O O7 0.000000 0.500000 0.500000
O O8 0.043559 0.570942 0.761485
O O9 0.665650 0.536700 0.501678
O O10 0.796159 0.446481 0.778532
O O11 0.582964 0.443030 0.274641
O O12 0.491684 0.595765 0.095502
O O13 0.383550 0.588775 0.230232
O O14 0.421183 0.250000 0.103086
O O15 0.670517 0.319253 0.480530
O O16 0.392673 0.356636 0.993674
O O17 0.851415 0.350472 0.934542
O O18 0.136497 0.750000 0.140848
#
# Coordination Sequence:
#
# PCOD9163801 Si02
#       8
#     4   4   4   4   4   4   4   4
#     4  10  21  39  63  90 120 157 203 252 304 361
#     4  11  24  39  57  89 127 161 201 259 316 368
#     4  11  22  39  60  84 119 165 208 248 302 370
#     4  11  22  37  61  87 123 159 201 252 311 362
#     4  10  21  41  64  89 121 162 204 252 304 364
#     4  11  22  41  58  86 126 163 198 251 314 367
#     4  12  22  39  62  91 119 162 211 252 304 368
#     4  10  20  37  63  92 119 151 205 259 296 353
#
# _framework density 18.767385000000001
#
# number of rings (size 3 to 8) (size 9 to 14) (size 15 to 20)
#    0.000    1.250    2.500    5.250    0.000    2.500 
#    2.250    0.625    0.000    0.000    0.000    0.000 
#    0.000    0.000    0.000    0.000    0.000    0.000 
#
# Total GULP energy -178700.483434 kJ/mol
# GULP energy per Si atom -5584.390107 kJ/mol
# Density = 1.872467 g / cm^3
# Si number density = 18.767385 Si / 1000 Ang^3
#
#
#
# Elastic Constant Matrix: (Units=GPa)
#
#
# Indices 1 2 3 4 5 6 
#
# 1 92.2862 27.7229 8.0138 0.0000 4.6464 0.0000
# 2 27.7229 74.8666 3.5625 0.0000 -16.3885 0.0000
# 3 8.0138 3.5625 21.3246 0.0000 -5.4651 0.0000
# 4 0.0000 0.0000 0.0000 18.4965 0.0000 -4.4402
# 5 4.6464 -16.3885 -5.4651 0.0000 26.6863 0.0000
# 6 0.0000 0.0000 0.0000 -4.4402 0.0000 29.0431
#
#
#
# Elastic Compliance Matrix: (Units=1/GPa)
#
#
# Indices 1 2 3 4 5 6 
#
# 1 0.013669 -0.006431 -0.005999 0.000000 -0.007558 0.000000
# 2 -0.006431 0.018457 0.002665 0.000000 0.013000 0.000000
# 3 -0.005999 0.002665 0.052126 0.000000 0.013356 0.000000
# 4 0.000000 0.000000 0.000000 0.056124 0.000000 0.008581
# 5 -0.007558 0.013000 0.013356 0.000000 0.049507 0.000000
# 6 0.000000 0.000000 0.000000 0.008581 0.000000 0.035743
#
#
# Mechanical properties :
#
#
# Convention : Reuss Voigt Hill
#
# Bulk Modulus (GPa) = 15.45058 29.67510 22.56284
# Shear Modulus (GPa) = 18.74540 24.79038 21.76789
#
# Velocity S-wave (km/s) = 3.16385 3.63840 3.40939
# Velocity P-wave (km/s) = 4.64728 5.78766 5.24853
#
# Compressibility (1/GPa) = 0.06472247
#
# Stress axis : x y z
#
# Youngs Moduli (GPa) = 73.15779 54.17911 19.18412
#
# Poissons Ratio (x) = 0.34840 0.11509
# Poissons Ratio (y) = 0.47044 -0.05112
# Poissons Ratio (z) = 0.43891 -0.14438
#
# Static dielectric constant tensor:
#      x y z
#    x 1.653250 0.000000 0.016930 
#    y 0.000000 1.652580 0.000000 
#    z 0.016930 0.000000 1.647210 
# 
# From -- ./inp_files/23330.got.cif
#   From: 2010.05.17/outbox.cif.g08.bks.cpg/sg11_12_cif.got.tgz:23330.got - 2010.06.03 12:22:45.
