data_PCOD9163995
_publ_section_title
;
Structure prediction by ZEFSAII (Michael W. Deem and Ramdas Pophale) SiO2 
 PCOD9163995
Probable space group: P 21/M
;
_chemical_formula_sum "Si O2"
_cell_formula_units_Z 28
_cell_length_a 7.425468
_cell_length_b 15.013945
_cell_length_c 14.205119
_cell_angle_alpha 90.000000
_cell_angle_beta 125.852303
_cell_angle_gamma 90.000000
_cell_volume 1283.607814
_symmetry_space_group_name_H-M "P 21/M"
_symmetry_group_IT_number 11
_symmetry_cell_setting 'monoclinic'
loop_
_space_group_symop_operation_xyz
x,y,z
-x,1/2+y,-z
-x,-y,-z
x,1/2-y,z
loop_
_atom_site_type_symbol
_atom_site_label
_atom_site_fract_x
_atom_site_fract_y
_atom_site_fract_z
Si Si1 0.806493 0.351543 0.419229
Si Si2 0.637544 0.155143 0.727471
Si Si3 0.457476 0.395387 0.471795
Si Si4 0.289019 0.970397 0.790324
Si Si5 0.780343 0.516879 0.873919
Si Si6 0.171049 0.348457 0.688152
Si Si7 0.946358 0.645514 0.774229
O O1 0.815123 0.250000 0.384197
O O2 0.604751 0.360490 0.430762
O O3 0.771553 0.424011 0.328171
O O4 0.020487 0.366853 0.550436
O O5 0.756922 0.250000 0.776952
O O6 0.543772 0.148923 0.593374
O O7 0.421930 0.155997 0.728271
O O8 0.758566 0.065249 0.794117
O O9 0.500000 0.500000 0.500000
O O10 0.205681 0.375053 0.364506
O O11 0.555930 0.978255 0.867749
O O12 0.177430 0.907155 0.833166
O O13 0.170441 0.067005 0.756215
O O14 0.814918 0.605150 0.822517
O O15 0.000000 0.500000 0.000000
O O16 0.105906 0.250000 0.704391
O O17 0.979115 0.750000 0.792629
#
# Coordination Sequence:
#
# PCOD9163995 Si02
#       7
#     4   4   4   4   4   4   4
#     4  11  20  32  55  91 133 173 204 250 321 399
#     4  10  20  38  62  92 127 170 216 266 330 396
#     4  12  20  35  60  97 137 171 208 261 328 398
#     4  11  22  41  64  93 129 170 217 265 332 387
#     4  11  26  47  68  91 128 174 227 283 324 377
#     4   9  19  34  55  87 129 170 209 256 317 394
#     4  12  25  42  69 101 134 173 216 268 329 399
#
# _framework density 21.813517999999998
#
# number of rings (size 3 to 8) (size 9 to 14) (size 15 to 20)
#    0.000    1.143    2.857    4.714    0.000    2.857 
#    0.000    0.000    0.000    0.000    0.000    0.000 
#    0.000    0.000    0.000    0.000    0.000    0.000 
#
# Total GULP energy -156580.840114 kJ/mol
# GULP energy per Si atom -5592.172861 kJ/mol
# Density = 2.176387 g / cm^3
# Si number density = 21.813518 Si / 1000 Ang^3
#
#
#
# Elastic Constant Matrix: (Units=GPa)
#
#
# Indices 1 2 3 4 5 6 
#
# 1 49.0770 7.3050 6.4778 0.0000 12.1998 0.0000
# 2 7.3050 145.8130 24.5137 0.0000 13.9228 0.0000
# 3 6.4778 24.5137 79.7228 0.0000 21.5505 0.0000
# 4 0.0000 0.0000 0.0000 -2.5801 0.0000 6.4486
# 5 12.1998 13.9228 21.5505 0.0000 19.2102 0.0000
# 6 0.0000 0.0000 0.0000 6.4486 0.0000 25.4123
#
#
#
# Elastic Compliance Matrix: (Units=1/GPa)
#
#
# Indices 1 2 3 4 5 6 
#
# 1 0.024757 0.000071 0.003201 0.000000 -0.019365 0.000000
# 2 0.000071 0.007446 -0.001183 0.000000 -0.004114 0.000000
# 3 0.003201 -0.001183 0.018608 0.000000 -0.022050 0.000000
# 4 0.000000 0.000000 0.000000 -0.237163 0.000000 0.060183
# 5 -0.019365 -0.004114 -0.022050 0.000000 0.092071 0.000000
# 6 0.000000 0.000000 0.000000 0.060183 0.000000 0.024079
#
#
# Mechanical properties :
#
#
# Convention : Reuss Voigt Hill
#
# Bulk Modulus (GPa) = 18.18574 39.02284 28.60429
# Shear Modulus (GPa) = -89.20668 24.16290 -32.52189
#
# Velocity S-wave (km/s) = -6.40187 3.33183 -3.86541
# Velocity P-wave (km/s) = 6.80369 5.72098 2.60391
#
# Compressibility (1/GPa) = 0.05498815
#
# Stress axis : x y z
#
# Youngs Moduli (GPa) = 40.39285 134.29433 53.74128
#
# Poissons Ratio (x) = -0.00947 -0.17204
# Poissons Ratio (y) = -0.00285 0.06359
# Poissons Ratio (z) = -0.12931 0.15890
#
# Static dielectric constant tensor:
#      x y z
#    x 1.832240 0.000000 0.031050 
#    y 0.000000 1.844090 0.000000 
#    z 0.031050 0.000000 1.781490 
# 
# From -- ./inp_files/47562.got.cif
#   From: 2010.05.17/outbox.cif.g08.bks.cpg/sg11_24_cif.got.tgz:47562.got - 2010.06.03 12:22:45.
