data_PCOD9163662
_publ_section_title
;
Structure prediction by ZEFSAII (Michael W. Deem and Ramdas Pophale) SiO2 
 PCOD9163662
Probable space group: P 21/M
;
_chemical_formula_sum "Si O2"
_cell_formula_units_Z 32
_cell_length_a 14.144088
_cell_length_b 26.969825
_cell_length_c 8.388810
_cell_angle_alpha 90.000000
_cell_angle_beta 30.420009
_cell_angle_gamma 90.000000
_cell_volume 1620.284718
_symmetry_space_group_name_H-M "P 21/M"
_symmetry_group_IT_number 11
_symmetry_cell_setting 'monoclinic'
loop_
_space_group_symop_operation_xyz
x,y,z
-x,1/2+y,-z
-x,-y,-z
x,1/2-y,z
loop_
_atom_site_type_symbol
_atom_site_label
_atom_site_fract_x
_atom_site_fract_y
_atom_site_fract_z
Si Si1 0.095480 0.641911 0.860054
Si Si2 0.682640 0.878123 0.999250
Si Si3 0.349099 0.945362 0.592868
Si Si4 0.708058 0.996537 0.616886
Si Si5 0.744295 0.885642 0.552857
Si Si6 0.927393 0.090899 0.434975
Si Si7 0.420919 0.692831 0.555975
Si Si8 0.382014 0.894517 0.859976
O O1 0.175255 0.591366 0.822637
O O2 0.098930 0.631096 0.667549
O O3 0.242445 0.683483 0.699774
O O4 0.890015 0.644542 0.233330
O O5 0.719137 0.863299 0.764417
O O6 0.857963 0.904603 0.826841
O O7 0.514669 0.917743 0.255597
O O8 0.604362 0.830541 0.206878
O O9 0.308389 0.993839 0.549794
O O10 0.395824 0.939762 0.711458
O O11 0.843259 0.039178 0.490680
O O12 0.796217 0.942883 0.514519
O O13 0.500000 0.000000 0.000000
O O14 0.552614 0.892216 0.734468
O O15 0.805479 0.101845 0.767325
O O16 0.440617 0.750000 0.567186
O O17 0.385319 0.656257 0.755490
#
# Coordination Sequence:
#
# PCOD9163662 Si02
#       8
#     4   4   4   4   4   4   4   4
#     4   9  20  38  60  85 117 155 190 244 308 343
#     4  10  20  37  61  85 120 157 192 246 309 345
#     4   9  19  36  54  81 120 159 201 247 287 337
#     4  11  21  38  57  88 125 166 217 243 274 356
#     4  12  21  38  61  87 128 166 199 244 293 352
#     4  11  21  39  60  88 127 165 201 246 293 348
#     4  10  22  44  68  90 114 148 198 252 308 381
#     4  10  20  37  62  86 123 164 192 251 315 345
#
# _framework density 19.749614999999999
#
# number of rings (size 3 to 8) (size 9 to 14) (size 15 to 20)
#    0.000    2.000    2.500    4.500    0.000    3.000 
#    0.000    7.500    0.000    0.750    0.000    0.000 
#    0.000    0.000    0.000    0.000    0.000    0.000 
#
# Total GULP energy -178499.901935 kJ/mol
# GULP energy per Si atom -5578.121935 kJ/mol
# Density = 1.970466 g / cm^3
# Si number density = 19.749615 Si / 1000 Ang^3
#
#
#
# Elastic Constant Matrix: (Units=GPa)
#
#
# Indices 1 2 3 4 5 6 
#
# 1 65.3549 10.2423 16.6039 0.0000 14.0664 0.0000
# 2 10.2423 68.1031 24.3126 0.0000 17.9017 0.0000
# 3 16.6039 24.3126 96.5362 0.0000 4.9967 0.0000
# 4 0.0000 0.0000 0.0000 12.9993 0.0000 -1.2455
# 5 14.0664 17.9017 4.9967 0.0000 38.5899 0.0000
# 6 0.0000 0.0000 0.0000 -1.2455 0.0000 12.1483
#
#
#
# Elastic Compliance Matrix: (Units=1/GPa)
#
#
# Indices 1 2 3 4 5 6 
#
# 1 0.017257 -0.000103 -0.002637 0.000000 -0.005901 0.000000
# 2 -0.000103 0.018264 -0.004174 0.000000 -0.007895 0.000000
# 3 -0.002637 -0.004174 0.011793 0.000000 0.001370 0.000000
# 4 0.000000 0.000000 0.000000 0.077690 0.000000 0.007965
# 5 -0.005901 -0.007895 0.001370 0.000000 0.031550 0.000000
# 6 0.000000 0.000000 0.000000 0.007965 0.000000 0.083133
#
#
# Mechanical properties :
#
#
# Convention : Reuss Voigt Hill
#
# Bulk Modulus (GPa) = 29.86172 36.92351 33.39261
# Shear Modulus (GPa) = 18.89109 24.66989 21.78049
#
# Velocity S-wave (km/s) = 3.09614 3.53814 3.32449
# Velocity P-wave (km/s) = 5.28530 5.95211 5.62859
#
# Compressibility (1/GPa) = 0.03348769
#
# Stress axis : x y z
#
# Youngs Moduli (GPa) = 57.94669 54.75167 84.79961
#
# Poissons Ratio (x) = 0.00563 0.22360
# Poissons Ratio (y) = 0.00596 0.35391
# Poissons Ratio (z) = 0.15280 0.22851
#
# Static dielectric constant tensor:
#      x y z
#    x 1.747310 0.000000 -0.001390 
#    y 0.000000 1.677490 0.000000 
#    z -0.001390 0.000000 1.710380 
# 
# From -- ./inp_files/23456.got.cif
#   From: 2010.05.17/outbox.cif.g08.bks.cpg/sg11_12_cif.got.tgz:23456.got - 2010.06.03 12:22:45.
