data_PCOD9163611
_publ_section_title
;
Structure prediction by ZEFSAII (Michael W. Deem and Ramdas Pophale) SiO2 
 PCOD9163611
Probable space group: P 21/M
;
_chemical_formula_sum "Si O2"
_cell_formula_units_Z 20
_cell_length_a 9.206171
_cell_length_b 17.001055
_cell_length_c 8.574990
_cell_angle_alpha 90.000000
_cell_angle_beta 135.146046
_cell_angle_gamma 90.000000
_cell_volume 946.593893
_symmetry_space_group_name_H-M "P 21/M"
_symmetry_group_IT_number 11
_symmetry_cell_setting 'monoclinic'
loop_
_space_group_symop_operation_xyz
x,y,z
-x,1/2+y,-z
-x,-y,-z
x,1/2-y,z
loop_
_atom_site_type_symbol
_atom_site_label
_atom_site_fract_x
_atom_site_fract_y
_atom_site_fract_z
Si Si1 0.161418 0.583559 0.472872
Si Si2 0.685366 0.076443 0.055637
Si Si3 0.072478 0.058939 0.193049
Si Si4 0.442645 0.161736 0.344884
Si Si5 0.303569 0.109598 0.912745
O O1 0.241196 0.583703 0.709523
O O2 0.130136 0.495605 0.384370
O O3 0.329968 0.623946 0.489717
O O4 0.935963 0.622006 0.300228
O O5 0.867125 0.106884 0.084068
O O6 0.669349 0.982443 0.012560
O O7 0.460554 0.115636 0.887044
O O8 0.269783 0.109113 0.296294
O O9 0.000000 0.000000 0.000000
O O10 0.448242 0.250000 0.410419
O O11 0.373255 0.161345 0.110634
#
# Coordination Sequence:
#
# PCOD9163611 Si02
#       5
#     4   4   4   4   4
#     4  10  20  37  60  87 113 151 197 236 284 349
#     4   9  18  33  61  90 111 140 194 238 283 335
#     4  11  19  37  59  91 115 149 192 245 291 337
#     4  11  23  37  56  85 121 156 191 240 298 350
#     4   9  17  35  57  82 112 146 187 234 281 338
#
# _framework density 21.128385999999999
#
# number of rings (size 3 to 8) (size 9 to 14) (size 15 to 20)
#    0.000    2.000    4.000    3.000    0.000    0.800 
#    3.600    4.000    0.000    3.600    0.000    0.000 
#    0.000    0.000    0.000    0.000    0.000    0.000 
#
# Total GULP energy -111592.232698 kJ/mol
# GULP energy per Si atom -5579.611635 kJ/mol
# Density = 2.108030 g / cm^3
# Si number density = 21.128386 Si / 1000 Ang^3
#
#
#
# Elastic Constant Matrix: (Units=GPa)
#
#
# Indices 1 2 3 4 5 6 
#
# 1 206.4895 33.8855 35.1204 0.0000 57.8771 0.0000
# 2 33.8855 39.2179 4.7871 0.0000 18.8577 0.0000
# 3 35.1204 4.7871 50.0532 0.0000 30.2516 0.0000
# 4 0.0000 0.0000 0.0000 6.8266 0.0000 -3.5183
# 5 57.8771 18.8577 30.2516 0.0000 48.8950 0.0000
# 6 0.0000 0.0000 0.0000 -3.5183 0.0000 9.6373
#
#
#
# Elastic Compliance Matrix: (Units=1/GPa)
#
#
# Indices 1 2 3 4 5 6 
#
# 1 0.007480 -0.002805 -0.000452 0.000000 -0.007493 0.000000
# 2 -0.002805 0.033910 0.007384 0.000000 -0.014326 0.000000
# 3 -0.000452 0.007384 0.033523 0.000000 -0.023054 0.000000
# 4 0.000000 0.000000 0.000000 0.180433 0.000000 0.065871
# 5 -0.007493 -0.014326 -0.023054 0.000000 0.049111 0.000000
# 6 0.000000 0.000000 0.000000 0.065871 0.000000 0.127811
#
#
# Mechanical properties :
#
#
# Convention : Reuss Voigt Hill
#
# Bulk Modulus (GPa) = 12.02403 49.26073 30.64238
# Shear Modulus (GPa) = 11.06841 27.86962 19.46902
#
# Velocity S-wave (km/s) = 2.29129 3.63583 3.03885
# Velocity P-wave (km/s) = 3.56417 6.40244 5.18144
#
# Compressibility (1/GPa) = 0.08316677
#
# Stress axis : x y z
#
# Youngs Moduli (GPa) = 133.68558 29.49024 29.83032
#
# Poissons Ratio (x) = 0.08272 0.01347
# Poissons Ratio (y) = 0.37499 -0.22025
# Poissons Ratio (z) = 0.06036 -0.21774
#
# Static dielectric constant tensor:
#      x y z
#    x 1.862590 0.000000 0.038950 
#    y 0.000000 1.756730 0.000000 
#    z 0.038950 0.000000 1.805970 
# 
# From -- ./inp_files/13360.got.cif
#   From: 2010.05.17/outbox.cif.g08.bks.cpg/sg11_7_cif.got.tgz:13360.got - 2010.06.03 12:22:45.
