data_PCOD9163266
_publ_section_title
;
Structure prediction by ZEFSAII (Michael W. Deem and Ramdas Pophale) SiO2 
 PCOD9163266
Probable space group: P 21/M
;
_chemical_formula_sum "Si O2"
_cell_formula_units_Z 20
_cell_length_a 11.119024
_cell_length_b 13.674040
_cell_length_c 9.315573
_cell_angle_alpha 90.000000
_cell_angle_beta 141.485655
_cell_angle_gamma 90.000000
_cell_volume 881.981175
_symmetry_space_group_name_H-M "P 21/M"
_symmetry_group_IT_number 11
_symmetry_cell_setting 'monoclinic'
loop_
_space_group_symop_operation_xyz
x,y,z
-x,1/2+y,-z
-x,-y,-z
x,1/2-y,z
loop_
_atom_site_type_symbol
_atom_site_label
_atom_site_fract_x
_atom_site_fract_y
_atom_site_fract_z
Si Si1 0.887079 0.360857 0.838009
Si Si2 0.875282 0.366836 0.504778
Si Si3 0.457922 0.561480 0.317428
Si Si4 0.122896 0.133862 0.312298
Si Si5 0.198616 0.510110 0.820972
O O1 0.943255 0.250000 0.858663
O O2 0.829362 0.397198 0.626740
O O3 0.708202 0.365871 0.779269
O O4 0.067705 0.401092 0.097765
O O5 0.855857 0.250000 0.465312
O O6 0.751418 0.430034 0.276162
O O7 0.096070 0.406510 0.694119
O O8 0.500000 0.500000 0.500000
O O9 0.654071 0.613038 0.453016
O O10 0.361621 0.505388 0.093888
O O11 0.086888 0.250000 0.288634
O O12 0.974579 0.076971 0.274604
#
# Coordination Sequence:
#
# PCOD9163266 Si02
#       5
#     4   4   4   4   4
#     4   9  19  36  57  82 113 149 191 236 282 336
#     4  10  20  38  61  82 114 156 191 234 290 340
#     4  11  21  35  58  86 116 150 190 238 286 337
#     4  10  20  36  60  87 116 152 193 238 288 340
#     4  10  22  39  59  85 116 151 193 237 284 342
#
# _framework density 22.676220000000001
#
# number of rings (size 3 to 8) (size 9 to 14) (size 15 to 20)
#    0.000    2.000    0.000    3.600    0.000    5.600 
#    0.000   12.000    0.000    8.400    0.000    0.000 
#    0.000    0.000    0.000    0.000    0.000    0.000 
#
# Total GULP energy -111633.678424 kJ/mol
# GULP energy per Si atom -5581.683921 kJ/mol
# Density = 2.262461 g / cm^3
# Si number density = 22.676220 Si / 1000 Ang^3
#
#
#
# Elastic Constant Matrix: (Units=GPa)
#
#
# Indices 1 2 3 4 5 6 
#
# 1 73.8132 0.6005 29.5048 0.0000 -5.6301 0.0000
# 2 0.6005 70.6075 1.6491 0.0000 0.8324 0.0000
# 3 29.5048 1.6491 142.5415 0.0000 -18.1822 0.0000
# 4 0.0000 0.0000 0.0000 25.2808 0.0000 -3.4826
# 5 -5.6301 0.8324 -18.1822 0.0000 44.9487 0.0000
# 6 0.0000 0.0000 0.0000 -3.4826 0.0000 24.8662
#
#
#
# Elastic Compliance Matrix: (Units=1/GPa)
#
#
# Indices 1 2 3 4 5 6 
#
# 1 0.014788 -0.000064 -0.002977 0.000000 0.000649 0.000000
# 2 -0.000064 0.014172 -0.000195 0.000000 -0.000349 0.000000
# 3 -0.002977 -0.000195 0.008000 0.000000 0.002867 0.000000
# 4 0.000000 0.000000 0.000000 0.040334 0.000000 0.005649
# 5 0.000649 -0.000349 0.002867 0.000000 0.023495 0.000000
# 6 0.000000 0.000000 0.000000 0.005649 0.000000 0.041006
#
#
# Mechanical properties :
#
#
# Convention : Reuss Voigt Hill
#
# Bulk Modulus (GPa) = 32.80153 38.94123 35.87138
# Shear Modulus (GPa) = 31.55965 36.03300 33.79632
#
# Velocity S-wave (km/s) = 3.73466 3.99058 3.86474
# Velocity P-wave (km/s) = 5.75270 6.20024 5.98066
#
# Compressibility (1/GPa) = 0.03048639
#
# Stress axis : x y z
#
# Youngs Moduli (GPa) = 67.62296 70.56157 125.00438
#
# Poissons Ratio (x) = 0.00451 0.37219
# Poissons Ratio (y) = 0.00432 0.02442
# Poissons Ratio (z) = 0.20134 0.01378
#
# Static dielectric constant tensor:
#      x y z
#    x 1.889730 0.000000 -0.043790 
#    y 0.000000 1.860520 0.000000 
#    z -0.043790 0.000000 1.894870 
# 
# From -- ./inp_files/18448.got.cif
#   From: 2010.05.17/outbox.cif.g08.bks.cpg/sg11_10_cif.got.tgz:18448.got - 2010.06.03 12:22:45.
