data_PCOD9163628
_publ_section_title
;
Structure prediction by ZEFSAII (Michael W. Deem and Ramdas Pophale) SiO2 
 PCOD9163628
Probable space group: P 21/M
;
_chemical_formula_sum "Si O2"
_cell_formula_units_Z 28
_cell_length_a 5.427354
_cell_length_b 11.147286
_cell_length_c 20.389885
_cell_angle_alpha 90.000000
_cell_angle_beta 102.031526
_cell_angle_gamma 90.000000
_cell_volume 1206.495209
_symmetry_space_group_name_H-M "P 21/M"
_symmetry_group_IT_number 11
_symmetry_cell_setting 'monoclinic'
loop_
_space_group_symop_operation_xyz
x,y,z
-x,1/2+y,-z
-x,-y,-z
x,1/2-y,z
loop_
_atom_site_type_symbol
_atom_site_label
_atom_site_fract_x
_atom_site_fract_y
_atom_site_fract_z
Si Si1 0.630351 0.454780 0.105125
Si Si2 0.669732 0.877950 0.795351
Si Si3 0.081222 0.612042 0.366954
Si Si4 0.581552 0.028329 0.344828
Si Si5 0.756177 0.380295 0.979909
Si Si6 0.660579 0.383631 0.489242
Si Si7 0.972218 0.117364 0.853040
O O1 0.531839 0.374771 0.157355
O O2 0.393675 0.502831 0.051387
O O3 0.745325 0.574588 0.143746
O O4 0.811024 0.396416 0.060125
O O5 0.812865 0.750000 0.803617
O O6 0.525551 0.891491 0.719148
O O7 0.817053 0.003701 0.816403
O O8 0.080275 0.750000 0.346053
O O9 0.337038 0.549485 0.354722
O O10 0.102914 0.610090 0.448190
O O11 0.820157 0.549166 0.333712
O O12 0.687195 0.102251 0.412993
O O13 0.621804 0.250000 0.968862
O O14 0.955281 0.374709 0.931849
O O15 0.500000 0.500000 0.500000
O O16 0.547852 0.250000 0.496052
O O17 0.906403 0.250000 0.824417
#
# Coordination Sequence:
#
# PCOD9163628 Si02
#       7
#     4   4   4   4   4   4   4
#     4  10  20  37  60  88 122 165 208 260 323 392
#     4  11  26  43  60  90 127 171 217 265 326 403
#     4  10  22  41  68 100 133 171 224 281 338 398
#     4  11  23  42  64  98 133 181 222 276 334 404
#     4   9  18  34  58  89 121 156 205 263 323 386
#     4   9  19  39  67  99 134 174 222 281 339 398
#     4  10  22  40  63  91 122 163 213 268 326 389
#
# _framework density 23.207718
#
# number of rings (size 3 to 8) (size 9 to 14) (size 15 to 20)
#    0.000    2.000    0.000    2.571    2.000    3.429 
#    0.000   12.857    0.000    0.000    0.000    0.000 
#    0.000    0.000    0.000    0.000    0.000    0.000 
#
# Total GULP energy -155918.794070 kJ/mol
# GULP energy per Si atom -5568.528360 kJ/mol
# Density = 2.315490 g / cm^3
# Si number density = 23.207718 Si / 1000 Ang^3
#
#
#
# Elastic Constant Matrix: (Units=GPa)
#
#
# Indices 1 2 3 4 5 6 
#
# 1 49.4652 24.0458 -3.2337 0.0000 11.5378 0.0000
# 2 24.0458 173.3570 30.2382 0.0000 6.6943 0.0000
# 3 -3.2337 30.2382 89.2870 0.0000 -0.9363 0.0000
# 4 0.0000 0.0000 0.0000 20.3650 0.0000 7.2698
# 5 11.5378 6.6943 -0.9363 0.0000 13.4665 0.0000
# 6 0.0000 0.0000 0.0000 7.2698 0.0000 18.0091
#
#
#
# Elastic Compliance Matrix: (Units=1/GPa)
#
#
# Indices 1 2 3 4 5 6 
#
# 1 0.026871 -0.003226 0.001843 0.000000 -0.021291 0.000000
# 2 -0.003226 0.006658 -0.002379 0.000000 -0.000711 0.000000
# 3 0.001843 -0.002379 0.012077 0.000000 0.000444 0.000000
# 4 0.000000 0.000000 0.000000 0.057371 0.000000 -0.023159
# 5 -0.021291 -0.000711 0.000444 0.000000 0.092884 0.000000
# 6 0.000000 0.000000 0.000000 -0.023159 0.000000 0.064876
#
#
# Mechanical properties :
#
#
# Convention : Reuss Voigt Hill
#
# Bulk Modulus (GPa) = 26.26027 46.02330 36.14179
# Shear Modulus (GPa) = 17.79627 27.77204 22.78415
#
# Velocity S-wave (km/s) = 2.77217 3.46305 3.13669
# Velocity P-wave (km/s) = 4.64612 5.98869 5.35961
#
# Compressibility (1/GPa) = 0.03808034
#
# Stress axis : x y z
#
# Youngs Moduli (GPa) = 37.21464 150.18526 82.80199
#
# Poissons Ratio (x) = 0.48457 -0.15257
# Poissons Ratio (y) = 0.12007 0.19701
# Poissons Ratio (z) = -0.06857 0.35733
#
# Static dielectric constant tensor:
#      x y z
#    x 1.918360 0.000000 -0.023950 
#    y 0.000000 2.170500 0.000000 
#    z -0.023950 0.000000 1.915290 
# 
# From -- ./inp_files/62726.got.cif
#   From: 2010.05.17/outbox.cif.g08.bks.cpg/sg11_32_cif.got.tgz:62726.got - 2010.06.03 12:22:45.
