data_PCOD9163075
_publ_section_title
;
Structure prediction by ZEFSAII (Michael W. Deem and Ramdas Pophale) SiO2 
 PCOD9163075
Probable space group: P 21/M
;
_chemical_formula_sum "Si O2"
_cell_formula_units_Z 28
_cell_length_a 8.780151
_cell_length_b 8.417475
_cell_length_c 27.735679
_cell_angle_alpha 90.000000
_cell_angle_beta 141.265049
_cell_angle_gamma 90.000000
_cell_volume 1282.630889
_symmetry_space_group_name_H-M "P 21/M"
_symmetry_group_IT_number 11
_symmetry_cell_setting 'monoclinic'
loop_
_space_group_symop_operation_xyz
x,y,z
-x,1/2+y,-z
-x,-y,-z
x,1/2-y,z
loop_
_atom_site_type_symbol
_atom_site_label
_atom_site_fract_x
_atom_site_fract_y
_atom_site_fract_z
Si Si1 0.467442 0.432478 0.378075
Si Si2 0.625871 0.569216 0.323874
Si Si3 0.166042 0.559144 0.447660
Si Si4 0.276899 0.939248 0.912654
Si Si5 0.460029 0.434597 0.853218
Si Si6 0.212230 0.943946 0.151779
Si Si7 0.017129 0.572240 0.693570
O O1 0.547049 0.250000 0.386046
O O2 0.510862 0.556149 0.347261
O O3 0.626694 0.483964 0.463489
O O4 0.178982 0.424941 0.312825
O O5 0.656239 0.750000 0.315250
O O6 0.435872 0.493914 0.240165
O O7 0.897682 0.507076 0.398665
O O8 0.182295 0.750000 0.446075
O O9 0.154333 0.478735 0.392958
O O10 0.258136 0.750000 0.908329
O O11 0.356797 0.987653 0.877265
O O12 0.033022 0.002970 0.880419
O O13 0.500000 0.000000 0.000000
O O14 0.499135 0.250000 0.873874
O O15 0.700479 0.490480 0.881651
O O16 0.236012 0.456647 0.760286
O O17 0.206481 0.750000 0.150273
O O18 0.113685 0.750000 0.709604
#
# Coordination Sequence:
#
# PCOD9163075 Si02
#       7
#     4   4   4   4   4   4   4
#     4  10  22  35  51  79 117 160 208 265 326 381
#     4  10  20  36  58  84 114 155 209 259 315 380
#     4  10  20  37  55  77 114 160 209 262 321 381
#     4  12  27  47  72 105 140 173 211 258 316 384
#     4  11  23  44  72  99 133 177 220 267 322 385
#     4  10  22  43  70  99 131 174 222 268 323 385
#     4  11  22  36  56  87 120 157 210 266 321 380
#
# _framework density 21.830131999999999
#
# number of rings (size 3 to 8) (size 9 to 14) (size 15 to 20)
#    0.000    1.429    1.429    3.857    0.000    6.857 
#    0.000    0.000    0.000    0.000    0.000    0.000 
#    0.000    0.000    0.000    0.000    0.000    0.000 
#
# Total GULP energy -155899.889631 kJ/mol
# GULP energy per Si atom -5567.853201 kJ/mol
# Density = 2.178045 g / cm^3
# Si number density = 21.830132 Si / 1000 Ang^3
#
#
#
# Elastic Constant Matrix: (Units=GPa)
#
#
# Indices 1 2 3 4 5 6 
#
# 1 177.7200 50.2583 57.8893 0.0000 11.0579 0.0000
# 2 50.2583 52.1993 14.7129 0.0000 2.4359 0.0000
# 3 57.8893 14.7129 85.5119 0.0000 9.1702 0.0000
# 4 0.0000 0.0000 0.0000 7.0517 0.0000 1.8729
# 5 11.0579 2.4359 9.1702 0.0000 29.0732 0.0000
# 6 0.0000 0.0000 0.0000 1.8729 0.0000 21.2166
#
#
#
# Elastic Compliance Matrix: (Units=1/GPa)
#
#
# Indices 1 2 3 4 5 6 
#
# 1 0.009504 -0.007687 -0.004961 0.000000 -0.001406 0.000000
# 2 -0.007687 0.026361 0.000612 0.000000 0.000522 0.000000
# 3 -0.004961 0.000612 0.015267 0.000000 -0.002980 0.000000
# 4 0.000000 0.000000 0.000000 0.145215 0.000000 -0.012819
# 5 -0.001406 0.000522 -0.002980 0.000000 0.035827 0.000000
# 6 0.000000 0.000000 0.000000 -0.012819 0.000000 0.048265
#
#
# Mechanical properties :
#
#
# Convention : Reuss Voigt Hill
#
# Bulk Modulus (GPa) = 36.95275 62.35024 49.65150
# Shear Modulus (GPa) = 15.94748 24.30633 20.12690
#
# Velocity S-wave (km/s) = 2.70576 3.34043 3.03970
# Velocity P-wave (km/s) = 5.16969 6.59557 5.92567
#
# Compressibility (1/GPa) = 0.02706158
#
# Stress axis : x y z
#
# Youngs Moduli (GPa) = 105.22010 37.93438 65.50202
#
# Poissons Ratio (x) = 0.29159 0.32493
# Poissons Ratio (y) = 0.80879 -0.04009
# Poissons Ratio (z) = 0.52195 -0.02322
#
# Static dielectric constant tensor:
#      x y z
#    x 1.928260 0.000000 -0.027150 
#    y 0.000000 1.792690 0.000000 
#    z -0.027150 0.000000 1.788920 
# 
# From -- ./inp_files/70913.got.cif
#   From: 2010.05.17/outbox.cif.g08.bks.cpg/sg11_36_cif.got.tgz:70913.got - 2010.06.03 12:22:45.
