data_PCOD9163836
_publ_section_title
;
Structure prediction by ZEFSAII (Michael W. Deem and Ramdas Pophale) SiO2 
 PCOD9163836
Probable space group: P 21/M
;
_chemical_formula_sum "Si O2"
_cell_formula_units_Z 20
_cell_length_a 5.246862
_cell_length_b 19.371717
_cell_length_c 9.856045
_cell_angle_alpha 90.000000
_cell_angle_beta 76.076594
_cell_angle_gamma 90.000000
_cell_volume 972.341663
_symmetry_space_group_name_H-M "P 21/M"
_symmetry_group_IT_number 11
_symmetry_cell_setting 'monoclinic'
loop_
_space_group_symop_operation_xyz
x,y,z
-x,1/2+y,-z
-x,-y,-z
x,1/2-y,z
loop_
_atom_site_type_symbol
_atom_site_label
_atom_site_fract_x
_atom_site_fract_y
_atom_site_fract_z
Si Si1 0.753728 0.172157 0.214312
Si Si2 0.621140 0.086502 0.782374
Si Si3 0.829556 0.112219 0.478124
Si Si4 0.963107 0.581509 0.036167
Si Si5 0.391959 0.061957 0.352195
O O1 0.724815 0.250000 0.169303
O O2 0.834753 0.170864 0.362905
O O3 0.487220 0.126490 0.247398
O O4 0.959602 0.127355 0.102756
O O5 0.697996 0.128873 0.637807
O O6 0.329185 0.096054 0.874875
O O7 0.830608 0.099142 0.872393
O O8 0.640076 0.006594 0.730857
O O9 0.635841 0.058024 0.426004
O O10 0.119301 0.081706 0.457716
O O11 0.000000 0.500000 0.000000
#
# Coordination Sequence:
#
# PCOD9163836 Si02
#       5
#     4   4   4   4   4
#     4  10  25  43  64  89 128 172 213 257 316 387
#     4  12  22  39  66  96 128 158 209 269 315 362
#     4  10  22  39  63  94 120 164 205 259 314 371
#     4  12  24  40  64  98 130 167 210 262 318 376
#     4  10  20  37  65  93 122 157 208 257 313 368
#
# _framework density 20.568901
#
# number of rings (size 3 to 8) (size 9 to 14) (size 15 to 20)
#    1.200    0.000    2.000    5.400    2.800    0.800 
#    0.000    2.000    0.000    0.000    0.000    0.000 
#    0.000    0.000    0.000    0.000    0.000    0.000 
#
# Total GULP energy -111622.322892 kJ/mol
# GULP energy per Si atom -5581.116145 kJ/mol
# Density = 2.052209 g / cm^3
# Si number density = 20.568901 Si / 1000 Ang^3
#
#
#
# Elastic Constant Matrix: (Units=GPa)
#
#
# Indices 1 2 3 4 5 6 
#
# 1 119.5535 -6.0748 40.3243 0.0000 -15.8449 0.0000
# 2 -6.0748 69.8234 39.0190 0.0000 -7.0183 0.0000
# 3 40.3243 39.0190 138.2434 0.0000 -18.8718 0.0000
# 4 0.0000 0.0000 0.0000 6.3284 0.0000 1.7503
# 5 -15.8449 -7.0183 -18.8718 0.0000 44.0464 0.0000
# 6 0.0000 0.0000 0.0000 1.7503 0.0000 4.8247
#
#
#
# Elastic Compliance Matrix: (Units=1/GPa)
#
#
# Indices 1 2 3 4 5 6 
#
# 1 0.010023 0.003050 -0.003426 0.000000 0.002624 0.000000
# 2 0.003050 0.017952 -0.005753 0.000000 0.001493 0.000000
# 3 -0.003426 -0.005753 0.010158 0.000000 0.002203 0.000000
# 4 0.000000 0.000000 0.000000 0.175642 0.000000 -0.063719
# 5 0.002624 0.001493 0.002203 0.000000 0.024829 0.000000
# 6 0.000000 0.000000 0.000000 -0.063719 0.000000 0.230381
#
#
# Mechanical properties :
#
#
# Convention : Reuss Voigt Hill
#
# Bulk Modulus (GPa) = 38.64762 52.68412 45.66587
# Shear Modulus (GPa) = 10.20683 27.99667 19.10175
#
# Velocity S-wave (km/s) = 2.23003 3.69333 3.05072
# Velocity P-wave (km/s) = 5.04587 6.62244 5.88717
#
# Compressibility (1/GPa) = 0.02587482
#
# Stress axis : x y z
#
# Youngs Moduli (GPa) = 99.77177 55.70338 98.44889
#
# Poissons Ratio (x) = -0.16992 0.33733
# Poissons Ratio (y) = -0.30435 0.56638
# Poissons Ratio (z) = 0.34186 0.32046
#
# Static dielectric constant tensor:
#      x y z
#    x 2.605110 0.000000 0.960420 
#    y 0.000000 3.011900 0.000000 
#    z 0.960420 0.000000 2.789550 
# 
# From -- ./inp_files/10376.got.cif
#   From: 2010.05.17/outbox.cif.g08.bks.cpg/sg11_6_cif.got.tgz:10376.got - 2010.06.03 12:22:45.
