data_PCOD9163633
_publ_section_title
;
Structure prediction by ZEFSAII (Michael W. Deem and Ramdas Pophale) SiO2 
 PCOD9163633
Probable space group: P 21/M
;
_chemical_formula_sum "Si O2"
_cell_formula_units_Z 30
_cell_length_a 22.050274
_cell_length_b 9.637569
_cell_length_c 10.196094
_cell_angle_alpha 90.000000
_cell_angle_beta 134.812907
_cell_angle_gamma 90.000000
_cell_volume 1537.141484
_symmetry_space_group_name_H-M "P 21/M"
_symmetry_group_IT_number 11
_symmetry_cell_setting 'monoclinic'
loop_
_space_group_symop_operation_xyz
x,y,z
-x,1/2+y,-z
-x,-y,-z
x,1/2-y,z
loop_
_atom_site_type_symbol
_atom_site_label
_atom_site_fract_x
_atom_site_fract_y
_atom_site_fract_z
Si Si1 0.033382 0.592787 0.734067
Si Si2 0.528250 0.250000 0.564509
Si Si3 0.085201 0.587393 0.099774
Si Si4 0.474164 0.085650 0.088645
Si Si5 0.248284 0.410826 0.412143
Si Si6 0.717158 0.589460 0.232361
Si Si7 0.591775 0.998214 0.513079
Si Si8 0.881050 0.088050 0.417821
O O1 0.997202 0.750000 0.676609
O O2 0.087143 0.573402 0.683753
O O3 0.955049 0.485964 0.615055
O O4 0.090739 0.581214 0.949976
O O5 0.594052 0.126730 0.615274
O O6 0.457929 0.370156 0.499098
O O7 0.078381 0.750000 0.127298
O O8 0.167032 0.511624 0.284509
O O9 0.000000 0.500000 0.000000
O O10 0.479840 0.250000 0.069687
O O11 0.533609 0.049796 0.301522
O O12 0.374998 0.054440 0.967982
O O13 0.500000 0.000000 0.000000
O O14 0.221989 0.250000 0.353205
O O15 0.289991 0.420224 0.620450
O O16 0.317783 0.453556 0.409987
O O17 0.737808 0.750000 0.232401
O O18 0.792346 0.489860 0.302280
O O19 0.874317 0.250000 0.439448
#
# Coordination Sequence:
#
# PCOD9163633 Si02
#       8
#     4   2   4   4   4   4   4   4
#     4   9  20  40  60  82 118 159 191 242 305 359
#     4  10  24  42  68  88 130 170 216 264 318 388
#     4  11  24  41  62  91 123 162 206 254 307 372
#     4  11  23  40  65  92 124 160 210 261 316 374
#     4  11  23  41  64  87 125 163 207 258 315 377
#     4  10  22  39  58  88 120 160 193 248 311 366
#     4  11  22  45  64  96 124 173 218 262 324 380
#     4  10  20  37  60  89 117 150 199 245 297 362
#
# _framework density 19.516746000000001
#
# number of rings (size 3 to 8) (size 9 to 14) (size 15 to 20)
#    0.000    1.600    2.667    1.600    1.867    5.867 
#    4.800    0.000    0.000    0.000    0.000    0.000 
#    0.000    0.000    0.000    0.000    0.000    0.000 
#
# Total GULP energy -167060.606438 kJ/mol
# GULP energy per Si atom -5568.686881 kJ/mol
# Density = 1.947232 g / cm^3
# Si number density = 19.516746 Si / 1000 Ang^3
#
#
#
# Elastic Constant Matrix: (Units=GPa)
#
#
# Indices 1 2 3 4 5 6 
#
# 1 51.3058 45.5599 0.6884 0.0000 18.9451 0.0000
# 2 45.5599 130.9680 15.4407 0.0000 24.4120 0.0000
# 3 0.6884 15.4407 45.0785 0.0000 13.6647 0.0000
# 4 0.0000 0.0000 0.0000 29.4264 0.0000 3.0227
# 5 18.9451 24.4120 13.6647 0.0000 26.0511 0.0000
# 6 0.0000 0.0000 0.0000 3.0227 0.0000 36.6179
#
#
#
# Elastic Compliance Matrix: (Units=1/GPa)
#
#
# Indices 1 2 3 4 5 6 
#
# 1 0.036008 -0.009494 0.009445 0.000000 -0.022244 0.000000
# 2 -0.009494 0.011770 -0.003134 0.000000 -0.002481 0.000000
# 3 0.009445 -0.003134 0.028900 0.000000 -0.019090 0.000000
# 4 0.000000 0.000000 0.000000 0.034274 0.000000 -0.002829
# 5 -0.022244 -0.002481 -0.019090 0.000000 0.066901 0.000000
# 6 0.000000 0.000000 0.000000 -0.002829 0.000000 0.027543
#
#
# Mechanical properties :
#
#
# Convention : Reuss Voigt Hill
#
# Bulk Modulus (GPa) = 14.22236 38.97006 26.59621
# Shear Modulus (GPa) = 21.25857 29.46330 25.36093
#
# Velocity S-wave (km/s) = 3.30396 3.88963 3.60869
# Velocity P-wave (km/s) = 4.67524 6.33901 5.56961
#
# Compressibility (1/GPa) = 0.07031181
#
# Stress axis : x y z
#
# Youngs Moduli (GPa) = 27.77134 84.96144 34.60241
#
# Poissons Ratio (x) = 0.80658 -0.32681
# Poissons Ratio (y) = 0.26365 0.10846
# Poissons Ratio (z) = -0.26229 0.26630
#
# Static dielectric constant tensor:
#      x y z
#    x 1.686550 0.000000 -0.032320 
#    y 0.000000 1.661400 0.000000 
#    z -0.032320 0.000000 1.686610 
# 
# From -- ./inp_files/44009.got.cif
#   From: 2010.05.17/outbox.cif.g08.bks.cpg/sg11_23_cif.got.tgz:44009.got - 2010.06.03 12:22:45.
