data_PCOD9163819
_publ_section_title
;
Structure prediction by ZEFSAII (Michael W. Deem and Ramdas Pophale) SiO2 
 PCOD9163819
Probable space group: P 21/M
;
_chemical_formula_sum "Si O2"
_cell_formula_units_Z 28
_cell_length_a 14.120564
_cell_length_b 14.425279
_cell_length_c 9.353755
_cell_angle_alpha 90.000000
_cell_angle_beta 44.947369
_cell_angle_gamma 90.000000
_cell_volume 1346.008973
_symmetry_space_group_name_H-M "P 21/M"
_symmetry_group_IT_number 11
_symmetry_cell_setting 'monoclinic'
loop_
_space_group_symop_operation_xyz
x,y,z
-x,1/2+y,-z
-x,-y,-z
x,1/2-y,z
loop_
_atom_site_type_symbol
_atom_site_label
_atom_site_fract_x
_atom_site_fract_y
_atom_site_fract_z
Si Si1 0.782523 0.648124 0.952523
Si Si2 0.385747 0.858646 0.010083
Si Si3 0.159418 0.502144 0.343763
Si Si4 0.985404 0.358823 0.059594
Si Si5 0.837874 0.537983 0.329513
Si Si6 0.479452 0.648838 0.221508
Si Si7 0.555193 0.532943 0.592264
O O1 0.817775 0.750000 0.857440
O O2 0.794279 0.572033 0.820213
O O3 0.887640 0.630752 0.967097
O O4 0.622985 0.649844 0.147806
O O5 0.366814 0.750000 0.998770
O O6 0.247102 0.906939 0.210000
O O7 0.483849 0.865116 0.044837
O O8 0.452898 0.910696 0.802983
O O9 0.181119 0.470553 0.481963
O O10 0.000000 0.500000 0.500000
O O11 0.945432 0.250000 0.102524
O O12 0.878152 0.436233 0.223839
O O13 0.041976 0.394231 0.847344
O O14 0.699109 0.579741 0.417812
O O15 0.415508 0.750000 0.311474
O O16 0.407821 0.561164 0.362847
O O17 0.500000 0.500000 0.500000
#
# Coordination Sequence:
#
# PCOD9163819 Si02
#       7
#     4   4   4   4   4   4   4
#     4  10  20  37  64  92 124 170 216 261 318 379
#     4  11  25  44  66  95 134 171 214 273 328 386
#     4  12  23  40  67  95 130 165 218 268 319 383
#     4  10  23  43  63  92 136 174 215 268 320 388
#     4  11  24  40  66  95 126 174 219 263 328 381
#     4  10  20  38  65  93 125 170 215 262 321 379
#     4  12  24  40  67  96 132 167 217 270 325 386
#
# _framework density 20.802239
#
# number of rings (size 3 to 8) (size 9 to 14) (size 15 to 20)
#    0.000    1.143    4.286    2.143    0.000    3.429 
#    0.000    1.429    0.000    0.000    0.000    0.000 
#    0.000    0.000    0.000    0.000    0.000    0.000 
#
# Total GULP energy -156117.395014 kJ/mol
# GULP energy per Si atom -5575.621251 kJ/mol
# Density = 2.075489 g / cm^3
# Si number density = 20.802239 Si / 1000 Ang^3
#
#
#
# Elastic Constant Matrix: (Units=GPa)
#
#
# Indices 1 2 3 4 5 6 
#
# 1 86.7635 9.5878 18.3700 0.0000 -3.3782 0.0000
# 2 9.5878 96.9582 37.9796 0.0000 13.3645 0.0000
# 3 18.3700 37.9796 72.0889 0.0000 5.8146 0.0000
# 4 0.0000 0.0000 0.0000 4.6261 0.0000 0.9408
# 5 -3.3782 13.3645 5.8146 0.0000 37.3517 0.0000
# 6 0.0000 0.0000 0.0000 0.9408 0.0000 24.9933
#
#
#
# Elastic Compliance Matrix: (Units=1/GPa)
#
#
# Indices 1 2 3 4 5 6 
#
# 1 0.012282 -0.000210 -0.003154 0.000000 0.001677 0.000000
# 2 -0.000210 0.013504 -0.006755 0.000000 -0.003799 0.000000
# 3 -0.003154 -0.006755 0.018292 0.000000 -0.000716 0.000000
# 4 0.000000 0.000000 0.000000 0.217831 0.000000 -0.008199
# 5 0.001677 -0.003799 -0.000716 0.000000 0.028395 0.000000
# 6 0.000000 0.000000 0.000000 -0.008199 0.000000 0.040319
#
#
# Mechanical properties :
#
#
# Convention : Reuss Voigt Hill
#
# Bulk Modulus (GPa) = 41.94632 43.07614 42.51123
# Shear Modulus (GPa) = 13.93506 26.05244 19.99375
#
# Velocity S-wave (km/s) = 2.59102 3.54275 3.10358
# Velocity P-wave (km/s) = 5.39993 6.12267 5.77263
#
# Compressibility (1/GPa) = 0.02383999
#
# Stress axis : x y z
#
# Youngs Moduli (GPa) = 81.42034 74.05219 54.66905
#
# Poissons Ratio (x) = 0.01556 0.17244
# Poissons Ratio (y) = 0.01711 0.36926
# Poissons Ratio (z) = 0.25683 0.50019
#
# Static dielectric constant tensor:
#      x y z
#    x 1.884380 0.000000 -0.052410 
#    y 0.000000 1.756310 0.000000 
#    z -0.052410 0.000000 1.701320 
# 
# From -- ./inp_files/17917.got.cif
#   From: 2010.05.17/outbox.cif.g08.bks.cpg/sg11_9_cif.got.tgz:17917.got - 2010.06.03 12:22:45.
