data_PCOD9163033
_publ_section_title
;
Structure prediction by ZEFSAII (Michael W. Deem and Ramdas Pophale) SiO2 
 PCOD9163033
Probable space group: P 21/M
;
_chemical_formula_sum "Si O2"
_cell_formula_units_Z 28
_cell_length_a 8.478486
_cell_length_b 9.979912
_cell_length_c 27.160616
_cell_angle_alpha 90.000000
_cell_angle_beta 39.891643
_cell_angle_gamma 90.000000
_cell_volume 1473.911555
_symmetry_space_group_name_H-M "P 21/M"
_symmetry_group_IT_number 11
_symmetry_cell_setting 'monoclinic'
loop_
_space_group_symop_operation_xyz
x,y,z
-x,1/2+y,-z
-x,-y,-z
x,1/2-y,z
loop_
_atom_site_type_symbol
_atom_site_label
_atom_site_fract_x
_atom_site_fract_y
_atom_site_fract_z
Si Si1 0.564241 0.096183 0.616341
Si Si2 0.246944 0.997154 0.324724
Si Si3 0.103672 0.595927 0.737415
Si Si4 0.143234 0.406119 0.927592
Si Si5 0.291065 0.596655 0.528137
Si Si6 0.280205 0.893954 0.211468
Si Si7 0.219831 0.602846 0.822363
O O1 0.473745 0.250000 0.640243
O O2 0.709981 0.066622 0.631805
O O3 0.715179 0.082499 0.529741
O O4 0.341547 0.991208 0.666153
O O5 0.258262 0.897364 0.275920
O O6 0.486607 0.089443 0.257708
O O7 0.981307 0.065757 0.387170
O O8 0.122106 0.750000 0.716453
O O9 0.097440 0.595263 0.798198
O O10 0.870391 0.519090 0.772185
O O11 0.062501 0.250000 0.945460
O O12 0.433773 0.405280 0.870477
O O13 0.133091 0.482076 0.877539
O O14 0.000000 0.500000 0.000000
O O15 0.500000 0.500000 0.500000
O O16 0.358238 0.750000 0.523402
O O17 0.184584 0.750000 0.216131
O O18 0.170287 0.750000 0.856340
#
# Coordination Sequence:
#
# PCOD9163033 Si02
#       7
#     4   4   4   4   4   4   4
#     4  10  21  37  57  79 107 144 185 231 280 329
#     4  10  20  36  58  81 105 140 186 232 275 327
#     4  10  21  36  56  83 113 146 184 225 271 323
#     4  10  21  37  59  86 114 145 181 221 267 321
#     4  11  24  38  53  77 109 146 186 231 282 331
#     4  10  21  36  57  84 111 141 179 223 270 322
#     4   9  19  36  58  82 109 142 181 225 270 321
#
# _framework density 18.997069
#
# number of rings (size 3 to 8) (size 9 to 14) (size 15 to 20)
#    0.000    2.000    0.000    3.000    0.000   12.000 
#    0.000    0.714    0.000    0.000    0.000    0.000 
#    0.000    0.000    0.000    0.000    0.000    0.000 
#
# Total GULP energy -156213.396857 kJ/mol
# GULP energy per Si atom -5579.049888 kJ/mol
# Density = 1.895383 g / cm^3
# Si number density = 18.997069 Si / 1000 Ang^3
#
#
#
# Elastic Constant Matrix: (Units=GPa)
#
#
# Indices 1 2 3 4 5 6 
#
# 1 70.4090 47.3743 28.2977 0.0000 -3.3415 0.0000
# 2 47.3743 172.8175 57.7613 0.0000 -0.2532 0.0000
# 3 28.2977 57.7613 96.4163 0.0000 6.8509 0.0000
# 4 0.0000 0.0000 0.0000 13.8767 0.0000 2.1064
# 5 -3.3415 -0.2532 6.8509 0.0000 12.9630 0.0000
# 6 0.0000 0.0000 0.0000 2.1064 0.0000 24.0947
#
#
#
# Elastic Compliance Matrix: (Units=1/GPa)
#
#
# Indices 1 2 3 4 5 6 
#
# 1 0.018572 -0.003879 -0.003597 0.000000 0.006612 0.000000
# 2 -0.003879 0.008126 -0.003813 0.000000 0.001174 0.000000
# 3 -0.003597 -0.003813 0.014321 0.000000 -0.008570 0.000000
# 4 0.000000 0.000000 0.000000 0.073032 0.000000 -0.006385
# 5 0.006612 0.001174 -0.008570 0.000000 0.083399 0.000000
# 6 0.000000 0.000000 0.000000 -0.006385 0.000000 0.042061
#
#
# Mechanical properties :
#
#
# Convention : Reuss Voigt Hill
#
# Bulk Modulus (GPa) = 54.22762 67.38993 60.80878
# Shear Modulus (GPa) = 18.64029 23.93420 21.28724
#
# Velocity S-wave (km/s) = 3.13584 3.55334 3.35110
# Velocity P-wave (km/s) = 6.45899 7.23781 6.85946
#
# Compressibility (1/GPa) = 0.01844079
#
# Stress axis : x y z
#
# Youngs Moduli (GPa) = 53.84363 123.06091 69.82973
#
# Poissons Ratio (x) = 0.47740 0.25115
# Poissons Ratio (y) = 0.20888 0.26626
# Poissons Ratio (z) = 0.19366 0.46923
#
# Static dielectric constant tensor:
#      x y z
#    x 1.652180 0.000000 0.014510 
#    y 0.000000 1.681590 0.000000 
#    z 0.014510 0.000000 1.648660 
# 
# From -- ./inp_files/70822.got.cif
#   From: 2010.05.17/outbox.cif.g08.bks.cpg/sg11_36_cif.got.tgz:70822.got - 2010.06.03 12:22:45.
