data_PCOD9163462
_publ_section_title
;
Structure prediction by ZEFSAII (Michael W. Deem and Ramdas Pophale) SiO2 
 PCOD9163462
Probable space group: P 21/M
;
_chemical_formula_sum "Si O2"
_cell_formula_units_Z 32
_cell_length_a 26.952727
_cell_length_b 8.579022
_cell_length_c 21.486301
_cell_angle_alpha 90.000000
_cell_angle_beta 159.235257
_cell_angle_gamma 90.000000
_cell_volume 1761.396629
_symmetry_space_group_name_H-M "P 21/M"
_symmetry_group_IT_number 11
_symmetry_cell_setting 'monoclinic'
loop_
_space_group_symop_operation_xyz
x,y,z
-x,1/2+y,-z
-x,-y,-z
x,1/2-y,z
loop_
_atom_site_type_symbol
_atom_site_label
_atom_site_fract_x
_atom_site_fract_y
_atom_site_fract_z
Si Si1 0.147634 0.438017 0.696478
Si Si2 0.727500 0.561367 0.519740
Si Si3 0.343356 0.438340 0.814019
Si Si4 0.445378 0.437027 0.244845
Si Si5 0.848623 0.561532 0.528117
Si Si6 0.141309 0.062581 0.195769
Si Si7 0.437721 0.436809 0.490495
Si Si8 0.150522 0.061474 0.842577
O O1 0.145847 0.250000 0.693638
O O2 0.263637 0.489750 0.783133
O O3 0.168002 0.488456 0.791283
O O4 0.000000 0.500000 0.500000
O O5 0.722196 0.750000 0.514238
O O6 0.570975 0.500113 0.348805
O O7 0.790022 0.511129 0.526775
O O8 0.822033 0.512268 0.690276
O O9 0.346239 0.250000 0.816321
O O10 0.253915 0.489176 0.648544
O O11 0.500000 0.500000 0.000000
O O12 0.450364 0.250000 0.249323
O O13 0.478104 0.497513 0.352062
O O14 0.291003 0.487770 0.042892
O O15 0.851244 0.750000 0.530747
O O16 0.005336 0.502645 0.699146
O O17 0.133927 0.250000 0.187933
O O18 0.276173 0.016697 0.312766
O O19 0.000000 0.000000 0.000000
O O20 0.500000 0.500000 0.500000
O O21 0.443971 0.250000 0.498774
O O22 0.143355 0.250000 0.835866
#
# Coordination Sequence:
#
# PCOD9163462 Si02
#       8
#     4   4   4   4   4   4   4   4
#     4  10  20  37  57  79 109 143 182 230 280 332
#     4   9  20  38  56  78 110 144 182 227 273 322
#     4  10  22  37  55  81 110 141 182 230 279 335
#     4  10  21  37  57  83 112 146 187 226 272 331
#     4  10  21  38  57  80 109 143 186 232 275 330
#     4   9  19  35  55  80 109 141 178 221 266 319
#     4  10  21  38  59  85 116 148 184 229 274 323
#     4  10  22  37  55  81 112 145 183 229 279 331
#
# _framework density 18.167401000000002
#
# number of rings (size 3 to 8) (size 9 to 14) (size 15 to 20)
#    0.000    2.250    1.250    1.500    1.750    6.000 
#    0.000    2.500    0.000    0.000    0.000    0.000 
#    0.000    0.000    0.000    0.000    0.000    0.000 
#
# Total GULP energy -178580.067706 kJ/mol
# GULP energy per Si atom -5580.627116 kJ/mol
# Density = 1.812605 g / cm^3
# Si number density = 18.167401 Si / 1000 Ang^3
#
#
#
# Elastic Constant Matrix: (Units=GPa)
#
#
# Indices 1 2 3 4 5 6 
#
# 1 202.3628 32.2473 113.1196 0.0000 12.5196 0.0000
# 2 32.2473 11.3219 29.9806 0.0000 0.0858 0.0000
# 3 113.1196 29.9806 199.8773 0.0000 10.1378 0.0000
# 4 0.0000 0.0000 0.0000 33.8863 0.0000 5.4461
# 5 12.5196 0.0858 10.1378 0.0000 19.7484 0.0000
# 6 0.0000 0.0000 0.0000 5.4461 0.0000 24.8417
#
#
#
# Elastic Compliance Matrix: (Units=1/GPa)
#
#
# Indices 1 2 3 4 5 6 
#
# 1 0.010116 -0.023770 -0.001889 0.000000 -0.005340 0.000000
# 2 -0.023770 0.204709 -0.018453 0.000000 0.023653 0.000000
# 3 -0.001889 -0.018453 0.009010 0.000000 -0.003348 0.000000
# 4 0.000000 0.000000 0.000000 0.030588 0.000000 -0.006706
# 5 -0.005340 0.023653 -0.003348 0.000000 0.055638 0.000000
# 6 0.000000 0.000000 0.000000 -0.006706 0.000000 0.041725
#
#
# Mechanical properties :
#
#
# Convention : Reuss Voigt Hill
#
# Bulk Modulus (GPa) = 7.37396 84.91745 46.14571
# Shear Modulus (GPa) = 10.30477 31.57624 20.94051
#
# Velocity S-wave (km/s) = 2.38421 4.17354 3.39874
# Velocity P-wave (km/s) = 3.41276 8.37065 6.39197
#
# Compressibility (1/GPa) = 0.13561241
#
# Stress axis : x y z
#
# Youngs Moduli (GPa) = 98.85786 4.88497 110.99323
#
# Poissons Ratio (x) = 0.11611 0.20963
# Poissons Ratio (y) = 2.34981 2.04813
# Poissons Ratio (z) = 0.18671 0.09014
#
# Static dielectric constant tensor:
#      x y z
#    x 1.580930 0.000000 -0.004820 
#    y 0.000000 1.626740 0.000000 
#    z -0.004820 0.000000 1.594990 
# 
# From -- ./inp_files/67194.got.cif
#   From: 2010.05.17/outbox.cif.g08.bks.cpg/sg11_34_cif.got.tgz:67194.got - 2010.06.03 12:22:45.
