data_PCOD9163751
_publ_section_title
;
Structure prediction by ZEFSAII (Michael W. Deem and Ramdas Pophale) SiO2 
 PCOD9163751
Probable space group: P 21/M
;
_chemical_formula_sum "Si O2"
_cell_formula_units_Z 28
_cell_length_a 15.319440
_cell_length_b 8.785652
_cell_length_c 12.064338
_cell_angle_alpha 90.000000
_cell_angle_beta 115.375348
_cell_angle_gamma 90.000000
_cell_volume 1467.094331
_symmetry_space_group_name_H-M "P 21/M"
_symmetry_group_IT_number 11
_symmetry_cell_setting 'monoclinic'
loop_
_space_group_symop_operation_xyz
x,y,z
-x,1/2+y,-z
-x,-y,-z
x,1/2-y,z
loop_
_atom_site_type_symbol
_atom_site_label
_atom_site_fract_x
_atom_site_fract_y
_atom_site_fract_z
Si Si1 0.861012 0.930095 0.510466
Si Si2 0.596432 0.068536 0.107361
Si Si3 0.683512 0.068808 0.543633
Si Si4 0.314644 0.567393 0.200549
Si Si5 0.939822 0.931951 0.310883
Si Si6 0.459734 0.068504 0.695925
Si Si7 0.770736 0.931746 0.059897
O O1 0.843421 0.750000 0.511827
O O2 0.878882 0.963744 0.390075
O O3 0.772912 0.020412 0.515734
O O4 0.960441 0.978285 0.624463
O O5 0.593078 0.250000 0.100142
O O6 0.595386 0.011649 0.233017
O O7 0.688042 0.007829 0.090075
O O8 0.500000 0.000000 0.000000
O O9 0.668451 0.250000 0.531699
O O10 0.704061 0.026052 0.682095
O O11 0.589370 0.986396 0.443764
O O12 0.304857 0.750000 0.183635
O O13 0.426924 0.529206 0.236930
O O14 0.247039 0.487258 0.074348
O O15 0.959927 0.750000 0.321553
O O16 0.873968 0.970772 0.169923
O O17 0.450751 0.250000 0.701718
O O18 0.759683 0.750000 0.060574
#
# Coordination Sequence:
#
# PCOD9163751 Si02
#       7
#     4   4   4   4   4   4   4
#     4  10  20  37  62  89 116 147 186 237 293 346
#     4  12  23  36  56  84 118 154 192 235 286 340
#     4  11  23  39  59  84 115 154 197 241 291 344
#     4  10  23  40  57  80 116 158 198 242 286 340
#     4   9  20  38  60  88 118 146 183 234 290 349
#     4  11  22  38  59  84 115 153 197 245 291 340
#     4  11  22  37  60  87 118 156 194 237 292 347
#
# _framework density 19.085343999999999
#
# number of rings (size 3 to 8) (size 9 to 14) (size 15 to 20)
#    0.000    1.429    1.429    4.286    0.000    4.571 
#    0.000    0.714    0.000    0.000    0.000    0.000 
#    0.000    0.000    0.000    0.000    0.000    0.000 
#
# Total GULP energy -156559.536918 kJ/mol
# GULP energy per Si atom -5591.412033 kJ/mol
# Density = 1.904191 g / cm^3
# Si number density = 19.085344 Si / 1000 Ang^3
#
#
#
# Elastic Constant Matrix: (Units=GPa)
#
#
# Indices 1 2 3 4 5 6 
#
# 1 19.1982 5.8521 15.6115 0.0000 0.5212 0.0000
# 2 5.8521 51.0805 40.2425 0.0000 2.5074 0.0000
# 3 15.6115 40.2425 142.0364 0.0000 9.9477 0.0000
# 4 0.0000 0.0000 0.0000 35.1634 0.0000 0.2563
# 5 0.5212 2.5074 9.9477 0.0000 22.7010 0.0000
# 6 0.0000 0.0000 0.0000 0.2563 0.0000 25.4023
#
#
#
# Elastic Compliance Matrix: (Units=1/GPa)
#
#
# Indices 1 2 3 4 5 6 
#
# 1 0.057417 -0.002056 -0.005831 0.000000 0.001464 0.000000
# 2 -0.002056 0.025279 -0.006957 0.000000 0.000304 0.000000
# 3 -0.005831 -0.006957 0.009893 0.000000 -0.003433 0.000000
# 4 0.000000 0.000000 0.000000 0.028441 0.000000 -0.000287
# 5 0.001464 0.000304 -0.003433 0.000000 0.045488 0.000000
# 6 0.000000 0.000000 0.000000 -0.000287 0.000000 0.039369
#
#
# Mechanical properties :
#
#
# Convention : Reuss Voigt Hill
#
# Bulk Modulus (GPa) = 15.89836 37.30304 26.60070
# Shear Modulus (GPa) = 19.49000 26.69394 23.09197
#
# Velocity S-wave (km/s) = 3.19909 3.74393 3.48218
# Velocity P-wave (km/s) = 4.68976 6.18685 5.48958
#
# Compressibility (1/GPa) = 0.06289955
#
# Stress axis : x y z
#
# Youngs Moduli (GPa) = 17.41656 39.55885 101.08226
#
# Poissons Ratio (x) = 0.08135 0.58938
# Poissons Ratio (y) = 0.03581 0.70327
# Poissons Ratio (z) = 0.10155 0.27523
#
# Static dielectric constant tensor:
#      x y z
#    x 1.637930 0.000000 -0.005300 
#    y 0.000000 1.637570 0.000000 
#    z -0.005300 0.000000 1.679150 
# 
# From -- ./inp_files/38411.got.cif
#   From: 2010.05.17/outbox.cif.g08.bks.cpg/sg11_20_cif.got.tgz:38411.got - 2010.06.03 12:22:45.
