data_PCOD9163515
_publ_section_title
;
Structure prediction by ZEFSAII (Michael W. Deem and Ramdas Pophale) SiO2 
 PCOD9163515
Probable space group: P 21/M
;
_chemical_formula_sum "Si O2"
_cell_formula_units_Z 30
_cell_length_a 7.311697
_cell_length_b 30.653968
_cell_length_c 7.200123
_cell_angle_alpha 90.000000
_cell_angle_beta 127.705537
_cell_angle_gamma 90.000000
_cell_volume 1276.766725
_symmetry_space_group_name_H-M "P 21/M"
_symmetry_group_IT_number 11
_symmetry_cell_setting 'monoclinic'
loop_
_space_group_symop_operation_xyz
x,y,z
-x,1/2+y,-z
-x,-y,-z
x,1/2-y,z
loop_
_atom_site_type_symbol
_atom_site_label
_atom_site_fract_x
_atom_site_fract_y
_atom_site_fract_z
Si Si1 0.791597 0.954187 0.209201
Si Si2 0.208974 0.169567 0.159476
Si Si3 0.656556 0.418775 0.014238
Si Si4 0.065818 0.869859 0.342751
Si Si5 0.668157 0.175555 0.204382
Si Si6 0.926080 0.250000 0.152914
Si Si7 0.470334 0.411224 0.481449
Si Si8 0.889417 0.524439 0.684866
O O1 0.525922 0.949206 0.988532
O O2 0.873159 0.904166 0.283428
O O3 0.806258 0.976843 0.419083
O O4 0.976629 0.979209 0.193910
O O5 0.427777 0.182386 0.164520
O O6 0.303213 0.130559 0.348998
O O7 0.012961 0.148971 0.903537
O O8 0.106990 0.211090 0.199477
O O9 0.561537 0.416610 0.746482
O O10 0.657052 0.370545 0.094269
O O11 0.906214 0.440213 0.176493
O O12 0.125240 0.830205 0.516024
O O13 0.300342 0.898296 0.486433
O O14 0.741385 0.212431 0.109036
O O15 0.328041 0.454908 0.342933
#
# Coordination Sequence:
#
# PCOD9163515 Si02
#       8
#     4   4   4   4   4   2   4   4
#     4  10  21  35  65  95 131 177 222 273 318 384
#     4  11  25  46  66  98 136 166 217 274 330 410
#     4  11  20  41  66  92 132 178 223 262 329 391
#     4  11  22  43  66  92 130 177 213 264 332 396
#     4  11  24  43  70  96 126 173 215 264 339 398
#     4  12  26  44  72  98 128 162 214 280 334 404
#     4  10  23  39  65  92 132 177 216 267 328 386
#     4  10  20  37  59 100 133 171 231 273 313 375
#
# _framework density 23.496853999999999
#
# number of rings (size 3 to 8) (size 9 to 14) (size 15 to 20)
#    0.000    1.333    2.667    3.200    1.867    1.067 
#    0.000   10.667    0.000    0.000    0.000    0.000 
#    0.000    0.000    0.000    0.000    0.000    0.000 
#
# Total GULP energy -167258.189680 kJ/mol
# GULP energy per Si atom -5575.272989 kJ/mol
# Density = 2.344337 g / cm^3
# Si number density = 23.496854 Si / 1000 Ang^3
#
#
#
# Elastic Constant Matrix: (Units=GPa)
#
#
# Indices 1 2 3 4 5 6 
#
# 1 79.0427 25.2569 11.4658 0.0000 17.9663 0.0000
# 2 25.2569 104.6854 23.5895 0.0000 12.7975 0.0000
# 3 11.4658 23.5895 94.7962 0.0000 9.7138 0.0000
# 4 0.0000 0.0000 0.0000 -2.1378 0.0000 2.2407
# 5 17.9663 12.7975 9.7138 0.0000 27.3069 0.0000
# 6 0.0000 0.0000 0.0000 2.2407 0.0000 34.5502
#
#
#
# Elastic Compliance Matrix: (Units=1/GPa)
#
#
# Indices 1 2 3 4 5 6 
#
# 1 0.015549 -0.002590 -0.000324 0.000000 -0.008901 0.000000
# 2 -0.002590 0.010989 -0.002146 0.000000 -0.002682 0.000000
# 3 -0.000324 -0.002146 0.011413 0.000000 -0.002841 0.000000
# 4 0.000000 0.000000 0.000000 -0.437997 0.000000 0.028405
# 5 -0.008901 -0.002682 -0.002841 0.000000 0.044745 0.000000
# 6 0.000000 0.000000 0.000000 0.028405 0.000000 0.027101
#
#
# Mechanical properties :
#
#
# Convention : Reuss Voigt Hill
#
# Bulk Modulus (GPa) = 35.93223 44.34988 40.14105
# Shear Modulus (GPa) = -16.19166 26.49132 5.14983
#
# Velocity S-wave (km/s) = -2.62792 3.36138 1.48205
# Velocity P-wave (km/s) = 2.47338 5.82932 4.47764
#
# Compressibility (1/GPa) = 0.02783017
#
# Stress axis : x y z
#
# Youngs Moduli (GPa) = 64.31133 91.00064 87.61661
#
# Poissons Ratio (x) = 0.23572 0.02839
# Poissons Ratio (y) = 0.16659 0.18806
# Poissons Ratio (z) = 0.02084 0.19532
#
# Static dielectric constant tensor:
#      x y z
#    x 1.963880 0.000000 -0.019570 
#    y 0.000000 1.800140 0.000000 
#    z -0.019570 0.000000 1.897080 
# 
# From -- ./inp_files/15367.got.cif
#   From: 2010.05.17/outbox.cif.g08.bks.cpg/sg11_8_cif.got.tgz:15367.got - 2010.06.03 12:22:45.
