data_PCOD9163309
_publ_section_title
;
Structure prediction by ZEFSAII (Michael W. Deem and Ramdas Pophale) SiO2 
 PCOD9163309
Probable space group: P 21/M
;
_chemical_formula_sum "Si O2"
_cell_formula_units_Z 32
_cell_length_a 8.539178
_cell_length_b 17.153548
_cell_length_c 9.529503
_cell_angle_alpha 90.000000
_cell_angle_beta 96.311009
_cell_angle_gamma 90.000000
_cell_volume 1387.395827
_symmetry_space_group_name_H-M "P 21/M"
_symmetry_group_IT_number 11
_symmetry_cell_setting 'monoclinic'
loop_
_space_group_symop_operation_xyz
x,y,z
-x,1/2+y,-z
-x,-y,-z
x,1/2-y,z
loop_
_atom_site_type_symbol
_atom_site_label
_atom_site_fract_x
_atom_site_fract_y
_atom_site_fract_z
Si Si1 0.282162 0.158717 0.773084
Si Si2 0.236493 0.658236 0.618114
Si Si3 0.610794 0.157016 0.644890
Si Si4 0.856494 0.438553 0.862326
Si Si5 0.640763 0.554101 0.966177
Si Si6 0.201850 0.089957 0.277529
Si Si7 0.932314 0.585212 0.460207
Si Si8 0.080455 0.661692 0.882698
O O1 0.241795 0.250000 0.772735
O O2 0.436611 0.148372 0.690537
O O3 0.784581 0.006602 0.979083
O O4 0.331986 0.125079 0.928080
O O5 0.264270 0.750000 0.638114
O O6 0.362885 0.629556 0.514371
O O7 0.072709 0.642758 0.519121
O O8 0.201921 0.628727 0.774069
O O9 0.648388 0.250000 0.653568
O O10 0.728236 0.109259 0.758551
O O11 0.899095 0.510262 0.764992
O O12 0.137716 0.391330 0.696020
O O13 0.944234 0.377696 0.968409
O O14 0.644413 0.581524 0.803716
O O15 0.500000 0.500000 0.000000
O O16 0.210327 0.097005 0.443033
O O17 0.089756 0.156940 0.207571
O O18 0.000000 0.500000 0.500000
O O19 0.130514 0.750000 0.913611
#
# Coordination Sequence:
#
# PCOD9163309 Si02
#       8
#     4   4   4   4   4   4   4   4
#     4  11  24  43  65  93 126 167 214 261 317 377
#     4   9  20  38  59  87 123 164 209 260 317 376
#     4  10  20  39  63  89 123 161 210 260 311 377
#     4  10  20  37  59  86 122 161 204 254 305 376
#     4  10  22  42  62  89 127 166 207 258 312 375
#     4   9  22  38  57  85 121 156 202 254 311 369
#     4  11  23  39  63  91 122 163 206 265 314 376
#     4  10  20  36  60  89 121 161 207 259 317 374
#
# _framework density 23.064795
#
# number of rings (size 3 to 8) (size 9 to 14) (size 15 to 20)
#    0.750    1.250    1.250    1.875    3.500    2.000 
#    2.250    3.125    0.000    0.000    0.000    0.000 
#    0.000    0.000    0.000    0.000    0.000    0.000 
#
# Total GULP energy -178147.120943 kJ/mol
# GULP energy per Si atom -5567.097529 kJ/mol
# Density = 2.301230 g / cm^3
# Si number density = 23.064795 Si / 1000 Ang^3
#
#
#
# Elastic Constant Matrix: (Units=GPa)
#
#
# Indices 1 2 3 4 5 6 
#
# 1 13.9776 12.6960 19.2365 0.0000 -7.7528 0.0000
# 2 12.6960 56.0565 31.9179 0.0000 6.5034 0.0000
# 3 19.2365 31.9179 127.0498 0.0000 -17.1755 0.0000
# 4 0.0000 0.0000 0.0000 24.3479 0.0000 -4.8928
# 5 -7.7528 6.5034 -17.1755 0.0000 38.8237 0.0000
# 6 0.0000 0.0000 0.0000 -4.8928 0.0000 24.3206
#
#
#
# Elastic Compliance Matrix: (Units=1/GPa)
#
#
# Indices 1 2 3 4 5 6 
#
# 1 0.119463 -0.025022 -0.008519 0.000000 0.024278 0.000000
# 2 -0.025022 0.027547 -0.004713 0.000000 -0.011696 0.000000
# 3 -0.008519 -0.004713 0.010872 0.000000 0.003898 0.000000
# 4 0.000000 0.000000 0.000000 0.042802 0.000000 0.008611
# 5 0.024278 -0.011696 0.003898 0.000000 0.034289 0.000000
# 6 0.000000 0.000000 0.000000 0.008611 0.000000 0.042850
#
#
# Mechanical properties :
#
#
# Convention : Reuss Voigt Hill
#
# Bulk Modulus (GPa) = 12.28931 36.08720 24.18825
# Shear Modulus (GPa) = 13.10769 26.38067 19.74418
#
# Velocity S-wave (km/s) = 2.38649 3.38563 2.92897
# Velocity P-wave (km/s) = 3.59632 5.56446 4.68491
#
# Compressibility (1/GPa) = 0.08137156
#
# Stress axis : x y z
#
# Youngs Moduli (GPa) = 8.37082 36.30183 91.98116
#
# Poissons Ratio (x) = 0.90836 0.78362
# Poissons Ratio (y) = 0.20946 0.43350
# Poissons Ratio (z) = 0.07131 0.17109
#
# Static dielectric constant tensor:
#      x y z
#    x 1.898210 0.000000 -0.068810 
#    y 0.000000 1.915840 0.000000 
#    z -0.068810 0.000000 1.958520 
# 
# From -- ./inp_files/22537.got.cif
#   From: 2010.05.17/outbox.cif.g08.bks.cpg/sg11_12_cif.got.tgz:22537.got - 2010.06.03 12:22:45.
