data_PCOD9163425
_publ_section_title
;
Structure prediction by ZEFSAII (Michael W. Deem and Ramdas Pophale) SiO2 
 PCOD9163425
Probable space group: P 21/M
;
_chemical_formula_sum "Si O2"
_cell_formula_units_Z 30
_cell_length_a 9.474423
_cell_length_b 17.841712
_cell_length_c 8.310393
_cell_angle_alpha 90.000000
_cell_angle_beta 113.138321
_cell_angle_gamma 90.000000
_cell_volume 1291.785492
_symmetry_space_group_name_H-M "P 21/M"
_symmetry_group_IT_number 11
_symmetry_cell_setting 'monoclinic'
loop_
_space_group_symop_operation_xyz
x,y,z
-x,1/2+y,-z
-x,-y,-z
x,1/2-y,z
loop_
_atom_site_type_symbol
_atom_site_label
_atom_site_fract_x
_atom_site_fract_y
_atom_site_fract_z
Si Si1 0.596047 0.168120 0.369804
Si Si2 0.074207 0.832598 0.221295
Si Si3 0.589866 0.950857 0.913427
Si Si4 0.215859 0.992722 0.290987
Si Si5 0.249335 0.167779 0.799024
Si Si6 0.362586 0.376973 0.502013
Si Si7 0.876525 0.250000 0.354730
Si Si8 0.058083 0.139144 0.194560
O O1 0.524555 0.250000 0.300527
O O2 0.528899 0.103333 0.229180
O O3 0.529081 0.146034 0.514904
O O4 0.771524 0.185338 0.403940
O O5 0.151085 0.750000 0.253685
O O6 0.166576 0.908268 0.290793
O O7 0.934863 0.829212 0.286933
O O8 0.996495 0.840498 0.008503
O O9 0.686872 0.998074 0.828715
O O10 0.703558 0.896784 0.060088
O O11 0.500000 0.000000 0.000000
O O12 0.323305 0.034135 0.472227
O O13 0.067012 0.048222 0.215435
O O14 0.301118 0.250000 0.877122
O O15 0.320747 0.152312 0.657457
O O16 0.237267 0.344407 0.318005
O O17 0.959186 0.184448 0.279290
#
# Coordination Sequence:
#
# PCOD9163425 Si02
#       8
#     4   4   4   4   4   4   2   4
#     4   9  20  38  59  91 121 165 213 265 309 382
#     4  11  21  36  62  95 130 161 219 280 332 374
#     4  11  23  38  64  89 123 168 225 268 321 385
#     4   9  22  39  62  91 130 174 217 266 323 387
#     4  11  23  38  64  98 123 171 213 269 325 388
#     4   9  21  39  67  86 129 175 217 248 325 400
#     4  10  22  30  66  94 126 166 222 262 326 374
#     4  10  20  36  63  94 126 168 216 264 318 393
#
# _framework density 23.223671
#
# number of rings (size 3 to 8) (size 9 to 14) (size 15 to 20)
#    1.200    0.800    2.000    1.200    3.733    1.600 
#    0.000    3.333    2.933    1.600    0.000    0.933 
#    0.000    0.000    0.000    0.000    0.000    0.000 
#
# Total GULP energy -167017.930477 kJ/mol
# GULP energy per Si atom -5567.264349 kJ/mol
# Density = 2.317081 g / cm^3
# Si number density = 23.223671 Si / 1000 Ang^3
#
#
#
# Elastic Constant Matrix: (Units=GPa)
#
#
# Indices 1 2 3 4 5 6 
#
# 1 143.8299 83.1003 45.5974 0.0000 -25.6528 0.0000
# 2 83.1003 207.3092 36.5875 0.0000 -17.4239 0.0000
# 3 45.5974 36.5875 48.7007 0.0000 -17.2094 0.0000
# 4 0.0000 0.0000 0.0000 -27.8020 0.0000 -14.5498
# 5 -25.6528 -17.4239 -17.2094 0.0000 29.8686 0.0000
# 6 0.0000 0.0000 0.0000 -14.5498 0.0000 48.1949
#
#
#
# Elastic Compliance Matrix: (Units=1/GPa)
#
#
# Indices 1 2 3 4 5 6 
#
# 1 0.011772 -0.003094 -0.007236 0.000000 0.004137 0.000000
# 2 -0.003094 0.006401 -0.001923 0.000000 -0.000031 0.000000
# 3 -0.007236 -0.001923 0.032848 0.000000 0.011590 0.000000
# 4 0.000000 0.000000 0.000000 -0.031061 0.000000 -0.009377
# 5 0.004137 -0.000031 0.011590 0.000000 0.043692 0.000000
# 6 0.000000 0.000000 0.000000 -0.009377 0.000000 0.017918
#
#
# Mechanical properties :
#
#
# Convention : Reuss Voigt Hill
#
# Bulk Modulus (GPa) = 37.71311 81.15670 59.43491
# Shear Modulus (GPa) = 43.51079 25.68926 34.60002
#
# Velocity S-wave (km/s) = 4.33315 3.32952 3.86406
# Velocity P-wave (km/s) = 6.42723 7.05709 6.74951
#
# Compressibility (1/GPa) = 0.02651598
#
# Stress axis : x y z
#
# Youngs Moduli (GPa) = 84.94748 156.23239 30.44299
#
# Poissons Ratio (x) = 0.48341 0.22027
# Poissons Ratio (y) = 0.26284 0.05854
# Poissons Ratio (z) = 0.61464 0.30040
#
# Static dielectric constant tensor:
#      x y z
#    x 1.850470 0.000000 0.064030 
#    y 0.000000 1.839250 0.000000 
#    z 0.064030 0.000000 1.920970 
# 
# From -- ./inp_files/14356.got.cif
#   From: 2010.05.17/outbox.cif.g08.bks.cpg/sg11_8_cif.got.tgz:14356.got - 2010.06.03 12:22:45.
