data_PCOD9163968
_publ_section_title
;
Structure prediction by ZEFSAII (Michael W. Deem and Ramdas Pophale) SiO2 
 PCOD9163968
Probable space group: P 21/M
;
_chemical_formula_sum "Si O2"
_cell_formula_units_Z 28
_cell_length_a 23.043880
_cell_length_b 9.043197
_cell_length_c 20.076354
_cell_angle_alpha 90.000000
_cell_angle_beta 159.877778
_cell_angle_gamma 90.000000
_cell_volume 1439.299082
_symmetry_space_group_name_H-M "P 21/M"
_symmetry_group_IT_number 11
_symmetry_cell_setting 'monoclinic'
loop_
_space_group_symop_operation_xyz
x,y,z
-x,1/2+y,-z
-x,-y,-z
x,1/2-y,z
loop_
_atom_site_type_symbol
_atom_site_label
_atom_site_fract_x
_atom_site_fract_y
_atom_site_fract_z
Si Si1 0.683732 0.428253 0.896118
Si Si2 0.581860 0.426309 0.932731
Si Si3 0.964825 0.071888 0.390716
Si Si4 0.759963 0.426074 0.410098
Si Si5 0.521650 0.920711 0.453409
Si Si6 0.972250 0.425472 0.765590
Si Si7 0.083841 0.421146 0.153549
O O1 0.705855 0.250000 0.917422
O O2 0.582279 0.459930 0.854098
O O3 0.589921 0.479069 0.727946
O O4 0.863150 0.506546 0.091622
O O5 0.557006 0.250000 0.914486
O O6 0.428327 0.511550 0.801670
O O7 0.770986 0.462316 0.161273
O O8 0.980568 0.250000 0.409219
O O9 0.000000 0.000000 0.500000
O O10 0.102139 0.005456 0.487758
O O11 0.765223 0.250000 0.403959
O O12 0.817964 0.454012 0.549052
O O13 0.473407 0.750000 0.411029
O O14 0.715709 0.926362 0.641003
O O15 0.500000 0.000000 0.500000
O O16 0.990288 0.250000 0.793046
O O17 0.956446 0.500329 0.820415
O O18 0.029247 0.250000 0.097594
O O19 0.000000 0.500000 0.000000
#
# Coordination Sequence:
#
# PCOD9163968 Si02
#       7
#     4   4   4   4   4   4   4
#     4  10  20  38  62  87 116 158 208 258 313 371
#     4  10  22  41  67  96 126 167 219 266 318 380
#     4  11  24  44  70  98 132 171 213 266 323 385
#     4  11  24  41  65  97 133 171 214 265 321 382
#     4  10  22  37  55  80 112 151 197 251 308 367
#     4  11  23  38  59  90 124 160 204 256 315 375
#     4  11  23  39  58  82 116 157 204 258 314 377
#
# _framework density 19.453914000000001
#
# number of rings (size 3 to 8) (size 9 to 14) (size 15 to 20)
#    0.000    1.429    1.429    3.429    0.000    9.143 
#    0.000    0.000    0.000    0.000    0.000    0.000 
#    0.000    0.000    0.000    0.000    0.000    0.000 
#
# Total GULP energy -156485.364634 kJ/mol
# GULP energy per Si atom -5588.763023 kJ/mol
# Density = 1.940964 g / cm^3
# Si number density = 19.453914 Si / 1000 Ang^3
#
#
#
# Elastic Constant Matrix: (Units=GPa)
#
#
# Indices 1 2 3 4 5 6 
#
# 1 110.6205 63.5610 59.4465 0.0000 -2.5191 0.0000
# 2 63.5610 72.9329 62.2152 0.0000 3.8487 0.0000
# 3 59.4465 62.2152 123.6392 0.0000 6.8537 0.0000
# 4 0.0000 0.0000 0.0000 29.6514 0.0000 0.5662
# 5 -2.5191 3.8487 6.8537 0.0000 31.9505 0.0000
# 6 0.0000 0.0000 0.0000 0.5662 0.0000 33.3981
#
#
#
# Elastic Compliance Matrix: (Units=1/GPa)
#
#
# Indices 1 2 3 4 5 6 
#
# 1 0.018640 -0.015102 -0.001564 0.000000 0.003624 0.000000
# 2 -0.015102 0.036262 -0.010806 0.000000 -0.003241 0.000000
# 3 -0.001564 -0.010806 0.014383 0.000000 -0.001907 0.000000
# 4 0.000000 0.000000 0.000000 0.033736 0.000000 -0.000572
# 5 0.003624 -0.003241 -0.001907 0.000000 0.032384 0.000000
# 6 0.000000 0.000000 0.000000 -0.000572 0.000000 0.029952
#
#
# Mechanical properties :
#
#
# Convention : Reuss Voigt Hill
#
# Bulk Modulus (GPa) = 69.72928 75.29312 72.51120
# Shear Modulus (GPa) = 22.21411 27.13133 24.67272
#
# Velocity S-wave (km/s) = 3.38284 3.73855 3.56513
# Velocity P-wave (km/s) = 7.15397 7.57780 7.36893
#
# Compressibility (1/GPa) = 0.01434118
#
# Stress axis : x y z
#
# Youngs Moduli (GPa) = 53.64666 27.57703 69.52516
#
# Poissons Ratio (x) = 0.41648 0.10873
# Poissons Ratio (y) = 0.81019 0.75129
# Poissons Ratio (z) = 0.08390 0.29800
#
# Static dielectric constant tensor:
#      x y z
#    x 1.670740 0.000000 -0.017660 
#    y 0.000000 1.659140 0.000000 
#    z -0.017660 0.000000 1.686190 
# 
# From -- ./inp_files/66736.got.cif
#   From: 2010.05.17/outbox.cif.g08.bks.cpg/sg11_34_cif.got.tgz:66736.got - 2010.06.03 12:22:45.
