data_PCOD9163721
_publ_section_title
;
Structure prediction by ZEFSAII (Michael W. Deem and Ramdas Pophale) SiO2 
 PCOD9163721
Probable space group: P 21/M
;
_chemical_formula_sum "Si O2"
_cell_formula_units_Z 24
_cell_length_a 15.463408
_cell_length_b 8.719383
_cell_length_c 15.146356
_cell_angle_alpha 90.000000
_cell_angle_beta 39.846806
_cell_angle_gamma 90.000000
_cell_volume 1308.515913
_symmetry_space_group_name_H-M "P 21/M"
_symmetry_group_IT_number 11
_symmetry_cell_setting 'monoclinic'
loop_
_space_group_symop_operation_xyz
x,y,z
-x,1/2+y,-z
-x,-y,-z
x,1/2-y,z
loop_
_atom_site_type_symbol
_atom_site_label
_atom_site_fract_x
_atom_site_fract_y
_atom_site_fract_z
Si Si1 0.639311 0.932897 0.351687
Si Si2 0.170934 0.933563 0.649872
Si Si3 0.138253 0.434881 0.351733
Si Si4 0.668132 0.934832 0.643252
Si Si5 0.638660 0.433638 0.156888
Si Si6 0.861580 0.564925 0.851489
O O1 0.631731 0.750000 0.359002
O O2 0.500000 0.000000 0.500000
O O3 0.759416 0.989927 0.320429
O O4 0.657263 0.992498 0.238420
O O5 0.182037 0.750000 0.648187
O O6 0.013832 0.974170 0.761713
O O7 0.251342 0.989018 0.500325
O O8 0.128303 0.250000 0.359270
O O9 0.260151 0.478572 0.321320
O O10 0.156435 0.484267 0.236307
O O11 0.000000 0.500000 0.500000
O O12 0.678463 0.750000 0.625574
O O13 0.511005 0.976018 0.760261
O O14 0.644082 0.250000 0.161174
O O15 0.751871 0.490736 0.000977
O O16 0.848605 0.750000 0.865458
#
# Coordination Sequence:
#
# PCOD9163721 Si02
#       6
#     4   4   4   4   4   4
#     4  12  24  40  64  92 122 159 202 251 304 360
#     4  11  22  38  63  92 121 159 206 250 301 362
#     4  10  20  37  61  90 122 159 204 252 303 360
#     4  10  21  37  61  90 122 158 203 254 302 358
#     4  11  24  41  61  90 124 162 205 252 306 361
#     4  10  23  41  60  89 127 163 202 252 307 361
#
# _framework density 18.341388999999999
#
# number of rings (size 3 to 8) (size 9 to 14) (size 15 to 20)
#    0.000    1.333    3.333    2.500    0.000    4.000 
#    0.000    0.000    0.000    0.000    0.000    0.000 
#    0.000    0.000    0.000    0.000    0.000    0.000 
#
# Total GULP energy -134161.703252 kJ/mol
# GULP energy per Si atom -5590.070969 kJ/mol
# Density = 1.829964 g / cm^3
# Si number density = 18.341389 Si / 1000 Ang^3
#
#
#
# Elastic Constant Matrix: (Units=GPa)
#
#
# Indices 1 2 3 4 5 6 
#
# 1 217.5666 74.1004 116.8290 0.0000 6.3406 0.0000
# 2 74.1004 57.8296 65.4231 0.0000 -3.8795 0.0000
# 3 116.8290 65.4231 185.1963 0.0000 3.5606 0.0000
# 4 0.0000 0.0000 0.0000 36.7754 0.0000 2.4029
# 5 6.3406 -3.8795 3.5606 0.0000 33.6654 0.0000
# 6 0.0000 0.0000 0.0000 2.4029 0.0000 24.6248
#
#
#
# Elastic Compliance Matrix: (Units=1/GPa)
#
#
# Indices 1 2 3 4 5 6 
#
# 1 0.009059 -0.008932 -0.002512 0.000000 -0.002470 0.000000
# 2 -0.008932 0.038277 -0.008021 0.000000 0.006941 0.000000
# 3 -0.002512 -0.008021 0.009847 0.000000 -0.001493 0.000000
# 4 0.000000 0.000000 0.000000 0.027367 0.000000 -0.002670
# 5 -0.002470 0.006941 -0.001493 0.000000 0.031127 0.000000
# 6 0.000000 0.000000 0.000000 -0.002670 0.000000 0.040870
#
#
# Mechanical properties :
#
#
# Convention : Reuss Voigt Hill
#
# Bulk Modulus (GPa) = 54.78513 108.14415 81.46464
# Shear Modulus (GPa) = 24.80650 32.62911 28.71781
#
# Velocity S-wave (km/s) = 3.68161 4.22238 3.96123
# Velocity P-wave (km/s) = 6.92870 9.10281 8.08913
#
# Compressibility (1/GPa) = 0.01825313
#
# Stress axis : x y z
#
# Youngs Moduli (GPa) = 110.38288 26.12559 101.55845
#
# Poissons Ratio (x) = 0.23335 0.25513
# Poissons Ratio (y) = 0.98593 0.81456
# Poissons Ratio (z) = 0.27730 0.20954
#
# Static dielectric constant tensor:
#      x y z
#    x 1.631540 0.000000 -0.003610 
#    y 0.000000 1.619450 0.000000 
#    z -0.003610 0.000000 1.580580 
# 
# From -- ./inp_files/20408.got.cif
#   From: 2010.05.17/outbox.cif.g08.bks.cpg/sg11_11_cif.got.tgz:20408.got - 2010.06.03 12:22:45.
