data_PCOD9163619
_publ_section_title
;
Structure prediction by ZEFSAII (Michael W. Deem and Ramdas Pophale) SiO2 
 PCOD9163619
Probable space group: P 21/M
;
_chemical_formula_sum "Si O2"
_cell_formula_units_Z 32
_cell_length_a 8.932459
_cell_length_b 13.317896
_cell_length_c 21.078081
_cell_angle_alpha 90.000000
_cell_angle_beta 39.968665
_cell_angle_gamma 90.000000
_cell_volume 1610.727226
_symmetry_space_group_name_H-M "P 21/M"
_symmetry_group_IT_number 11
_symmetry_cell_setting 'monoclinic'
loop_
_space_group_symop_operation_xyz
x,y,z
-x,1/2+y,-z
-x,-y,-z
x,1/2-y,z
loop_
_atom_site_type_symbol
_atom_site_label
_atom_site_fract_x
_atom_site_fract_y
_atom_site_fract_z
Si Si1 0.107136 0.368762 0.585613
Si Si2 0.446528 0.046080 0.371343
Si Si3 0.641606 0.494683 0.741499
Si Si4 0.233631 0.131491 0.687940
Si Si5 0.367771 0.368486 0.130293
Si Si6 0.808894 0.362630 0.909563
Si Si7 0.091325 0.861782 0.805610
Si Si8 0.122798 0.460526 0.898192
O O1 0.091818 0.250000 0.576872
O O2 0.247991 0.426064 0.485266
O O3 0.233615 0.380926 0.612460
O O4 0.854380 0.418334 0.674813
O O5 0.356574 0.048637 0.328116
O O6 0.661854 0.123099 0.309339
O O7 0.568288 0.938062 0.345553
O O8 0.643392 0.570208 0.800684
O O9 0.391529 0.440332 0.823808
O O10 0.261904 0.250000 0.693813
O O11 0.975883 0.100207 0.798190
O O12 0.415485 0.250000 0.128064
O O13 0.125203 0.373636 0.171281
O O14 0.573648 0.407409 0.016346
O O15 0.743557 0.250000 0.911988
O O16 0.988297 0.368985 0.910008
O O17 0.078039 0.750000 0.837795
O O18 0.094929 0.947506 0.857525
O O19 0.000000 0.500000 0.000000
#
# Coordination Sequence:
#
# PCOD9163619 Si02
#       8
#     4   4   4   4   4   4   4   4
#     4  11  25  42  62  89 120 160 205 256 307 356
#     4  11  22  43  64  88 121 160 203 254 311 358
#     4  11  23  38  63  89 122 156 202 250 302 360
#     4  10  21  39  64  91 121 159 204 250 302 362
#     4  10  22  39  62  92 124 162 204 246 299 362
#     4  10  20  37  60  87 123 161 197 242 297 357
#     4  10  22  39  61  87 121 162 207 253 297 358
#     4  11  22  38  59  93 121 162 200 242 302 362
#
# _framework density 19.866803000000001
#
# number of rings (size 3 to 8) (size 9 to 14) (size 15 to 20)
#    0.000    1.500    3.750    1.875    0.000    5.500 
#    0.000    3.125    0.000    0.000    0.000    0.000 
#    0.000    0.000    0.000    0.000    0.000    0.000 
#
# Total GULP energy -178527.687259 kJ/mol
# GULP energy per Si atom -5578.990227 kJ/mol
# Density = 1.982159 g / cm^3
# Si number density = 19.866803 Si / 1000 Ang^3
#
#
#
# Elastic Constant Matrix: (Units=GPa)
#
#
# Indices 1 2 3 4 5 6 
#
# 1 63.8527 28.8582 24.1481 0.0000 -7.5163 0.0000
# 2 28.8582 95.7312 32.7872 0.0000 -1.2658 0.0000
# 3 24.1481 32.7872 112.6169 0.0000 7.4193 0.0000
# 4 0.0000 0.0000 0.0000 25.2669 0.0000 -1.8958
# 5 -7.5163 -1.2658 7.4193 0.0000 30.4400 0.0000
# 6 0.0000 0.0000 0.0000 -1.8958 0.0000 17.7090
#
#
#
# Elastic Compliance Matrix: (Units=1/GPa)
#
#
# Indices 1 2 3 4 5 6 
#
# 1 0.019658 -0.004763 -0.003187 0.000000 0.005433 0.000000
# 2 -0.004763 0.012810 -0.002709 0.000000 0.000017 0.000000
# 3 -0.003187 -0.002709 0.010581 0.000000 -0.003478 0.000000
# 4 0.000000 0.000000 0.000000 0.039898 0.000000 0.004271
# 5 0.005433 0.000017 -0.003478 0.000000 0.035041 0.000000
# 6 0.000000 0.000000 0.000000 0.004271 0.000000 0.056926
#
#
# Mechanical properties :
#
#
# Convention : Reuss Voigt Hill
#
# Bulk Modulus (GPa) = 46.01578 49.30976 47.66277
# Shear Modulus (GPa) = 24.57304 27.11032 25.84168
#
# Velocity S-wave (km/s) = 3.52076 3.69806 3.61050
# Velocity P-wave (km/s) = 6.30397 6.56569 6.43616
#
# Compressibility (1/GPa) = 0.02173167
#
# Stress axis : x y z
#
# Youngs Moduli (GPa) = 50.86951 78.06528 94.51013
#
# Poissons Ratio (x) = 0.37181 0.30116
# Poissons Ratio (y) = 0.24228 0.25606
# Poissons Ratio (z) = 0.16210 0.21150
#
# Static dielectric constant tensor:
#      x y z
#    x 1.683320 0.000000 0.001700 
#    y 0.000000 1.729150 0.000000 
#    z 0.001700 0.000000 1.722150 
# 
# From -- ./inp_files/63790.got.cif
#   From: 2010.05.17/outbox.cif.g08.bks.cpg/sg11_32_cif.got.tgz:63790.got - 2010.06.03 12:22:45.
