data_PCOD9163054
_publ_section_title
;
Structure prediction by ZEFSAII (Michael W. Deem and Ramdas Pophale) SiO2 
 PCOD9163054
Probable space group: P 21/M
;
_chemical_formula_sum "Si O2"
_cell_formula_units_Z 28
_cell_length_a 15.960618
_cell_length_b 8.685095
_cell_length_c 18.242471
_cell_angle_alpha 90.000000
_cell_angle_beta 141.738315
_cell_angle_gamma 90.000000
_cell_volume 1565.946168
_symmetry_space_group_name_H-M "P 21/M"
_symmetry_group_IT_number 11
_symmetry_cell_setting 'monoclinic'
loop_
_space_group_symop_operation_xyz
x,y,z
-x,1/2+y,-z
-x,-y,-z
x,1/2-y,z
loop_
_atom_site_type_symbol
_atom_site_label
_atom_site_fract_x
_atom_site_fract_y
_atom_site_fract_z
Si Si1 0.681379 0.427949 0.923999
Si Si2 0.432109 0.428719 0.648075
Si Si3 0.632541 0.565190 0.050718
Si Si4 0.846221 0.936028 0.899866
Si Si5 0.155203 0.435233 0.528239
Si Si6 0.408610 0.429369 0.371791
Si Si7 0.129752 0.064865 0.678005
O O1 0.724419 0.250000 0.961793
O O2 0.531953 0.428461 0.785806
O O3 0.778359 0.507516 0.929941
O O4 0.664694 0.505968 0.991314
O O5 0.427606 0.250000 0.618001
O O6 0.284911 0.481046 0.571222
O O7 0.497916 0.538942 0.634167
O O8 0.622567 0.750000 0.042385
O O9 0.757160 0.517444 0.187605
O O10 0.500000 0.500000 0.000000
O O11 0.849959 0.750000 0.901718
O O12 0.740667 0.985538 0.761175
O O13 0.000000 0.000000 0.000000
O O14 0.152142 0.250000 0.526602
O O15 0.164736 0.487546 0.619410
O O16 0.015876 0.499278 0.402111
O O17 0.500000 0.500000 0.500000
O O18 0.391523 0.250000 0.376543
O O19 0.123271 0.250000 0.672497
#
# Coordination Sequence:
#
# PCOD9163054 Si02
#       7
#     4   4   4   4   4   4   4
#     4  10  20  36  58  83 112 146 185 228 277 333
#     4   9  18  34  56  79 106 140 177 220 271 323
#     4  11  22  36  54  78 110 146 185 229 277 328
#     4  10  21  39  62  88 116 151 194 237 288 347
#     4   9  17  32  53  75 100 136 177 217 263 316
#     4  10  21  37  58  85 114 143 183 231 280 338
#     4   9  19  34  50  72 105 139 175 219 266 315
#
# _framework density 17.880562999999999
#
# number of rings (size 3 to 8) (size 9 to 14) (size 15 to 20)
#    0.000    2.286    0.000    2.571    0.000    6.286 
#    2.571    2.857    0.000    0.000    0.000    0.000 
#    0.000    0.000    0.000    0.000    0.000    0.000 
#
# Total GULP energy -156013.422240 kJ/mol
# GULP energy per Si atom -5571.907937 kJ/mol
# Density = 1.783987 g / cm^3
# Si number density = 17.880563 Si / 1000 Ang^3
#
#
#
# Elastic Constant Matrix: (Units=GPa)
#
#
# Indices 1 2 3 4 5 6 
#
# 1 85.3477 23.9637 79.8978 0.0000 16.2617 0.0000
# 2 23.9637 38.8037 41.4188 0.0000 -2.2128 0.0000
# 3 79.8978 41.4188 150.5095 0.0000 3.9617 0.0000
# 4 0.0000 0.0000 0.0000 30.1405 0.0000 -0.5875
# 5 16.2617 -2.2128 3.9617 0.0000 28.1583 0.0000
# 6 0.0000 0.0000 0.0000 -0.5875 0.0000 32.0606
#
#
#
# Elastic Compliance Matrix: (Units=1/GPa)
#
#
# Indices 1 2 3 4 5 6 
#
# 1 0.028331 -0.003821 -0.013600 0.000000 -0.014748 0.000000
# 2 -0.003821 0.037529 -0.008466 0.000000 0.006347 0.000000
# 3 -0.013600 -0.008466 0.016064 0.000000 0.004929 0.000000
# 4 0.000000 0.000000 0.000000 0.033190 0.000000 0.000608
# 5 -0.014748 0.006347 0.004929 0.000000 0.043836 0.000000
# 6 0.000000 0.000000 0.000000 0.000608 0.000000 0.031202
#
#
# Mechanical properties :
#
#
# Convention : Reuss Voigt Hill
#
# Bulk Modulus (GPa) = 33.16778 62.80239 47.98509
# Shear Modulus (GPa) = 19.84311 26.69725 23.27018
#
# Velocity S-wave (km/s) = 3.33492 3.86824 3.61144
# Velocity P-wave (km/s) = 5.78090 7.42634 6.65467
#
# Compressibility (1/GPa) = 0.03014974
#
# Stress axis : x y z
#
# Youngs Moduli (GPa) = 35.29686 26.64582 62.25197
#
# Poissons Ratio (x) = 0.10181 0.84662
# Poissons Ratio (y) = 0.13486 0.52706
# Poissons Ratio (z) = 0.48003 0.22560
#
# Static dielectric constant tensor:
#      x y z
#    x 1.593020 0.000000 -0.015750 
#    y 0.000000 1.661690 0.000000 
#    z -0.015750 0.000000 1.631120 
# 
# From -- ./inp_files/60133.got.cif
#   From: 2010.05.17/outbox.cif.g08.bks.cpg/sg11_31_cif.got.tgz:60133.got - 2010.06.03 12:22:45.
