data_PCOD9163176
_publ_section_title
;
Structure prediction by ZEFSAII (Michael W. Deem and Ramdas Pophale) SiO2 
 PCOD9163176
Probable space group: P 21/M
;
_chemical_formula_sum "Si O2"
_cell_formula_units_Z 32
_cell_length_a 8.810006
_cell_length_b 22.579338
_cell_length_c 13.507368
_cell_angle_alpha 90.000000
_cell_angle_beta 34.677695
_cell_angle_gamma 90.000000
_cell_volume 1528.760439
_symmetry_space_group_name_H-M "P 21/M"
_symmetry_group_IT_number 11
_symmetry_cell_setting 'monoclinic'
loop_
_space_group_symop_operation_xyz
x,y,z
-x,1/2+y,-z
-x,-y,-z
x,1/2-y,z
loop_
_atom_site_type_symbol
_atom_site_label
_atom_site_fract_x
_atom_site_fract_y
_atom_site_fract_z
Si Si1 0.268954 0.977872 0.489811
Si Si2 0.897352 0.509645 0.875631
Si Si3 0.611491 0.424092 0.779912
Si Si4 0.660670 0.086139 0.268089
Si Si5 0.092806 0.878858 0.190253
Si Si6 0.502711 0.635461 0.460250
Si Si7 0.735237 0.183605 0.077081
Si Si8 0.358226 0.185826 0.807817
O O1 0.241824 0.955826 0.391323
O O2 0.473273 0.930056 0.428011
O O3 0.020280 0.976716 0.699614
O O4 0.411340 0.041552 0.414982
O O5 0.906866 0.438890 0.875910
O O6 0.086155 0.542550 0.854932
O O7 0.599594 0.532157 0.054834
O O8 0.806744 0.397733 0.756933
O O9 0.441797 0.369146 0.828852
O O10 0.693429 0.132011 0.342344
O O11 0.613448 0.128460 0.201114
O O12 0.792889 0.855357 0.350695
O O13 0.270416 0.831651 0.036105
O O14 0.474201 0.679218 0.384212
O O15 0.635094 0.250000 0.151544
O O16 0.048307 0.181764 0.942218
O O17 0.405456 0.250000 0.828159
#
# Coordination Sequence:
#
# PCOD9163176 Si02
#       8
#     4   4   4   4   4   4   4   4
#     4  10  20  36  59  86 115 148 190 232 278 340
#     4  11  20  36  58  89 120 150 189 229 284 347
#     4  11  23  35  56  87 117 157 186 226 290 344
#     4  11  18  35  62  84 113 147 186 245 286 327
#     4  11  21  37  54  83 119 150 186 225 286 350
#     4   9  18  34  57  83 110 145 186 234 288 333
#     4  10  22  37  58  83 105 143 199 244 278 329
#     4   9  19  37  57  78 105 145 199 242 275 332
#
# _framework density 20.931989999999999
#
# number of rings (size 3 to 8) (size 9 to 14) (size 15 to 20)
#    0.000    1.750    3.750    1.875    0.000    2.500 
#    2.250    0.000    0.000    0.000    0.000    0.000 
#    0.000    0.000    0.000    0.000    0.000    0.000 
#
# Total GULP energy -178473.863054 kJ/mol
# GULP energy per Si atom -5577.308220 kJ/mol
# Density = 2.088435 g / cm^3
# Si number density = 20.931990 Si / 1000 Ang^3
#
#
#
# Elastic Constant Matrix: (Units=GPa)
#
#
# Indices 1 2 3 4 5 6 
#
# 1 67.9459 4.0756 14.0319 0.0000 14.0355 0.0000
# 2 4.0756 70.8041 17.2750 0.0000 12.3202 0.0000
# 3 14.0319 17.2750 58.3541 0.0000 16.3876 0.0000
# 4 0.0000 0.0000 0.0000 16.4717 0.0000 3.7358
# 5 14.0355 12.3202 16.3876 0.0000 24.0911 0.0000
# 6 0.0000 0.0000 0.0000 3.7358 0.0000 20.8290
#
#
#
# Elastic Compliance Matrix: (Units=1/GPa)
#
#
# Indices 1 2 3 4 5 6 
#
# 1 0.016922 0.001063 -0.001808 0.000000 -0.009173 0.000000
# 2 0.001063 0.015983 -0.003112 0.000000 -0.006676 0.000000
# 3 -0.001808 -0.003112 0.021942 0.000000 -0.012280 0.000000
# 4 0.000000 0.000000 0.000000 0.063285 0.000000 -0.011351
# 5 -0.009173 -0.006676 -0.012280 0.000000 0.058621 0.000000
# 6 0.000000 0.000000 0.000000 -0.011351 0.000000 0.050046
#
#
# Mechanical properties :
#
#
# Convention : Reuss Voigt Hill
#
# Bulk Modulus (GPa) = 21.21676 29.76323 25.48999
# Shear Modulus (GPa) = 19.98215 23.05981 21.52098
#
# Velocity S-wave (km/s) = 3.09305 3.32272 3.20994
# Velocity P-wave (km/s) = 4.78686 5.38242 5.09335
#
# Compressibility (1/GPa) = 0.04713256
#
# Stress axis : x y z
#
# Youngs Moduli (GPa) = 59.09483 62.56523 45.57551
#
# Poissons Ratio (x) = -0.06651 0.08239
# Poissons Ratio (y) = -0.06282 0.14185
# Poissons Ratio (z) = 0.10683 0.19473
#
# Static dielectric constant tensor:
#      x y z
#    x 1.771750 0.000000 0.024480 
#    y 0.000000 1.755840 0.000000 
#    z 0.024480 0.000000 1.820710 
# 
# From -- ./inp_files/48246.got.cif
#   From: 2010.05.17/outbox.cif.g08.bks.cpg/sg11_25_cif.got.tgz:48246.got - 2010.06.03 12:22:45.
