data_PCOD9163430
_publ_section_title
;
Structure prediction by ZEFSAII (Michael W. Deem and Ramdas Pophale) SiO2 
 PCOD9163430
Probable space group: P 21/M
;
_chemical_formula_sum "Si O2"
_cell_formula_units_Z 22
_cell_length_a 9.406792
_cell_length_b 14.237668
_cell_length_c 7.150804
_cell_angle_alpha 90.000000
_cell_angle_beta 86.402305
_cell_angle_gamma 90.000000
_cell_volume 955.825359
_symmetry_space_group_name_H-M "P 21/M"
_symmetry_group_IT_number 11
_symmetry_cell_setting 'monoclinic'
loop_
_space_group_symop_operation_xyz
x,y,z
-x,1/2+y,-z
-x,-y,-z
x,1/2-y,z
loop_
_atom_site_type_symbol
_atom_site_label
_atom_site_fract_x
_atom_site_fract_y
_atom_site_fract_z
Si Si1 0.345321 0.544802 0.504132
Si Si2 0.360520 0.250000 0.927959
Si Si3 0.292290 0.250000 0.367555
Si Si4 0.575474 0.086131 0.898845
Si Si5 0.961117 0.750000 0.186143
Si Si6 0.601650 0.250000 0.530598
Si Si7 0.259926 0.750000 0.051414
Si Si8 0.892984 0.583282 0.447984
O O1 0.500000 0.500000 0.500000
O O2 0.326821 0.549211 0.279390
O O3 0.346489 0.652805 0.560224
O O4 0.236513 0.479116 0.619934
O O5 0.355155 0.250000 0.153980
O O6 0.447305 0.158038 0.853200
O O7 0.198770 0.250000 0.876040
O O8 0.428926 0.250000 0.498141
O O9 0.192424 0.157754 0.409771
O O10 0.670416 0.153479 0.019902
O O11 0.500000 0.000000 0.000000
O O12 0.973149 0.655182 0.306218
O O13 0.092991 0.750000 0.036987
O O14 0.686005 0.250000 0.729639
O O15 0.000000 0.500000 0.500000
#
# Coordination Sequence:
#
# PCOD9163430 Si02
#       8
#     4   2   2   4   2   2   2   4
#     4  11  20  35  61  91 121 155 209 262 317 366
#     4  11  24  41  63  93 129 178 209 252 338 390
#     4  11  23  41  65  91 134 163 212 272 318 386
#     4  10  21  37  62  92 122 160 213 264 311 381
#     4  11  24  45  67  89 135 176 209 260 336 392
#     4  10  20  36  64  90 120 164 208 266 322 354
#     4   9  21  41  67  87 126 167 214 260 322 382
#     4  11  23  39  66  97 120 167 217 267 318 381
#
# _framework density 23.016757999999999
#
# number of rings (size 3 to 8) (size 9 to 14) (size 15 to 20)
#    0.000    1.455    1.818    4.909    7.636    0.727 
#    0.000    5.455    8.000    0.000    0.000    0.000 
#    0.000    0.000    0.000    0.000    0.000    0.000 
#
# Total GULP energy -122590.672706 kJ/mol
# GULP energy per Si atom -5572.303305 kJ/mol
# Density = 2.296437 g / cm^3
# Si number density = 23.016758 Si / 1000 Ang^3
#
#
#
# Elastic Constant Matrix: (Units=GPa)
#
#
# Indices 1 2 3 4 5 6 
#
# 1 115.6301 35.2797 -16.0825 0.0000 1.9697 0.0000
# 2 35.2797 193.0425 -2.6084 0.0000 -1.7894 0.0000
# 3 -16.0825 -2.6084 53.5705 0.0000 0.3045 0.0000
# 4 0.0000 0.0000 0.0000 14.1390 0.0000 -0.3629
# 5 1.9697 -1.7894 0.3045 0.0000 19.8197 0.0000
# 6 0.0000 0.0000 0.0000 -0.3629 0.0000 44.0911
#
#
#
# Elastic Compliance Matrix: (Units=1/GPa)
#
#
# Indices 1 2 3 4 5 6 
#
# 1 0.009583 -0.001724 0.002800 0.000000 -0.001151 0.000000
# 2 -0.001724 0.005498 -0.000254 0.000000 0.000672 0.000000
# 3 0.002800 -0.000254 0.019499 0.000000 -0.000601 0.000000
# 4 0.000000 0.000000 0.000000 0.070741 0.000000 0.000582
# 5 -0.001151 0.000672 -0.000601 0.000000 0.050639 0.000000
# 6 0.000000 0.000000 0.000000 0.000582 0.000000 0.022685
#
#
# Mechanical properties :
#
#
# Convention : Reuss Voigt Hill
#
# Bulk Modulus (GPa) = 27.60658 43.93562 35.77110
# Shear Modulus (GPa) = 26.44430 38.65358 32.54894
#
# Velocity S-wave (km/s) = 3.39324 4.10245 3.76459
# Velocity P-wave (km/s) = 5.23185 6.44749 5.87122
#
# Compressibility (1/GPa) = 0.03622325
#
# Stress axis : x y z
#
# Youngs Moduli (GPa) = 104.34767 181.88029 51.28588
#
# Poissons Ratio (x) = 0.31361 -0.14358
# Poissons Ratio (y) = 0.17992 0.01301
# Poissons Ratio (z) = -0.29213 0.04615
#
# Static dielectric constant tensor:
#      x y z
#    x 1.905690 0.000000 0.013100 
#    y 0.000000 1.886260 0.000000 
#    z 0.013100 0.000000 2.020420 
# 
# From -- ./inp_files/12586.got.cif
#   From: 2010.05.17/outbox.cif.g08.bks.cpg/sg11_7_cif.got.tgz:12586.got - 2010.06.03 12:22:45.
