data_PCOD9163889
_publ_section_title
;
Structure prediction by ZEFSAII (Michael W. Deem and Ramdas Pophale) SiO2 
 PCOD9163889
Probable space group: P 21/M
;
_chemical_formula_sum "Si O2"
_cell_formula_units_Z 24
_cell_length_a 16.730148
_cell_length_b 15.554097
_cell_length_c 9.144981
_cell_angle_alpha 90.000000
_cell_angle_beta 149.315561
_cell_angle_gamma 90.000000
_cell_volume 1214.397703
_symmetry_space_group_name_H-M "P 21/M"
_symmetry_group_IT_number 11
_symmetry_cell_setting 'monoclinic'
loop_
_space_group_symop_operation_xyz
x,y,z
-x,1/2+y,-z
-x,-y,-z
x,1/2-y,z
loop_
_atom_site_type_symbol
_atom_site_label
_atom_site_fract_x
_atom_site_fract_y
_atom_site_fract_z
Si Si1 0.386959 0.505169 0.460506
Si Si2 0.140350 0.851292 0.569554
Si Si3 0.975592 0.500061 0.134090
Si Si4 0.084935 0.350961 0.511477
Si Si5 0.493889 0.588464 0.084072
Si Si6 0.567487 0.845664 0.900451
O O1 0.500000 0.500000 0.500000
O O2 0.412829 0.429094 0.620059
O O3 0.441792 0.590444 0.633685
O O4 0.209232 0.506874 0.130060
O O5 0.136802 0.750000 0.524956
O O6 0.053530 0.860953 0.588556
O O7 0.318256 0.884805 0.849926
O O8 0.047407 0.912987 0.313186
O O9 0.058370 0.418696 0.340977
O O10 0.000000 0.500000 0.000000
O O11 0.090299 0.250000 0.475940
O O12 0.253095 0.371413 0.850222
O O13 0.500000 0.500000 0.000000
O O14 0.556764 0.653006 0.060254
O O15 0.539995 0.750000 0.801985
#
# Coordination Sequence:
#
# PCOD9163889 Si02
#       6
#     4   4   4   4   4   4
#     4  11  22  36  57  85 117 150 185 238 302 352
#     4  11  23  41  63  86 116 162 210 249 293 358
#     4  12  23  37  59  88 123 154 189 249 309 357
#     4  10  22  40  63  87 117 161 210 250 292 355
#     4  10  20  38  60  82 111 151 199 238 285 355
#     4  10  20  38  60  82 112 154 200 244 288 349
#
# _framework density 19.762885000000001
#
# number of rings (size 3 to 8) (size 9 to 14) (size 15 to 20)
#    0.000    1.333    0.000    8.000    0.000    1.333 
#    0.000    3.333    0.000    0.000    0.000    0.000 
#    0.000    0.000    0.000    0.000    0.000    0.000 
#
# Total GULP energy -134045.368102 kJ/mol
# GULP energy per Si atom -5585.223671 kJ/mol
# Density = 1.971790 g / cm^3
# Si number density = 19.762885 Si / 1000 Ang^3
#
#
#
# Elastic Constant Matrix: (Units=GPa)
#
#
# Indices 1 2 3 4 5 6 
#
# 1 39.9788 4.9818 -23.9544 0.0000 5.7772 0.0000
# 2 4.9818 111.1355 40.8432 0.0000 -8.3509 0.0000
# 3 -23.9544 40.8432 64.9231 0.0000 9.8722 0.0000
# 4 0.0000 0.0000 0.0000 25.4050 0.0000 8.3837
# 5 5.7772 -8.3509 9.8722 0.0000 45.6432 0.0000
# 6 0.0000 0.0000 0.0000 8.3837 0.0000 23.6296
#
#
#
# Elastic Compliance Matrix: (Units=1/GPa)
#
#
# Indices 1 2 3 4 5 6 
#
# 1 0.044486 -0.012776 0.026535 0.000000 -0.013708 0.000000
# 2 -0.012776 0.016070 -0.016045 0.000000 0.008028 0.000000
# 3 0.026535 -0.016045 0.037477 0.000000 -0.014400 0.000000
# 4 0.000000 0.000000 0.000000 0.044582 0.000000 -0.015818
# 5 -0.013708 0.008028 -0.014400 0.000000 0.028227 0.000000
# 6 0.000000 0.000000 0.000000 -0.015818 0.000000 0.047932
#
#
# Mechanical properties :
#
#
# Convention : Reuss Voigt Hill
#
# Bulk Modulus (GPa) = 10.69950 28.86430 19.78190
# Shear Modulus (GPa) = 19.64646 31.88001 25.76324
#
# Velocity S-wave (km/s) = 3.15637 4.02073 3.61448
# Velocity P-wave (km/s) = 4.32542 6.01598 5.23934
#
# Compressibility (1/GPa) = 0.09346231
#
# Stress axis : x y z
#
# Youngs Moduli (GPa) = 22.47922 62.22610 26.68319
#
# Poissons Ratio (x) = 0.79501 -0.70805
# Poissons Ratio (y) = 0.28720 0.42812
# Poissons Ratio (z) = -0.59650 0.99839
#
# Static dielectric constant tensor:
#      x y z
#    x 1.688300 0.000000 -0.009250 
#    y 0.000000 1.727550 0.000000 
#    z -0.009250 0.000000 1.655710 
# 
# From -- ./inp_files/25003.got.cif
#   From: 2010.05.17/outbox.cif.g08.bks.cpg/sg11_13_cif.got.tgz:25003.got - 2010.06.03 12:22:45.
