data_PCOD9163270
_publ_section_title
;
Structure prediction by ZEFSAII (Michael W. Deem and Ramdas Pophale) SiO2 
 PCOD9163270
Probable space group: P 21/M
;
_chemical_formula_sum "Si O2"
_cell_formula_units_Z 24
_cell_length_a 15.567894
_cell_length_b 8.487487
_cell_length_c 15.202507
_cell_angle_alpha 90.000000
_cell_angle_beta 39.868617
_cell_angle_gamma 90.000000
_cell_volume 1287.662658
_symmetry_space_group_name_H-M "P 21/M"
_symmetry_group_IT_number 11
_symmetry_cell_setting 'monoclinic'
loop_
_space_group_symop_operation_xyz
x,y,z
-x,1/2+y,-z
-x,-y,-z
x,1/2-y,z
loop_
_atom_site_type_symbol
_atom_site_label
_atom_site_fract_x
_atom_site_fract_y
_atom_site_fract_z
Si Si1 0.638841 0.440606 0.349686
Si Si2 0.655425 0.059422 0.659768
Si Si3 0.130921 0.061123 0.160717
Si Si4 0.831145 0.441776 0.352243
Si Si5 0.860105 0.061076 0.649508
Si Si6 0.361632 0.561349 0.852057
O O1 0.500000 0.500000 0.500000
O O2 0.636073 0.250000 0.352325
O O3 0.759319 0.492779 0.318884
O O4 0.652395 0.493456 0.238307
O O5 0.646831 0.250000 0.665520
O O6 0.739636 0.010373 0.507110
O O7 0.740026 0.011370 0.678924
O O8 0.507188 0.991040 0.771644
O O9 0.128363 0.250000 0.165402
O O10 0.983384 0.004826 0.245978
O O11 0.156819 0.999766 0.238574
O O12 0.244953 0.005839 0.004623
O O13 0.833018 0.250000 0.350882
O O14 0.863921 0.250000 0.646619
O O15 0.000000 0.000000 0.500000
O O16 0.354078 0.750000 0.858996
#
# Coordination Sequence:
#
# PCOD9163270 Si02
#       6
#     4   4   4   4   4   4
#     4  10  20  36  60  87 118 152 194 242 289 345
#     4  10  20  38  63  87 115 156 198 238 289 353
#     4  11  23  41  62  86 118 161 199 241 297 350
#     4   9  18  36  61  87 115 151 198 240 284 349
#     4  11  22  38  62  91 120 153 197 245 293 349
#     4  11  24  39  57  90 125 154 192 247 300 345
#
# _framework density 18.638423
#
# number of rings (size 3 to 8) (size 9 to 14) (size 15 to 20)
#    0.000    1.667    3.333    1.500    0.000    3.333 
#    0.000    1.667    0.000    0.000    0.000    0.000 
#    0.000    0.000    0.000    0.000    0.000    0.000 
#
# Total GULP energy -134082.764596 kJ/mol
# GULP energy per Si atom -5586.781858 kJ/mol
# Density = 1.859600 g / cm^3
# Si number density = 18.638423 Si / 1000 Ang^3
#
#
#
# Elastic Constant Matrix: (Units=GPa)
#
#
# Indices 1 2 3 4 5 6 
#
# 1 198.6525 31.2877 94.2567 0.0000 3.7505 0.0000
# 2 31.2877 27.4616 24.4946 0.0000 2.1868 0.0000
# 3 94.2567 24.4946 160.7407 0.0000 5.0388 0.0000
# 4 0.0000 0.0000 0.0000 27.0789 0.0000 3.2699
# 5 3.7505 2.1868 5.0388 0.0000 34.9377 0.0000
# 6 0.0000 0.0000 0.0000 3.2699 0.0000 19.8855
#
#
#
# Elastic Compliance Matrix: (Units=1/GPa)
#
#
# Indices 1 2 3 4 5 6 
#
# 1 0.007616 -0.005435 -0.003639 0.000000 0.000047 0.000000
# 2 -0.005435 0.046124 -0.003787 0.000000 -0.001757 0.000000
# 3 -0.003639 -0.003787 0.008953 0.000000 -0.000664 0.000000
# 4 0.000000 0.000000 0.000000 0.037677 0.000000 -0.006196
# 5 0.000047 -0.001757 -0.000664 0.000000 0.028823 0.000000
# 6 0.000000 0.000000 0.000000 -0.006196 0.000000 0.051307
#
#
# Mechanical properties :
#
#
# Convention : Reuss Voigt Hill
#
# Bulk Modulus (GPa) = 27.04781 76.32587 51.68684
# Shear Modulus (GPa) = 22.87872 32.16816 27.52344
#
# Velocity S-wave (km/s) = 3.50737 4.15891 3.84696
# Velocity P-wave (km/s) = 5.56288 8.00636 6.89374
#
# Compressibility (1/GPa) = 0.03697157
#
# Stress axis : x y z
#
# Youngs Moduli (GPa) = 131.30903 21.68083 111.69503
#
# Poissons Ratio (x) = 0.11783 0.40647
# Poissons Ratio (y) = 0.71361 0.42296
# Poissons Ratio (z) = 0.47784 0.08210
#
# Static dielectric constant tensor:
#      x y z
#    x 1.649050 0.000000 0.006870 
#    y 0.000000 1.638110 0.000000 
#    z 0.006870 0.000000 1.596600 
# 
# From -- ./inp_files/51491.got.cif
#   From: 2010.05.17/outbox.cif.g08.bks.cpg/sg11_26_cif.got.tgz:51491.got - 2010.06.03 12:22:45.
