data_PCOD9163463
_publ_section_title
;
Structure prediction by ZEFSAII (Michael W. Deem and Ramdas Pophale) SiO2 
 PCOD9163463
Probable space group: P 21/M
;
_chemical_formula_sum "Si O2"
_cell_formula_units_Z 24
_cell_length_a 7.964872
_cell_length_b 16.709916
_cell_length_c 7.365496
_cell_angle_alpha 90.000000
_cell_angle_beta 99.533461
_cell_angle_gamma 90.000000
_cell_volume 966.752356
_symmetry_space_group_name_H-M "P 21/M"
_symmetry_group_IT_number 11
_symmetry_cell_setting 'monoclinic'
loop_
_space_group_symop_operation_xyz
x,y,z
-x,1/2+y,-z
-x,-y,-z
x,1/2-y,z
loop_
_atom_site_type_symbol
_atom_site_label
_atom_site_fract_x
_atom_site_fract_y
_atom_site_fract_z
Si Si1 0.471634 0.250000 0.480220
Si Si2 0.531733 0.083940 0.413280
Si Si3 0.407394 0.415649 0.008249
Si Si4 0.982035 0.915662 0.093230
Si Si5 0.917207 0.750000 0.472168
Si Si6 0.074507 0.250000 0.969104
Si Si7 0.095170 0.915468 0.502033
Si Si8 0.478072 0.250000 0.065740
O O1 0.526373 0.160682 0.544432
O O2 0.272471 0.250000 0.486199
O O3 0.542487 0.250000 0.283725
O O4 0.396406 0.093046 0.226346
O O5 0.722741 0.080232 0.371368
O O6 0.500000 0.000000 0.500000
O O7 0.510149 0.334683 0.975115
O O8 0.500000 0.500000 0.000000
O O9 0.219713 0.413220 0.887601
O O10 0.006097 0.833705 0.985474
O O11 0.107606 0.910015 0.285412
O O12 0.000000 0.000000 0.000000
O O13 0.926013 0.750000 0.252615
O O14 0.002308 0.833985 0.543523
O O15 0.272529 0.250000 0.054071
O O16 0.000000 0.000000 0.500000
#
# Coordination Sequence:
#
# PCOD9163463 Si02
#       8
#     2   4   4   4   2   2   4   2
#     4  10  21  37  58  83 113 150 189 232 284 335
#     4  11  22  37  57  85 116 149 188 234 281 335
#     4  10  20  37  57  79 109 147 184 227 277 331
#     4  10  20  37  57  79 109 147 184 227 277 331
#     4  10  21  37  58  83 113 150 189 232 284 335
#     4   8  18  35  55  77 107 142 180 222 272 329
#     4  11  22  37  57  85 116 149 188 234 281 335
#     4   8  18  35  55  77 107 142 180 222 272 329
#
# _framework density 24.825384
#
# number of rings (size 3 to 8) (size 9 to 14) (size 15 to 20)
#    0.000    2.000    0.000    3.500    0.000    5.333 
#    0.000    0.833    0.000    0.000    0.000    0.000 
#    0.000    0.000    0.000    0.000    0.000    0.000 
#
# Total GULP energy -133944.115841 kJ/mol
# GULP energy per Si atom -5581.004827 kJ/mol
# Density = 2.476888 g / cm^3
# Si number density = 24.825384 Si / 1000 Ang^3
#
#
#
# Elastic Constant Matrix: (Units=GPa)
#
#
# Indices 1 2 3 4 5 6 
#
# 1 68.5543 40.7893 -5.8667 0.0000 11.5067 0.0000
# 2 40.7893 295.9547 6.1891 0.0000 -8.1650 0.0000
# 3 -5.8667 6.1891 77.7523 0.0000 7.1438 0.0000
# 4 0.0000 0.0000 0.0000 29.6634 0.0000 2.2550
# 5 11.5067 -8.1650 7.1438 0.0000 24.0261 0.0000
# 6 0.0000 0.0000 0.0000 2.2550 0.0000 50.3774
#
#
#
# Elastic Compliance Matrix: (Units=1/GPa)
#
#
# Indices 1 2 3 4 5 6 
#
# 1 0.018269 -0.002861 0.002570 0.000000 -0.010486 0.000000
# 2 -0.002861 0.003870 -0.000792 0.000000 0.002921 0.000000
# 3 0.002570 -0.000792 0.013628 0.000000 -0.005552 0.000000
# 4 0.000000 0.000000 0.000000 0.033827 0.000000 -0.001514
# 5 -0.010486 0.002921 -0.005552 0.000000 0.049287 0.000000
# 6 0.000000 0.000000 0.000000 -0.001514 0.000000 0.019918
#
#
# Mechanical properties :
#
#
# Convention : Reuss Voigt Hill
#
# Bulk Modulus (GPa) = 29.76132 58.27608 44.01870
# Shear Modulus (GPa) = 32.85866 47.55669 40.20768
#
# Velocity S-wave (km/s) = 3.64207 4.38156 4.02882
# Velocity P-wave (km/s) = 5.44981 7.00876 6.27787
#
# Compressibility (1/GPa) = 0.03360066
#
# Stress axis : x y z
#
# Youngs Moduli (GPa) = 54.73711 258.37417 73.37600
#
# Poissons Ratio (x) = 0.73919 -0.18855
# Poissons Ratio (y) = 0.15660 0.05814
# Poissons Ratio (z) = -0.14065 0.20472
#
# Static dielectric constant tensor:
#      x y z
#    x 1.873260 0.000000 0.014100 
#    y 0.000000 2.060770 0.000000 
#    z 0.014100 0.000000 1.960660 
# 
# From -- ./inp_files/12646.got.cif
#   From: 2010.05.17/outbox.cif.g08.bks.cpg/sg11_7_cif.got.tgz:12646.got - 2010.06.03 12:22:45.
