data_PCOD9163576
_publ_section_title
;
Structure prediction by ZEFSAII (Michael W. Deem and Ramdas Pophale) SiO2 
 PCOD9163576
Probable space group: P 21/M
;
_chemical_formula_sum "Si O2"
_cell_formula_units_Z 32
_cell_length_a 21.990271
_cell_length_b 8.723459
_cell_length_c 11.702534
_cell_angle_alpha 90.000000
_cell_angle_beta 128.550153
_cell_angle_gamma 90.000000
_cell_volume 1755.662076
_symmetry_space_group_name_H-M "P 21/M"
_symmetry_group_IT_number 11
_symmetry_cell_setting 'monoclinic'
loop_
_space_group_symop_operation_xyz
x,y,z
-x,1/2+y,-z
-x,-y,-z
x,1/2-y,z
loop_
_atom_site_type_symbol
_atom_site_label
_atom_site_fract_x
_atom_site_fract_y
_atom_site_fract_z
Si Si1 0.224292 0.435695 0.797481
Si Si2 0.493273 0.566130 0.823537
Si Si3 0.739153 0.935405 0.895048
Si Si4 0.930404 0.432836 0.494311
Si Si5 0.047543 0.433867 0.226638
Si Si6 0.376685 0.066174 0.840728
Si Si7 0.438752 0.064860 0.339487
Si Si8 0.117785 0.933692 0.081228
O O1 0.216414 0.250000 0.784522
O O2 0.147284 0.513913 0.660993
O O3 0.293965 0.480552 0.793469
O O4 0.244786 0.475854 0.952851
O O5 0.488885 0.750000 0.821771
O O6 0.410124 0.500272 0.762702
O O7 0.526092 0.518048 0.740984
O O8 0.559476 0.517306 0.990801
O O9 0.742422 0.750000 0.892070
O O10 0.651522 0.984202 0.758180
O O11 0.805721 0.003865 0.892058
O O12 0.935616 0.250000 0.504371
O O13 0.934173 0.497347 0.627935
O O14 0.000000 0.500000 0.500000
O O15 0.054012 0.250000 0.239217
O O16 0.102138 0.496692 0.188581
O O17 0.959023 0.473160 0.084208
O O18 0.377131 0.250000 0.834497
O O19 0.438245 0.250000 0.344269
O O20 0.500000 0.000000 0.500000
O O21 0.121513 0.750000 0.094435
#
# Coordination Sequence:
#
# PCOD9163576 Si02
#       8
#     4   4   4   4   4   4   4   4
#     4  10  20  37  60  84 113 151 195 242 290 342
#     4   9  17  33  55  79 110 143 181 230 282 336
#     4  10  20  37  60  83 111 150 197 240 287 346
#     4  12  25  40  59  87 122 156 192 235 287 342
#     4  10  21  40  63  87 119 155 193 235 282 339
#     4   9  17  32  56  83 108 141 185 230 280 339
#     4  10  21  38  57  80 111 149 191 236 287 341
#     4  10  21  37  61  91 118 149 192 239 286 337
#
# _framework density 18.226742000000002
#
# number of rings (size 3 to 8) (size 9 to 14) (size 15 to 20)
#    0.000    2.000    1.250    2.625    0.000    5.500 
#    2.250    0.000    0.000    0.000    0.000    0.000 
#    0.000    0.000    0.000    0.000    0.000    0.000 
#
# Total GULP energy -178558.538676 kJ/mol
# GULP energy per Si atom -5579.954334 kJ/mol
# Density = 1.818526 g / cm^3
# Si number density = 18.226742 Si / 1000 Ang^3
#
#
#
# Elastic Constant Matrix: (Units=GPa)
#
#
# Indices 1 2 3 4 5 6 
#
# 1 194.3102 51.9658 80.0241 0.0000 21.4514 0.0000
# 2 51.9658 41.5379 42.6150 0.0000 5.0288 0.0000
# 3 80.0241 42.6150 114.2976 0.0000 10.9447 0.0000
# 4 0.0000 0.0000 0.0000 29.3437 0.0000 -0.5159
# 5 21.4514 5.0288 10.9447 0.0000 20.6783 0.0000
# 6 0.0000 0.0000 0.0000 -0.5159 0.0000 35.4802
#
#
#
# Elastic Compliance Matrix: (Units=1/GPa)
#
#
# Indices 1 2 3 4 5 6 
#
# 1 0.009041 -0.007579 -0.002931 0.000000 -0.005985 0.000000
# 2 -0.007579 0.045411 -0.011924 0.000000 0.003130 0.000000
# 3 -0.002931 -0.011924 0.015462 0.000000 -0.002243 0.000000
# 4 0.000000 0.000000 0.000000 0.034088 0.000000 0.000496
# 5 -0.005985 0.003130 -0.002243 0.000000 0.054994 0.000000
# 6 0.000000 0.000000 0.000000 0.000496 0.000000 0.028192
#
#
# Mechanical properties :
#
#
# Convention : Reuss Voigt Hill
#
# Bulk Modulus (GPa) = 39.92871 77.70617 58.81744
# Shear Modulus (GPa) = 20.79816 28.80315 24.80066
#
# Velocity S-wave (km/s) = 3.38165 3.97957 3.69273
# Velocity P-wave (km/s) = 6.09931 7.99009 7.10786
#
# Compressibility (1/GPa) = 0.02504464
#
# Stress axis : x y z
#
# Youngs Moduli (GPa) = 110.60413 22.02108 64.67459
#
# Poissons Ratio (x) = 0.16690 0.18957
# Poissons Ratio (y) = 0.83830 0.77120
# Poissons Ratio (z) = 0.32420 0.26259
#
# Static dielectric constant tensor:
#      x y z
#    x 1.653750 0.000000 0.055570 
#    y 0.000000 1.618510 0.000000 
#    z 0.055570 0.000000 1.860510 
# 
# From -- ./inp_files/42940.got.cif
#   From: 2010.05.17/outbox.cif.g08.bks.cpg/sg11_22_cif.got.tgz:42940.got - 2010.06.03 12:22:45.
