data_PCOD9163773
_publ_section_title
;
Structure prediction by ZEFSAII (Michael W. Deem and Ramdas Pophale) SiO2 
 PCOD9163773
Probable space group: P 21/M
;
_chemical_formula_sum "Si O2"
_cell_formula_units_Z 32
_cell_length_a 9.712565
_cell_length_b 18.835000
_cell_length_c 12.131768
_cell_angle_alpha 90.000000
_cell_angle_beta 49.209268
_cell_angle_gamma 90.000000
_cell_volume 1680.263257
_symmetry_space_group_name_H-M "P 21/M"
_symmetry_group_IT_number 11
_symmetry_cell_setting 'monoclinic'
loop_
_space_group_symop_operation_xyz
x,y,z
-x,1/2+y,-z
-x,-y,-z
x,1/2-y,z
loop_
_atom_site_type_symbol
_atom_site_label
_atom_site_fract_x
_atom_site_fract_y
_atom_site_fract_z
Si Si1 0.792203 0.671315 0.724973
Si Si2 0.062599 0.829270 0.383723
Si Si3 0.133350 0.889984 0.677766
Si Si4 0.525558 0.912794 0.501148
Si Si5 0.900202 0.075326 0.048952
Si Si6 0.480033 0.426755 0.240541
Si Si7 0.114365 0.164500 0.759537
Si Si8 0.183638 0.962117 0.441330
O O1 0.728924 0.750000 0.785709
O O2 0.623366 0.618702 0.798499
O O3 0.884736 0.671286 0.555370
O O4 0.960980 0.651082 0.716608
O O5 0.140330 0.750000 0.344368
O O6 0.186256 0.886147 0.380766
O O7 0.001370 0.847236 0.292464
O O8 0.346258 0.869158 0.555199
O O9 0.106296 0.900973 0.820390
O O10 0.147513 0.958552 0.591093
O O11 0.540782 0.896992 0.623733
O O12 0.701389 0.881323 0.349649
O O13 0.500000 0.000000 0.500000
O O14 0.694481 0.065891 0.112179
O O15 0.003875 0.132282 0.919611
O O16 0.000000 0.000000 0.000000
O O17 0.364517 0.498403 0.311727
O O18 0.145331 0.250000 0.752022
O O19 0.000000 0.000000 0.500000
#
# Coordination Sequence:
#
# PCOD9163773 Si02
#       8
#     4   4   4   4   4   4   4   4
#     4  10  20  37  62  91 120 150 204 263 314 368
#     4   9  19  35  60  90 121 156 199 255 314 366
#     4  10  22  37  61  93 123 159 201 258 322 362
#     4  11  20  35  66  93 124 159 212 266 314 373
#     4  11  27  41  61  89 132 173 212 254 317 385
#     4  11  21  37  64  94 117 164 211 260 310 377
#     4  11  23  42  63  89 127 172 214 258 313 386
#     4  11  18  33  66  94 124 147 206 269 319 363
#
# _framework density 19.044636000000001
#
# number of rings (size 3 to 8) (size 9 to 14) (size 15 to 20)
#    0.000    1.500    5.000    1.500    1.750    1.500 
#    0.000    5.000    0.000    0.000    0.000    0.000 
#    0.000    0.000    0.000    0.000    0.000    0.000 
#
# Total GULP energy -178169.227226 kJ/mol
# GULP energy per Si atom -5567.788351 kJ/mol
# Density = 1.900129 g / cm^3
# Si number density = 19.044636 Si / 1000 Ang^3
#
#
#
# Elastic Constant Matrix: (Units=GPa)
#
#
# Indices 1 2 3 4 5 6 
#
# 1 131.8883 54.5368 49.2494 0.0000 -11.7244 0.0000
# 2 54.5368 93.7568 44.6407 0.0000 -13.4644 0.0000
# 3 49.2494 44.6407 101.3312 0.0000 -11.0273 0.0000
# 4 0.0000 0.0000 0.0000 18.5158 0.0000 0.5399
# 5 -11.7244 -13.4644 -11.0273 0.0000 32.6963 0.0000
# 6 0.0000 0.0000 0.0000 0.5399 0.0000 17.6173
#
#
#
# Elastic Compliance Matrix: (Units=1/GPa)
#
#
# Indices 1 2 3 4 5 6 
#
# 1 0.010732 -0.004653 -0.003069 0.000000 0.000897 0.000000
# 2 -0.004653 0.015956 -0.004396 0.000000 0.003420 0.000000
# 3 -0.003069 -0.004396 0.013474 0.000000 0.001634 0.000000
# 4 0.000000 0.000000 0.000000 0.054056 0.000000 -0.001657
# 5 0.000897 0.003420 0.001634 0.000000 0.032866 0.000000
# 6 0.000000 0.000000 0.000000 -0.001657 0.000000 0.056813
#
#
# Mechanical properties :
#
#
# Convention : Reuss Voigt Hill
#
# Bulk Modulus (GPa) = 62.78147 69.31443 66.04795
# Shear Modulus (GPa) = 23.42564 25.66918 24.54741
#
# Velocity S-wave (km/s) = 3.51100 3.67528 3.59408
# Velocity P-wave (km/s) = 7.03371 7.38140 7.20965
#
# Compressibility (1/GPa) = 0.01592827
#
# Stress axis : x y z
#
# Youngs Moduli (GPa) = 93.18237 62.67068 74.21439
#
# Poissons Ratio (x) = 0.29158 0.22773
# Poissons Ratio (y) = 0.43353 0.32625
# Poissons Ratio (z) = 0.28593 0.27551
#
# Static dielectric constant tensor:
#      x y z
#    x 1.729520 0.000000 -0.005520 
#    y 0.000000 1.752310 0.000000 
#    z -0.005520 0.000000 1.677670 
# 
# From -- ./inp_files/32814.got.cif
#   From: 2010.05.17/outbox.cif.g08.bks.cpg/sg11_17_cif.got.tgz:32814.got - 2010.06.03 12:22:45.
