data_PCOD9163691
_publ_section_title
;
Structure prediction by ZEFSAII (Michael W. Deem and Ramdas Pophale) SiO2 
 PCOD9163691
Probable space group: P 21/M
;
_chemical_formula_sum "Si O2"
_cell_formula_units_Z 28
_cell_length_a 9.701931
_cell_length_b 8.822362
_cell_length_c 26.203945
_cell_angle_alpha 90.000000
_cell_angle_beta 39.840772
_cell_angle_gamma 90.000000
_cell_volume 1436.927325
_symmetry_space_group_name_H-M "P 21/M"
_symmetry_group_IT_number 11
_symmetry_cell_setting 'monoclinic'
loop_
_space_group_symop_operation_xyz
x,y,z
-x,1/2+y,-z
-x,-y,-z
x,1/2-y,z
loop_
_atom_site_type_symbol
_atom_site_label
_atom_site_fract_x
_atom_site_fract_y
_atom_site_fract_z
Si Si1 0.341679 0.431761 0.272196
Si Si2 0.216911 0.570449 0.416218
Si Si3 0.855621 0.071458 0.996639
Si Si4 0.816342 0.426073 0.164451
Si Si5 0.645002 0.427359 0.328798
Si Si6 0.440418 0.569513 0.071711
Si Si7 0.089828 0.066782 0.241367
O O1 0.322321 0.250000 0.284588
O O2 0.257647 0.510274 0.347286
O O3 0.597483 0.461572 0.195536
O O4 0.208637 0.475720 0.260044
O O5 0.201672 0.750000 0.420223
O O6 0.424753 0.519101 0.389932
O O7 0.000000 0.500000 0.500000
O O8 0.824076 0.250000 0.012798
O O9 0.993377 0.035074 0.906605
O O10 0.629192 0.988224 0.055459
O O11 0.000000 0.000000 0.000000
O O12 0.878449 0.250000 0.137061
O O13 0.747669 0.438188 0.242784
O O14 0.595023 0.250000 0.351729
O O15 0.838422 0.475790 0.310835
O O16 0.436759 0.750000 0.069436
O O17 0.219885 0.506386 0.157786
O O18 0.500000 0.500000 0.000000
O O19 0.100631 0.250000 0.232877
#
# Coordination Sequence:
#
# PCOD9163691 Si02
#       7
#     4   4   4   4   4   4   4
#     4   9  19  36  59  86 116 149 184 226 281 340
#     4  11  22  38  62  88 116 148 186 229 274 329
#     4  12  24  37  54  78 109 146 192 244 295 345
#     4   9  17  32  53  77 109 147 187 232 279 334
#     4   9  19  36  59  85 113 145 180 220 273 335
#     4  12  25  40  58  81 113 154 200 248 296 346
#     4  10  20  37  61  87 117 151 187 233 288 345
#
# _framework density 19.486025999999999
#
# number of rings (size 3 to 8) (size 9 to 14) (size 15 to 20)
#    0.000    1.714    0.000    6.429    0.000    5.714 
#    0.000    0.714    0.000    0.000    0.000    0.000 
#    0.000    0.000    0.000    0.000    0.000    0.000 
#
# Total GULP energy -156522.880406 kJ/mol
# GULP energy per Si atom -5590.102872 kJ/mol
# Density = 1.944167 g / cm^3
# Si number density = 19.486026 Si / 1000 Ang^3
#
#
#
# Elastic Constant Matrix: (Units=GPa)
#
#
# Indices 1 2 3 4 5 6 
#
# 1 102.7754 26.1564 19.0857 0.0000 -22.6303 0.0000
# 2 26.1564 74.1378 42.8860 0.0000 -11.8069 0.0000
# 3 19.0857 42.8860 82.1074 0.0000 -21.5352 0.0000
# 4 0.0000 0.0000 0.0000 35.0692 0.0000 -3.0010
# 5 -22.6303 -11.8069 -21.5352 0.0000 25.9945 0.0000
# 6 0.0000 0.0000 0.0000 -3.0010 0.0000 23.7839
#
#
#
# Elastic Compliance Matrix: (Units=1/GPa)
#
#
# Indices 1 2 3 4 5 6 
#
# 1 0.012771 -0.003877 0.001930 0.000000 0.010956 0.000000
# 2 -0.003877 0.020511 -0.010545 0.000000 -0.002795 0.000000
# 3 0.001930 -0.010545 0.020982 0.000000 0.014273 0.000000
# 4 0.000000 0.000000 0.000000 0.028826 0.000000 0.003637
# 5 0.010956 -0.002795 0.014273 0.000000 0.058563 0.000000
# 6 0.000000 0.000000 0.000000 0.003637 0.000000 0.042504
#
#
# Mechanical properties :
#
#
# Convention : Reuss Voigt Hill
#
# Bulk Modulus (GPa) = 34.15395 48.36408 41.25901
# Shear Modulus (GPa) = 22.84131 28.36233 25.60182
#
# Velocity S-wave (km/s) = 3.42744 3.81927 3.62865
# Velocity P-wave (km/s) = 5.76442 6.65754 6.22701
#
# Compressibility (1/GPa) = 0.02927919
#
# Stress axis : x y z
#
# Youngs Moduli (GPa) = 78.30422 48.75392 47.65987
#
# Poissons Ratio (x) = 0.18904 -0.09199
# Poissons Ratio (y) = 0.30361 0.50258
# Poissons Ratio (z) = -0.15114 0.51412
#
# Static dielectric constant tensor:
#      x y z
#    x 1.752790 0.000000 -0.000390 
#    y 0.000000 1.647680 0.000000 
#    z -0.000390 0.000000 1.665040 
# 
# From -- ./inp_files/70777.got.cif
#   From: 2010.05.17/outbox.cif.g08.bks.cpg/sg11_36_cif.got.tgz:70777.got - 2010.06.03 12:22:45.
