data_PCOD9163475
_publ_section_title
;
Structure prediction by ZEFSAII (Michael W. Deem and Ramdas Pophale) SiO2 
 PCOD9163475
Probable space group: P 21/M
;
_chemical_formula_sum "Si O2"
_cell_formula_units_Z 32
_cell_length_a 12.139424
_cell_length_b 18.091472
_cell_length_c 8.566355
_cell_angle_alpha 90.000000
_cell_angle_beta 48.646829
_cell_angle_gamma 90.000000
_cell_volume 1412.232843
_symmetry_space_group_name_H-M "P 21/M"
_symmetry_group_IT_number 11
_symmetry_cell_setting 'monoclinic'
loop_
_space_group_symop_operation_xyz
x,y,z
-x,1/2+y,-z
-x,-y,-z
x,1/2-y,z
loop_
_atom_site_type_symbol
_atom_site_label
_atom_site_fract_x
_atom_site_fract_y
_atom_site_fract_z
Si Si1 0.616901 0.568254 0.026402
Si Si2 0.989919 0.837514 0.176089
Si Si3 0.814642 0.663164 0.661130
Si Si4 0.498836 0.386831 0.393021
Si Si5 0.263524 0.596846 0.057691
Si Si6 0.928011 0.427368 0.482207
Si Si7 0.258869 0.331488 0.819254
Si Si8 0.659225 0.041195 0.533140
O O1 0.681188 0.611907 0.112876
O O2 0.444794 0.563518 0.222141
O O3 0.671871 0.613246 0.825534
O O4 0.686380 0.487537 0.969594
O O5 0.031519 0.750000 0.136748
O O6 0.885255 0.848222 0.424905
O O7 0.893631 0.853310 0.115338
O O8 0.129948 0.888995 0.063568
O O9 0.788860 0.750000 0.705659
O O10 0.937172 0.628985 0.664468
O O11 0.382349 0.329819 0.568485
O O12 0.399568 0.459509 0.452347
O O13 0.611192 0.410044 0.428288
O O14 0.596422 0.364726 0.152913
O O15 0.183612 0.615038 0.295083
O O16 0.826966 0.451842 0.431791
O O17 0.000000 0.500000 0.500000
O O18 0.245575 0.250000 0.900294
#
# Coordination Sequence:
#
# PCOD9163475 Si02
#       8
#     4   4   4   4   4   4   4   4
#     4  10  20  37  57  85 110 147 192 239 283 334
#     4   9  21  37  54  80 116 151 187 236 284 341
#     4  10  21  38  57  82 117 153 191 231 284 343
#     4   9  20  37  56  81 112 149 186 236 285 337
#     4  10  21  36  55  89 110 148 190 233 289 332
#     4  11  22  38  58  88 118 151 191 235 286 338
#     4  10  21  36  56  81 112 152 193 233 285 341
#     4   9  21  38  57  83 118 144 186 240 286 333
#
# _framework density 22.659154000000001
#
# number of rings (size 3 to 8) (size 9 to 14) (size 15 to 20)
#    0.000    2.250    1.250    1.125    3.500    5.000 
#    0.000    3.125    0.000    0.000    0.000    0.000 
#    0.000    0.000    0.000    0.000    0.000    0.000 
#
# Total GULP energy -178711.360716 kJ/mol
# GULP energy per Si atom -5584.730022 kJ/mol
# Density = 2.260758 g / cm^3
# Si number density = 22.659154 Si / 1000 Ang^3
#
#
#
# Elastic Constant Matrix: (Units=GPa)
#
#
# Indices 1 2 3 4 5 6 
#
# 1 137.4367 27.2490 2.1656 0.0000 -2.5442 0.0000
# 2 27.2490 46.0018 0.2042 0.0000 -3.2122 0.0000
# 3 2.1656 0.2042 71.3910 0.0000 -11.6018 0.0000
# 4 0.0000 0.0000 0.0000 135.1774 0.0000 -39.8903
# 5 -2.5442 -3.2122 -11.6018 0.0000 11.5594 0.0000
# 6 0.0000 0.0000 0.0000 -39.8903 0.0000 29.6704
#
#
#
# Elastic Compliance Matrix: (Units=1/GPa)
#
#
# Indices 1 2 3 4 5 6 
#
# 1 0.008249 -0.004867 -0.000192 0.000000 0.000270 0.000000
# 2 -0.004867 0.025115 0.001238 0.000000 0.007150 0.000000
# 3 -0.000192 0.001238 0.016799 0.000000 0.017162 0.000000
# 4 0.000000 0.000000 0.000000 0.012263 0.000000 0.016487
# 5 0.000270 0.007150 0.017162 0.000000 0.105780 0.000000
# 6 0.000000 0.000000 0.000000 0.016487 0.000000 0.055869
#
#
# Mechanical properties :
#
#
# Convention : Reuss Voigt Hill
#
# Bulk Modulus (GPa) = 23.51832 34.89635 29.20734
# Shear Modulus (GPa) = 20.33423 50.29549 35.31486
#
# Velocity S-wave (km/s) = 2.99891 4.71643 3.95210
# Velocity P-wave (km/s) = 4.73212 6.71518 5.80890
#
# Compressibility (1/GPa) = 0.04252004
#
# Stress axis : x y z
#
# Youngs Moduli (GPa) = 121.22718 39.81721 59.52869
#
# Poissons Ratio (x) = 0.19377 0.01145
# Poissons Ratio (y) = 0.58996 -0.07368
# Poissons Ratio (z) = 0.02333 -0.04929
#
# Static dielectric constant tensor:
#      x y z
#    x 1.853090 0.000000 0.035070 
#    y 0.000000 1.811050 0.000000 
#    z 0.035070 0.000000 1.907800 
# 
# From -- ./inp_files/19371.got.cif
#   From: 2010.05.17/outbox.cif.g08.bks.cpg/sg11_10_cif.got.tgz:19371.got - 2010.06.03 12:22:45.
