data_PCOD9163821
_publ_section_title
;
Structure prediction by ZEFSAII (Michael W. Deem and Ramdas Pophale) SiO2 
 PCOD9163821
Probable space group: P 21/M
;
_chemical_formula_sum "Si O2"
_cell_formula_units_Z 32
_cell_length_a 14.364532
_cell_length_b 14.579528
_cell_length_c 19.144564
_cell_angle_alpha 90.000000
_cell_angle_beta 21.152642
_cell_angle_gamma 90.000000
_cell_volume 1446.810815
_symmetry_space_group_name_H-M "P 21/M"
_symmetry_group_IT_number 11
_symmetry_cell_setting 'monoclinic'
loop_
_space_group_symop_operation_xyz
x,y,z
-x,1/2+y,-z
-x,-y,-z
x,1/2-y,z
loop_
_atom_site_type_symbol
_atom_site_label
_atom_site_fract_x
_atom_site_fract_y
_atom_site_fract_z
Si Si1 0.324913 0.970660 0.221506
Si Si2 0.585928 0.360195 0.972151
Si Si3 0.978264 0.640371 0.964828
Si Si4 0.561142 0.105496 0.453501
Si Si5 0.295550 0.638251 0.878470
Si Si6 0.028744 0.143324 0.760936
Si Si7 0.247047 0.497167 0.425988
Si Si8 0.417109 0.644776 0.399622
O O1 0.457840 0.900703 0.074530
O O2 0.025407 0.963216 0.411732
O O3 0.365494 0.952037 0.274472
O O4 0.410617 0.075473 0.144410
O O5 0.543818 0.250000 0.004916
O O6 0.876441 0.384414 0.797616
O O7 0.962433 0.750000 0.981292
O O8 0.153921 0.619440 0.775687
O O9 0.136905 0.609252 0.921344
O O10 0.684792 0.610462 0.177459
O O11 0.543096 0.143806 0.544595
O O12 0.335018 0.138110 0.559045
O O13 0.500000 0.000000 0.500000
O O14 0.322506 0.750000 0.860090
O O15 0.568015 0.587803 0.686543
O O16 0.124180 0.605487 0.064591
O O17 0.971662 0.250000 0.804506
O O18 0.220683 0.569059 0.508000
O O19 0.358066 0.750000 0.420718
#
# Coordination Sequence:
#
# PCOD9163821 Si02
#       8
#     4   4   4   4   4   4   4   4
#     4  10  24  43  64  92 128 160 216 281 320 385
#     4  10  22  42  68  94 124 165 210 270 336 385
#     4  10  22  40  62  91 129 172 216 264 314 383
#     4  12  25  37  64  99 133 174 214 266 325 392
#     4  10  20  37  64  93 124 165 209 264 330 385
#     4  10  20  38  63  91 127 164 205 261 324 387
#     4  11  24  42  65  91 125 169 215 270 325 386
#     4  11  25  45  64  91 138 182 218 263 323 393
#
# _framework density 22.117612999999999
#
# number of rings (size 3 to 8) (size 9 to 14) (size 15 to 20)
#    0.000    1.500    2.500    1.875    5.250    2.500 
#    2.250    2.500    0.000    0.000    0.000    0.000 
#    0.000    0.000    0.000    0.000    0.000    0.000 
#
# Total GULP energy -178616.287374 kJ/mol
# GULP energy per Si atom -5581.758980 kJ/mol
# Density = 2.206727 g / cm^3
# Si number density = 22.117613 Si / 1000 Ang^3
#
#
#
# Elastic Constant Matrix: (Units=GPa)
#
#
# Indices 1 2 3 4 5 6 
#
# 1 90.7460 14.7106 8.6738 0.0000 4.0162 0.0000
# 2 14.7106 82.0076 -2.7170 0.0000 -5.5532 0.0000
# 3 8.6738 -2.7170 38.1168 0.0000 10.8930 0.0000
# 4 0.0000 0.0000 0.0000 25.5680 0.0000 -2.1349
# 5 4.0162 -5.5532 10.8930 0.0000 27.6952 0.0000
# 6 0.0000 0.0000 0.0000 -2.1349 0.0000 24.7287
#
#
#
# Elastic Compliance Matrix: (Units=1/GPa)
#
#
# Indices 1 2 3 4 5 6 
#
# 1 0.011675 -0.002256 -0.002484 0.000000 -0.001168 0.000000
# 2 -0.002256 0.012799 0.000675 0.000000 0.002628 0.000000
# 3 -0.002484 0.000675 0.030089 0.000000 -0.011339 0.000000
# 4 0.000000 0.000000 0.000000 0.039395 0.000000 0.003401
# 5 -0.001168 0.002628 -0.011339 0.000000 0.041264 0.000000
# 6 0.000000 0.000000 0.000000 0.003401 0.000000 0.040732
#
#
# Mechanical properties :
#
#
# Convention : Reuss Voigt Hill
#
# Bulk Modulus (GPa) = 21.53635 28.02281 24.77958
# Shear Modulus (GPa) = 25.05506 28.27858 26.66682
#
# Velocity S-wave (km/s) = 3.36938 3.57957 3.47606
# Velocity P-wave (km/s) = 4.98951 5.45727 5.22863
#
# Compressibility (1/GPa) = 0.04643313
#
# Stress axis : x y z
#
# Youngs Moduli (GPa) = 85.65666 78.13163 33.23495
#
# Poissons Ratio (x) = 0.17623 0.08254
# Poissons Ratio (y) = 0.19321 -0.02242
# Poissons Ratio (z) = 0.21273 -0.05270
#
# Static dielectric constant tensor:
#      x y z
#    x 1.898950 0.000000 -0.005040 
#    y 0.000000 1.778520 0.000000 
#    z -0.005040 0.000000 1.867460 
# 
# From -- ./inp_files/65770.got.cif
#   From: 2010.05.17/outbox.cif.g08.bks.cpg/sg11_33_cif.got.tgz:65770.got - 2010.06.03 12:22:45.
