data_PCOD9163918
_publ_section_title
;
Structure prediction by ZEFSAII (Michael W. Deem and Ramdas Pophale) SiO2 
 PCOD9163918
Probable space group: P 21/M
;
_chemical_formula_sum "Si O2"
_cell_formula_units_Z 28
_cell_length_a 10.004149
_cell_length_b 15.990974
_cell_length_c 16.272743
_cell_angle_alpha 90.000000
_cell_angle_beta 144.958740
_cell_angle_gamma 90.000000
_cell_volume 1494.697954
_symmetry_space_group_name_H-M "P 21/M"
_symmetry_group_IT_number 11
_symmetry_cell_setting 'monoclinic'
loop_
_space_group_symop_operation_xyz
x,y,z
-x,1/2+y,-z
-x,-y,-z
x,1/2-y,z
loop_
_atom_site_type_symbol
_atom_site_label
_atom_site_fract_x
_atom_site_fract_y
_atom_site_fract_z
Si Si1 0.281358 0.977785 0.832885
Si Si2 0.550433 0.024517 0.267724
Si Si3 0.364363 0.843239 0.225565
Si Si4 0.968228 0.159069 0.186276
Si Si5 0.449466 0.123436 0.503314
Si Si6 0.125650 0.349214 0.087387
Si Si7 0.207658 0.951150 0.442325
O O1 0.173045 0.897665 0.823103
O O2 0.359096 0.962523 0.778659
O O3 0.063758 0.042443 0.716818
O O4 0.500000 0.000000 0.000000
O O5 0.476703 0.926592 0.241687
O O6 0.333111 0.087001 0.173821
O O7 0.738188 0.047617 0.433237
O O8 0.411714 0.750000 0.212277
O O9 0.453793 0.841480 0.363502
O O10 0.085625 0.854861 0.083133
O O11 0.857861 0.250000 0.123111
O O12 0.227221 0.166037 0.352090
O O13 0.006007 0.124702 0.113667
O O14 0.652181 0.118708 0.537462
O O15 0.338656 0.033999 0.474230
O O16 0.194550 0.250000 0.128504
#
# Coordination Sequence:
#
# PCOD9163918 Si02
#       7
#     4   4   4   4   4   4   4
#     4  11  24  36  57  88 119 161 199 234 299 363
#     4  11  21  38  60  83 120 161 195 244 299 351
#     4  10  21  34  57  88 117 150 198 248 297 353
#     4  10  20  38  61  84 114 152 197 246 295 355
#     4   9  17  33  60  85 111 143 194 246 295 333
#     4  10  21  36  58  89 118 153 199 248 297 347
#     4   9  19  35  56  85 115 149 192 244 284 356
#
# _framework density 18.732880999999999
#
# number of rings (size 3 to 8) (size 9 to 14) (size 15 to 20)
#    0.000    2.000    1.429    2.143    4.000    0.571 
#    0.000    0.000    0.000    5.143    0.000    0.000 
#    0.000    0.000    0.000    0.000    0.000    0.000 
#
# Total GULP energy -155976.794192 kJ/mol
# GULP energy per Si atom -5570.599793 kJ/mol
# Density = 1.869024 g / cm^3
# Si number density = 18.732881 Si / 1000 Ang^3
#
#
#
# Elastic Constant Matrix: (Units=GPa)
#
#
# Indices 1 2 3 4 5 6 
#
# 1 116.3649 42.5161 35.3078 0.0000 2.5729 0.0000
# 2 42.5161 69.7215 13.9605 0.0000 11.0997 0.0000
# 3 35.3078 13.9605 134.0340 0.0000 5.5266 0.0000
# 4 0.0000 0.0000 0.0000 15.3394 0.0000 -6.2557
# 5 2.5729 11.0997 5.5266 0.0000 19.1893 0.0000
# 6 0.0000 0.0000 0.0000 -6.2557 0.0000 10.7297
#
#
#
# Elastic Compliance Matrix: (Units=1/GPa)
#
#
# Indices 1 2 3 4 5 6 
#
# 1 0.011962 -0.007323 -0.002527 0.000000 0.003360 0.000000
# 2 -0.007323 0.020502 0.000245 0.000000 -0.010948 0.000000
# 3 -0.002527 0.000245 0.008190 0.000000 -0.002162 0.000000
# 4 0.000000 0.000000 0.000000 0.085528 0.000000 0.049866
# 5 0.003360 -0.010948 -0.002162 0.000000 0.058617 0.000000
# 6 0.000000 0.000000 0.000000 0.049866 0.000000 0.122273
#
#
# Mechanical properties :
#
#
# Convention : Reuss Voigt Hill
#
# Bulk Modulus (GPa) = 46.63262 55.96547 51.29904
# Shear Modulus (GPa) = 14.99565 24.27406 19.63486
#
# Velocity S-wave (km/s) = 2.83238 3.60363 3.24103
# Velocity P-wave (km/s) = 5.97026 6.87424 6.43814
#
# Compressibility (1/GPa) = 0.02144422
#
# Stress axis : x y z
#
# Youngs Moduli (GPa) = 83.60010 48.77506 122.09984
#
# Poissons Ratio (x) = 0.35719 0.30852
# Poissons Ratio (y) = 0.61222 -0.02992
# Poissons Ratio (z) = 0.21124 -0.01195
#
# Static dielectric constant tensor:
#      x y z
#    x 1.621780 0.000000 -0.002000 
#    y 0.000000 1.695600 0.000000 
#    z -0.002000 0.000000 1.657230 
# 
# From -- ./inp_files/22688.got.cif
#   From: 2010.05.17/outbox.cif.g08.bks.cpg/sg11_12_cif.got.tgz:22688.got - 2010.06.03 12:22:45.
