data_PCOD9163258
_publ_section_title
;
Structure prediction by ZEFSAII (Michael W. Deem and Ramdas Pophale) SiO2 
 PCOD9163258
Probable space group: P 21/M
;
_chemical_formula_sum "Si O2"
_cell_formula_units_Z 28
_cell_length_a 10.660368
_cell_length_b 13.674319
_cell_length_c 13.245197
_cell_angle_alpha 90.000000
_cell_angle_beta 53.401758
_cell_angle_gamma 90.000000
_cell_volume 1550.111861
_symmetry_space_group_name_H-M "P 21/M"
_symmetry_group_IT_number 11
_symmetry_cell_setting 'monoclinic'
loop_
_space_group_symop_operation_xyz
x,y,z
-x,1/2+y,-z
-x,-y,-z
x,1/2-y,z
loop_
_atom_site_type_symbol
_atom_site_label
_atom_site_fract_x
_atom_site_fract_y
_atom_site_fract_z
Si Si1 0.295988 0.637478 0.296503
Si Si2 0.795988 0.362522 0.296502
Si Si3 0.065049 0.012048 0.081746
Si Si4 0.434951 0.012049 0.918253
Si Si5 0.016172 0.863186 0.278296
Si Si6 0.483828 0.863186 0.721704
Si Si7 0.250001 0.004990 0.500000
O O1 0.301634 0.750000 0.327711
O O2 0.465129 0.597090 0.183797
O O3 0.182688 0.631823 0.254282
O O4 0.228083 0.566265 0.414960
O O5 0.801635 0.250000 0.327710
O O6 0.682689 0.368176 0.254280
O O7 0.728082 0.433735 0.414960
O O8 0.965130 0.402910 0.183797
O O9 0.029437 0.914438 0.163565
O O10 0.250000 0.030432 1.000000
O O11 0.000000 0.000000 0.000000
O O12 0.470564 0.914438 0.836434
O O13 0.500000 0.000000 0.000000
O O14 0.968806 0.750000 0.294109
O O15 0.894777 0.925519 0.403039
O O16 0.531194 0.750000 0.705891
O O17 0.605221 0.925520 0.596961
#
# Coordination Sequence:
#
# PCOD9163258 Si02
#       7
#     4   4   4   4   4   4   4
#     4  10  21  37  59  86 118 155 192 237 292 344
#     4  10  21  37  59  86 118 155 192 237 292 344
#     4  11  22  39  61  86 118 151 195 243 287 340
#     4  11  22  39  61  86 118 151 195 243 287 340
#     4  10  21  37  60  86 115 156 196 235 288 349
#     4  10  21  37  60  86 115 156 196 235 288 349
#     4  10  20  36  60  86 118 148 196 244 286 334
#
# _framework density 18.063212
#
# number of rings (size 3 to 8) (size 9 to 14) (size 15 to 20)
#    0.000    1.714    2.857    1.714    0.000    2.286 
#    0.000    0.000    0.000    0.000    0.000    0.000 
#    0.000    0.000    0.000    0.000    0.000    0.000 
#
# Total GULP energy -156259.793334 kJ/mol
# GULP energy per Si atom -5580.706905 kJ/mol
# Density = 1.802210 g / cm^3
# Si number density = 18.063212 Si / 1000 Ang^3
#
#
#
# Elastic Constant Matrix: (Units=GPa)
#
#
# Indices 1 2 3 4 5 6 
#
# 1 99.9426 56.4932 58.3907 0.0000 -1.4297 0.0000
# 2 56.4932 164.5014 66.3999 0.0000 -2.7356 0.0000
# 3 58.3907 66.3999 116.8318 0.0000 -2.0346 0.0000
# 4 0.0000 0.0000 0.0000 14.2695 0.0000 3.3609
# 5 -1.4297 -2.7356 -2.0346 0.0000 32.9548 0.0000
# 6 0.0000 0.0000 0.0000 3.3609 0.0000 27.9753
#
#
#
# Elastic Compliance Matrix: (Units=1/GPa)
#
#
# Indices 1 2 3 4 5 6 
#
# 1 0.015043 -0.002765 -0.005946 0.000000 0.000056 0.000000
# 2 -0.002765 0.008402 -0.003387 0.000000 0.000368 0.000000
# 3 -0.005946 -0.003387 0.013461 0.000000 0.000292 0.000000
# 4 0.000000 0.000000 0.000000 0.072120 0.000000 -0.008664
# 5 0.000056 0.000368 0.000292 0.000000 0.030396 0.000000
# 6 0.000000 0.000000 0.000000 -0.008664 0.000000 0.036787
#
#
# Mechanical properties :
#
#
# Convention : Reuss Voigt Hill
#
# Bulk Modulus (GPa) = 78.67517 82.64927 80.66222
# Shear Modulus (GPa) = 24.43305 28.37272 26.40288
#
# Velocity S-wave (km/s) = 3.68182 3.96756 3.82736
# Velocity P-wave (km/s) = 7.85649 8.17580 8.01773
#
# Compressibility (1/GPa) = 0.01271049
#
# Stress axis : x y z
#
# Youngs Moduli (GPa) = 66.47392 119.02327 74.28989
#
# Poissons Ratio (x) = 0.32913 0.44172
# Poissons Ratio (y) = 0.18382 0.25159
# Poissons Ratio (z) = 0.39525 0.40308
#
# Static dielectric constant tensor:
#      x y z
#    x 1.601020 0.000000 0.000040 
#    y 0.000000 1.601880 0.000000 
#    z 0.000040 0.000000 1.617890 
# 
# From -- ./inp_files/31811.got.cif
#   From: 2010.05.17/outbox.cif.g08.bks.cpg/sg11_16_cif.got.tgz:31811.got - 2010.06.03 12:22:45.
