data_PCOD9163746
_publ_section_title
;
Structure prediction by ZEFSAII (Michael W. Deem and Ramdas Pophale) SiO2 
 PCOD9163746
Probable space group: P 21/M
;
_chemical_formula_sum "Si O2"
_cell_formula_units_Z 28
_cell_length_a 16.202893
_cell_length_b 19.916882
_cell_length_c 9.008454
_cell_angle_alpha 90.000000
_cell_angle_beta 31.571504
_cell_angle_gamma 90.000000
_cell_volume 1522.062525
_symmetry_space_group_name_H-M "P 21/M"
_symmetry_group_IT_number 11
_symmetry_cell_setting 'monoclinic'
loop_
_space_group_symop_operation_xyz
x,y,z
-x,1/2+y,-z
-x,-y,-z
x,1/2-y,z
loop_
_atom_site_type_symbol
_atom_site_label
_atom_site_fract_x
_atom_site_fract_y
_atom_site_fract_z
Si Si1 0.890795 0.565852 0.167390
Si Si2 0.858481 0.173724 0.151574
Si Si3 0.770544 0.919750 0.688779
Si Si4 0.286144 0.572353 0.150331
Si Si5 0.063639 0.830243 0.311062
Si Si6 0.419720 0.471750 0.474883
Si Si7 0.590985 0.102068 0.711852
O O1 0.808673 0.572345 0.455136
O O2 0.751949 0.562759 0.257672
O O3 0.000000 0.500000 0.000000
O O4 0.013615 0.626405 0.966043
O O5 0.903988 0.250000 0.105413
O O6 0.686270 0.158963 0.480052
O O7 0.865500 0.160463 0.964074
O O8 0.895477 0.867553 0.563026
O O9 0.775947 0.994816 0.752150
O O10 0.595213 0.891430 0.980115
O O11 0.168935 0.626760 0.262279
O O12 0.330264 0.589919 0.250344
O O13 0.447663 0.572514 0.808341
O O14 0.056004 0.750000 0.352327
O O15 0.500000 0.500000 0.500000
O O16 0.387736 0.535291 0.418291
#
# Coordination Sequence:
#
# PCOD9163746 Si02
#       7
#     4   4   4   4   4   4   4
#     4  11  19  37  62  90 120 154 200 246 293 353
#     4  10  22  39  61  84 118 159 199 241 299 361
#     4  10  20  37  62  88 120 153 197 249 296 350
#     4  11  20  37  61  89 122 150 198 251 296 352
#     4  10  23  40  58  85 118 159 200 241 297 363
#     4  11  21  35  59  93 119 150 197 245 298 349
#     4  11  20  39  59  89 118 154 195 248 301 351
#
# _framework density 18.396090000000001
#
# number of rings (size 3 to 8) (size 9 to 14) (size 15 to 20)
#    0.000    1.429    4.286    2.143    2.000    1.143 
#    5.143    0.714    0.000    0.857    0.000    0.000 
#    0.000    0.000    0.000    0.000    0.000    0.000 
#
# Total GULP energy -156277.540056 kJ/mol
# GULP energy per Si atom -5581.340716 kJ/mol
# Density = 1.835422 g / cm^3
# Si number density = 18.396090 Si / 1000 Ang^3
#
#
#
# Elastic Constant Matrix: (Units=GPa)
#
#
# Indices 1 2 3 4 5 6 
#
# 1 134.3976 73.4091 47.7520 0.0000 -27.4599 0.0000
# 2 73.4091 102.9103 51.0241 0.0000 -16.6462 0.0000
# 3 47.7520 51.0241 104.9801 0.0000 -10.1119 0.0000
# 4 0.0000 0.0000 0.0000 23.3907 0.0000 0.2243
# 5 -27.4599 -16.6462 -10.1119 0.0000 18.8958 0.0000
# 6 0.0000 0.0000 0.0000 0.2243 0.0000 24.7135
#
#
#
# Elastic Compliance Matrix: (Units=1/GPa)
#
#
# Indices 1 2 3 4 5 6 
#
# 1 0.015177 -0.007593 -0.001827 0.000000 0.014389 0.000000
# 2 -0.007593 0.017997 -0.005092 0.000000 0.002095 0.000000
# 3 -0.001827 -0.005092 0.012804 0.000000 -0.000289 0.000000
# 4 0.000000 0.000000 0.000000 0.042756 0.000000 -0.000388
# 5 0.014389 0.002095 -0.000289 0.000000 0.075524 0.000000
# 6 0.000000 0.000000 0.000000 -0.000388 0.000000 0.040467
#
#
# Mechanical properties :
#
#
# Convention : Reuss Voigt Hill
#
# Bulk Modulus (GPa) = 58.98192 76.29537 67.63864
# Shear Modulus (GPa) = 20.88570 24.74020 22.81295
#
# Velocity S-wave (km/s) = 3.37313 3.67121 3.52532
# Velocity P-wave (km/s) = 6.87768 7.71584 7.30878
#
# Compressibility (1/GPa) = 0.01695435
#
# Stress axis : x y z
#
# Youngs Moduli (GPa) = 65.88921 55.56547 78.10328
#
# Poissons Ratio (x) = 0.42190 0.14271
# Poissons Ratio (y) = 0.50029 0.39766
# Poissons Ratio (z) = 0.12039 0.28291
#
# Static dielectric constant tensor:
#      x y z
#    x 1.641410 0.000000 0.004680 
#    y 0.000000 1.619240 0.000000 
#    z 0.004680 0.000000 1.667880 
# 
# From -- ./inp_files/23172.got.cif
#   From: 2010.05.17/outbox.cif.g08.bks.cpg/sg11_12_cif.got.tgz:23172.got - 2010.06.03 12:22:45.
