data_PCOD9163264
_publ_section_title
;
Structure prediction by ZEFSAII (Michael W. Deem and Ramdas Pophale) SiO2 
 PCOD9163264
Probable space group: P 21/M
;
_chemical_formula_sum "Si O2"
_cell_formula_units_Z 32
_cell_length_a 12.379355
_cell_length_b 27.961182
_cell_length_c 9.166659
_cell_angle_alpha 90.000000
_cell_angle_beta 31.352957
_cell_angle_gamma 90.000000
_cell_volume 1650.918600
_symmetry_space_group_name_H-M "P 21/M"
_symmetry_group_IT_number 11
_symmetry_cell_setting 'monoclinic'
loop_
_space_group_symop_operation_xyz
x,y,z
-x,1/2+y,-z
-x,-y,-z
x,1/2-y,z
loop_
_atom_site_type_symbol
_atom_site_label
_atom_site_fract_x
_atom_site_fract_y
_atom_site_fract_z
Si Si1 0.831120 0.532241 0.279221
Si Si2 0.160419 0.929679 0.117870
Si Si3 0.518529 0.878304 0.187595
Si Si4 0.618339 0.693656 0.638763
Si Si5 0.824372 0.696375 0.690188
Si Si6 0.551732 0.987684 0.106999
Si Si7 0.454575 0.113487 0.506506
Si Si8 0.767136 0.349729 0.734342
O O1 0.647998 0.500782 0.562672
O O2 0.715659 0.571100 0.310696
O O3 0.952551 0.560167 0.267802
O O4 0.000000 0.500000 0.000000
O O5 0.143660 0.893764 0.273252
O O6 0.336977 0.906435 0.810594
O O7 0.258487 0.979524 0.059414
O O8 0.594268 0.931895 0.069606
O O9 0.494173 0.873531 0.387684
O O10 0.314568 0.868808 0.325601
O O11 0.684348 0.841026 0.936128
O O12 0.595802 0.750000 0.630361
O O13 0.808085 0.687897 0.534231
O O14 0.627419 0.659152 0.489555
O O15 0.423975 0.673797 0.957236
O O16 0.745916 0.750000 0.804060
O O17 0.055473 0.689449 0.479418
O O18 0.500000 0.000000 0.000000
#
# Coordination Sequence:
#
# PCOD9163264 Si02
#       8
#     4   4   4   4   4   4   4   4
#     4  11  23  38  60  86 121 163 201 244 303 353
#     4  10  21  38  61  84 117 159 200 243 293 351
#     4  11  23  38  58  86 123 157 191 244 303 352
#     4   9  19  38  62  84 109 148 195 244 296 350
#     4  10  22  39  61  85 114 151 195 247 298 353
#     4  11  23  39  58  90 126 157 206 248 292 361
#     4  10  22  39  59  86 120 154 200 246 293 362
#     4  10  20  36  60  87 114 149 196 242 294 350
#
# _framework density 19.383150000000001
#
# number of rings (size 3 to 8) (size 9 to 14) (size 15 to 20)
#    0.000    1.750    1.250    2.625    3.500    6.500 
#    0.000    0.000    0.000    0.000    0.000    0.000 
#    0.000    0.000    0.000    0.000    0.000    0.000 
#
# Total GULP energy -178784.146269 kJ/mol
# GULP energy per Si atom -5587.004571 kJ/mol
# Density = 1.933903 g / cm^3
# Si number density = 19.383150 Si / 1000 Ang^3
#
#
#
# Elastic Constant Matrix: (Units=GPa)
#
#
# Indices 1 2 3 4 5 6 
#
# 1 115.0440 42.8383 19.4686 0.0000 18.2002 0.0000
# 2 42.8383 127.7462 20.3156 0.0000 16.4038 0.0000
# 3 19.4686 20.3156 24.2027 0.0000 2.7690 0.0000
# 4 0.0000 0.0000 0.0000 34.4157 0.0000 24.4692
# 5 18.2002 16.4038 2.7690 0.0000 31.6973 0.0000
# 6 0.0000 0.0000 0.0000 24.4692 0.0000 96.0918
#
#
#
# Elastic Compliance Matrix: (Units=1/GPa)
#
#
# Indices 1 2 3 4 5 6 
#
# 1 0.011406 -0.002112 -0.006846 0.000000 -0.004858 0.000000
# 2 -0.002112 0.009972 -0.006282 0.000000 -0.003399 0.000000
# 3 -0.006846 -0.006282 0.051794 0.000000 0.002657 0.000000
# 4 0.000000 0.000000 0.000000 0.035480 0.000000 -0.009035
# 5 -0.004858 -0.003399 0.002657 0.000000 0.035865 0.000000
# 6 0.000000 0.000000 0.000000 -0.009035 0.000000 0.012707
#
#
# Mechanical properties :
#
#
# Convention : Reuss Voigt Hill
#
# Bulk Modulus (GPa) = 23.42451 48.02645 35.72548
# Shear Modulus (GPa) = 24.76039 44.73231 34.74635
#
# Velocity S-wave (km/s) = 3.57798 4.80916 4.23851
# Velocity P-wave (km/s) = 5.40189 7.46114 6.51341
#
# Compressibility (1/GPa) = 0.04269033
#
# Stress axis : x y z
#
# Youngs Moduli (GPa) = 87.67352 100.28181 19.30731
#
# Poissons Ratio (x) = 0.21183 0.13218
# Poissons Ratio (y) = 0.18520 0.12129
# Poissons Ratio (z) = 0.60022 0.63000
#
# Static dielectric constant tensor:
#      x y z
#    x 1.682700 0.000000 -0.002970 
#    y 0.000000 1.669190 0.000000 
#    z -0.002970 0.000000 1.664550 
# 
# From -- ./inp_files/19870.got.cif
#   From: 2010.05.17/outbox.cif.g08.bks.cpg/sg11_10_cif.got.tgz:19870.got - 2010.06.03 12:22:45.
