data_PCOD9163253
_publ_section_title
;
Structure prediction by ZEFSAII (Michael W. Deem and Ramdas Pophale) SiO2 
 PCOD9163253
Probable space group: P 21/M
;
_chemical_formula_sum "Si O2"
_cell_formula_units_Z 32
_cell_length_a 12.358157
_cell_length_b 9.066822
_cell_length_c 15.422217
_cell_angle_alpha 90.000000
_cell_angle_beta 92.173658
_cell_angle_gamma 90.000000
_cell_volume 1726.803828
_symmetry_space_group_name_H-M "P 21/M"
_symmetry_group_IT_number 11
_symmetry_cell_setting 'monoclinic'
loop_
_space_group_symop_operation_xyz
x,y,z
-x,1/2+y,-z
-x,-y,-z
x,1/2-y,z
loop_
_atom_site_type_symbol
_atom_site_label
_atom_site_fract_x
_atom_site_fract_y
_atom_site_fract_z
Si Si1 0.537821 0.074770 0.633794
Si Si2 0.054859 0.573924 0.085409
Si Si3 0.274194 0.074422 0.052478
Si Si4 0.464039 0.424920 0.189692
Si Si5 0.911780 0.926607 0.248466
Si Si6 0.312230 0.425851 0.852061
Si Si7 0.913961 0.072975 0.432604
Si Si8 0.336463 0.573843 0.539315
O O1 0.529352 0.250000 0.643963
O O2 0.618722 0.043808 0.556203
O O3 0.576041 0.000725 0.723456
O O4 0.420069 0.009864 0.604628
O O5 0.049774 0.750000 0.075468
O O6 0.176846 0.516232 0.090988
O O7 0.991115 0.535623 0.171336
O O8 0.000000 0.500000 0.000000
O O9 0.251474 0.250000 0.058284
O O10 0.384346 0.043470 0.107248
O O11 0.284153 0.038935 0.951072
O O12 0.468448 0.250000 0.202150
O O13 0.582157 0.487708 0.173266
O O14 0.919721 0.750000 0.264130
O O15 0.790540 0.958912 0.211166
O O16 0.935072 0.013940 0.336545
O O17 0.332883 0.250000 0.848067
O O18 0.922681 0.250000 0.436890
O O19 0.789007 0.033037 0.452482
O O20 0.000000 0.000000 0.500000
O O21 0.346525 0.750000 0.554953
#
# Coordination Sequence:
#
# PCOD9163253 Si02
#       8
#     4   4   4   4   4   4   4   4
#     4  10  20  36  60  86 114 150 190 236 292 353
#     4  11  22  39  63  88 118 155 199 248 296 350
#     4  10  22  40  58  83 119 156 196 245 295 344
#     4  11  23  36  54  84 122 155 192 241 290 348
#     4  10  22  40  62  88 118 155 196 245 297 348
#     4  10  20  38  61  83 116 155 196 242 291 349
#     4  11  24  41  61  87 120 155 194 244 295 353
#     4   9  20  39  61  85 113 146 191 242 290 344
#
# _framework density 18.531345999999999
#
# number of rings (size 3 to 8) (size 9 to 14) (size 15 to 20)
#    0.000    1.750    1.250    2.625    0.000    7.500 
#    0.000    3.750    0.000    0.000    0.000    0.000 
#    0.000    0.000    0.000    0.000    0.000    0.000 
#
# Total GULP energy -178823.500267 kJ/mol
# GULP energy per Si atom -5588.234383 kJ/mol
# Density = 1.848917 g / cm^3
# Si number density = 18.531346 Si / 1000 Ang^3
#
#
#
# Elastic Constant Matrix: (Units=GPa)
#
#
# Indices 1 2 3 4 5 6 
#
# 1 56.9549 34.8180 53.9114 0.0000 -13.2197 0.0000
# 2 34.8180 41.2643 56.2128 0.0000 -0.1558 0.0000
# 3 53.9114 56.2128 129.8392 0.0000 10.2535 0.0000
# 4 0.0000 0.0000 0.0000 35.1155 0.0000 0.4196
# 5 -13.2197 -0.1558 10.2535 0.0000 23.7955 0.0000
# 6 0.0000 0.0000 0.0000 0.4196 0.0000 32.2348
#
#
#
# Elastic Compliance Matrix: (Units=1/GPa)
#
#
# Indices 1 2 3 4 5 6 
#
# 1 0.057804 -0.028827 -0.014536 0.000000 0.038188 0.000000
# 2 -0.028827 0.076842 -0.020781 0.000000 -0.006557 0.000000
# 3 -0.014536 -0.020781 0.024207 0.000000 -0.018643 0.000000
# 4 0.000000 0.000000 0.000000 0.028482 0.000000 -0.000371
# 5 0.038188 -0.006557 -0.018643 0.000000 0.071230 0.000000
# 6 0.000000 0.000000 0.000000 -0.000371 0.000000 0.031027
#
#
# Mechanical properties :
#
#
# Convention : Reuss Voigt Hill
#
# Bulk Modulus (GPa) = 32.71841 57.54922 45.13381
# Shear Modulus (GPa) = 11.68036 23.77024 17.72530
#
# Velocity S-wave (km/s) = 2.51331 3.58537 3.09609
# Velocity P-wave (km/s) = 5.11041 6.94711 6.09831
#
# Compressibility (1/GPa) = 0.03056383
#
# Stress axis : x y z
#
# Youngs Moduli (GPa) = 17.29982 13.01371 41.31096
#
# Poissons Ratio (x) = 0.37515 0.60051
# Poissons Ratio (y) = 0.49871 0.85847
# Poissons Ratio (z) = 0.25148 0.27043
#
# Static dielectric constant tensor:
#      x y z
#    x 1.621070 0.000000 -0.006580 
#    y 0.000000 1.616920 0.000000 
#    z -0.006580 0.000000 1.629610 
# 
# From -- ./inp_files/38289.got.cif
#   From: 2010.05.17/outbox.cif.g08.bks.cpg/sg11_20_cif.got.tgz:38289.got - 2010.06.03 12:22:45.
