data_PCOD9163832
_publ_section_title
;
Structure prediction by ZEFSAII (Michael W. Deem and Ramdas Pophale) SiO2 
 PCOD9163832
Probable space group: P 21/M
;
_chemical_formula_sum "Si O2"
_cell_formula_units_Z 32
_cell_length_a 14.638120
_cell_length_b 18.464480
_cell_length_c 11.333253
_cell_angle_alpha 90.000000
_cell_angle_beta 32.243832
_cell_angle_gamma 90.000000
_cell_volume 1634.295167
_symmetry_space_group_name_H-M "P 21/M"
_symmetry_group_IT_number 11
_symmetry_cell_setting 'monoclinic'
loop_
_space_group_symop_operation_xyz
x,y,z
-x,1/2+y,-z
-x,-y,-z
x,1/2-y,z
loop_
_atom_site_type_symbol
_atom_site_label
_atom_site_fract_x
_atom_site_fract_y
_atom_site_fract_z
Si Si1 0.176411 0.103752 0.146929
Si Si2 0.007911 0.079620 0.934685
Si Si3 0.706052 0.836398 0.229587
Si Si4 0.095867 0.666966 0.392551
Si Si5 0.648446 0.556177 0.814966
Si Si6 0.338607 0.663254 0.744255
Si Si7 0.447934 0.833094 0.893412
Si Si8 0.018395 0.042056 0.659007
O O1 0.302473 0.100059 0.121061
O O2 0.004839 0.145349 0.378596
O O3 0.260767 0.138440 0.940489
O O4 0.121908 0.020766 0.181687
O O5 0.822691 0.118948 0.129680
O O6 0.147132 0.126375 0.852416
O O7 0.062306 0.068021 0.740630
O O8 0.000000 0.000000 0.000000
O O9 0.721697 0.750000 0.221084
O O10 0.516157 0.855502 0.484246
O O11 0.050230 0.750000 0.413116
O O12 0.033746 0.610422 0.362410
O O13 0.300966 0.662824 0.155043
O O14 0.592870 0.611777 0.774325
O O15 0.815598 0.512617 0.590403
O O16 0.500000 0.500000 0.000000
O O17 0.308200 0.750000 0.765350
O O18 0.367680 0.649024 0.852733
O O19 0.508640 0.750000 0.819570
#
# Coordination Sequence:
#
# PCOD9163832 Si02
#       8
#     4   4   4   4   4   4   4   4
#     4  11  23  42  60  90 133 169 207 259 324 395
#     4  12  24  41  68  98 130 173 225 274 329 394
#     4  11  25  45  67  95 132 178 223 268 329 406
#     4  10  20  37  65  89 118 165 206 258 316 378
#     4  11  23  36  62  91 125 166 205 262 324 387
#     4  10  23  44  69  95 131 170 217 283 333 376
#     4  10  20  38  62  92 121 154 212 269 322 378
#     4  11  22  40  62  89 125 164 215 264 323 382
#
# _framework density 19.580306
#
# number of rings (size 3 to 8) (size 9 to 14) (size 15 to 20)
#    0.000    1.250    2.500    4.500    0.000    4.500 
#    2.250    0.000    0.000    0.000    0.000    0.000 
#    0.000    0.000    0.000    0.000    0.000    0.000 
#
# Total GULP energy -178733.520388 kJ/mol
# GULP energy per Si atom -5585.422512 kJ/mol
# Density = 1.953574 g / cm^3
# Si number density = 19.580306 Si / 1000 Ang^3
#
#
#
# Elastic Constant Matrix: (Units=GPa)
#
#
# Indices 1 2 3 4 5 6 
#
# 1 89.6975 37.6537 46.1642 0.0000 -5.9608 0.0000
# 2 37.6537 98.2102 41.7524 0.0000 -11.6013 0.0000
# 3 46.1642 41.7524 113.2860 0.0000 8.8681 0.0000
# 4 0.0000 0.0000 0.0000 32.4646 0.0000 -4.4526
# 5 -5.9608 -11.6013 8.8681 0.0000 30.2411 0.0000
# 6 0.0000 0.0000 0.0000 -4.4526 0.0000 31.3558
#
#
#
# Elastic Compliance Matrix: (Units=1/GPa)
#
#
# Indices 1 2 3 4 5 6 
#
# 1 0.015513 -0.003258 -0.005386 0.000000 0.003388 0.000000
# 2 -0.003258 0.013958 -0.004284 0.000000 0.005969 0.000000
# 3 -0.005386 -0.004284 0.013114 0.000000 -0.006551 0.000000
# 4 0.000000 0.000000 0.000000 0.031415 0.000000 0.004461
# 5 0.003388 0.005969 -0.006551 0.000000 0.037946 0.000000
# 6 0.000000 0.000000 0.000000 0.004461 0.000000 0.032525
#
#
# Mechanical properties :
#
#
# Convention : Reuss Voigt Hill
#
# Bulk Modulus (GPa) = 59.77655 61.37048 60.57352
# Shear Modulus (GPa) = 28.42480 30.52053 29.47267
#
# Velocity S-wave (km/s) = 3.81426 3.95237 3.88393
# Velocity P-wave (km/s) = 7.07059 7.22767 7.14956
#
# Compressibility (1/GPa) = 0.01672897
#
# Stress axis : x y z
#
# Youngs Moduli (GPa) = 64.46052 71.64595 76.25596
#
# Poissons Ratio (x) = 0.23341 0.41073
# Poissons Ratio (y) = 0.21000 0.32667
# Poissons Ratio (z) = 0.34720 0.30692
#
# Static dielectric constant tensor:
#      x y z
#    x 1.663390 0.000000 -0.005670 
#    y 0.000000 1.693040 0.000000 
#    z -0.005670 0.000000 1.717880 
# 
# From -- ./inp_files/39947.got.cif
#   From: 2010.05.17/outbox.cif.g08.bks.cpg/sg11_20_cif.got.tgz:39947.got - 2010.06.03 12:22:45.
