data_PCOD9163941
_publ_section_title
;
Structure prediction by ZEFSAII (Michael W. Deem and Ramdas Pophale) SiO2 
 PCOD9163941
Probable space group: P 21/M
;
_chemical_formula_sum "Si O2"
_cell_formula_units_Z 28
_cell_length_a 9.806791
_cell_length_b 8.370878
_cell_length_c 27.670378
_cell_angle_alpha 90.000000
_cell_angle_beta 41.132599
_cell_angle_gamma 90.000000
_cell_volume 1494.202503
_symmetry_space_group_name_H-M "P 21/M"
_symmetry_group_IT_number 11
_symmetry_cell_setting 'monoclinic'
loop_
_space_group_symop_operation_xyz
x,y,z
-x,1/2+y,-z
-x,-y,-z
x,1/2-y,z
loop_
_atom_site_type_symbol
_atom_site_label
_atom_site_fract_x
_atom_site_fract_y
_atom_site_fract_z
Si Si1 0.342061 0.941269 0.191810
Si Si2 0.522744 0.941301 0.740168
Si Si3 0.129502 0.442764 0.787629
Si Si4 0.352231 0.940346 0.081533
Si Si5 0.275827 0.429698 0.552185
Si Si6 0.110262 0.931745 0.689185
Si Si7 0.072421 0.556236 0.427459
O O1 0.294927 0.750000 0.204981
O O2 0.436177 0.976435 0.113461
O O3 0.448741 0.985167 0.213777
O O4 0.135444 0.046831 0.245262
O O5 0.530634 0.750000 0.740997
O O6 0.300622 0.998117 0.779433
O O7 0.709557 0.996672 0.653992
O O8 0.133426 0.250000 0.783537
O O9 0.191509 0.518258 0.719647
O O10 0.888924 0.493854 0.860097
O O11 0.344493 0.750000 0.080293
O O12 0.500000 0.000000 0.000000
O O13 0.500000 0.500000 0.500000
O O14 0.302144 0.250000 0.528286
O O15 0.180143 0.444202 0.630479
O O16 0.110254 0.504182 0.559708
O O17 0.169018 0.750000 0.661285
O O18 0.082532 0.750000 0.424260
O O19 0.000000 0.500000 0.500000
#
# Coordination Sequence:
#
# PCOD9163941 Si02
#       7
#     4   4   4   4   4   4   4
#     4  10  20  38  61  87 119 159 199 237 293 356
#     4  12  24  39  62  91 121 157 204 254 301 356
#     4  10  22  40  61  87 121 161 199 241 297 357
#     4   9  20  38  64  93 123 157 196 242 294 354
#     4  11  24  40  59  82 114 154 198 247 303 358
#     4  11  21  36  59  86 114 149 197 249 293 348
#     4  11  25  43  62  84 119 162 203 250 307 365
#
# _framework density 18.739094000000001
#
# number of rings (size 3 to 8) (size 9 to 14) (size 15 to 20)
#    0.000    1.429    1.429    5.143    2.000    5.143 
#    0.000    0.714    0.000    0.000    0.000    0.000 
#    0.000    0.000    0.000    0.000    0.000    0.000 
#
# Total GULP energy -156097.881076 kJ/mol
# GULP energy per Si atom -5574.924324 kJ/mol
# Density = 1.869644 g / cm^3
# Si number density = 18.739094 Si / 1000 Ang^3
#
#
#
# Elastic Constant Matrix: (Units=GPa)
#
#
# Indices 1 2 3 4 5 6 
#
# 1 151.5631 23.1535 64.3394 0.0000 9.5313 0.0000
# 2 23.1535 64.9506 11.4471 0.0000 -2.8038 0.0000
# 3 64.3394 11.4471 102.5952 0.0000 14.5415 0.0000
# 4 0.0000 0.0000 0.0000 33.0690 0.0000 0.8734
# 5 9.5313 -2.8038 14.5415 0.0000 23.9498 0.0000
# 6 0.0000 0.0000 0.0000 0.8734 0.0000 29.7484
#
#
#
# Elastic Compliance Matrix: (Units=1/GPa)
#
#
# Indices 1 2 3 4 5 6 
#
# 1 0.009337 -0.002388 -0.005496 0.000000 -0.000659 0.000000
# 2 -0.002388 0.016540 -0.000828 0.000000 0.003390 0.000000
# 3 -0.005496 -0.000828 0.014213 0.000000 -0.006539 0.000000
# 4 0.000000 0.000000 0.000000 0.030263 0.000000 -0.000888
# 5 -0.000659 0.003390 -0.006539 0.000000 0.046383 0.000000
# 6 0.000000 0.000000 0.000000 -0.000888 0.000000 0.033641
#
#
# Mechanical properties :
#
#
# Convention : Reuss Voigt Hill
#
# Bulk Modulus (GPa) = 44.11966 57.44321 50.78143
# Shear Modulus (GPa) = 28.51321 32.03135 30.27228
#
# Velocity S-wave (km/s) = 3.90499 4.13889 4.02364
# Velocity P-wave (km/s) = 6.62776 7.31856 6.98171
#
# Compressibility (1/GPa) = 0.02266563
#
# Stress axis : x y z
#
# Youngs Moduli (GPa) = 107.09944 60.45956 70.35952
#
# Poissons Ratio (x) = 0.14440 0.38667
# Poissons Ratio (y) = 0.25579 0.05827
# Poissons Ratio (z) = 0.58858 0.05007
#
# Static dielectric constant tensor:
#      x y z
#    x 1.669950 0.000000 0.029000 
#    y 0.000000 1.666780 0.000000 
#    z 0.029000 0.000000 1.598490 
# 
# From -- ./inp_files/70779.got.cif
#   From: 2010.05.17/outbox.cif.g08.bks.cpg/sg11_36_cif.got.tgz:70779.got - 2010.06.03 12:22:45.
