data_PCOD9163506
_publ_section_title
;
Structure prediction by ZEFSAII (Michael W. Deem and Ramdas Pophale) SiO2 
 PCOD9163506
Probable space group: P 21/M
;
_chemical_formula_sum "Si O2"
_cell_formula_units_Z 32
_cell_length_a 9.151345
_cell_length_b 16.689893
_cell_length_c 11.964411
_cell_angle_alpha 90.000000
_cell_angle_beta 84.868218
_cell_angle_gamma 90.000000
_cell_volume 1820.059060
_symmetry_space_group_name_H-M "P 21/M"
_symmetry_group_IT_number 11
_symmetry_cell_setting 'monoclinic'
loop_
_space_group_symop_operation_xyz
x,y,z
-x,1/2+y,-z
-x,-y,-z
x,1/2-y,z
loop_
_atom_site_type_symbol
_atom_site_label
_atom_site_fract_x
_atom_site_fract_y
_atom_site_fract_z
Si Si1 0.621051 0.843702 0.899709
Si Si2 0.703631 0.844664 0.147517
Si Si3 0.129554 0.660390 0.620468
Si Si4 0.345959 0.904018 0.789320
Si Si5 0.738510 0.021473 0.529308
Si Si6 0.082979 0.014714 0.879722
Si Si7 0.134720 0.071100 0.267398
Si Si8 0.566164 0.555349 0.350898
O O1 0.657745 0.750000 0.882699
O O2 0.459808 0.859683 0.860922
O O3 0.739095 0.896442 0.823518
O O4 0.630170 0.861428 0.031509
O O5 0.726753 0.750000 0.155871
O O6 0.852779 0.896436 0.137077
O O7 0.608250 0.878536 0.257035
O O8 0.137074 0.750000 0.573946
O O9 0.255345 0.649075 0.706921
O O10 0.157497 0.589079 0.530384
O O11 0.972339 0.642959 0.687136
O O12 0.223069 0.955550 0.862410
O O13 0.436688 0.970181 0.713162
O O14 0.588390 0.065468 0.577790
O O15 0.801795 0.973711 0.629314
O O16 0.691492 0.958968 0.435411
O O17 0.972282 0.990059 0.789726
O O18 0.000000 0.000000 0.000000
#
# Coordination Sequence:
#
# PCOD9163506 Si02
#       8
#     4   4   4   4   4   4   4   4
#     4  11  21  35  58  88 117 148 192 246 292 335
#     4  10  22  38  57  86 122 151 188 242 293 344
#     4  10  21  36  54  81 118 152 185 238 297 339
#     4   9  19  35  56  82 112 145 192 236 278 346
#     4  10  20  37  60  83 110 149 197 239 276 345
#     4  10  20  37  58  85 112 158 192 220 285 347
#     4  11  21  37  59  85 115 150 197 240 278 346
#     4   9  19  37  59  82 111 148 191 233 291 339
#
# _framework density 17.581848000000001
#
# number of rings (size 3 to 8) (size 9 to 14) (size 15 to 20)
#    0.000    2.000    2.500    1.875    0.000    3.500 
#    0.000    3.750    0.000    0.000    0.000    0.000 
#    0.000    0.000    0.000    0.000    0.000    0.000 
#
# Total GULP energy -178492.869697 kJ/mol
# GULP energy per Si atom -5577.902178 kJ/mol
# Density = 1.754183 g / cm^3
# Si number density = 17.581848 Si / 1000 Ang^3
#
#
#
# Elastic Constant Matrix: (Units=GPa)
#
#
# Indices 1 2 3 4 5 6 
#
# 1 68.8214 27.5451 40.4019 0.0000 5.4976 0.0000
# 2 27.5451 80.7068 48.0389 0.0000 13.5416 0.0000
# 3 40.4019 48.0389 111.9231 0.0000 5.8545 0.0000
# 4 0.0000 0.0000 0.0000 23.7834 0.0000 0.7316
# 5 5.4976 13.5416 5.8545 0.0000 35.2517 0.0000
# 6 0.0000 0.0000 0.0000 0.7316 0.0000 10.6513
#
#
#
# Elastic Compliance Matrix: (Units=1/GPa)
#
#
# Indices 1 2 3 4 5 6 
#
# 1 0.019071 -0.003078 -0.005517 0.000000 -0.000875 0.000000
# 2 -0.003078 0.018162 -0.006400 0.000000 -0.005434 0.000000
# 3 -0.005517 -0.006400 0.013618 0.000000 0.001057 0.000000
# 4 0.000000 0.000000 0.000000 0.042135 0.000000 -0.002894
# 5 -0.000875 -0.005434 0.001057 0.000000 0.030416 0.000000
# 6 0.000000 0.000000 0.000000 -0.002894 0.000000 0.094084
#
#
# Mechanical properties :
#
#
# Convention : Reuss Voigt Hill
#
# Bulk Modulus (GPa) = 47.93737 54.82480 51.38109
# Shear Modulus (GPa) = 19.65165 23.63496 21.64330
#
# Velocity S-wave (km/s) = 3.34686 3.67042 3.51237
# Velocity P-wave (km/s) = 6.50075 7.01520 6.76287
#
# Compressibility (1/GPa) = 0.02086055
#
# Stress axis : x y z
#
# Youngs Moduli (GPa) = 52.43489 55.05887 73.43151
#
# Poissons Ratio (x) = 0.16947 0.40515
# Poissons Ratio (y) = 0.16139 0.46998
# Poissons Ratio (z) = 0.28931 0.35239
#
# Static dielectric constant tensor:
#      x y z
#    x 1.601120 0.000000 -0.003080 
#    y 0.000000 1.580510 0.000000 
#    z -0.003080 0.000000 1.608010 
# 
# From -- ./inp_files/22167.got.cif
#   From: 2010.05.17/outbox.cif.g08.bks.cpg/sg11_12_cif.got.tgz:22167.got - 2010.06.03 12:22:45.
