data_PCOD9163743
_publ_section_title
;
Structure prediction by ZEFSAII (Michael W. Deem and Ramdas Pophale) SiO2 
 PCOD9163743
Probable space group: P 21/M
;
_chemical_formula_sum "Si O2"
_cell_formula_units_Z 28
_cell_length_a 22.434847
_cell_length_b 10.983999
_cell_length_c 28.342292
_cell_angle_alpha 90.000000
_cell_angle_beta 12.058600
_cell_angle_gamma 90.000000
_cell_volume 1459.089531
_symmetry_space_group_name_H-M "P 21/M"
_symmetry_group_IT_number 11
_symmetry_cell_setting 'monoclinic'
loop_
_space_group_symop_operation_xyz
x,y,z
-x,1/2+y,-z
-x,-y,-z
x,1/2-y,z
loop_
_atom_site_type_symbol
_atom_site_label
_atom_site_fract_x
_atom_site_fract_y
_atom_site_fract_z
Si Si1 0.979326 0.614290 0.187501
Si Si2 0.199699 0.884155 0.352282
Si Si3 0.906253 0.885653 0.133850
Si Si4 0.373217 0.113169 0.892200
Si Si5 0.530768 0.047614 0.354961
Si Si6 0.249357 0.609775 0.492047
Si Si7 0.371494 0.391438 0.067487
O O1 0.116094 0.750000 0.082607
O O2 0.910225 0.585551 0.186249
O O3 0.697269 0.619626 0.437586
O O4 0.169210 0.501435 0.058176
O O5 0.055200 0.750000 0.462454
O O6 0.367876 0.892524 0.271220
O O7 0.433114 0.886395 0.130206
O O8 0.000000 0.000000 0.500000
O O9 0.790529 0.750000 0.218294
O O10 0.711514 0.972067 0.253325
O O11 0.226568 0.889263 0.864743
O O12 0.243782 0.250000 0.997208
O O13 0.507431 0.102743 0.736250
O O14 0.347434 0.967605 0.460453
O O15 0.217766 0.750000 0.531167
O O16 0.949134 0.575401 0.700396
O O17 0.367267 0.250000 0.090235
O O18 0.500000 0.500000 0.000000
#
# Coordination Sequence:
#
# PCOD9163743 Si02
#       7
#     4   4   4   4   4   4   4
#     4  11  23  40  60  89 124 161 201 250 304 360
#     4  10  21  37  59  85 118 153 196 245 301 358
#     4  10  22  39  58  86 124 159 202 254 303 358
#     4  10  21  39  61  88 117 156 201 250 299 361
#     4  11  21  38  62  87 118 162 205 247 304 361
#     4  10  20  37  62  88 117 153 202 250 299 356
#     4  10  21  38  59  87 117 152 195 245 297 357
#
# _framework density 19.190049999999999
#
# number of rings (size 3 to 8) (size 9 to 14) (size 15 to 20)
#    0.000    1.714    1.429    3.000    0.000    4.571 
#    0.000    4.286    0.000    0.000    0.000    0.000 
#    0.000    0.000    0.000    0.000    0.000    0.000 
#
# Total GULP energy -156188.038245 kJ/mol
# GULP energy per Si atom -5578.144223 kJ/mol
# Density = 1.914637 g / cm^3
# Si number density = 19.190050 Si / 1000 Ang^3
#
#
#
# Elastic Constant Matrix: (Units=GPa)
#
#
# Indices 1 2 3 4 5 6 
#
# 1 84.6631 54.9744 21.1455 0.0000 9.6077 0.0000
# 2 54.9744 132.0440 48.0659 0.0000 -22.7429 0.0000
# 3 21.1455 48.0659 74.2099 0.0000 -2.4730 0.0000
# 4 0.0000 0.0000 0.0000 20.0821 0.0000 -1.8244
# 5 9.6077 -22.7429 -2.4730 0.0000 27.8061 0.0000
# 6 0.0000 0.0000 0.0000 -1.8244 0.0000 110.7821
#
#
#
# Elastic Compliance Matrix: (Units=1/GPa)
#
#
# Indices 1 2 3 4 5 6 
#
# 1 0.021589 -0.012512 0.001367 0.000000 -0.017572 0.000000
# 2 -0.012512 0.019046 -0.008132 0.000000 0.019178 0.000000
# 3 0.001367 -0.008132 0.018169 0.000000 -0.005507 0.000000
# 4 0.000000 0.000000 0.000000 0.049870 0.000000 0.000821
# 5 -0.017572 0.019178 -0.005507 0.000000 0.057231 0.000000
# 6 0.000000 0.000000 0.000000 0.000821 0.000000 0.009040
#
#
# Mechanical properties :
#
#
# Convention : Reuss Voigt Hill
#
# Bulk Modulus (GPa) = 49.38270 59.92096 54.65183
# Shear Modulus (GPa) = 22.70167 42.84947 32.77557
#
# Velocity S-wave (km/s) = 3.44320 4.73048 4.13721
# Velocity P-wave (km/s) = 6.44956 7.81853 7.16681
#
# Compressibility (1/GPa) = 0.02025001
#
# Stress axis : x y z
#
# Youngs Moduli (GPa) = 46.32034 52.50545 55.03878
#
# Poissons Ratio (x) = 0.65696 -0.07524
# Poissons Ratio (y) = 0.57957 0.44755
# Poissons Ratio (z) = -0.06333 0.42695
#
# Static dielectric constant tensor:
#      x y z
#    x 1.648720 0.000000 0.020140 
#    y 0.000000 1.681260 0.000000 
#    z 0.020140 0.000000 1.671760 
# 
# From -- ./inp_files/73726.got.cif
#   From: 2010.05.17/outbox.cif.g08.bks.cpg/sg11_37_cif.got.tgz:73726.got - 2010.06.03 12:22:45.
