data_PCOD9163444
_publ_section_title
;
Structure prediction by ZEFSAII (Michael W. Deem and Ramdas Pophale) SiO2 
 PCOD9163444
Probable space group: P 21/M
;
_chemical_formula_sum "Si O2"
_cell_formula_units_Z 28
_cell_length_a 8.474353
_cell_length_b 27.505308
_cell_length_c 8.357559
_cell_angle_alpha 90.000000
_cell_angle_beta 40.068417
_cell_angle_gamma 90.000000
_cell_volume 1253.970432
_symmetry_space_group_name_H-M "P 21/M"
_symmetry_group_IT_number 11
_symmetry_cell_setting 'monoclinic'
loop_
_space_group_symop_operation_xyz
x,y,z
-x,1/2+y,-z
-x,-y,-z
x,1/2-y,z
loop_
_atom_site_type_symbol
_atom_site_label
_atom_site_fract_x
_atom_site_fract_y
_atom_site_fract_z
Si Si1 0.724929 0.855985 0.989270
Si Si2 0.895874 0.083788 0.156600
Si Si3 0.246592 0.250000 0.008252
Si Si4 0.554483 0.851852 0.495568
Si Si5 0.558072 0.056119 0.904842
Si Si6 0.691118 0.007220 0.492496
Si Si7 0.651559 0.250000 0.399554
Si Si8 0.933571 0.913623 0.331012
O O1 0.712753 0.801286 0.935566
O O2 0.613473 0.854270 0.258238
O O3 0.624580 0.898022 0.951698
O O4 0.998107 0.873117 0.817809
O O5 0.625346 0.103092 0.328854
O O6 0.921188 0.034073 0.234118
O O7 0.027671 0.075898 0.887466
O O8 0.458343 0.250000 0.702887
O O9 0.951122 0.250000 0.190615
O O10 0.425540 0.800269 0.626968
O O11 0.791169 0.862592 0.424684
O O12 0.592631 0.046979 0.689720
O O13 0.808411 0.077360 0.785146
O O14 0.500000 0.000000 0.000000
O O15 0.500000 0.000000 0.500000
O O16 0.763377 0.957737 0.522799
#
# Coordination Sequence:
#
# PCOD9163444 Si02
#       8
#     4   4   2   4   4   4   2   4
#     4  10  21  39  62  93 120 166 219 269 333 393
#     4  11  19  38  63  87 122 159 212 266 318 388
#     4  10  20  36  69  99 128 162 226 294 330 398
#     4  10  20  39  64  92 123 163 216 276 330 400
#     4  12  25  41  58  92 135 179 215 272 337 410
#     4  12  21  39  62  86 121 166 222 264 319 383
#     4  10  20  38  67 105 124 162 224 288 344 390
#     4  11  24  37  58  93 127 170 206 267 332 405
#
# _framework density 22.329076000000001
#
# number of rings (size 3 to 8) (size 9 to 14) (size 15 to 20)
#    0.000    1.143    4.286    3.429    0.000    0.000 
#    0.000    0.714    0.000    0.000    0.000    0.000 
#    0.000    0.000    0.000    0.000    0.000    0.000 
#
# Total GULP energy -155922.751556 kJ/mol
# GULP energy per Si atom -5568.669698 kJ/mol
# Density = 2.227825 g / cm^3
# Si number density = 22.329076 Si / 1000 Ang^3
#
#
#
# Elastic Constant Matrix: (Units=GPa)
#
#
# Indices 1 2 3 4 5 6 
#
# 1 90.2558 49.0428 1.9629 0.0000 -20.1785 0.0000
# 2 49.0428 160.9789 9.1962 0.0000 -9.2598 0.0000
# 3 1.9629 9.1962 34.0871 0.0000 -9.5545 0.0000
# 4 0.0000 0.0000 0.0000 28.4734 0.0000 -9.5422
# 5 -20.1785 -9.2598 -9.5545 0.0000 29.7944 0.0000
# 6 0.0000 0.0000 0.0000 -9.5422 0.0000 34.4695
#
#
#
# Elastic Compliance Matrix: (Units=1/GPa)
#
#
# Indices 1 2 3 4 5 6 
#
# 1 0.015681 -0.004366 0.003155 0.000000 0.010275 0.000000
# 2 -0.004366 0.007591 -0.002158 0.000000 -0.001290 0.000000
# 3 0.003155 -0.002158 0.033126 0.000000 0.012089 0.000000
# 4 0.000000 0.000000 0.000000 0.038712 0.000000 0.010717
# 5 0.010275 -0.001290 0.012089 0.000000 0.043998 0.000000
# 6 0.000000 0.000000 0.000000 0.010717 0.000000 0.031978
#
#
# Mechanical properties :
#
#
# Convention : Reuss Voigt Hill
#
# Bulk Modulus (GPa) = 20.13759 45.08064 32.60911
# Shear Modulus (GPa) = 25.72319 33.55544 29.63932
#
# Velocity S-wave (km/s) = 3.39780 3.88076 3.64728
# Velocity P-wave (km/s) = 4.94283 6.34929 5.68968
#
# Compressibility (1/GPa) = 0.04965839
#
# Stress axis : x y z
#
# Youngs Moduli (GPa) = 63.77268 131.72933 30.18813
#
# Poissons Ratio (x) = 0.57518 -0.09524
# Poissons Ratio (y) = 0.27846 0.06515
# Poissons Ratio (z) = -0.20120 0.28429
#
# Static dielectric constant tensor:
#      x y z
#    x 1.836540 0.000000 -0.055680 
#    y 0.000000 1.867830 0.000000 
#    z -0.055680 0.000000 2.002150 
# 
# From -- ./inp_files/15280.got.cif
#   From: 2010.05.17/outbox.cif.g08.bks.cpg/sg11_8_cif.got.tgz:15280.got - 2010.06.03 12:22:45.
