data_PCOD9163161
_publ_section_title
;
Structure prediction by ZEFSAII (Michael W. Deem and Ramdas Pophale) SiO2 
 PCOD9163161
Probable space group: P 21/M
;
_chemical_formula_sum "Si O2"
_cell_formula_units_Z 22
_cell_length_a 8.152037
_cell_length_b 16.213609
_cell_length_c 7.411444
_cell_angle_alpha 90.000000
_cell_angle_beta 76.720915
_cell_angle_gamma 90.000000
_cell_volume 953.407988
_symmetry_space_group_name_H-M "P 21/M"
_symmetry_group_IT_number 11
_symmetry_cell_setting 'monoclinic'
loop_
_space_group_symop_operation_xyz
x,y,z
-x,1/2+y,-z
-x,-y,-z
x,1/2-y,z
loop_
_atom_site_type_symbol
_atom_site_label
_atom_site_fract_x
_atom_site_fract_y
_atom_site_fract_z
Si Si1 0.299601 0.398850 0.821893
Si Si2 0.154231 0.750000 0.259825
Si Si3 0.654280 0.098885 0.622889
Si Si4 0.082261 0.532748 0.669292
Si Si5 0.066799 0.250000 0.993621
Si Si6 0.281189 0.078362 0.216470
Si Si7 0.842230 0.750000 0.622388
O O1 0.458985 0.380720 0.654793
O O2 0.184386 0.467507 0.758814
O O3 0.175879 0.324677 0.889895
O O4 0.377725 0.415380 0.002193
O O5 0.258134 0.667311 0.275052
O O6 0.108541 0.750000 0.062227
O O7 0.981494 0.750000 0.427345
O O8 0.776347 0.098955 0.418860
O O9 0.661193 0.003270 0.690868
O O10 0.000000 0.500000 0.500000
O O11 0.911739 0.562503 0.802977
O O12 0.061738 0.250000 0.209272
O O13 0.264711 0.164005 0.334032
#
# Coordination Sequence:
#
# PCOD9163161 Si02
#       7
#     4   2   4   4   2   4   2
#     4  11  22  39  62  94 130 162 206 273 316 375
#     4  12  23  43  69  89 132 169 217 268 311 390
#     4  11  23  39  63  95 127 164 207 263 332 371
#     4  10  20  36  59  85 117 159 209 242 300 379
#     4  10  23  39  65  93 122 174 223 251 325 387
#     4  10  21  40  64  91 123 169 214 253 318 384
#     4  10  22  40  64  94 124 165 222 269 296 381
#
# _framework density 23.075116999999999
#
# number of rings (size 3 to 8) (size 9 to 14) (size 15 to 20)
#    0.000    1.455    1.818    4.364    2.545    1.455 
#    0.000    0.000    0.000    3.273    0.000    0.000 
#    0.000    0.000    0.000    0.000    0.000    0.000 
#
# Total GULP energy -122733.846449 kJ/mol
# GULP energy per Si atom -5578.811202 kJ/mol
# Density = 2.302260 g / cm^3
# Si number density = 23.075117 Si / 1000 Ang^3
#
#
#
# Elastic Constant Matrix: (Units=GPa)
#
#
# Indices 1 2 3 4 5 6 
#
# 1 29.3852 -2.4115 34.0115 0.0000 -8.7428 0.0000
# 2 -2.4115 101.1523 20.6049 0.0000 22.4656 0.0000
# 3 34.0115 20.6049 63.3504 0.0000 3.9829 0.0000
# 4 0.0000 0.0000 0.0000 36.9249 0.0000 -0.0042
# 5 -8.7428 22.4656 3.9829 0.0000 32.1032 0.0000
# 6 0.0000 0.0000 0.0000 -0.0042 0.0000 38.5013
#
#
#
# Elastic Compliance Matrix: (Units=1/GPa)
#
#
# Indices 1 2 3 4 5 6 
#
# 1 0.144438 0.011216 -0.083827 0.000000 0.041887 0.000000
# 2 0.011216 0.013312 -0.010036 0.000000 -0.005016 0.000000
# 3 -0.083827 -0.010036 0.065560 0.000000 -0.023940 0.000000
# 4 0.000000 0.000000 0.000000 0.027082 0.000000 0.000003
# 5 0.041887 -0.005016 -0.023940 0.000000 0.049037 0.000000
# 6 0.000000 0.000000 0.000000 0.000003 0.000000 0.025973
#
#
# Mechanical properties :
#
#
# Convention : Reuss Voigt Hill
#
# Bulk Modulus (GPa) = 17.23677 33.14418 25.19048
# Shear Modulus (GPa) = 9.80324 30.95143 20.37734
#
# Velocity S-wave (km/s) = 2.06340 3.66640 2.97490
# Velocity P-wave (km/s) = 3.62807 5.68490 4.76870
#
# Compressibility (1/GPa) = 0.05801551
#
# Stress axis : x y z
#
# Youngs Moduli (GPa) = 6.92336 75.12084 15.25325
#
# Poissons Ratio (x) = -0.84258 1.27864
# Poissons Ratio (y) = -0.07766 0.15308
# Poissons Ratio (z) = 0.58037 0.75393
#
# Static dielectric constant tensor:
#      x y z
#    x 1.840460 0.000000 0.000710 
#    y 0.000000 1.865680 0.000000 
#    z 0.000710 0.000000 1.934700 
# 
# From -- ./inp_files/12490.got.cif
#   From: 2010.05.17/outbox.cif.g08.bks.cpg/sg11_7_cif.got.tgz:12490.got - 2010.06.03 12:22:45.
