data_PCOD9163862
_publ_section_title
;
Structure prediction by ZEFSAII (Michael W. Deem and Ramdas Pophale) SiO2 
 PCOD9163862
Probable space group: P 21/M
;
_chemical_formula_sum "Si O2"
_cell_formula_units_Z 30
_cell_length_a 10.557934
_cell_length_b 9.448468
_cell_length_c 13.199365
_cell_angle_alpha 90.000000
_cell_angle_beta 109.790641
_cell_angle_gamma 90.000000
_cell_volume 1238.949210
_symmetry_space_group_name_H-M "P 21/M"
_symmetry_group_IT_number 11
_symmetry_cell_setting 'monoclinic'
loop_
_space_group_symop_operation_xyz
x,y,z
-x,1/2+y,-z
-x,-y,-z
x,1/2-y,z
loop_
_atom_site_type_symbol
_atom_site_label
_atom_site_fract_x
_atom_site_fract_y
_atom_site_fract_z
Si Si1 0.181778 0.407186 0.380463
Si Si2 0.864709 0.410470 0.940811
Si Si3 0.996528 0.099159 0.770353
Si Si4 0.709205 0.911947 0.046972
Si Si5 0.540488 0.250000 0.544189
Si Si6 0.857239 0.420020 0.444726
Si Si7 0.443694 0.459357 0.342739
Si Si8 0.361007 0.914058 0.784074
O O1 0.180213 0.250000 0.424315
O O2 0.038762 0.457842 0.299179
O O3 0.217711 0.521862 0.475060
O O4 0.290863 0.410699 0.321590
O O5 0.871696 0.250000 0.985157
O O6 0.740752 0.494336 0.956273
O O7 0.881134 0.395409 0.825010
O O8 0.000000 0.500000 0.000000
O O9 0.986551 0.250000 0.709466
O O10 0.141273 0.095901 0.860904
O O11 0.666073 0.750000 0.014842
O O12 0.626833 0.991958 0.112001
O O13 0.519916 0.369763 0.449185
O O14 0.547318 0.124618 0.631527
O O15 0.870254 0.250000 0.448870
O O16 0.764943 0.459719 0.323101
O O17 0.000000 0.500000 0.500000
O O18 0.510416 0.425207 0.253777
O O19 0.338180 0.750000 0.805817
#
# Coordination Sequence:
#
# PCOD9163862 Si02
#       8
#     4   4   4   4   2   4   4   4
#     4  12  24  36  56  83 114 148 190 235 279 333
#     4   9  17  33  58  85 112 146 185 230 281 335
#     4   9  20  37  57  83 116 149 185 229 281 336
#     4  10  21  36  57  86 116 148 187 232 281 339
#     4  10  20  38  58  74 106 136 192 240 278 322
#     4  11  24  39  56  78 110 151 188 228 284 337
#     4  11  23  38  59  84 105 146 193 244 285 328
#     4  11  23  38  56  79 113 150 188 233 282 334
#
# _framework density 24.214068999999999
#
# number of rings (size 3 to 8) (size 9 to 14) (size 15 to 20)
#    0.000    1.600    1.333    4.800    4.667    6.400 
#    0.000    0.000    0.000    0.800    0.000    0.000 
#    0.000    0.000    0.000    0.000    0.000    0.000 
#
# Total GULP energy -167058.776773 kJ/mol
# GULP energy per Si atom -5568.625892 kJ/mol
# Density = 2.415896 g / cm^3
# Si number density = 24.214069 Si / 1000 Ang^3
#
#
#
# Elastic Constant Matrix: (Units=GPa)
#
#
# Indices 1 2 3 4 5 6 
#
# 1 84.1528 5.5617 13.9653 0.0000 -9.1089 0.0000
# 2 5.5617 167.9968 3.4751 0.0000 1.8701 0.0000
# 3 13.9653 3.4751 34.1532 0.0000 -13.0551 0.0000
# 4 0.0000 0.0000 0.0000 31.2281 0.0000 -21.8299
# 5 -9.1089 1.8701 -13.0551 0.0000 46.4862 0.0000
# 6 0.0000 0.0000 0.0000 -21.8299 0.0000 -7.9103
#
#
#
# Elastic Compliance Matrix: (Units=1/GPa)
#
#
# Indices 1 2 3 4 5 6 
#
# 1 0.012823 -0.000339 -0.004754 0.000000 0.001191 0.000000
# 2 -0.000339 0.005983 -0.000658 0.000000 -0.000492 0.000000
# 3 -0.004754 -0.000658 0.034666 0.000000 0.008831 0.000000
# 4 0.000000 0.000000 0.000000 0.010932 0.000000 -0.030170
# 5 0.001191 -0.000492 0.008831 0.000000 0.024245 0.000000
# 6 0.000000 0.000000 0.000000 -0.030170 0.000000 -0.043158
#
#
# Mechanical properties :
#
#
# Convention : Reuss Voigt Hill
#
# Bulk Modulus (GPa) = 23.82645 36.92299 30.37472
# Shear Modulus (GPa) = 70.43917 31.51419 50.97668
#
# Velocity S-wave (km/s) = 5.39938 3.61152 4.59328
# Velocity P-wave (km/s) = 6.98086 5.71598 6.37984
#
# Compressibility (1/GPa) = 0.04197017
#
# Stress axis : x y z
#
# Youngs Moduli (GPa) = 77.98239 167.14523 28.84674
#
# Poissons Ratio (x) = 0.05674 0.13712
# Poissons Ratio (y) = 0.02647 0.01898
# Poissons Ratio (z) = 0.37069 0.10998
#
# Static dielectric constant tensor:
#      x y z
#    x 2.044000 0.000000 -0.026500 
#    y 0.000000 1.966390 0.000000 
#    z -0.026500 0.000000 1.976450 
# 
# From -- ./inp_files/45017.got.cif
#   From: 2010.05.17/outbox.cif.g08.bks.cpg/sg11_23_cif.got.tgz:45017.got - 2010.06.03 12:22:45.
