data_PCOD9163804
_publ_section_title
;
Structure prediction by ZEFSAII (Michael W. Deem and Ramdas Pophale) SiO2 
 PCOD9163804
Probable space group: P 21/M
;
_chemical_formula_sum "Si O2"
_cell_formula_units_Z 28
_cell_length_a 22.637353
_cell_length_b 9.070633
_cell_length_c 24.951546
_cell_angle_alpha 90.000000
_cell_angle_beta 16.844564
_cell_angle_gamma 90.000000
_cell_volume 1484.648226
_symmetry_space_group_name_H-M "P 21/M"
_symmetry_group_IT_number 11
_symmetry_cell_setting 'monoclinic'
loop_
_space_group_symop_operation_xyz
x,y,z
-x,1/2+y,-z
-x,-y,-z
x,1/2-y,z
loop_
_atom_site_type_symbol
_atom_site_label
_atom_site_fract_x
_atom_site_fract_y
_atom_site_fract_z
Si Si1 0.150492 0.073806 0.439496
Si Si2 0.338264 0.426409 0.391981
Si Si3 0.627348 0.916666 0.434767
Si Si4 0.248744 0.076004 0.934933
Si Si5 0.307917 0.573478 0.196424
Si Si6 0.938204 0.416750 0.999711
Si Si7 0.812165 0.423961 0.371619
O O1 0.172816 0.250000 0.411150
O O2 0.235702 0.038508 0.424121
O O3 0.909202 0.039809 0.643933
O O4 0.272633 0.989260 0.286897
O O5 0.346647 0.250000 0.390540
O O6 0.563989 0.493923 0.200027
O O7 0.214384 0.495978 0.548887
O O8 0.552433 0.750000 0.508144
O O9 0.854187 0.907194 0.214217
O O10 0.500000 0.000000 0.500000
O O11 0.653885 0.005933 0.466587
O O12 0.288872 0.250000 0.895605
O O13 0.039495 0.056929 0.150167
O O14 0.212858 0.007099 0.907229
O O15 0.333761 0.750000 0.175047
O O16 0.500000 0.500000 0.000000
O O17 0.867694 0.250000 0.071515
O O18 0.000000 0.500000 0.000000
O O19 0.773649 0.250000 0.410187
#
# Coordination Sequence:
#
# PCOD9163804 Si02
#       7
#     4   4   4   4   4   4   4
#     4   9  21  40  59  87 123 159 203 245 286 345
#     4  11  23  39  62  87 117 159 199 243 297 352
#     4  10  21  36  55  79 107 141 184 233 290 352
#     4  10  22  40  59  82 114 150 193 244 296 354
#     4  10  20  37  63  92 125 162 199 243 292 342
#     4  10  21  36  55  79 107 142 185 234 291 354
#     4  10  22  40  59  81 113 150 192 242 294 353
#
# _framework density 18.859686
#
# number of rings (size 3 to 8) (size 9 to 14) (size 15 to 20)
#    0.000    2.000    0.000    2.571    2.000    6.286 
#    0.000    4.286    0.000    0.000    0.000    0.000 
#    0.000    0.000    0.000    0.000    0.000    0.000 
#
# Total GULP energy -156402.538830 kJ/mol
# GULP energy per Si atom -5585.804958 kJ/mol
# Density = 1.881676 g / cm^3
# Si number density = 18.859686 Si / 1000 Ang^3
#
#
#
# Elastic Constant Matrix: (Units=GPa)
#
#
# Indices 1 2 3 4 5 6 
#
# 1 194.6520 107.7148 73.3229 0.0000 -6.0685 0.0000
# 2 107.7148 143.6132 67.4667 0.0000 1.4928 0.0000
# 3 73.3229 67.4667 116.3532 0.0000 10.7107 0.0000
# 4 0.0000 0.0000 0.0000 31.7968 0.0000 1.7317
# 5 -6.0685 1.4928 10.7107 0.0000 22.8455 0.0000
# 6 0.0000 0.0000 0.0000 1.7317 0.0000 34.7630
#
#
#
# Elastic Compliance Matrix: (Units=1/GPa)
#
#
# Indices 1 2 3 4 5 6 
#
# 1 0.009684 -0.005843 -0.003121 0.000000 0.004418 0.000000
# 2 -0.005843 0.013190 -0.003912 0.000000 -0.000580 0.000000
# 3 -0.003121 -0.003912 0.013464 0.000000 -0.006886 0.000000
# 4 0.000000 0.000000 0.000000 0.031535 0.000000 -0.001571
# 5 0.004418 -0.000580 -0.006886 0.000000 0.048212 0.000000
# 6 0.000000 0.000000 0.000000 -0.001571 0.000000 0.028844
#
#
# Mechanical properties :
#
#
# Convention : Reuss Voigt Hill
#
# Bulk Modulus (GPa) = 94.48067 105.73637 100.10852
# Shear Modulus (GPa) = 28.70076 31.62200 30.16138
#
# Velocity S-wave (km/s) = 3.90526 4.09919 4.00340
# Velocity P-wave (km/s) = 8.39882 8.86516 8.63514
#
# Compressibility (1/GPa) = 0.01058418
#
# Stress axis : x y z
#
# Youngs Moduli (GPa) = 103.26016 75.81689 74.27228
#
# Poissons Ratio (x) = 0.44301 0.23183
# Poissons Ratio (y) = 0.60336 0.29058
# Poissons Ratio (z) = 0.32231 0.29663
#
# Static dielectric constant tensor:
#      x y z
#    x 1.619850 0.000000 0.003230 
#    y 0.000000 1.649270 0.000000 
#    z 0.003230 0.000000 1.666370 
# 
# From -- ./inp_files/69770.got.cif
#   From: 2010.05.17/outbox.cif.g08.bks.cpg/sg11_35_cif.got.tgz:69770.got - 2010.06.03 12:22:45.
