data_PCOD9163014
_publ_section_title
;
Structure prediction by ZEFSAII (Michael W. Deem and Ramdas Pophale) SiO2 
 PCOD9163014
Probable space group: P 21/M
;
_chemical_formula_sum "Si O2"
_cell_formula_units_Z 28
_cell_length_a 5.467418
_cell_length_b 16.534450
_cell_length_c 13.495786
_cell_angle_alpha 90.000000
_cell_angle_beta 110.440926
_cell_angle_gamma 90.000000
_cell_volume 1143.207310
_symmetry_space_group_name_H-M "P 21/M"
_symmetry_group_IT_number 11
_symmetry_cell_setting 'monoclinic'
loop_
_space_group_symop_operation_xyz
x,y,z
-x,1/2+y,-z
-x,-y,-z
x,1/2-y,z
loop_
_atom_site_type_symbol
_atom_site_label
_atom_site_fract_x
_atom_site_fract_y
_atom_site_fract_z
Si Si1 0.819527 0.660120 0.573382
Si Si2 0.221298 0.519815 0.111987
Si Si3 0.028851 0.606247 0.804895
Si Si4 0.149265 0.036527 0.680755
Si Si5 0.714741 0.433238 0.472254
Si Si6 0.443977 0.840529 0.022381
Si Si7 0.039506 0.340160 0.813068
O O1 0.771061 0.750000 0.530150
O O2 0.918532 0.659315 0.700929
O O3 0.545579 0.613301 0.537629
O O4 0.059606 0.622744 0.545118
O O5 0.213046 0.434553 0.168820
O O6 0.155873 0.589412 0.183464
O O7 0.416720 0.572940 0.074028
O O8 0.000000 0.500000 0.000000
O O9 0.166479 0.530013 0.769564
O O10 0.246967 0.648805 0.903091
O O11 0.179436 0.124352 0.734132
O O12 0.863010 0.034165 0.590161
O O13 0.325522 0.003562 0.615852
O O14 0.376762 0.750000 0.056942
O O15 0.757867 0.836156 0.065514
O O16 0.940170 0.250000 0.781004
#
# Coordination Sequence:
#
# PCOD9163014 Si02
#       7
#     4   4   4   4   4   4   4
#     4  11  23  42  66  97 131 168 212 264 325 382
#     4   9  19  35  55  82 113 160 206 251 302 367
#     4   9  20  37  59  88 119 164 209 260 311 379
#     4   9  21  40  64  91 120 163 212 261 316 384
#     4  10  23  43  68  94 128 169 213 269 319 380
#     4  10  20  36  57  86 124 160 203 257 313 370
#     4  10  21  37  59  87 124 162 204 258 317 377
#
# _framework density 24.492497
#
# number of rings (size 3 to 8) (size 9 to 14) (size 15 to 20)
#    0.000    2.286    0.000    1.286    2.000   11.429 
#   10.286    0.000    0.000    0.000    0.000    0.000 
#    0.000    0.000    0.000    0.000    0.000    0.000 
#
# Total GULP energy -156000.664131 kJ/mol
# GULP energy per Si atom -5571.452290 kJ/mol
# Density = 2.443675 g / cm^3
# Si number density = 24.492497 Si / 1000 Ang^3
#
#
#
# Elastic Constant Matrix: (Units=GPa)
#
#
# Indices 1 2 3 4 5 6 
#
# 1 90.1668 35.7875 24.1390 0.0000 2.3312 0.0000
# 2 35.7875 128.1186 19.4874 0.0000 -11.8669 0.0000
# 3 24.1390 19.4874 75.8148 0.0000 8.9214 0.0000
# 4 0.0000 0.0000 0.0000 19.6603 0.0000 9.6526
# 5 2.3312 -11.8669 8.9214 0.0000 24.0417 0.0000
# 6 0.0000 0.0000 0.0000 9.6526 0.0000 23.0480
#
#
#
# Elastic Compliance Matrix: (Units=1/GPa)
#
#
# Indices 1 2 3 4 5 6 
#
# 1 0.013337 -0.003413 -0.003157 0.000000 -0.001806 0.000000
# 2 -0.003413 0.009615 -0.002073 0.000000 0.005846 0.000000
# 3 -0.003157 -0.002073 0.015489 0.000000 -0.006465 0.000000
# 4 0.000000 0.000000 0.000000 0.064030 0.000000 -0.026816
# 5 -0.001806 0.005846 -0.006465 0.000000 0.047054 0.000000
# 6 0.000000 0.000000 0.000000 -0.026816 0.000000 0.054619
#
#
# Mechanical properties :
#
#
# Convention : Reuss Voigt Hill
#
# Bulk Modulus (GPa) = 47.26682 50.32533 48.79608
# Shear Modulus (GPa) = 21.88379 27.66241 24.77310
#
# Velocity S-wave (km/s) = 2.99237 3.36434 3.18379
# Velocity P-wave (km/s) = 5.59280 5.97357 5.78632
#
# Compressibility (1/GPa) = 0.02115649
#
# Stress axis : x y z
#
# Youngs Moduli (GPa) = 74.98063 104.00101 64.56349
#
# Poissons Ratio (x) = 0.35491 0.20380
# Poissons Ratio (y) = 0.25587 0.13383
# Poissons Ratio (z) = 0.23669 0.21559
#
# Static dielectric constant tensor:
#      x y z
#    x 2.067510 0.000000 -0.054750 
#    y 0.000000 1.972640 0.000000 
#    z -0.054750 0.000000 1.985900 
# 
# From -- ./inp_files/46079.got.cif
#   From: 2010.05.17/outbox.cif.g08.bks.cpg/sg11_24_cif.got.tgz:46079.got - 2010.06.03 12:22:45.
