data_PCOD9163169
_publ_section_title
;
Structure prediction by ZEFSAII (Michael W. Deem and Ramdas Pophale) SiO2 
 PCOD9163169
Probable space group: P 21/M
;
_chemical_formula_sum "Si O2"
_cell_formula_units_Z 24
_cell_length_a 15.369453
_cell_length_b 17.699396
_cell_length_c 10.967552
_cell_angle_alpha 90.000000
_cell_angle_beta 27.424806
_cell_angle_gamma 90.000000
_cell_volume 1374.154353
_symmetry_space_group_name_H-M "P 21/M"
_symmetry_group_IT_number 11
_symmetry_cell_setting 'monoclinic'
loop_
_space_group_symop_operation_xyz
x,y,z
-x,1/2+y,-z
-x,-y,-z
x,1/2-y,z
loop_
_atom_site_type_symbol
_atom_site_label
_atom_site_fract_x
_atom_site_fract_y
_atom_site_fract_z
Si Si1 0.781210 0.048821 0.103038
Si Si2 0.617961 0.931106 0.503063
Si Si3 0.895377 0.951889 0.733660
Si Si4 0.524692 0.460463 0.838628
Si Si5 0.027833 0.336591 0.951398
Si Si6 0.856108 0.339130 0.436245
O O1 0.594044 0.085519 0.277109
O O2 0.910107 0.108278 0.011419
O O3 0.709499 0.988220 0.291052
O O4 0.886700 0.003787 0.865299
O O5 0.606733 0.977108 0.643027
O O6 0.754374 0.859788 0.334482
O O7 0.008932 0.877031 0.630135
O O8 0.680496 0.937308 0.958707
O O9 0.000000 0.000000 0.500000
O O10 0.666589 0.389726 0.669000
O O11 0.500000 0.500000 0.000000
O O12 0.995954 0.250000 0.958227
O O13 0.958436 0.346904 0.177238
O O14 0.822195 0.250000 0.499206
#
# Coordination Sequence:
#
# PCOD9163169 Si02
#       6
#     4   4   4   4   4   4
#     4  10  20  36  59  86 112 148 199 244 286 341
#     4  10  20  36  59  86 112 148 199 244 286 341
#     4  11  22  38  64  87 113 158 204 243 289 352
#     4  11  22  38  64  87 113 158 204 243 289 352
#     4  11  22  36  60  88 120 156 189 240 303 353
#     4  11  23  39  59  91 123 150 194 250 300 352
#
# _framework density 17.465285999999999
#
# number of rings (size 3 to 8) (size 9 to 14) (size 15 to 20)
#    0.000    1.333    5.000    1.500    0.000    1.333 
#    0.000    5.000    0.000    0.000    0.000    0.000 
#    0.000    0.000    0.000    0.000    0.000    0.000 
#
# Total GULP energy -134027.022034 kJ/mol
# GULP energy per Si atom -5584.459251 kJ/mol
# Density = 1.742553 g / cm^3
# Si number density = 17.465286 Si / 1000 Ang^3
#
#
#
# Elastic Constant Matrix: (Units=GPa)
#
#
# Indices 1 2 3 4 5 6 
#
# 1 80.0822 29.8771 17.1252 0.0000 14.0127 0.0000
# 2 29.8771 59.6259 21.2196 0.0000 -3.0176 0.0000
# 3 17.1252 21.2196 64.0774 0.0000 12.1522 0.0000
# 4 0.0000 0.0000 0.0000 16.3314 0.0000 13.6238
# 5 14.0127 -3.0176 12.1522 0.0000 39.0033 0.0000
# 6 0.0000 0.0000 0.0000 13.6238 0.0000 2.3645
#
#
#
# Elastic Compliance Matrix: (Units=1/GPa)
#
#
# Indices 1 2 3 4 5 6 
#
# 1 0.016984 -0.008707 -0.000394 0.000000 -0.006653 0.000000
# 2 -0.008707 0.023976 -0.006970 0.000000 0.007155 0.000000
# 3 -0.000394 -0.006970 0.019231 0.000000 -0.006390 0.000000
# 4 0.000000 0.000000 0.000000 -0.016086 0.000000 0.092684
# 5 -0.006653 0.007155 -0.006390 0.000000 0.030573 0.000000
# 6 0.000000 0.000000 0.000000 0.092684 0.000000 -0.111103
#
#
# Mechanical properties :
#
#
# Convention : Reuss Voigt Hill
#
# Bulk Modulus (GPa) = 35.65027 37.80328 36.72677
# Shear Modulus (GPa) = 986.78296 20.57741 503.68018
#
# Velocity S-wave (km/s) = 23.79545 3.43620 17.00045
# Velocity P-wave (km/s) = 27.84638 6.11842 20.16006
#
# Compressibility (1/GPa) = 0.02805028
#
# Stress axis : x y z
#
# Youngs Moduli (GPa) = 58.87976 41.70764 51.99837
#
# Poissons Ratio (x) = 0.36313 0.02050
# Poissons Ratio (y) = 0.51264 0.36242
# Poissons Ratio (z) = 0.02321 0.29070
#
# Static dielectric constant tensor:
#      x y z
#    x 1.597190 0.000000 -0.017770 
#    y 0.000000 1.557980 0.000000 
#    z -0.017770 0.000000 1.599850 
# 
# From -- ./inp_files/31448.got.cif
#   From: 2010.05.17/outbox.cif.g08.bks.cpg/sg11_16_cif.got.tgz:31448.got - 2010.06.03 12:22:45.
