data_PCOD9163232
_publ_section_title
;
Structure prediction by ZEFSAII (Michael W. Deem and Ramdas Pophale) SiO2 
 PCOD9163232
Probable space group: P 21/M
;
_chemical_formula_sum "Si O2"
_cell_formula_units_Z 26
_cell_length_a 19.419876
_cell_length_b 9.700504
_cell_length_c 7.089216
_cell_angle_alpha 90.000000
_cell_angle_beta 56.417914
_cell_angle_gamma 90.000000
_cell_volume 1112.584700
_symmetry_space_group_name_H-M "P 21/M"
_symmetry_group_IT_number 11
_symmetry_cell_setting 'monoclinic'
loop_
_space_group_symop_operation_xyz
x,y,z
-x,1/2+y,-z
-x,-y,-z
x,1/2-y,z
loop_
_atom_site_type_symbol
_atom_site_label
_atom_site_fract_x
_atom_site_fract_y
_atom_site_fract_z
Si Si1 0.578056 0.090991 0.838243
Si Si2 0.202297 0.593278 0.849332
Si Si3 0.516957 0.750000 0.530708
Si Si4 0.385406 0.970431 0.655467
Si Si5 0.243271 0.592184 0.340787
Si Si6 0.093049 0.403955 0.521984
Si Si7 0.954915 0.905677 0.835871
O O1 0.559352 0.250000 0.905091
O O2 0.596475 0.079350 0.587574
O O3 0.661565 0.047587 0.817791
O O4 0.500000 0.000000 0.000000
O O5 0.176679 0.750000 0.939733
O O6 0.287442 0.554187 0.827956
O O7 0.224742 0.594860 0.593624
O O8 0.129308 0.483998 0.984912
O O9 0.446102 0.870812 0.678551
O O10 0.584747 0.627238 0.378800
O O11 0.233948 0.750000 0.288059
O O12 0.176879 0.487938 0.361251
O O13 0.108864 0.250000 0.571411
O O14 0.050542 0.390020 0.383109
O O15 0.033577 0.494736 0.745225
O O16 0.964380 0.750000 0.898159
#
# Coordination Sequence:
#
# PCOD9163232 Si02
#       7
#     4   4   2   4   4   4   4
#     4  10  21  39  57  80 115 153 192 236 280 331
#     4  10  20  38  59  83 114 151 187 232 282 335
#     4  10  20  36  60  80 110 152 188 236 286 332
#     4  10  20  39  56  82 114 148 189 238 284 332
#     4   9  20  39  60  80 112 152 190 230 277 335
#     4  10  21  40  59  85 114 146 185 229 282 335
#     4  10  22  38  60  85 116 146 182 232 282 337
#
# _framework density 23.369005999999999
#
# number of rings (size 3 to 8) (size 9 to 14) (size 15 to 20)
#    0.000    2.154    1.538    1.846    2.154    3.692 
#    8.308    0.000    0.000    0.000    0.000    0.000 
#    0.000    0.000    0.000    0.000    0.000    0.000 
#
# Total GULP energy -144954.729032 kJ/mol
# GULP energy per Si atom -5575.181886 kJ/mol
# Density = 2.331582 g / cm^3
# Si number density = 23.369006 Si / 1000 Ang^3
#
#
#
# Elastic Constant Matrix: (Units=GPa)
#
#
# Indices 1 2 3 4 5 6 
#
# 1 77.5846 66.7159 21.2588 0.0000 -28.3080 0.0000
# 2 66.7159 220.3269 42.7910 0.0000 -54.7087 0.0000
# 3 21.2588 42.7910 90.2312 0.0000 -32.1928 0.0000
# 4 0.0000 0.0000 0.0000 35.8012 0.0000 6.9806
# 5 -28.3080 -54.7087 -32.1928 0.0000 56.8690 0.0000
# 6 0.0000 0.0000 0.0000 6.9806 0.0000 55.6288
#
#
#
# Elastic Compliance Matrix: (Units=1/GPa)
#
#
# Indices 1 2 3 4 5 6 
#
# 1 0.018480 -0.004306 -0.000636 0.000000 0.004696 0.000000
# 2 -0.004306 0.007036 -0.000842 0.000000 0.004149 0.000000
# 3 -0.000636 -0.000842 0.014072 0.000000 0.006839 0.000000
# 4 0.000000 0.000000 0.000000 0.028633 0.000000 -0.003593
# 5 0.004696 0.004149 0.006839 0.000000 0.027785 0.000000
# 6 0.000000 0.000000 0.000000 -0.003593 0.000000 0.018427
#
#
# Mechanical properties :
#
#
# Convention : Reuss Voigt Hill
#
# Bulk Modulus (GPa) = 35.69004 72.18602 53.93803
# Shear Modulus (GPa) = 36.94361 46.81826 41.88093
#
# Velocity S-wave (km/s) = 3.98034 4.48083 4.23798
# Velocity P-wave (km/s) = 6.03570 7.59784 6.86137
#
# Compressibility (1/GPa) = 0.02801902
#
# Stress axis : x y z
#
# Youngs Moduli (GPa) = 54.11307 142.11874 71.06318
#
# Poissons Ratio (x) = 0.61198 0.04522
# Poissons Ratio (y) = 0.23302 0.05984
# Poissons Ratio (z) = 0.03443 0.11968
#
# Static dielectric constant tensor:
#      x y z
#    x 1.938590 0.000000 0.097340 
#    y 0.000000 1.822730 0.000000 
#    z 0.097340 0.000000 1.942610 
# 
# From -- ./inp_files/26056.got.cif
#   From: 2010.05.17/outbox.cif.g08.bks.cpg/sg11_14_cif.got.tgz:26056.got - 2010.06.03 12:22:45.
