data_PCOD9163026
_publ_section_title
;
Structure prediction by ZEFSAII (Michael W. Deem and Ramdas Pophale) SiO2 
 PCOD9163026
Probable space group: P 21/M
;
_chemical_formula_sum "Si O2"
_cell_formula_units_Z 24
_cell_length_a 22.740125
_cell_length_b 8.700769
_cell_length_c 9.953110
_cell_angle_alpha 90.000000
_cell_angle_beta 136.220987
_cell_angle_gamma 90.000000
_cell_volume 1362.508698
_symmetry_space_group_name_H-M "P 21/M"
_symmetry_group_IT_number 11
_symmetry_cell_setting 'monoclinic'
loop_
_space_group_symop_operation_xyz
x,y,z
-x,1/2+y,-z
-x,-y,-z
x,1/2-y,z
loop_
_atom_site_type_symbol
_atom_site_label
_atom_site_fract_x
_atom_site_fract_y
_atom_site_fract_z
Si Si1 0.472956 0.933185 0.810484
Si Si2 0.368037 0.566989 0.067296
Si Si3 0.093315 0.065561 0.636370
Si Si4 0.774250 0.935385 0.364184
Si Si5 0.245299 0.064378 0.082004
Si Si6 0.713175 0.564790 0.550376
O O1 0.475698 0.750000 0.821456
O O2 0.541093 0.993759 0.815009
O O3 0.379024 0.990577 0.620488
O O4 0.500000 0.000000 0.000000
O O5 0.374341 0.750000 0.078111
O O6 0.324021 0.507225 0.130590
O O7 0.304238 0.512198 0.843560
O O8 0.087886 0.250000 0.630340
O O9 0.140449 0.021129 0.575078
O O10 0.159221 0.017801 0.862470
O O11 0.000000 0.000000 0.500000
O O12 0.764361 0.750000 0.334664
O O13 0.769182 0.975464 0.512268
O O14 0.251586 0.250000 0.081888
O O15 0.247814 0.020704 0.241957
O O16 0.702960 0.750000 0.533182
#
# Coordination Sequence:
#
# PCOD9163026 Si02
#       6
#     4   4   4   4   4   4
#     4  12  23  35  53  79 111 145 186 229 266 313
#     4  11  21  34  54  79 107 146 188 226 268 315
#     4   9  18  34  56  81 107 139 178 221 269 325
#     4   9  18  34  56  79 106 140 180 225 272 323
#     4   9  20  38  57  79 109 143 180 224 277 327
#     4  10  20  36  58  80 106 143 183 228 277 319
#
# _framework density 17.614567000000001
#
# number of rings (size 3 to 8) (size 9 to 14) (size 15 to 20)
#    0.000    2.000    1.667    4.000    0.000    4.000 
#    0.000    0.833    0.000    0.000    0.000    0.000 
#    0.000    0.000    0.000    0.000    0.000    0.000 
#
# Total GULP energy -133969.786233 kJ/mol
# GULP energy per Si atom -5582.074426 kJ/mol
# Density = 1.757448 g / cm^3
# Si number density = 17.614567 Si / 1000 Ang^3
#
#
#
# Elastic Constant Matrix: (Units=GPa)
#
#
# Indices 1 2 3 4 5 6 
#
# 1 173.2374 47.0791 99.4820 0.0000 -3.2473 0.0000
# 2 47.0791 37.3456 36.1344 0.0000 -4.8852 0.0000
# 3 99.4820 36.1344 103.2615 0.0000 -14.1749 0.0000
# 4 0.0000 0.0000 0.0000 22.7774 0.0000 6.2858
# 5 -3.2473 -4.8852 -14.1749 0.0000 36.3022 0.0000
# 6 0.0000 0.0000 0.0000 6.2858 0.0000 28.4153
#
#
#
# Elastic Compliance Matrix: (Units=1/GPa)
#
#
# Indices 1 2 3 4 5 6 
#
# 1 0.014669 -0.007271 -0.012195 0.000000 -0.004428 0.000000
# 2 -0.007271 0.044089 -0.008134 0.000000 0.002107 0.000000
# 3 -0.012195 -0.008134 0.025337 0.000000 0.007708 0.000000
# 4 0.000000 0.000000 0.000000 0.046757 0.000000 -0.010343
# 5 -0.004428 0.002107 0.007708 0.000000 0.030444 0.000000
# 6 0.000000 0.000000 0.000000 -0.010343 0.000000 0.037480
#
#
# Mechanical properties :
#
#
# Convention : Reuss Voigt Hill
#
# Bulk Modulus (GPa) = 34.60871 75.47060 55.03966
# Shear Modulus (GPa) = 18.96757 26.24224 22.60491
#
# Velocity S-wave (km/s) = 3.28504 3.86398 3.58621
# Velocity P-wave (km/s) = 5.83773 7.92753 6.96150
#
# Compressibility (1/GPa) = 0.02889446
#
# Stress axis : x y z
#
# Youngs Moduli (GPa) = 68.17325 22.68141 39.46771
#
# Poissons Ratio (x) = 0.16492 0.48131
# Poissons Ratio (y) = 0.49571 0.32102
# Poissons Ratio (z) = 0.83137 0.18448
#
# Static dielectric constant tensor:
#      x y z
#    x 1.603110 0.000000 -0.026900 
#    y 0.000000 1.591600 0.000000 
#    z -0.026900 0.000000 1.581790 
# 
# From -- ./inp_files/25728.got.cif
#   From: 2010.05.17/outbox.cif.g08.bks.cpg/sg11_13_cif.got.tgz:25728.got - 2010.06.03 12:22:45.
