data_PCOD9163503
_publ_section_title
;
Structure prediction by ZEFSAII (Michael W. Deem and Ramdas Pophale) SiO2 
 PCOD9163503
Probable space group: P 21/M
;
_chemical_formula_sum "Si O2"
_cell_formula_units_Z 24
_cell_length_a 9.501835
_cell_length_b 8.562102
_cell_length_c 32.646903
_cell_angle_alpha 90.000000
_cell_angle_beta 28.989249
_cell_angle_gamma 90.000000
_cell_volume 1287.223777
_symmetry_space_group_name_H-M "P 21/M"
_symmetry_group_IT_number 11
_symmetry_cell_setting 'monoclinic'
loop_
_space_group_symop_operation_xyz
x,y,z
-x,1/2+y,-z
-x,-y,-z
x,1/2-y,z
loop_
_atom_site_type_symbol
_atom_site_label
_atom_site_fract_x
_atom_site_fract_y
_atom_site_fract_z
Si Si1 0.174058 0.561636 0.577888
Si Si2 0.793842 0.437974 0.262871
Si Si3 0.648376 0.436267 0.921383
Si Si4 0.144899 0.936395 0.421573
Si Si5 0.679749 0.062121 0.074352
Si Si6 0.118459 0.439209 0.263554
O O1 0.500000 0.500000 0.500000
O O2 0.175881 0.750000 0.576488
O O3 0.028196 0.499732 0.573673
O O4 0.995886 0.507770 0.663505
O O5 0.780080 0.250000 0.265750
O O6 0.477738 0.506924 0.335531
O O7 0.033044 0.494334 0.169270
O O8 0.915460 0.487511 0.276879
O O9 0.665675 0.250000 0.918229
O O10 0.450705 0.492111 0.933915
O O11 0.500000 0.500000 0.000000
O O12 0.132587 0.750000 0.424960
O O13 0.000000 0.000000 0.500000
O O14 0.680810 0.250000 0.071289
O O15 0.447821 0.016007 0.168570
O O16 0.000000 0.000000 0.000000
O O17 0.109277 0.250000 0.266241
#
# Coordination Sequence:
#
# PCOD9163503 Si02
#       6
#     4   4   4   4   4   4
#     4  11  22  39  61  87 117 153 193 239 290 347
#     4  10  20  39  63  88 117 152 193 244 297 351
#     4  11  22  38  59  86 118 157 200 246 295 349
#     4  12  25  41  60  87 119 156 199 245 293 348
#     4  10  20  37  58  84 116 154 196 242 291 346
#     4   8  18  36  59  82 111 148 187 230 287 347
#
# _framework density 18.644777000000001
#
# number of rings (size 3 to 8) (size 9 to 14) (size 15 to 20)
#    0.000    1.667    0.000    6.500    0.000    2.667 
#    0.000   14.167    0.000    0.000    0.000    0.000 
#    0.000    0.000    0.000    0.000    0.000    0.000 
#
# Total GULP energy -134110.227392 kJ/mol
# GULP energy per Si atom -5587.926141 kJ/mol
# Density = 1.860234 g / cm^3
# Si number density = 18.644777 Si / 1000 Ang^3
#
#
#
# Elastic Constant Matrix: (Units=GPa)
#
#
# Indices 1 2 3 4 5 6 
#
# 1 134.3417 52.2478 127.3984 0.0000 -2.4599 0.0000
# 2 52.2478 118.2618 62.9019 0.0000 -0.2857 0.0000
# 3 127.3984 62.9019 203.7762 0.0000 3.0191 0.0000
# 4 0.0000 0.0000 0.0000 34.3558 0.0000 -4.6454
# 5 -2.4599 -0.2857 3.0191 0.0000 44.2151 0.0000
# 6 0.0000 0.0000 0.0000 -4.6454 0.0000 33.7424
#
#
#
# Elastic Compliance Matrix: (Units=1/GPa)
#
#
# Indices 1 2 3 4 5 6 
#
# 1 0.019009 -0.002463 -0.011151 0.000000 0.001803 0.000000
# 2 -0.002463 0.010439 -0.001683 0.000000 0.000045 0.000000
# 3 -0.011151 -0.001683 0.012420 0.000000 -0.001479 0.000000
# 4 0.000000 0.000000 0.000000 0.029659 0.000000 0.004083
# 5 0.001803 0.000045 -0.001479 0.000000 0.022818 0.000000
# 6 0.000000 0.000000 0.000000 0.004083 0.000000 0.030198
#
#
# Mechanical properties :
#
#
# Convention : Reuss Voigt Hill
#
# Bulk Modulus (GPa) = 88.69407 104.60843 96.65125
# Shear Modulus (GPa) = 31.46711 36.71810 34.09260
#
# Velocity S-wave (km/s) = 4.11264 4.44255 4.28077
# Velocity P-wave (km/s) = 8.38006 9.08531 8.73980
#
# Compressibility (1/GPa) = 0.01127471
#
# Stress axis : x y z
#
# Youngs Moduli (GPa) = 52.60723 95.79123 80.51489
#
# Poissons Ratio (x) = 0.23592 0.89778
# Poissons Ratio (y) = 0.12956 0.13554
# Poissons Ratio (z) = 0.58660 0.16125
#
# Static dielectric constant tensor:
#      x y z
#    x 1.606010 0.000000 0.009590 
#    y 0.000000 1.631880 0.000000 
#    z 0.009590 0.000000 1.637450 
# 
# From -- ./inp_files/60199.got.cif
#   From: 2010.05.17/outbox.cif.g08.bks.cpg/sg11_31_cif.got.tgz:60199.got - 2010.06.03 12:22:45.
