data_PCOD9163549
_publ_section_title
;
Structure prediction by ZEFSAII (Michael W. Deem and Ramdas Pophale) SiO2 
 PCOD9163549
Probable space group: P 21/M
;
_chemical_formula_sum "Si O2"
_cell_formula_units_Z 28
_cell_length_a 9.614920
_cell_length_b 8.435761
_cell_length_c 28.065118
_cell_angle_alpha 90.000000
_cell_angle_beta 142.062240
_cell_angle_gamma 90.000000
_cell_volume 1399.504429
_symmetry_space_group_name_H-M "P 21/M"
_symmetry_group_IT_number 11
_symmetry_cell_setting 'monoclinic'
loop_
_space_group_symop_operation_xyz
x,y,z
-x,1/2+y,-z
-x,-y,-z
x,1/2-y,z
loop_
_atom_site_type_symbol
_atom_site_label
_atom_site_fract_x
_atom_site_fract_y
_atom_site_fract_z
Si Si1 0.786237 0.439720 0.970413
Si Si2 0.697021 0.058443 0.517712
Si Si3 0.444167 0.941679 0.626730
Si Si4 0.245430 0.940701 0.932009
Si Si5 0.212128 0.060470 0.660844
Si Si6 0.034538 0.443594 0.234895
Si Si7 0.346321 0.560303 0.796377
O O1 0.768231 0.250000 0.964172
O O2 0.556120 0.508020 0.885877
O O3 0.835206 0.489400 0.037830
O O4 0.000000 0.500000 0.000000
O O5 0.691113 0.250000 0.517679
O O6 0.654799 0.009704 0.451335
O O7 0.952294 0.004825 0.598710
O O8 0.500000 0.000000 0.500000
O O9 0.439668 0.750000 0.627394
O O10 0.706209 0.994742 0.697060
O O11 0.311636 0.001910 0.637356
O O12 0.245130 0.750000 0.929089
O O13 0.097772 0.998570 0.847994
O O14 0.500000 0.000000 0.000000
O O15 0.210266 0.250000 0.659126
O O16 0.354882 0.004311 0.745095
O O17 0.036223 0.250000 0.235746
O O18 0.885336 0.493695 0.239982
O O19 0.345870 0.750000 0.794204
#
# Coordination Sequence:
#
# PCOD9163549 Si02
#       7
#     4   4   4   4   4   4   4
#     4  11  24  39  59  88 123 159 201 251 303 360
#     4  10  22  40  64  92 124 159 200 247 297 357
#     4  10  21  39  63  90 119 158 203 245 293 358
#     4  10  20  37  59  85 116 154 197 247 295 349
#     4  11  24  40  58  89 128 159 195 248 301 354
#     4   9  19  36  60  87 114 148 200 250 292 350
#     4  11  22  40  64  86 115 159 204 249 302 360
#
# _framework density 20.007082
#
# number of rings (size 3 to 8) (size 9 to 14) (size 15 to 20)
#    0.000    1.714    1.429    2.571    2.000    3.429 
#    0.000    2.143    0.000    0.000    0.000    0.000 
#    0.000    0.000    0.000    0.000    0.000    0.000 
#
# Total GULP energy -156374.216117 kJ/mol
# GULP energy per Si atom -5584.793433 kJ/mol
# Density = 1.996155 g / cm^3
# Si number density = 20.007082 Si / 1000 Ang^3
#
#
#
# Elastic Constant Matrix: (Units=GPa)
#
#
# Indices 1 2 3 4 5 6 
#
# 1 129.0603 20.2846 17.6739 0.0000 -13.7348 0.0000
# 2 20.2846 19.4613 10.9209 0.0000 -5.7513 0.0000
# 3 17.6739 10.9209 82.9748 0.0000 -13.6466 0.0000
# 4 0.0000 0.0000 0.0000 21.4009 0.0000 2.2644
# 5 -13.7348 -5.7513 -13.6466 0.0000 42.3484 0.0000
# 6 0.0000 0.0000 0.0000 2.2644 0.0000 30.4715
#
#
#
# Elastic Compliance Matrix: (Units=1/GPa)
#
#
# Indices 1 2 3 4 5 6 
#
# 1 0.009417 -0.009020 -0.000547 0.000000 0.001653 0.000000
# 2 -0.009020 0.065349 -0.006020 0.000000 0.004009 0.000000
# 3 -0.000547 -0.006020 0.013513 0.000000 0.003360 0.000000
# 4 0.000000 0.000000 0.000000 0.047097 0.000000 -0.003500
# 5 0.001653 0.004009 0.003360 0.000000 0.025777 0.000000
# 6 0.000000 0.000000 0.000000 -0.003500 0.000000 0.033078
#
#
# Mechanical properties :
#
#
# Convention : Reuss Voigt Hill
#
# Bulk Modulus (GPa) = 17.51164 36.58393 27.04778
# Shear Modulus (GPa) = 20.45496 31.01863 25.73680
#
# Velocity S-wave (km/s) = 3.20095 3.94176 3.59051
# Velocity P-wave (km/s) = 4.73636 6.24835 5.54414
#
# Compressibility (1/GPa) = 0.05710489
#
# Stress axis : x y z
#
# Youngs Moduli (GPa) = 106.19359 15.30250 74.00143
#
# Poissons Ratio (x) = 0.13803 0.04046
# Poissons Ratio (y) = 0.95785 0.44551
# Poissons Ratio (z) = 0.05806 0.09213
#
# Static dielectric constant tensor:
#      x y z
#    x 1.753010 0.000000 -0.044360 
#    y 0.000000 1.688840 0.000000 
#    z -0.044360 0.000000 1.715310 
# 
# From -- ./inp_files/28565.got.cif
#   From: 2010.05.17/outbox.cif.g08.bks.cpg/sg11_15_cif.got.tgz:28565.got - 2010.06.03 12:22:45.
