data_PCOD9163839
_publ_section_title
;
Structure prediction by ZEFSAII (Michael W. Deem and Ramdas Pophale) SiO2 
 PCOD9163839
Probable space group: P 21/M
;
_chemical_formula_sum "Si O2"
_cell_formula_units_Z 24
_cell_length_a 8.755992
_cell_length_b 26.711780
_cell_length_c 7.303366
_cell_angle_alpha 90.000000
_cell_angle_beta 144.660879
_cell_angle_gamma 90.000000
_cell_volume 988.031072
_symmetry_space_group_name_H-M "P 21/M"
_symmetry_group_IT_number 11
_symmetry_cell_setting 'monoclinic'
loop_
_space_group_symop_operation_xyz
x,y,z
-x,1/2+y,-z
-x,-y,-z
x,1/2-y,z
loop_
_atom_site_type_symbol
_atom_site_label
_atom_site_fract_x
_atom_site_fract_y
_atom_site_fract_z
Si Si1 0.774974 0.148880 0.799309
Si Si2 0.428062 0.750000 0.506388
Si Si3 0.088881 0.250000 0.756175
Si Si4 0.421709 0.433715 0.256918
Si Si5 0.772106 0.086176 0.135914
Si Si6 0.260741 0.468306 0.486048
Si Si7 0.063669 0.359351 0.718330
O O1 0.624975 0.200970 0.663418
O O2 0.586628 0.107649 0.526008
O O3 0.997839 0.154039 0.864228
O O4 0.867942 0.127013 0.079955
O O5 0.212225 0.750000 0.462194
O O6 0.708339 0.750000 0.876410
O O7 0.135562 0.304548 0.706770
O O8 0.246642 0.457800 0.251736
O O9 0.615370 0.476735 0.373379
O O10 0.264774 0.404956 0.945888
O O11 0.979549 0.041047 0.304831
O O12 0.823089 0.115584 0.373315
O O13 0.482517 0.067803 0.794498
#
# Coordination Sequence:
#
# PCOD9163839 Si02
#       7
#     4   2   2   4   4   4   4
#     4  10  22  41  62  90 122 162 202 253 309 360
#     4  10  20  37  66  87 117 157 206 243 305 371
#     4  10  22  39  62  95 117 155 208 249 303 369
#     4  10  21  39  68  83 130 165 204 253 312 351
#     4  11  25  40  62  92 127 156 210 249 304 368
#     4  10  24  41  60  96 123 164 209 252 298 372
#     4  11  23  40  66  89 124 163 202 256 309 360
#
# _framework density 24.290735999999999
#
# number of rings (size 3 to 8) (size 9 to 14) (size 15 to 20)
#    0.000    1.667    3.333    0.000    4.667    4.000 
#    0.000    0.000    0.000    6.000    0.000    0.000 
#    0.000    0.000    0.000    0.000    0.000    0.000 
#
# Total GULP energy -134156.801693 kJ/mol
# GULP energy per Si atom -5589.866737 kJ/mol
# Density = 2.423545 g / cm^3
# Si number density = 24.290736 Si / 1000 Ang^3
#
#
#
# Elastic Constant Matrix: (Units=GPa)
#
#
# Indices 1 2 3 4 5 6 
#
# 1 59.1219 5.2743 20.0538 0.0000 -5.3454 0.0000
# 2 5.2743 147.9867 23.7030 0.0000 -23.5614 0.0000
# 3 20.0538 23.7030 86.7524 0.0000 -7.2118 0.0000
# 4 0.0000 0.0000 0.0000 40.5653 0.0000 10.9998
# 5 -5.3454 -23.5614 -7.2118 0.0000 27.1113 0.0000
# 6 0.0000 0.0000 0.0000 10.9998 0.0000 20.0392
#
#
#
# Elastic Compliance Matrix: (Units=1/GPa)
#
#
# Indices 1 2 3 4 5 6 
#
# 1 0.018555 0.000479 -0.004174 0.000000 0.002965 0.000000
# 2 0.000479 0.008082 -0.001766 0.000000 0.006648 0.000000
# 3 -0.004174 -0.001766 0.013067 0.000000 0.001118 0.000000
# 4 0.000000 0.000000 0.000000 0.028962 0.000000 -0.015898
# 5 0.002965 0.006648 0.001118 0.000000 0.043545 0.000000
# 6 0.000000 0.000000 0.000000 -0.015898 0.000000 0.058629
#
#
# Mechanical properties :
#
#
# Convention : Reuss Voigt Hill
#
# Bulk Modulus (GPa) = 34.74298 43.54700 39.14499
# Shear Modulus (GPa) = 26.12934 33.86516 29.99725
#
# Velocity S-wave (km/s) = 3.28333 3.73790 3.51796
# Velocity P-wave (km/s) = 5.35796 6.04942 5.71416
#
# Compressibility (1/GPa) = 0.02878279
#
# Stress axis : x y z
#
# Youngs Moduli (GPa) = 53.89321 123.73705 76.52634
#
# Poissons Ratio (x) = -0.05930 0.31940
# Poissons Ratio (y) = -0.02583 0.13516
# Poissons Ratio (z) = 0.22494 0.21855
#
# Static dielectric constant tensor:
#      x y z
#    x 2.044080 0.000000 0.031620 
#    y 0.000000 1.983470 0.000000 
#    z 0.031620 0.000000 1.875720 
# 
# From -- ./inp_files/2757.got.cif
#   From: 2010.05.17/outbox.cif.g08.bks.cpg/sg11_2_cif.got.tgz:2757.got - 2010.06.03 12:22:45.
