data_PCOD9163488
_publ_section_title
;
Structure prediction by ZEFSAII (Michael W. Deem and Ramdas Pophale) SiO2 
 PCOD9163488
Probable space group: P 21/M
;
_chemical_formula_sum "Si O2"
_cell_formula_units_Z 28
_cell_length_a 12.959176
_cell_length_b 8.780751
_cell_length_c 16.072840
_cell_angle_alpha 90.000000
_cell_angle_beta 55.561271
_cell_angle_gamma 90.000000
_cell_volume 1508.391972
_symmetry_space_group_name_H-M "P 21/M"
_symmetry_group_IT_number 11
_symmetry_cell_setting 'monoclinic'
loop_
_space_group_symop_operation_xyz
x,y,z
-x,1/2+y,-z
-x,-y,-z
x,1/2-y,z
loop_
_atom_site_type_symbol
_atom_site_label
_atom_site_fract_x
_atom_site_fract_y
_atom_site_fract_z
Si Si1 0.177071 0.066785 0.505851
Si Si2 0.939739 0.432146 0.716729
Si Si3 0.001831 0.931562 0.864923
Si Si4 0.279917 0.432361 0.278208
Si Si5 0.574713 0.431540 0.542794
Si Si6 0.803677 0.067843 0.083580
Si Si7 0.530599 0.932201 0.226008
O O1 0.183513 0.250000 0.507123
O O2 0.210278 0.021498 0.396407
O O3 0.042040 0.019158 0.600936
O O4 0.286024 0.998267 0.513456
O O5 0.928040 0.250000 0.720019
O O6 0.991188 0.485439 0.782039
O O7 0.806972 0.506702 0.755711
O O8 0.994398 0.750000 0.856664
O O9 0.128144 0.965934 0.859298
O O10 0.888575 0.988217 0.975005
O O11 0.288581 0.250000 0.271724
O O12 0.417688 0.503573 0.221397
O O13 0.500000 0.500000 0.500000
O O14 0.580618 0.250000 0.532815
O O15 0.507211 0.469367 0.661187
O O16 0.806938 0.250000 0.070233
O O17 0.663330 0.006798 0.145979
O O18 0.537440 0.750000 0.214947
#
# Coordination Sequence:
#
# PCOD9163488 Si02
#       7
#     4   4   4   4   4   4   4
#     4   9  20  36  54  79 112 152 191 231 278 329
#     4  11  22  36  57  84 116 150 190 236 283 332
#     4  10  22  39  59  86 115 146 187 232 281 337
#     4  10  20  37  58  82 114 151 193 235 277 332
#     4  10  21  34  51  78 113 149 188 232 275 329
#     4  10  21  39  62  86 113 146 185 231 285 339
#     4  10  21  37  58  82 111 150 188 228 283 338
#
# _framework density 18.562813999999999
#
# number of rings (size 3 to 8) (size 9 to 14) (size 15 to 20)
#    0.000    2.000    0.000    3.000    2.000    5.143 
#    0.000    0.714    0.000    0.000    0.000    0.000 
#    0.000    0.000    0.000    0.000    0.000    0.000 
#
# Total GULP energy -156404.050589 kJ/mol
# GULP energy per Si atom -5585.858950 kJ/mol
# Density = 1.852056 g / cm^3
# Si number density = 18.562814 Si / 1000 Ang^3
#
#
#
# Elastic Constant Matrix: (Units=GPa)
#
#
# Indices 1 2 3 4 5 6 
#
# 1 92.1397 17.2011 23.7087 0.0000 -22.8862 0.0000
# 2 17.2011 24.0891 6.3540 0.0000 -7.7580 0.0000
# 3 23.7087 6.3540 26.9918 0.0000 -13.9769 0.0000
# 4 0.0000 0.0000 0.0000 27.8962 0.0000 0.9127
# 5 -22.8862 -7.7580 -13.9769 0.0000 29.4384 0.0000
# 6 0.0000 0.0000 0.0000 0.9127 0.0000 34.1310
#
#
#
# Elastic Compliance Matrix: (Units=1/GPa)
#
#
# Indices 1 2 3 4 5 6 
#
# 1 0.016104 -0.007041 -0.009236 0.000000 0.006279 0.000000
# 2 -0.007041 0.049174 -0.002010 0.000000 0.006531 0.000000
# 3 -0.009236 -0.002010 0.055217 0.000000 0.018506 0.000000
# 4 0.000000 0.000000 0.000000 0.035879 0.000000 -0.000959
# 5 0.006279 0.006531 0.018506 0.000000 0.049358 0.000000
# 6 0.000000 0.000000 0.000000 -0.000959 0.000000 0.029325
#
#
# Mechanical properties :
#
#
# Convention : Reuss Voigt Hill
#
# Bulk Modulus (GPa) = 11.91594 26.41649 19.16622
# Shear Modulus (GPa) = 16.68883 24.69024 20.68953
#
# Velocity S-wave (km/s) = 3.00166 3.65100 3.34214
# Velocity P-wave (km/s) = 4.29494 5.65993 5.02401
#
# Compressibility (1/GPa) = 0.08392117
#
# Stress axis : x y z
#
# Youngs Moduli (GPa) = 62.09783 20.33615 18.11041
#
# Poissons Ratio (x) = 0.14318 0.16727
# Poissons Ratio (y) = 0.43721 0.03639
# Poissons Ratio (z) = 0.57355 0.04087
#
# Static dielectric constant tensor:
#      x y z
#    x 1.619900 0.000000 0.003880 
#    y 0.000000 1.615040 0.000000 
#    z 0.003880 0.000000 1.632570 
# 
# From -- ./inp_files/37878.got.cif
#   From: 2010.05.17/outbox.cif.g08.bks.cpg/sg11_19_cif.got.tgz:37878.got - 2010.06.03 12:22:45.
