data_PCOD9163440
_publ_section_title
;
Structure prediction by ZEFSAII (Michael W. Deem and Ramdas Pophale) SiO2 
 PCOD9163440
Probable space group: P 21/M
;
_chemical_formula_sum "Si O2"
_cell_formula_units_Z 30
_cell_length_a 11.465653
_cell_length_b 13.985499
_cell_length_c 9.065279
_cell_angle_alpha 90.000000
_cell_angle_beta 65.075948
_cell_angle_gamma 90.000000
_cell_volume 1318.261670
_symmetry_space_group_name_H-M "P 21/M"
_symmetry_group_IT_number 11
_symmetry_cell_setting 'monoclinic'
loop_
_space_group_symop_operation_xyz
x,y,z
-x,1/2+y,-z
-x,-y,-z
x,1/2-y,z
loop_
_atom_site_type_symbol
_atom_site_label
_atom_site_fract_x
_atom_site_fract_y
_atom_site_fract_z
Si Si1 0.500385 0.136399 0.381999
Si Si2 0.187720 0.142387 0.997548
Si Si3 0.416652 0.017708 0.900572
Si Si4 0.145631 0.909925 0.340805
Si Si5 0.791642 0.597760 0.358213
Si Si6 0.001124 0.250000 0.678266
Si Si7 0.606134 0.360697 0.644298
Si Si8 0.974333 0.424220 0.311063
O O1 0.498067 0.250000 0.349900
O O2 0.354067 0.105275 0.504112
O O3 0.588054 0.121694 0.480761
O O4 0.558945 0.071088 0.221883
O O5 0.228922 0.250000 0.020592
O O6 0.273013 0.053000 0.008546
O O7 0.194823 0.134931 0.816933
O O8 0.044719 0.127324 0.139751
O O9 0.471407 0.110487 0.786454
O O10 0.500000 0.000000 0.000000
O O11 0.109476 0.833893 0.237634
O O12 0.290473 0.919641 0.317302
O O13 0.080103 0.862973 0.523917
O O14 0.080682 0.008659 0.332901
O O15 0.886971 0.666558 0.396918
O O16 0.856801 0.493171 0.327584
O O17 0.636204 0.250000 0.649913
#
# Coordination Sequence:
#
# PCOD9163440 Si02
#       8
#     4   4   4   4   4   2   4   4
#     4  11  24  45  75 103 130 186 238 286 350 418
#     4  12  25  44  68 100 140 187 235 278 354 419
#     4  12  27  44  66 103 143 182 231 291 348 419
#     4  10  21  41  63 101 131 177 224 284 344 409
#     4  11  21  44  70 100 133 176 235 290 343 414
#     4  10  20  36  66  94 136 164 226 284 336 406
#     4  11  22  41  72  97 136 177 230 287 345 415
#     4  10  24  40  66  97 137 178 227 282 347 409
#
# _framework density 22.757241
#
# number of rings (size 3 to 8) (size 9 to 14) (size 15 to 20)
#    0.000    1.067    3.333    2.800    2.800    3.200 
#    0.000    0.000    1.467    0.000    0.000    0.000 
#    0.000    0.000    0.000    0.000    0.000    0.000 
#
# Total GULP energy -167023.721693 kJ/mol
# GULP energy per Si atom -5567.457390 kJ/mol
# Density = 2.270544 g / cm^3
# Si number density = 22.757241 Si / 1000 Ang^3
#
#
#
# Elastic Constant Matrix: (Units=GPa)
#
#
# Indices 1 2 3 4 5 6 
#
# 1 85.8128 32.4688 3.4068 0.0000 -11.8575 0.0000
# 2 32.4688 96.7657 36.9117 0.0000 -0.6676 0.0000
# 3 3.4068 36.9117 74.6064 0.0000 -18.4356 0.0000
# 4 0.0000 0.0000 0.0000 18.4080 0.0000 3.0818
# 5 -11.8575 -0.6676 -18.4356 0.0000 32.2226 0.0000
# 6 0.0000 0.0000 0.0000 3.0818 0.0000 22.8439
#
#
#
# Elastic Compliance Matrix: (Units=1/GPa)
#
#
# Indices 1 2 3 4 5 6 
#
# 1 0.015172 -0.006824 0.004691 0.000000 0.008126 0.000000
# 2 -0.006824 0.016241 -0.009621 0.000000 -0.007680 0.000000
# 3 0.004691 -0.009621 0.021345 0.000000 0.013739 0.000000
# 4 0.000000 0.000000 0.000000 0.055579 0.000000 -0.007498
# 5 0.008126 -0.007680 0.013739 0.000000 0.041726 0.000000
# 6 0.000000 0.000000 0.000000 -0.007498 0.000000 0.044787
#
#
# Mechanical properties :
#
#
# Convention : Reuss Voigt Hill
#
# Bulk Modulus (GPa) = 34.18884 44.75107 39.46995
# Shear Modulus (GPa) = 21.91941 26.98806 24.45374
#
# Velocity S-wave (km/s) = 3.10689 3.44744 3.28159
# Velocity P-wave (km/s) = 5.28453 5.96269 5.63382
#
# Compressibility (1/GPa) = 0.02924931
#
# Stress axis : x y z
#
# Youngs Moduli (GPa) = 65.91104 61.57165 46.85017
#
# Poissons Ratio (x) = 0.42019 -0.21980
# Poissons Ratio (y) = 0.44980 0.45076
# Poissons Ratio (z) = -0.30922 0.59241
#
# Static dielectric constant tensor:
#      x y z
#    x 1.912470 0.000000 0.022600 
#    y 0.000000 1.975910 0.000000 
#    z 0.022600 0.000000 1.895870 
# 
# From -- ./inp_files/18026.got.cif
#   From: 2010.05.17/outbox.cif.g08.bks.cpg/sg11_10_cif.got.tgz:18026.got - 2010.06.03 12:22:45.
