data_PCOD9163063
_publ_section_title
;
Structure prediction by ZEFSAII (Michael W. Deem and Ramdas Pophale) SiO2 
 PCOD9163063
Probable space group: P 21/M
;
_chemical_formula_sum "Si O2"
_cell_formula_units_Z 24
_cell_length_a 18.873084
_cell_length_b 10.550990
_cell_length_c 12.789843
_cell_angle_alpha 90.000000
_cell_angle_beta 29.264440
_cell_angle_gamma 90.000000
_cell_volume 1244.999066
_symmetry_space_group_name_H-M "P 21/M"
_symmetry_group_IT_number 11
_symmetry_cell_setting 'monoclinic'
loop_
_space_group_symop_operation_xyz
x,y,z
-x,1/2+y,-z
-x,-y,-z
x,1/2-y,z
loop_
_atom_site_type_symbol
_atom_site_label
_atom_site_fract_x
_atom_site_fract_y
_atom_site_fract_z
Si Si1 0.119251 0.393286 0.318693
Si Si2 0.204605 0.395656 0.760809
Si Si3 0.175222 0.993295 0.031611
Si Si4 0.523383 0.109333 0.385401
Si Si5 0.632629 0.901773 0.830378
Si Si6 0.125987 0.399222 0.645157
O O1 0.066977 0.250000 0.408985
O O2 0.157109 0.406191 0.147352
O O3 0.265053 0.413129 0.198829
O O4 0.000000 0.500000 0.500000
O O5 0.157624 0.250000 0.835176
O O6 0.375890 0.395656 0.508990
O O7 0.125861 0.456310 0.762228
O O8 0.191623 0.456282 0.891725
O O9 0.024488 0.918708 0.220480
O O10 0.321799 0.915299 0.866269
O O11 0.526438 0.250000 0.430212
O O12 0.500000 0.000000 0.500000
O O13 0.594190 0.750000 0.870234
O O14 0.740159 0.940837 0.597559
O O15 0.500000 0.000000 0.000000
O O16 0.145929 0.250000 0.634425
#
# Coordination Sequence:
#
# PCOD9163063 Si02
#       6
#     4   4   4   4   4   4
#     4  11  24  42  64  91 123 158 202 257 310 365
#     4   9  19  35  54  82 117 156 195 239 292 351
#     4  11  20  35  59  87 119 153 200 245 304 353
#     4   9  19  34  56  83 115 154 198 241 293 354
#     4  10  23  43  63  88 119 159 204 251 303 359
#     4  10  20  36  58  83 119 155 197 246 292 353
#
# _framework density 19.277121999999999
#
# number of rings (size 3 to 8) (size 9 to 14) (size 15 to 20)
#    0.000    2.000    1.667    1.500    2.333    2.000 
#    0.000    0.000    0.000    2.000    0.000    0.000 
#    0.000    0.000    0.000    0.000    0.000    0.000 
#
# Total GULP energy -133619.364381 kJ/mol
# GULP energy per Si atom -5567.473516 kJ/mol
# Density = 1.923325 g / cm^3
# Si number density = 19.277122 Si / 1000 Ang^3
#
#
#
# Elastic Constant Matrix: (Units=GPa)
#
#
# Indices 1 2 3 4 5 6 
#
# 1 94.3273 26.0702 36.3132 0.0000 10.4108 0.0000
# 2 26.0702 86.2471 43.5120 0.0000 -13.9491 0.0000
# 3 36.3132 43.5120 117.6596 0.0000 -7.7435 0.0000
# 4 0.0000 0.0000 0.0000 26.4773 0.0000 -2.0410
# 5 10.4108 -13.9491 -7.7435 0.0000 30.5828 0.0000
# 6 0.0000 0.0000 0.0000 -2.0410 0.0000 26.8903
#
#
#
# Elastic Compliance Matrix: (Units=1/GPa)
#
#
# Indices 1 2 3 4 5 6 
#
# 1 0.013678 -0.003594 -0.003363 0.000000 -0.007147 0.000000
# 2 -0.003594 0.016080 -0.004347 0.000000 0.007457 0.000000
# 3 -0.003363 -0.004347 0.011277 0.000000 0.002018 0.000000
# 4 0.000000 0.000000 0.000000 0.037990 0.000000 0.002884
# 5 -0.007147 0.007457 0.002018 0.000000 0.039043 0.000000
# 6 0.000000 0.000000 0.000000 0.002884 0.000000 0.037407
#
#
# Mechanical properties :
#
#
# Convention : Reuss Voigt Hill
#
# Bulk Modulus (GPa) = 54.26345 56.66942 55.46643
# Shear Modulus (GPa) = 27.14076 29.61266 28.37671
#
# Velocity S-wave (km/s) = 3.75630 3.92363 3.84088
# Velocity P-wave (km/s) = 6.85736 7.07019 6.96459
#
# Compressibility (1/GPa) = 0.01842861
#
# Stress axis : x y z
#
# Youngs Moduli (GPa) = 73.11006 62.18964 88.67511
#
# Poissons Ratio (x) = 0.22350 0.29819
# Poissons Ratio (y) = 0.26275 0.38543
# Poissons Ratio (z) = 0.24585 0.27031
#
# Static dielectric constant tensor:
#      x y z
#    x 1.710050 0.000000 0.008940 
#    y 0.000000 1.667100 0.000000 
#    z 0.008940 0.000000 1.710750 
# 
# From -- ./inp_files/27561.got.cif
#   From: 2010.05.17/outbox.cif.g08.bks.cpg/sg11_14_cif.got.tgz:27561.got - 2010.06.03 12:22:45.
