data_PCOD9163322
_publ_section_title
;
Structure prediction by ZEFSAII (Michael W. Deem and Ramdas Pophale) SiO2 
 PCOD9163322
Probable space group: P 21/M
;
_chemical_formula_sum "Si O2"
_cell_formula_units_Z 28
_cell_length_a 14.887902
_cell_length_b 8.542190
_cell_length_c 12.916327
_cell_angle_alpha 90.000000
_cell_angle_beta 58.350182
_cell_angle_gamma 90.000000
_cell_volume 1398.329774
_symmetry_space_group_name_H-M "P 21/M"
_symmetry_group_IT_number 11
_symmetry_cell_setting 'monoclinic'
loop_
_space_group_symop_operation_xyz
x,y,z
-x,1/2+y,-z
-x,-y,-z
x,1/2-y,z
loop_
_atom_site_type_symbol
_atom_site_label
_atom_site_fract_x
_atom_site_fract_y
_atom_site_fract_z
Si Si1 0.603900 0.936372 0.493072
Si Si2 0.311522 0.562111 0.351401
Si Si3 0.995933 0.059429 0.182417
Si Si4 0.617928 0.938038 0.913470
Si Si5 0.232415 0.060626 0.986541
Si Si6 0.225478 0.937760 0.769081
Si Si7 0.926997 0.061204 0.452880
O O1 0.603049 0.750000 0.493715
O O2 0.500000 0.000000 0.500000
O O3 0.612688 0.998454 0.604721
O O4 0.703861 0.997421 0.366816
O O5 0.316271 0.750000 0.348149
O O6 0.338673 0.499599 0.221804
O O7 0.193175 0.511938 0.454494
O O8 0.997890 0.250000 0.179900
O O9 0.896425 0.010239 0.172864
O O10 0.969427 0.009342 0.315538
O O11 0.111924 0.006336 0.079395
O O12 0.617225 0.750000 0.912165
O O13 0.692610 0.987928 0.964042
O O14 0.500000 0.000000 0.000000
O O15 0.233077 0.250000 0.982240
O O16 0.266551 0.996269 0.854674
O O17 0.228751 0.750000 0.762610
O O18 0.928756 0.250000 0.451919
O O19 0.000000 0.000000 0.500000
#
# Coordination Sequence:
#
# PCOD9163322 Si02
#       7
#     4   4   4   4   4   4   4
#     4  12  26  44  68  96 128 166 213 263 319 383
#     4  11  23  43  68  95 130 166 211 264 320 379
#     4   9  18  37  61  88 126 166 206 255 313 375
#     4  11  25  44  66  91 126 169 218 269 321 377
#     4  10  22  40  63  91 126 170 217 263 313 373
#     4  11  22  40  65  94 130 167 208 260 320 379
#     4  10  20  36  60  90 127 168 208 257 312 374
#
# _framework density 20.023890000000002
#
# number of rings (size 3 to 8) (size 9 to 14) (size 15 to 20)
#    0.000    1.429    1.429    3.857    2.000    3.429 
#    0.000    1.429    0.000    0.000    0.000    0.000 
#    0.000    0.000    0.000    0.000    0.000    0.000 
#
# Total GULP energy -156579.309768 kJ/mol
# GULP energy per Si atom -5592.118206 kJ/mol
# Density = 1.997831 g / cm^3
# Si number density = 20.023890 Si / 1000 Ang^3
#
#
#
# Elastic Constant Matrix: (Units=GPa)
#
#
# Indices 1 2 3 4 5 6 
#
# 1 127.9739 28.6251 29.1507 0.0000 26.4853 0.0000
# 2 28.6251 47.0887 19.6371 0.0000 7.8800 0.0000
# 3 29.1507 19.6371 95.6866 0.0000 27.7663 0.0000
# 4 0.0000 0.0000 0.0000 33.8456 0.0000 2.8696
# 5 26.4853 7.8800 27.7663 0.0000 42.8307 0.0000
# 6 0.0000 0.0000 0.0000 2.8696 0.0000 29.7542
#
#
#
# Elastic Compliance Matrix: (Units=1/GPa)
#
#
# Indices 1 2 3 4 5 6 
#
# 1 0.010104 -0.005064 -0.000611 0.000000 -0.004920 0.000000
# 2 -0.005064 0.025836 -0.004051 0.000000 0.001004 0.000000
# 3 -0.000611 -0.004051 0.013724 0.000000 -0.007774 0.000000
# 4 0.000000 0.000000 0.000000 0.029790 0.000000 -0.002873
# 5 -0.004920 0.001004 -0.007774 0.000000 0.031245 0.000000
# 6 0.000000 0.000000 0.000000 -0.002873 0.000000 0.033886
#
#
# Mechanical properties :
#
#
# Convention : Reuss Voigt Hill
#
# Bulk Modulus (GPa) = 33.09904 47.28610 40.19257
# Shear Modulus (GPa) = 28.71775 34.17518 31.44647
#
# Velocity S-wave (km/s) = 3.79116 4.13573 3.96719
# Velocity P-wave (km/s) = 5.97742 6.81702 6.41098
#
# Compressibility (1/GPa) = 0.03021236
#
# Stress axis : x y z
#
# Youngs Moduli (GPa) = 98.96720 38.70539 72.86445
#
# Poissons Ratio (x) = 0.19601 0.04454
# Poissons Ratio (y) = 0.50118 0.29516
# Poissons Ratio (z) = 0.06049 0.15679
#
# Static dielectric constant tensor:
#      x y z
#    x 1.697370 0.000000 -0.009600 
#    y 0.000000 1.679650 0.000000 
#    z -0.009600 0.000000 1.683740 
# 
# From -- ./inp_files/37883.got.cif
#   From: 2010.05.17/outbox.cif.g08.bks.cpg/sg11_19_cif.got.tgz:37883.got - 2010.06.03 12:22:45.
