data_PCOD9163911
_publ_section_title
;
Structure prediction by ZEFSAII (Michael W. Deem and Ramdas Pophale) SiO2 
 PCOD9163911
Probable space group: P 21/M
;
_chemical_formula_sum "Si O2"
_cell_formula_units_Z 20
_cell_length_a 8.131580
_cell_length_b 10.015721
_cell_length_c 9.954270
_cell_angle_alpha 90.000000
_cell_angle_beta 75.750823
_cell_angle_gamma 90.000000
_cell_volume 785.769945
_symmetry_space_group_name_H-M "P 21/M"
_symmetry_group_IT_number 11
_symmetry_cell_setting 'monoclinic'
loop_
_space_group_symop_operation_xyz
x,y,z
-x,1/2+y,-z
-x,-y,-z
x,1/2-y,z
loop_
_atom_site_type_symbol
_atom_site_label
_atom_site_fract_x
_atom_site_fract_y
_atom_site_fract_z
Si Si1 0.927359 0.250000 0.347066
Si Si2 0.239144 0.750000 0.083324
Si Si3 0.906987 0.527850 0.874709
Si Si4 0.573191 0.750000 0.293451
Si Si5 0.351379 0.250000 0.001369
Si Si6 0.568756 0.523450 0.637690
Si Si7 0.193401 0.250000 0.489099
Si Si8 0.658847 0.250000 0.223657
O O1 0.983421 0.116740 0.251968
O O2 0.998777 0.250000 0.482419
O O3 0.728365 0.250000 0.363235
O O4 0.210733 0.750000 0.925094
O O5 0.153074 0.617896 0.158987
O O6 0.445169 0.750000 0.036216
O O7 0.738518 0.618732 0.923645
O O8 0.000000 0.500000 0.000000
O O9 0.699237 0.750000 0.143705
O O10 0.450518 0.623947 0.305273
O O11 0.703160 0.750000 0.392704
O O12 0.500000 0.500000 0.500000
O O13 0.735629 0.613291 0.592468
O O14 0.449345 0.615958 0.754229
#
# Coordination Sequence:
#
# PCOD9163911 Si02
#       8
#     2   2   4   2   2   4   2   2
#     4  11  24  40  65  90 127 180 204 249 328 387
#     4  12  23  39  63 100 124 167 219 266 307 385
#     4  11  23  43  61  92 136 167 206 260 327 379
#     4  10  20  38  60  94 121 153 210 267 307 352
#     4  11  25  36  66  93 126 166 214 260 319 371
#     4   9  20  38  64  87 118 160 205 263 308 358
#     4   9  21  40  64  86 124 164 210 250 315 378
#     4  11  21  39  66  87 132 166 207 254 326 387
#
# _framework density 25.452741
#
# number of rings (size 3 to 8) (size 9 to 14) (size 15 to 20)
#    0.000    1.600    2.000    3.000    8.400    0.000 
#    0.000    4.000    0.000    0.000    0.000    0.000 
#    0.000    0.000    0.000    0.000    0.000    0.000 
#
# Total GULP energy -111673.156230 kJ/mol
# GULP energy per Si atom -5583.657812 kJ/mol
# Density = 2.539481 g / cm^3
# Si number density = 25.452741 Si / 1000 Ang^3
#
#
#
# Elastic Constant Matrix: (Units=GPa)
#
#
# Indices 1 2 3 4 5 6 
#
# 1 86.4674 17.5336 -2.0846 0.0000 45.0079 0.0000
# 2 17.5336 237.1073 16.4432 0.0000 -4.8222 0.0000
# 3 -2.0846 16.4432 61.8584 0.0000 21.0389 0.0000
# 4 0.0000 0.0000 0.0000 16.9897 0.0000 2.6344
# 5 45.0079 -4.8222 21.0389 0.0000 37.7100 0.0000
# 6 0.0000 0.0000 0.0000 2.6344 0.0000 3.2984
#
#
#
# Elastic Compliance Matrix: (Units=1/GPa)
#
#
# Indices 1 2 3 4 5 6 
#
# 1 0.076648 -0.011261 0.045888 0.000000 -0.118523 0.000000
# 2 -0.011261 0.006018 -0.008407 0.000000 0.018900 0.000000
# 3 0.045888 -0.008407 0.048060 0.000000 -0.082656 0.000000
# 4 0.000000 0.000000 0.000000 0.067178 0.000000 -0.053654
# 5 -0.118523 0.018900 -0.082656 0.000000 0.216511 0.000000
# 6 0.000000 0.000000 0.000000 -0.053654 0.000000 0.346027
#
#
# Mechanical properties :
#
#
# Convention : Reuss Voigt Hill
#
# Bulk Modulus (GPa) = 5.45956 49.91305 27.68630
# Shear Modulus (GPa) = 6.50146 35.16903 20.83525
#
# Velocity S-wave (km/s) = 1.59996 3.72121 2.86420
# Velocity P-wave (km/s) = 2.35856 6.17380 4.67326
#
# Compressibility (1/GPa) = 0.18316507
#
# Stress axis : x y z
#
# Youngs Moduli (GPa) = 13.04662 166.17886 20.80744
#
# Poissons Ratio (x) = 1.87129 -0.95480
# Poissons Ratio (y) = 0.14691 0.17493
# Poissons Ratio (z) = -0.59868 1.39710
#
# Static dielectric constant tensor:
#      x y z
#    x 2.047190 0.000000 0.064910 
#    y 0.000000 1.989040 0.000000 
#    z 0.064910 0.000000 2.103500 
# 
# From -- ./inp_files/16052.got.cif
#   From: 2010.05.17/outbox.cif.g08.bks.cpg/sg11_9_cif.got.tgz:16052.got - 2010.06.03 12:22:45.
