data_PCOD9163321
_publ_section_title
;
Structure prediction by ZEFSAII (Michael W. Deem and Ramdas Pophale) SiO2 
 PCOD9163321
Probable space group: P 21/M
;
_chemical_formula_sum "Si O2"
_cell_formula_units_Z 20
_cell_length_a 5.051367
_cell_length_b 13.608321
_cell_length_c 11.371574
_cell_angle_alpha 90.000000
_cell_angle_beta 89.882693
_cell_angle_gamma 90.000000
_cell_volume 781.687450
_symmetry_space_group_name_H-M "P 21/M"
_symmetry_group_IT_number 11
_symmetry_cell_setting 'monoclinic'
loop_
_space_group_symop_operation_xyz
x,y,z
-x,1/2+y,-z
-x,-y,-z
x,1/2-y,z
loop_
_atom_site_type_symbol
_atom_site_label
_atom_site_fract_x
_atom_site_fract_y
_atom_site_fract_z
Si Si1 0.304641 0.862837 0.194220
Si Si2 0.900665 0.368687 0.430761
Si Si3 0.603485 0.631240 0.426352
Si Si4 0.449963 0.362351 0.062627
Si Si5 0.949399 0.456924 0.175654
O O1 0.222856 0.750000 0.219410
O O2 0.483604 0.900651 0.302223
O O3 0.051467 0.931897 0.179315
O O4 0.469684 0.862518 0.073673
O O5 0.913096 0.250000 0.421314
O O6 0.606503 0.395100 0.472272
O O7 0.107009 0.399031 0.532308
O O8 0.973226 0.412801 0.305798
O O9 0.609929 0.750000 0.419250
O O10 0.476643 0.250000 0.105929
O O11 0.158684 0.400842 0.091136
O O12 0.660634 0.431122 0.128202
#
# Coordination Sequence:
#
# PCOD9163321 Si02
#       5
#     4   4   4   4   4
#     4  10  24  44  65  92 130 172 213 259 310 374
#     4  10  20  36  60  90 124 160 204 258 310 366
#     4   9  20  38  60  88 123 163 206 253 308 369
#     4  11  24  43  67  95 127 164 210 264 320 375
#     4  12  24  41  67  97 128 165 212 260 317 378
#
# _framework density 25.585674999999998
#
# number of rings (size 3 to 8) (size 9 to 14) (size 15 to 20)
#    0.000    1.600    0.000    4.200    0.000    6.400 
#    0.000   11.000    0.000    0.000    0.000    0.000 
#    0.000    0.000    0.000    0.000    0.000    0.000 
#
# Total GULP energy -112361.163485 kJ/mol
# GULP energy per Si atom -5618.058174 kJ/mol
# Density = 2.552744 g / cm^3
# Si number density = 25.585675 Si / 1000 Ang^3
#
#
#
# Elastic Constant Matrix: (Units=GPa)
#
#
# Indices 1 2 3 4 5 6 
#
# 1 97.0147 31.7986 9.5465 0.0000 3.5674 0.0000
# 2 31.7986 148.9246 27.8972 0.0000 2.4089 0.0000
# 3 9.5465 27.8972 120.5202 0.0000 -1.4960 0.0000
# 4 0.0000 0.0000 0.0000 38.4006 0.0000 -4.2091
# 5 3.5674 2.4089 -1.4960 0.0000 36.5125 0.0000
# 6 0.0000 0.0000 0.0000 -4.2091 0.0000 29.5250
#
#
#
# Elastic Compliance Matrix: (Units=1/GPa)
#
#
# Indices 1 2 3 4 5 6 
#
# 1 0.011130 -0.002293 -0.000363 0.000000 -0.000951 0.000000
# 2 -0.002293 0.007502 -0.001559 0.000000 -0.000335 0.000000
# 3 -0.000363 -0.001559 0.008693 0.000000 0.000494 0.000000
# 4 0.000000 0.000000 0.000000 0.026455 0.000000 0.003771
# 5 -0.000951 -0.000335 0.000494 0.000000 0.027523 0.000000
# 6 0.000000 0.000000 0.000000 0.003771 0.000000 0.034407
#
#
# Mechanical properties :
#
#
# Convention : Reuss Voigt Hill
#
# Bulk Modulus (GPa) = 52.92289 56.10489 54.51389
# Shear Modulus (GPa) = 38.33239 40.70213 39.51726
#
# Velocity S-wave (km/s) = 3.87485 3.99283 3.93429
# Velocity P-wave (km/s) = 6.38348 6.57516 6.48003
#
# Compressibility (1/GPa) = 0.01889541
#
# Stress axis : x y z
#
# Youngs Moduli (GPa) = 89.84714 133.29950 115.03394
#
# Poissons Ratio (x) = 0.30568 0.04171
# Poissons Ratio (y) = 0.20604 0.17934
# Poissons Ratio (z) = 0.03258 0.20781
#
# Static dielectric constant tensor:
#      x y z
#    x 1.932620 0.000000 -0.003750 
#    y 0.000000 2.053590 0.000000 
#    z -0.003750 0.000000 1.944470 
# 
# From -- ./inp_files/29648.got.cif
#   From: 2010.05.17/outbox.cif.g08.bks.cpg/sg11_15_cif.got.tgz:29648.got - 2010.06.03 12:22:45.
