data_PCOD9163815
_publ_section_title
;
Structure prediction by ZEFSAII (Michael W. Deem and Ramdas Pophale) SiO2 
 PCOD9163815
Probable space group: P 21/M
;
_chemical_formula_sum "Si O2"
_cell_formula_units_Z 22
_cell_length_a 7.179217
_cell_length_b 8.746249
_cell_length_c 13.906800
_cell_angle_alpha 90.000000
_cell_angle_beta 95.451751
_cell_angle_gamma 90.000000
_cell_volume 869.274949
_symmetry_space_group_name_H-M "P 21/M"
_symmetry_group_IT_number 11
_symmetry_cell_setting 'monoclinic'
loop_
_space_group_symop_operation_xyz
x,y,z
-x,1/2+y,-z
-x,-y,-z
x,1/2-y,z
loop_
_atom_site_type_symbol
_atom_site_label
_atom_site_fract_x
_atom_site_fract_y
_atom_site_fract_z
Si Si1 0.583365 0.750000 0.933457
Si Si2 0.696148 0.571294 0.632109
Si Si3 0.796138 0.077670 0.232750
Si Si4 0.640863 0.750000 0.152806
Si Si5 0.827197 0.985178 0.838787
Si Si6 0.246364 0.750000 0.049726
Si Si7 0.742353 0.425564 0.439554
O O1 0.655437 0.891444 0.875909
O O2 0.689278 0.750000 0.041333
O O3 0.368363 0.750000 0.959367
O O4 0.729750 0.750000 0.657400
O O5 0.761981 0.473938 0.727069
O O6 0.780396 0.531083 0.532298
O O7 0.473123 0.549124 0.605525
O O8 0.702586 0.250000 0.232278
O O9 0.855090 0.053781 0.346856
O O10 0.975480 0.092287 0.173487
O O11 0.704798 0.913646 0.199080
O O12 0.415890 0.750000 0.137240
O O13 0.868282 0.105777 0.924084
O O14 0.757738 0.250000 0.472844
#
# Coordination Sequence:
#
# PCOD9163815 Si02
#       7
#     2   4   4   2   4   2   4
#     4  10  24  46  65  96 130 172 229 284 332 406
#     4  10  20  37  64  91 128 178 214 270 318 396
#     4  11  23  44  68 100 140 179 218 278 337 406
#     4  10  25  45  67  97 130 178 230 278 334 394
#     4  12  22  44  66  96 135 169 226 278 343 395
#     4  10  25  43  66  95 126 174 227 288 324 404
#     4   9  21  38  60  97 131 171 222 259 324 398
#
# _framework density 25.308449
#
# number of rings (size 3 to 8) (size 9 to 14) (size 15 to 20)
#    0.545    1.091    1.818    2.182    2.545    1.455 
#    3.273    0.000    0.000    0.000    0.000    0.000 
#    0.000    0.000    0.000    0.000    0.000    0.000 
#
# Total GULP energy -122792.904042 kJ/mol
# GULP energy per Si atom -5581.495638 kJ/mol
# Density = 2.525085 g / cm^3
# Si number density = 25.308449 Si / 1000 Ang^3
#
#
#
# Elastic Constant Matrix: (Units=GPa)
#
#
# Indices 1 2 3 4 5 6 
#
# 1 63.6694 33.7106 21.3123 0.0000 -5.6812 0.0000
# 2 33.7106 96.4794 52.6581 0.0000 -3.2899 0.0000
# 3 21.3123 52.6581 165.1836 0.0000 -23.4557 0.0000
# 4 0.0000 0.0000 0.0000 3.6961 0.0000 14.2740
# 5 -5.6812 -3.2899 -23.4557 0.0000 51.4680 0.0000
# 6 0.0000 0.0000 0.0000 14.2740 0.0000 7.0822
#
#
#
# Elastic Compliance Matrix: (Units=1/GPa)
#
#
# Indices 1 2 3 4 5 6 
#
# 1 0.019424 -0.006647 -0.000153 0.000000 0.001650 0.000000
# 2 -0.006647 0.014881 -0.004122 0.000000 -0.001661 0.000000
# 3 -0.000153 -0.004122 0.007856 0.000000 0.003300 0.000000
# 4 0.000000 0.000000 0.000000 -0.039884 0.000000 0.080385
# 5 0.001650 -0.001661 0.003300 0.000000 0.021009 0.000000
# 6 0.000000 0.000000 0.000000 0.080385 0.000000 -0.020815
#
#
# Mechanical properties :
#
#
# Convention : Reuss Voigt Hill
#
# Bulk Modulus (GPa) = 49.22053 60.07717 54.64885
# Shear Modulus (GPa) = 160.83300 26.95934 93.89617
#
# Velocity S-wave (km/s) = 7.98042 3.26733 6.09764
# Velocity P-wave (km/s) = 10.21795 6.16631 8.43890
#
# Compressibility (1/GPa) = 0.02031672
#
# Stress axis : x y z
#
# Youngs Moduli (GPa) = 51.48293 67.20167 127.28796
#
# Poissons Ratio (x) = 0.44670 0.01946
# Poissons Ratio (y) = 0.34222 0.52467
# Poissons Ratio (z) = 0.00787 0.27700
#
# Static dielectric constant tensor:
#      x y z
#    x 2.055480 0.000000 0.019910 
#    y 0.000000 2.076970 0.000000 
#    z 0.019910 0.000000 1.921460 
# 
# From -- ./inp_files/46520.got.cif
#   From: 2010.05.17/outbox.cif.g08.bks.cpg/sg11_24_cif.got.tgz:46520.got - 2010.06.03 12:22:45.
