data_PCOD9163649
_publ_section_title
;
Structure prediction by ZEFSAII (Michael W. Deem and Ramdas Pophale) SiO2 
 PCOD9163649
Probable space group: P 21/M
;
_chemical_formula_sum "Si O2"
_cell_formula_units_Z 32
_cell_length_a 11.795300
_cell_length_b 12.469824
_cell_length_c 22.417234
_cell_angle_alpha 90.000000
_cell_angle_beta 152.665120
_cell_angle_gamma 90.000000
_cell_volume 1514.063786
_symmetry_space_group_name_H-M "P 21/M"
_symmetry_group_IT_number 11
_symmetry_cell_setting 'monoclinic'
loop_
_space_group_symop_operation_xyz
x,y,z
-x,1/2+y,-z
-x,-y,-z
x,1/2-y,z
loop_
_atom_site_type_symbol
_atom_site_label
_atom_site_fract_x
_atom_site_fract_y
_atom_site_fract_z
Si Si1 0.872893 0.409359 0.155490
Si Si2 0.297903 0.375410 0.119774
Si Si3 0.006949 0.458282 0.096542
Si Si4 0.428847 0.870030 0.315508
Si Si5 0.321652 0.137204 0.919651
Si Si6 0.081780 0.129226 0.680529
Si Si7 0.729626 0.971897 0.350256
Si Si8 0.715956 0.548934 0.560397
O O1 0.821269 0.536360 0.122589
O O2 0.930378 0.379493 0.114460
O O3 0.091741 0.394237 0.304734
O O4 0.615613 0.369837 0.062593
O O5 0.304730 0.250000 0.106260
O O6 0.111843 0.393767 0.088572
O O7 0.563905 0.421851 0.263689
O O8 0.201341 0.459396 0.024835
O O9 0.226962 0.535893 0.222144
O O10 0.324696 0.750000 0.262090
O O11 0.592500 0.897037 0.333975
O O12 0.594735 0.879987 0.452280
O O13 0.229510 0.250000 0.900990
O O14 0.262758 0.132726 0.821822
O O15 0.986177 0.250000 0.626047
O O16 0.229915 0.087743 0.693130
O O17 0.866323 0.046515 0.597706
O O18 0.000000 0.000000 0.500000
O O19 0.500000 0.500000 0.500000
#
# Coordination Sequence:
#
# PCOD9163649 Si02
#       8
#     4   4   4   4   4   4   4   4
#     4  10  20  37  61  81 121 158 191 250 301 348
#     4  10  23  40  63  93 123 158 204 255 314 370
#     4  10  21  41  62  88 123 159 203 258 305 367
#     4  11  23  39  61  89 123 164 206 253 311 366
#     4   9  20  36  57  87 113 149 200 242 295 356
#     4  10  21  40  64  86 116 161 204 247 307 370
#     4  11  22  41  62  89 126 156 200 254 305 365
#     4  11  22  40  58  89 126 157 206 255 295 361
#
# _framework density 21.135173000000002
#
# number of rings (size 3 to 8) (size 9 to 14) (size 15 to 20)
#    0.000    1.750    2.500    1.500    0.000    3.500 
#    0.000    3.125    0.000    0.000    0.000    0.000 
#    0.000    0.000    0.000    0.000    0.000    0.000 
#
# Total GULP energy -178728.880917 kJ/mol
# GULP energy per Si atom -5585.277529 kJ/mol
# Density = 2.108707 g / cm^3
# Si number density = 21.135173 Si / 1000 Ang^3
#
#
#
# Elastic Constant Matrix: (Units=GPa)
#
#
# Indices 1 2 3 4 5 6 
#
# 1 103.2842 5.1955 2.4569 0.0000 -4.9318 0.0000
# 2 5.1955 84.5964 3.0508 0.0000 -4.1096 0.0000
# 3 2.4569 3.0508 91.6523 0.0000 1.2642 0.0000
# 4 0.0000 0.0000 0.0000 3.2865 0.0000 -13.7628
# 5 -4.9318 -4.1096 1.2642 0.0000 23.4080 0.0000
# 6 0.0000 0.0000 0.0000 -13.7628 0.0000 -1.4853
#
#
#
# Elastic Compliance Matrix: (Units=1/GPa)
#
#
# Indices 1 2 3 4 5 6 
#
# 1 0.009809 -0.000496 -0.000274 0.000000 0.001994 0.000000
# 2 -0.000496 0.011964 -0.000413 0.000000 0.002018 0.000000
# 3 -0.000274 -0.000413 0.010942 0.000000 -0.000721 0.000000
# 4 0.000000 0.000000 0.000000 0.007644 0.000000 -0.070834
# 5 0.001994 0.002018 -0.000721 0.000000 0.043534 0.000000
# 6 0.000000 0.000000 0.000000 -0.070834 0.000000 -0.016915
#
#
# Mechanical properties :
#
#
# Convention : Reuss Voigt Hill
#
# Bulk Modulus (GPa) = 32.94899 33.43771 33.19335
# Shear Modulus (GPa) = 62.92496 22.96381 42.94438
#
# Velocity S-wave (km/s) = 5.46235 3.29982 4.51254
# Velocity P-wave (km/s) = 7.44355 5.51123 6.54905
#
# Compressibility (1/GPa) = 0.03034995
#
# Stress axis : x y z
#
# Youngs Moduli (GPa) = 101.95025 83.58263 91.39240
#
# Poissons Ratio (x) = 0.04143 0.02504
# Poissons Ratio (y) = 0.05053 0.03773
# Poissons Ratio (z) = 0.02793 0.03450
#
# Static dielectric constant tensor:
#      x y z
#    x 1.779000 0.000000 -0.029090 
#    y 0.000000 1.732420 0.000000 
#    z -0.029090 0.000000 1.782140 
# 
# From -- ./inp_files/68612.got.cif
#   From: 2010.05.17/outbox.cif.g08.bks.cpg/sg11_35_cif.got.tgz:68612.got - 2010.06.03 12:22:45.
