data_PCOD9163759
_publ_section_title
;
Structure prediction by ZEFSAII (Michael W. Deem and Ramdas Pophale) SiO2 
 PCOD9163759
Probable space group: P 21/M
;
_chemical_formula_sum "Si O2"
_cell_formula_units_Z 30
_cell_length_a 5.055929
_cell_length_b 10.104450
_cell_length_c 27.542911
_cell_angle_alpha 90.000000
_cell_angle_beta 70.150602
_cell_angle_gamma 90.000000
_cell_volume 1323.497395
_symmetry_space_group_name_H-M "P 21/M"
_symmetry_group_IT_number 11
_symmetry_cell_setting 'monoclinic'
loop_
_space_group_symop_operation_xyz
x,y,z
-x,1/2+y,-z
-x,-y,-z
x,1/2-y,z
loop_
_atom_site_type_symbol
_atom_site_label
_atom_site_fract_x
_atom_site_fract_y
_atom_site_fract_z
Si Si1 0.353536 0.102284 0.472919
Si Si2 0.589842 0.543269 0.868628
Si Si3 0.722515 0.406576 0.015094
Si Si4 0.980901 0.901136 0.327047
Si Si5 0.610171 0.508227 0.267501
Si Si6 0.866851 0.894211 0.154973
Si Si7 0.148320 0.894332 0.423029
Si Si8 0.462182 0.250000 0.215591
O O1 0.479231 0.250000 0.461744
O O2 0.051983 0.119308 0.517870
O O3 0.500000 0.000000 0.500000
O O4 0.325905 0.024421 0.424040
O O5 0.406135 0.603535 0.922905
O O6 0.893855 0.502380 0.869419
O O7 0.619796 0.636426 0.820204
O O8 0.409200 0.420349 0.859582
O O9 0.760534 0.250000 0.996132
O O10 0.500000 0.500000 0.000000
O O11 0.000000 0.500000 0.000000
O O12 0.908768 0.750000 0.319194
O O13 0.307145 0.927312 0.295173
O O14 0.966526 0.915837 0.386059
O O15 0.787534 0.992250 0.305911
O O16 0.560766 0.365696 0.247444
O O17 0.782186 0.590078 0.216435
O O18 0.982565 0.750000 0.137897
O O19 0.295025 0.750000 0.408133
#
# Coordination Sequence:
#
# PCOD9163759 Si02
#       8
#     4   4   4   4   4   4   4   2
#     4  10  20  37  62  89 121 160 219 277 326 388
#     4  11  24  43  70  94 132 180 224 269 330 410
#     4  12  27  48  73 107 146 191 234 293 359 427
#     4  11  23  41  65  93 131 170 217 266 350 401
#     4  11  24  41  64  95 129 175 215 279 323 395
#     4  11  23  39  66 100 129 166 225 282 330 379
#     4   9  21  39  60  87 119 169 214 267 329 408
#     4  10  24  46  66  92 130 178 232 254 326 398
#
# _framework density 22.667214000000001
#
# number of rings (size 3 to 8) (size 9 to 14) (size 15 to 20)
#    0.000    1.333    0.667    4.800    1.867    8.533 
#    2.400    0.000    0.000    0.000    0.000    0.000 
#    0.000    0.000    0.000    0.000    0.000    0.000 
#
# Total GULP energy -167029.901674 kJ/mol
# GULP energy per Si atom -5567.663389 kJ/mol
# Density = 2.261562 g / cm^3
# Si number density = 22.667214 Si / 1000 Ang^3
#
#
#
# Elastic Constant Matrix: (Units=GPa)
#
#
# Indices 1 2 3 4 5 6 
#
# 1 94.2815 29.4086 4.8453 0.0000 0.6792 0.0000
# 2 29.4086 158.9454 7.8747 0.0000 17.0603 0.0000
# 3 4.8453 7.8747 55.6294 0.0000 3.3164 0.0000
# 4 0.0000 0.0000 0.0000 -20.7060 0.0000 -31.5678
# 5 0.6792 17.0603 3.3164 0.0000 40.1558 0.0000
# 6 0.0000 0.0000 0.0000 -31.5678 0.0000 -21.8257
#
#
#
# Elastic Compliance Matrix: (Units=1/GPa)
#
#
# Indices 1 2 3 4 5 6 
#
# 1 0.011306 -0.002139 -0.000728 0.000000 0.000778 0.000000
# 2 -0.002139 0.007030 -0.000636 0.000000 -0.002898 0.000000
# 3 -0.000728 -0.000636 0.018202 0.000000 -0.001221 0.000000
# 4 0.000000 0.000000 0.000000 0.040077 0.000000 -0.057965
# 5 0.000778 -0.002898 -0.001221 0.000000 0.026222 0.000000
# 6 0.000000 0.000000 0.000000 -0.057965 0.000000 0.038020
#
#
# Mechanical properties :
#
#
# Convention : Reuss Voigt Hill
#
# Bulk Modulus (GPa) = 33.86294 43.67928 38.77111
# Shear Modulus (GPa) = 31.70431 17.30667 24.50549
#
# Velocity S-wave (km/s) = 3.74396 2.76617 3.29157
# Velocity P-wave (km/s) = 5.80183 5.43267 5.62028
#
# Compressibility (1/GPa) = 0.02953081
#
# Stress axis : x y z
#
# Youngs Moduli (GPa) = 88.45158 142.25095 54.93793
#
# Poissons Ratio (x) = 0.30430 0.04001
# Poissons Ratio (y) = 0.18922 0.03494
# Poissons Ratio (z) = 0.06442 0.09048
#
# Static dielectric constant tensor:
#      x y z
#    x 1.852490 0.000000 -0.027050 
#    y 0.000000 1.818540 0.000000 
#    z -0.027050 0.000000 1.860130 
# 
# From -- ./inp_files/72557.got.cif
#   From: 2010.05.17/outbox.cif.g08.bks.cpg/sg11_37_cif.got.tgz:72557.got - 2010.06.03 12:22:45.
