data_PCOD9163708
_publ_section_title
;
Structure prediction by ZEFSAII (Michael W. Deem and Ramdas Pophale) SiO2 
 PCOD9163708
Probable space group: P 21/M
;
_chemical_formula_sum "Si O2"
_cell_formula_units_Z 24
_cell_length_a 13.893873
_cell_length_b 16.878387
_cell_length_c 9.645259
_cell_angle_alpha 90.000000
_cell_angle_beta 33.360370
_cell_angle_gamma 90.000000
_cell_volume 1243.810960
_symmetry_space_group_name_H-M "P 21/M"
_symmetry_group_IT_number 11
_symmetry_cell_setting 'monoclinic'
loop_
_space_group_symop_operation_xyz
x,y,z
-x,1/2+y,-z
-x,-y,-z
x,1/2-y,z
loop_
_atom_site_type_symbol
_atom_site_label
_atom_site_fract_x
_atom_site_fract_y
_atom_site_fract_z
Si Si1 0.161230 0.000187 0.701368
Si Si2 0.618158 0.838906 0.529579
Si Si3 0.250579 0.428126 0.141508
Si Si4 0.129257 0.923474 0.446130
Si Si5 0.486485 0.580384 0.428922
Si Si6 0.521774 0.160808 0.002342
O O1 0.108522 0.977755 0.608423
O O2 0.301249 0.932294 0.576955
O O3 0.249986 0.087136 0.607944
O O4 0.000000 0.000000 0.000000
O O5 0.696666 0.750000 0.436576
O O6 0.516849 0.852338 0.506790
O O7 0.492321 0.843969 0.814527
O O8 0.199360 0.518220 0.240830
O O9 0.378335 0.396654 0.107540
O O10 0.060092 0.387867 0.361178
O O11 0.360487 0.418629 0.869095
O O12 0.285038 0.861916 0.278588
O O13 0.500000 0.500000 0.500000
O O14 0.477918 0.250000 0.012034
#
# Coordination Sequence:
#
# PCOD9163708 Si02
#       6
#     4   4   4   4   4   4
#     4  11  21  38  65  94 123 165 215 256 308 377
#     4  10  22  41  62  88 127 167 204 259 321 371
#     4  11  22  38  66  93 122 161 208 263 301 369
#     4  11  21  38  65  96 122 159 213 259 306 369
#     4  10  20  37  61  88 122 163 205 251 305 368
#     4  11  23  41  63  90 127 168 203 257 322 370
#
# _framework density 19.295536999999999
#
# number of rings (size 3 to 8) (size 9 to 14) (size 15 to 20)
#    0.000    1.333    3.333    4.500    0.000    2.667 
#    0.000    3.333    0.000    0.000    0.000    0.000 
#    0.000    0.000    0.000    0.000    0.000    0.000 
#
# Total GULP energy -133851.735286 kJ/mol
# GULP energy per Si atom -5577.155637 kJ/mol
# Density = 1.925162 g / cm^3
# Si number density = 19.295537 Si / 1000 Ang^3
#
#
#
# Elastic Constant Matrix: (Units=GPa)
#
#
# Indices 1 2 3 4 5 6 
#
# 1 83.0439 -1.1902 39.5731 0.0000 3.2536 0.0000
# 2 -1.1902 45.8353 28.6204 0.0000 3.4736 0.0000
# 3 39.5731 28.6204 126.4131 0.0000 -4.6614 0.0000
# 4 0.0000 0.0000 0.0000 20.0168 0.0000 8.7765
# 5 3.2536 3.4736 -4.6614 0.0000 41.7450 0.0000
# 6 0.0000 0.0000 0.0000 8.7765 0.0000 6.2406
#
#
#
# Elastic Compliance Matrix: (Units=1/GPa)
#
#
# Indices 1 2 3 4 5 6 
#
# 1 0.014882 0.004083 -0.005662 0.000000 -0.002132 0.000000
# 2 0.004083 0.026852 -0.007483 0.000000 -0.003388 0.000000
# 3 -0.005662 -0.007483 0.011464 0.000000 0.002344 0.000000
# 4 0.000000 0.000000 0.000000 0.130312 0.000000 -0.183264
# 5 -0.002132 -0.003388 0.002344 0.000000 0.024665 0.000000
# 6 0.000000 0.000000 0.000000 -0.183264 0.000000 0.417975
#
#
# Mechanical properties :
#
#
# Convention : Reuss Voigt Hill
#
# Bulk Modulus (GPa) = 28.50993 43.25542 35.88267
# Shear Modulus (GPa) = 7.62237 26.15307 16.88772
#
# Velocity S-wave (km/s) = 1.98970 3.68556 2.96161
# Velocity P-wave (km/s) = 4.48174 6.37002 5.50741
#
# Compressibility (1/GPa) = 0.03507550
#
# Stress axis : x y z
#
# Youngs Moduli (GPa) = 67.19569 37.24060 87.23318
#
# Poissons Ratio (x) = -0.15207 0.49390
# Poissons Ratio (y) = -0.27438 0.65274
# Poissons Ratio (z) = 0.38045 0.27866
#
# Static dielectric constant tensor:
#      x y z
#    x 1.743130 0.000000 -0.000760 
#    y 0.000000 1.683570 0.000000 
#    z -0.000760 0.000000 1.655300 
# 
# From -- ./inp_files/22671.got.cif
#   From: 2010.05.17/outbox.cif.g08.bks.cpg/sg11_12_cif.got.tgz:22671.got - 2010.06.03 12:22:45.
