data_PCOD9163421
_publ_section_title
;
Structure prediction by ZEFSAII (Michael W. Deem and Ramdas Pophale) SiO2 
 PCOD9163421
Probable space group: P 21/M
;
_chemical_formula_sum "Si O2"
_cell_formula_units_Z 28
_cell_length_a 15.016818
_cell_length_b 8.636855
_cell_length_c 22.208980
_cell_angle_alpha 90.000000
_cell_angle_beta 149.296844
_cell_angle_gamma 90.000000
_cell_volume 1470.735928
_symmetry_space_group_name_H-M "P 21/M"
_symmetry_group_IT_number 11
_symmetry_cell_setting 'monoclinic'
loop_
_space_group_symop_operation_xyz
x,y,z
-x,1/2+y,-z
-x,-y,-z
x,1/2-y,z
loop_
_atom_site_type_symbol
_atom_site_label
_atom_site_fract_x
_atom_site_fract_y
_atom_site_fract_z
Si Si1 0.051516 0.934490 0.810328
Si Si2 0.750559 0.933670 0.284380
Si Si3 0.069333 0.434688 0.392566
Si Si4 0.561868 0.934732 0.971543
Si Si5 0.328505 0.565504 0.635955
Si Si6 0.952439 0.065280 0.875743
Si Si7 0.269964 0.436434 0.146557
O O1 0.080817 0.750000 0.826973
O O2 0.959520 0.976452 0.693949
O O3 0.944858 0.983845 0.807044
O O4 0.238280 0.018545 0.921695
O O5 0.767039 0.750000 0.287477
O O6 0.563929 0.990878 0.151311
O O7 0.763179 0.982772 0.361079
O O8 0.897188 0.015057 0.329179
O O9 0.090359 0.250000 0.409131
O O10 0.230528 0.517767 0.518284
O O11 0.542778 0.750000 0.959194
O O12 0.500000 0.000000 0.000000
O O13 0.317860 0.750000 0.638617
O O14 0.531708 0.519871 0.751730
O O15 0.949560 0.250000 0.866645
O O16 0.803654 0.012718 0.835627
O O17 0.135447 0.021733 0.015004
O O18 0.262649 0.250000 0.148866
#
# Coordination Sequence:
#
# PCOD9163421 Si02
#       7
#     4   4   4   4   4   4   4
#     4  11  23  39  60  86 120 160 198 242 296 354
#     4  12  24  39  61  87 118 158 201 245 297 354
#     4  11  24  41  59  82 118 159 203 249 293 350
#     4  12  23  37  58  86 120 154 194 241 292 348
#     4  11  23  40  62  86 117 156 201 249 297 352
#     4  10  20  36  63  93 120 150 188 241 297 356
#     4   9  20  39  61  88 119 151 188 239 297 354
#
# _framework density 19.038087999999998
#
# number of rings (size 3 to 8) (size 9 to 14) (size 15 to 20)
#    0.000    1.143    1.429    5.571    0.000    4.571 
#    0.000    0.714    0.000    0.000    0.000    0.000 
#    0.000    0.000    0.000    0.000    0.000    0.000 
#
# Total GULP energy -156635.300960 kJ/mol
# GULP energy per Si atom -5594.117891 kJ/mol
# Density = 1.899476 g / cm^3
# Si number density = 19.038088 Si / 1000 Ang^3
#
#
#
# Elastic Constant Matrix: (Units=GPa)
#
#
# Indices 1 2 3 4 5 6 
#
# 1 93.7911 9.7754 24.2329 0.0000 -20.6072 0.0000
# 2 9.7754 27.0947 0.2414 0.0000 -2.4482 0.0000
# 3 24.2329 0.2414 58.0797 0.0000 -10.8385 0.0000
# 4 0.0000 0.0000 0.0000 31.6412 0.0000 -0.9386
# 5 -20.6072 -2.4482 -10.8385 0.0000 16.9471 0.0000
# 6 0.0000 0.0000 0.0000 -0.9386 0.0000 30.5724
#
#
#
# Elastic Compliance Matrix: (Units=1/GPa)
#
#
# Indices 1 2 3 4 5 6 
#
# 1 0.015512 -0.004115 -0.003459 0.000000 0.016056 0.000000
# 2 -0.004115 0.038535 0.001887 0.000000 0.001770 0.000000
# 3 -0.003459 0.001887 0.020347 0.000000 0.009080 0.000000
# 4 0.000000 0.000000 0.000000 0.031633 0.000000 0.000971
# 5 0.016056 0.001770 0.009080 0.000000 0.084593 0.000000
# 6 0.000000 0.000000 0.000000 0.000971 0.000000 0.032739
#
#
# Mechanical properties :
#
#
# Convention : Reuss Voigt Hill
#
# Bulk Modulus (GPa) = 15.86762 27.49611 21.68186
# Shear Modulus (GPa) = 19.55100 25.47985 22.51542
#
# Velocity S-wave (km/s) = 3.20807 3.66233 3.44270
# Velocity P-wave (km/s) = 4.69841 5.68837 5.21693
#
# Compressibility (1/GPa) = 0.06302144
#
# Stress axis : x y z
#
# Youngs Moduli (GPa) = 64.46528 25.95015 49.14611
#
# Poissons Ratio (x) = 0.10679 0.16999
# Poissons Ratio (y) = 0.26528 -0.09274
# Poissons Ratio (z) = 0.22298 -0.04897
#
# Static dielectric constant tensor:
#      x y z
#    x 1.660950 0.000000 -0.035630 
#    y 0.000000 1.631330 0.000000 
#    z -0.035630 0.000000 1.701190 
# 
# From -- ./inp_files/37412.got.cif
#   From: 2010.05.17/outbox.cif.g08.bks.cpg/sg11_19_cif.got.tgz:37412.got - 2010.06.03 12:22:45.
