data_PCOD9163826
_publ_section_title
;
Structure prediction by ZEFSAII (Michael W. Deem and Ramdas Pophale) SiO2 
 PCOD9163826
Probable space group: P 21/M
;
_chemical_formula_sum "Si O2"
_cell_formula_units_Z 28
_cell_length_a 9.030556
_cell_length_b 11.876312
_cell_length_c 14.827424
_cell_angle_alpha 90.000000
_cell_angle_beta 121.793107
_cell_angle_gamma 90.000000
_cell_volume 1351.631428
_symmetry_space_group_name_H-M "P 21/M"
_symmetry_group_IT_number 11
_symmetry_cell_setting 'monoclinic'
loop_
_space_group_symop_operation_xyz
x,y,z
-x,1/2+y,-z
-x,-y,-z
x,1/2-y,z
loop_
_atom_site_type_symbol
_atom_site_label
_atom_site_fract_x
_atom_site_fract_y
_atom_site_fract_z
Si Si1 0.436164 0.120652 0.598154
Si Si2 0.393660 0.375956 0.800470
Si Si3 0.223408 0.876279 0.786287
Si Si4 0.926951 0.975634 0.575600
Si Si5 0.229118 0.589492 0.998102
Si Si6 0.823347 0.383584 0.698816
Si Si7 0.052918 0.124238 0.939180
O O1 0.437540 0.250000 0.567757
O O2 0.411620 0.120229 0.698121
O O3 0.270295 0.063679 0.500810
O O4 0.626508 0.070682 0.639009
O O5 0.312354 0.250000 0.795917
O O6 0.314260 0.499488 0.800169
O O7 0.585444 0.372748 0.905757
O O8 0.299825 0.750000 0.788020
O O9 0.049314 0.889678 0.669823
O O10 0.198046 0.874505 0.885862
O O11 0.917704 0.084352 0.637003
O O12 0.000000 0.000000 0.500000
O O13 0.071341 0.624694 0.013340
O O14 0.218865 0.454249 0.001139
O O15 0.810641 0.250000 0.705995
O O16 0.935311 0.424108 0.819939
O O17 0.105378 0.250000 0.934288
#
# Coordination Sequence:
#
# PCOD9163826 Si02
#       7
#     4   4   4   4   4   4   4
#     4  10  21  41  66  92 126 171 224 274 325 384
#     4  11  23  42  68  92 124 177 224 264 319 394
#     4  12  26  42  62  96 136 172 211 271 339 391
#     4  12  24  42  63  93 132 176 218 271 326 393
#     4  11  22  39  64  94 129 165 210 266 332 393
#     4  10  21  40  68  96 124 167 225 275 320 391
#     4  10  20  37  64  95 126 162 211 268 324 392
#
# _framework density 20.715707999999999
#
# number of rings (size 3 to 8) (size 9 to 14) (size 15 to 20)
#    0.000    1.143    4.286    2.571    0.000    2.857 
#    0.000    0.000    0.000    0.857    0.000    0.000 
#    0.000    0.000    0.000    0.000    0.000    0.000 
#
# Total GULP energy -156114.022874 kJ/mol
# GULP energy per Si atom -5575.500817 kJ/mol
# Density = 2.066856 g / cm^3
# Si number density = 20.715708 Si / 1000 Ang^3
#
#
#
# Elastic Constant Matrix: (Units=GPa)
#
#
# Indices 1 2 3 4 5 6 
#
# 1 45.8473 33.7760 23.6914 0.0000 -8.5050 0.0000
# 2 33.7760 127.4764 27.7375 0.0000 16.5616 0.0000
# 3 23.6914 27.7375 115.8755 0.0000 -6.3751 0.0000
# 4 0.0000 0.0000 0.0000 10.7821 0.0000 10.1674
# 5 -8.5050 16.5616 -6.3751 0.0000 35.4170 0.0000
# 6 0.0000 0.0000 0.0000 10.1674 0.0000 16.3431
#
#
#
# Elastic Compliance Matrix: (Units=1/GPa)
#
#
# Indices 1 2 3 4 5 6 
#
# 1 0.032847 -0.009373 -0.003835 0.000000 0.011581 0.000000
# 2 -0.009373 0.011643 -0.001307 0.000000 -0.007930 0.000000
# 3 -0.003835 -0.001307 0.009807 0.000000 0.001455 0.000000
# 4 0.000000 0.000000 0.000000 0.224376 0.000000 -0.139589
# 5 0.011581 -0.007930 0.001455 0.000000 0.034986 0.000000
# 6 0.000000 0.000000 0.000000 -0.139589 0.000000 0.148029
#
#
# Mechanical properties :
#
#
# Convention : Reuss Voigt Hill
#
# Bulk Modulus (GPa) = 39.57797 51.06767 45.32282
# Shear Modulus (GPa) = 10.01723 26.10806 18.06264
#
# Velocity S-wave (km/s) = 2.20138 3.55393 2.95605
# Velocity P-wave (km/s) = 5.06045 6.44559 5.79456
#
# Compressibility (1/GPa) = 0.02526658
#
# Stress axis : x y z
#
# Youngs Moduli (GPa) = 30.44445 85.89024 101.96876
#
# Poissons Ratio (x) = 0.80506 0.39104
# Poissons Ratio (y) = 0.28536 0.13326
# Poissons Ratio (z) = 0.11675 0.11225
#
# Static dielectric constant tensor:
#      x y z
#    x 1.751180 0.000000 0.018900 
#    y 0.000000 1.797210 0.000000 
#    z 0.018900 0.000000 1.719740 
# 
# From -- ./inp_files/21620.got.cif
#   From: 2010.05.17/outbox.cif.g08.bks.cpg/sg11_11_cif.got.tgz:21620.got - 2010.06.03 12:22:45.
