data_PCOD9163340
_publ_section_title
;
Structure prediction by ZEFSAII (Michael W. Deem and Ramdas Pophale) SiO2 
 PCOD9163340
Probable space group: P 21/M
;
_chemical_formula_sum "Si O2"
_cell_formula_units_Z 28
_cell_length_a 9.504456
_cell_length_b 7.681859
_cell_length_c 28.048336
_cell_angle_alpha 90.000000
_cell_angle_beta 37.986378
_cell_angle_gamma 90.000000
_cell_volume 1260.406069
_symmetry_space_group_name_H-M "P 21/M"
_symmetry_group_IT_number 11
_symmetry_cell_setting 'monoclinic'
loop_
_space_group_symop_operation_xyz
x,y,z
-x,1/2+y,-z
-x,-y,-z
x,1/2-y,z
loop_
_atom_site_type_symbol
_atom_site_label
_atom_site_fract_x
_atom_site_fract_y
_atom_site_fract_z
Si Si1 0.648646 0.037116 0.801270
Si Si2 0.207714 0.456714 0.978411
Si Si3 0.716334 0.042099 0.475973
Si Si4 0.231127 0.545854 0.332133
Si Si5 0.052521 0.462930 0.760831
Si Si6 0.578162 0.036817 0.618063
Si Si7 0.237800 0.947567 0.074606
O O1 0.640234 0.250000 0.802874
O O2 0.442230 0.980151 0.890897
O O3 0.638507 0.974790 0.749361
O O4 0.889537 0.986770 0.760608
O O5 0.231367 0.250000 0.979098
O O6 0.149161 0.536306 0.045028
O O7 0.000000 0.500000 0.000000
O O8 0.735545 0.250000 0.471760
O O9 0.679242 0.979113 0.540345
O O10 0.500000 0.000000 0.500000
O O11 0.961090 0.970573 0.394306
O O12 0.289817 0.750000 0.318549
O O13 0.296540 0.475333 0.367005
O O14 0.064419 0.250000 0.757341
O O15 0.923206 0.530631 0.842717
O O16 0.313736 0.519334 0.689569
O O17 0.587136 0.250000 0.615156
O O18 0.248188 0.750000 0.087632
O O19 0.500000 0.000000 0.000000
#
# Coordination Sequence:
#
# PCOD9163340 Si02
#       7
#     4   4   4   4   4   4   4
#     4   9  18  34  57  83 112 150 195 236 277 343
#     4  11  23  39  58  85 117 154 200 247 299 353
#     4  11  22  38  60  86 117 151 189 233 283 337
#     4  10  20  36  61  88 114 147 189 234 282 340
#     4   9  17  32  55  83 111 146 194 236 272 334
#     4   9  19  34  58  88 114 145 189 234 277 337
#     4  11  21  36  60  86 117 155 197 247 295 345
#
# _framework density 22.215062
#
# number of rings (size 3 to 8) (size 9 to 14) (size 15 to 20)
#    0.000    2.000    1.429    2.571    2.000    2.286 
#    0.000    2.143    0.000    2.571    0.000    0.000 
#    0.000    0.000    0.000    0.000    0.000    0.000 
#
# Total GULP energy -156360.067134 kJ/mol
# GULP energy per Si atom -5584.288112 kJ/mol
# Density = 2.216450 g / cm^3
# Si number density = 22.215062 Si / 1000 Ang^3
#
#
#
# Elastic Constant Matrix: (Units=GPa)
#
#
# Indices 1 2 3 4 5 6 
#
# 1 94.9192 -19.0873 9.4243 0.0000 11.8565 0.0000
# 2 -19.0873 34.8054 -6.5791 0.0000 1.7955 0.0000
# 3 9.4243 -6.5791 91.3992 0.0000 20.3400 0.0000
# 4 0.0000 0.0000 0.0000 16.0303 0.0000 -1.9972
# 5 11.8565 1.7955 20.3400 0.0000 42.5699 0.0000
# 6 0.0000 0.0000 0.0000 -1.9972 0.0000 17.2316
#
#
#
# Elastic Compliance Matrix: (Units=1/GPa)
#
#
# Indices 1 2 3 4 5 6 
#
# 1 0.012412 0.007015 0.000067 0.000000 -0.003785 0.000000
# 2 0.007015 0.033331 0.002712 0.000000 -0.004655 0.000000
# 3 0.000067 0.002712 0.012487 0.000000 -0.006099 0.000000
# 4 0.000000 0.000000 0.000000 0.063296 0.000000 0.007336
# 5 -0.003785 -0.004655 -0.006099 0.000000 0.027656 0.000000
# 6 0.000000 0.000000 0.000000 0.007336 0.000000 0.058883
#
#
# Mechanical properties :
#
#
# Convention : Reuss Voigt Hill
#
# Bulk Modulus (GPa) = 12.85053 20.95995 16.90524
# Shear Modulus (GPa) = 23.31924 30.99075 27.15499
#
# Velocity S-wave (km/s) = 3.24343 3.73907 3.50003
# Velocity P-wave (km/s) = 4.45237 5.30060 4.89489
#
# Compressibility (1/GPa) = 0.07781778
#
# Stress axis : x y z
#
# Youngs Moduli (GPa) = 80.56729 30.00219 80.08580
#
# Poissons Ratio (x) = -0.21046 -0.00540
# Poissons Ratio (y) = -0.56516 -0.21719
# Poissons Ratio (z) = -0.00543 -0.08136
#
# Static dielectric constant tensor:
#      x y z
#    x 2.731730 0.000000 0.330390 
#    y 0.000000 1.849220 0.000000 
#    z 0.330390 0.000000 1.948060 
# 
# From -- ./inp_files/28408.got.cif
#   From: 2010.05.17/outbox.cif.g08.bks.cpg/sg11_15_cif.got.tgz:28408.got - 2010.06.03 12:22:45.
