data_PCOD9163011
_publ_section_title
;
Structure prediction by ZEFSAII (Michael W. Deem and Ramdas Pophale) SiO2 
 PCOD9163011
Probable space group: P 21/M
;
_chemical_formula_sum "Si O2"
_cell_formula_units_Z 28
_cell_length_a 26.963226
_cell_length_b 8.721936
_cell_length_c 10.284087
_cell_angle_alpha 90.000000
_cell_angle_beta 38.241980
_cell_angle_gamma 90.000000
_cell_volume 1497.028007
_symmetry_space_group_name_H-M "P 21/M"
_symmetry_group_IT_number 11
_symmetry_cell_setting 'monoclinic'
loop_
_space_group_symop_operation_xyz
x,y,z
-x,1/2+y,-z
-x,-y,-z
x,1/2-y,z
loop_
_atom_site_type_symbol
_atom_site_label
_atom_site_fract_x
_atom_site_fract_y
_atom_site_fract_z
Si Si1 0.062522 0.433669 0.768759
Si Si2 0.769850 0.066901 0.481785
Si Si3 0.754101 0.565070 0.971141
Si Si4 0.516761 0.564662 0.822011
Si Si5 0.353403 0.933925 0.036499
Si Si6 0.303543 0.064644 0.624467
Si Si7 0.935881 0.564790 0.531314
O O1 0.060741 0.250000 0.777236
O O2 0.150312 0.491734 0.626437
O O3 0.044889 0.481589 0.656534
O O4 0.000000 0.500000 0.000000
O O5 0.779090 0.250000 0.459389
O O6 0.697180 0.028983 0.729380
O O7 0.749199 0.004762 0.382208
O O8 0.753567 0.750000 0.968218
O O9 0.692030 0.506077 0.991569
O O10 0.844910 0.514799 0.751879
O O11 0.727375 0.516683 0.170252
O O12 0.514776 0.750000 0.834014
O O13 0.604192 0.518721 0.590908
O O14 0.500000 0.500000 0.000000
O O15 0.444538 0.516224 0.875425
O O16 0.352443 0.750000 0.023051
O O17 0.299390 0.250000 0.626056
O O18 0.937556 0.750000 0.534161
O O19 0.000000 0.500000 0.500000
#
# Coordination Sequence:
#
# PCOD9163011 Si02
#       7
#     4   4   4   4   4   4   4
#     4  11  24  42  63  91 121 154 197 244 294 351
#     4  11  22  38  61  89 120 156 199 243 290 348
#     4  10  22  41  60  85 117 155 197 238 291 358
#     4  10  20  36  57  86 120 154 198 246 296 347
#     4  10  21  37  59  86 118 157 197 243 292 346
#     4  10  22  38  60  88 120 157 198 247 296 346
#     4  10  23  41  61  85 117 153 193 237 292 353
#
# _framework density 18.703724999999999
#
# number of rings (size 3 to 8) (size 9 to 14) (size 15 to 20)
#    0.000    1.714    2.857    0.857    2.000    4.000 
#    0.000    0.000    0.000    0.000    0.000    0.000 
#    0.000    0.000    0.000    0.000    0.000    0.000 
#
# Total GULP energy -156427.830575 kJ/mol
# GULP energy per Si atom -5586.708235 kJ/mol
# Density = 1.866115 g / cm^3
# Si number density = 18.703725 Si / 1000 Ang^3
#
#
#
# Elastic Constant Matrix: (Units=GPa)
#
#
# Indices 1 2 3 4 5 6 
#
# 1 183.5038 31.3106 72.3571 0.0000 15.0052 0.0000
# 2 31.3106 13.9650 31.4255 0.0000 5.5887 0.0000
# 3 72.3571 31.4255 122.6270 0.0000 19.8579 0.0000
# 4 0.0000 0.0000 0.0000 23.6176 0.0000 3.0696
# 5 15.0052 5.5887 19.8579 0.0000 37.3489 0.0000
# 6 0.0000 0.0000 0.0000 3.0696 0.0000 37.8189
#
#
#
# Elastic Compliance Matrix: (Units=1/GPa)
#
#
# Indices 1 2 3 4 5 6 
#
# 1 0.008842 -0.019049 -0.000243 0.000000 -0.000573 0.000000
# 2 -0.019049 0.210407 -0.042479 0.000000 -0.001245 0.000000
# 3 -0.000243 -0.042479 0.019848 0.000000 -0.004099 0.000000
# 4 0.000000 0.000000 0.000000 0.042793 0.000000 -0.003473
# 5 -0.000573 -0.001245 -0.004099 0.000000 0.029370 0.000000
# 6 0.000000 0.000000 0.000000 -0.003473 0.000000 0.026724
#
#
# Mechanical properties :
#
#
# Convention : Reuss Voigt Hill
#
# Bulk Modulus (GPa) = 8.65389 65.58690 37.12040
# Shear Modulus (GPa) = 9.99909 32.09058 21.04484
#
# Velocity S-wave (km/s) = 2.31466 4.14663 3.35799
# Velocity P-wave (km/s) = 3.43226 7.62026 5.90969
#
# Compressibility (1/GPa) = 0.11555492
#
# Stress axis : x y z
#
# Youngs Moduli (GPa) = 113.09051 4.75269 50.38279
#
# Poissons Ratio (x) = 0.09054 0.01225
# Poissons Ratio (y) = 2.15430 2.14021
# Poissons Ratio (z) = 0.02749 0.20189
#
# Static dielectric constant tensor:
#      x y z
#    x 1.614730 0.000000 -0.011120 
#    y 0.000000 1.635420 0.000000 
#    z -0.011120 0.000000 1.646040 
# 
# From -- ./inp_files/28374.got.cif
#   From: 2010.05.17/outbox.cif.g08.bks.cpg/sg11_15_cif.got.tgz:28374.got - 2010.06.03 12:22:45.
