data_PCOD9163466
_publ_section_title
;
Structure prediction by ZEFSAII (Michael W. Deem and Ramdas Pophale) SiO2 
 PCOD9163466
Probable space group: P 21/M
;
_chemical_formula_sum "Si O2"
_cell_formula_units_Z 20
_cell_length_a 12.415286
_cell_length_b 14.458765
_cell_length_c 17.923460
_cell_angle_alpha 90.000000
_cell_angle_beta 18.121683
_cell_angle_gamma 90.000000
_cell_volume 1000.738492
_symmetry_space_group_name_H-M "P 21/M"
_symmetry_group_IT_number 11
_symmetry_cell_setting 'monoclinic'
loop_
_space_group_symop_operation_xyz
x,y,z
-x,1/2+y,-z
-x,-y,-z
x,1/2-y,z
loop_
_atom_site_type_symbol
_atom_site_label
_atom_site_fract_x
_atom_site_fract_y
_atom_site_fract_z
Si Si1 0.807558 0.052922 0.756299
Si Si2 0.399932 0.142994 0.448019
Si Si3 0.332724 0.357759 0.948534
Si Si4 0.529225 0.528601 0.283840
Si Si5 0.437792 0.642315 0.491120
O O1 0.646449 0.105047 0.792029
O O2 0.008009 0.125095 0.678165
O O3 0.119618 0.982067 0.532546
O O4 0.500000 0.000000 0.000000
O O5 0.500815 0.250000 0.377331
O O6 0.427200 0.112351 0.516156
O O7 0.618986 0.076546 0.248755
O O8 0.380284 0.250000 0.896453
O O9 0.295249 0.421603 0.900571
O O10 0.978662 0.364556 0.228470
O O11 0.558095 0.585518 0.341003
O O12 0.530682 0.750000 0.420930
#
# Coordination Sequence:
#
# PCOD9163466 Si02
#       5
#     4   4   4   4   4
#     4  10  20  37  57  80 115 145 189 231 285 332
#     4   9  20  36  57  82 115 151 187 236 285 330
#     4  11  21  36  58  84 113 149 190 235 279 335
#     4  10  21  35  59  83 112 148 191 233 278 338
#     4  10  20  37  58  84 115 150 189 233 283 334
#
# _framework density 19.985242
#
# number of rings (size 3 to 8) (size 9 to 14) (size 15 to 20)
#    1.200    0.800    2.000    2.400    0.000    0.800 
#    0.000    0.000    0.000    8.400    0.000    0.000 
#    0.000    0.000    0.000    0.000    0.000    0.000 
#
# Total GULP energy -111526.881282 kJ/mol
# GULP energy per Si atom -5576.344064 kJ/mol
# Density = 1.993975 g / cm^3
# Si number density = 19.985242 Si / 1000 Ang^3
#
#
#
# Elastic Constant Matrix: (Units=GPa)
#
#
# Indices 1 2 3 4 5 6 
#
# 1 117.9775 42.3573 14.7137 0.0000 -25.2512 0.0000
# 2 42.3573 89.5286 10.5518 0.0000 9.3053 0.0000
# 3 14.7137 10.5518 41.0602 0.0000 -6.8298 0.0000
# 4 0.0000 0.0000 0.0000 12.5584 0.0000 -5.1136
# 5 -25.2512 9.3053 -6.8298 0.0000 25.1956 0.0000
# 6 0.0000 0.0000 0.0000 -5.1136 0.0000 37.8803
#
#
#
# Elastic Compliance Matrix: (Units=1/GPa)
#
#
# Indices 1 2 3 4 5 6 
#
# 1 0.016222 -0.009737 -0.000009 0.000000 0.019852 0.000000
# 2 -0.009737 0.018080 -0.004075 0.000000 -0.017541 0.000000
# 3 -0.000009 -0.004075 0.026865 0.000000 0.008778 0.000000
# 4 0.000000 0.000000 0.000000 0.084259 0.000000 0.011374
# 5 0.019852 -0.017541 0.008778 0.000000 0.068443 0.000000
# 6 0.000000 0.000000 0.000000 0.011374 0.000000 0.027934
#
#
# Mechanical properties :
#
#
# Convention : Reuss Voigt Hill
#
# Bulk Modulus (GPa) = 29.82782 42.64577 36.23679
# Shear Modulus (GPa) = 17.81771 27.18978 22.50375
#
# Velocity S-wave (km/s) = 2.98911 3.69249 3.35926
# Velocity P-wave (km/s) = 5.18366 6.29001 5.76345
#
# Compressibility (1/GPa) = 0.03352575
#
# Stress axis : x y z
#
# Youngs Moduli (GPa) = 61.64381 55.31031 37.22336
#
# Poissons Ratio (x) = 0.53857 0.00033
# Poissons Ratio (y) = 0.60024 0.15167
# Poissons Ratio (z) = 0.00054 0.22536
#
# Static dielectric constant tensor:
#      x y z
#    x 1.692950 0.000000 -0.036010 
#    y 0.000000 1.724700 0.000000 
#    z -0.036010 0.000000 1.715220 
# 
# From -- ./inp_files/4244.got.cif
#   From: 2010.05.17/outbox.cif.g08.bks.cpg/sg11_3_cif.got.tgz:4244.got - 2010.06.03 12:22:45.
