data_PCOD9163261
_publ_section_title
;
Structure prediction by ZEFSAII (Michael W. Deem and Ramdas Pophale) SiO2 
 PCOD9163261
Probable space group: P 21/M
;
_chemical_formula_sum "Si O2"
_cell_formula_units_Z 26
_cell_length_a 19.454234
_cell_length_b 9.404686
_cell_length_c 12.416471
_cell_angle_alpha 90.000000
_cell_angle_beta 143.241268
_cell_angle_gamma 90.000000
_cell_volume 1359.509026
_symmetry_space_group_name_H-M "P 21/M"
_symmetry_group_IT_number 11
_symmetry_cell_setting 'monoclinic'
loop_
_space_group_symop_operation_xyz
x,y,z
-x,1/2+y,-z
-x,-y,-z
x,1/2-y,z
loop_
_atom_site_type_symbol
_atom_site_label
_atom_site_fract_x
_atom_site_fract_y
_atom_site_fract_z
Si Si1 0.649792 0.580254 0.479759
Si Si2 0.028341 0.583319 0.925489
Si Si3 0.838940 0.417039 0.574449
Si Si4 0.302211 0.583502 0.246219
Si Si5 0.471854 0.250000 0.946477
Si Si6 0.384431 0.919830 0.111423
Si Si7 0.673750 0.484103 0.188046
O O1 0.673001 0.750000 0.506660
O O2 0.743430 0.489111 0.532649
O O3 0.650644 0.519049 0.602008
O O4 0.521386 0.558402 0.272824
O O5 0.996045 0.750000 0.893342
O O6 0.954856 0.503341 0.742493
O O7 0.164203 0.576152 0.075982
O O8 0.000000 0.500000 0.000000
O O9 0.851495 0.250000 0.616658
O O10 0.788503 0.435099 0.391776
O O11 0.335001 0.750000 0.306846
O O12 0.346281 0.541830 0.183397
O O13 0.573629 0.370274 0.081822
O O14 0.372206 0.371960 0.819665
O O15 0.365532 0.750000 0.074927
O O16 0.319984 0.996978 0.933589
#
# Coordination Sequence:
#
# PCOD9163261 Si02
#       7
#     4   4   4   4   2   4   4
#     4  11  22  35  61  92 123 159 196 247 307 361
#     4  11  23  41  64  89 116 156 207 260 304 350
#     4  12  24  37  62  91 124 158 202 255 304 357
#     4  10  22  42  62  85 120 163 205 245 301 367
#     4  10  20  36  60  86 128 160 200 242 292 352
#     4  10  21  39  61  87 128 166 194 237 302 373
#     4  11  22  38  59  92 124 162 200 246 300 362
#
# _framework density 19.124551
#
# number of rings (size 3 to 8) (size 9 to 14) (size 15 to 20)
#    0.000    1.231    3.077    3.692    4.308    0.615 
#    2.769    0.769    0.000    0.000    0.000    0.000 
#    0.000    0.000    0.000    0.000    0.000    0.000 
#
# Total GULP energy -144743.658973 kJ/mol
# GULP energy per Si atom -5567.063807 kJ/mol
# Density = 1.908102 g / cm^3
# Si number density = 19.124551 Si / 1000 Ang^3
#
#
#
# Elastic Constant Matrix: (Units=GPa)
#
#
# Indices 1 2 3 4 5 6 
#
# 1 53.1236 21.0304 15.1349 0.0000 -14.3614 0.0000
# 2 21.0304 126.8970 32.1908 0.0000 -8.4540 0.0000
# 3 15.1349 32.1908 105.5598 0.0000 -19.9971 0.0000
# 4 0.0000 0.0000 0.0000 4.5014 0.0000 18.0398
# 5 -14.3614 -8.4540 -19.9971 0.0000 21.1530 0.0000
# 6 0.0000 0.0000 0.0000 18.0398 0.0000 8.9892
#
#
#
# Elastic Compliance Matrix: (Units=1/GPa)
#
#
# Indices 1 2 3 4 5 6 
#
# 1 0.024122 -0.003069 0.000423 0.000000 0.015551 0.000000
# 2 -0.003069 0.008955 -0.002446 0.000000 -0.000817 0.000000
# 3 0.000423 -0.002446 0.012215 0.000000 0.010858 0.000000
# 4 0.000000 0.000000 0.000000 -0.031545 0.000000 0.063304
# 5 0.015551 -0.000817 0.010858 0.000000 0.067771 0.000000
# 6 0.000000 0.000000 0.000000 0.063304 0.000000 -0.015796
#
#
# Mechanical properties :
#
#
# Convention : Reuss Voigt Hill
#
# Bulk Modulus (GPa) = 28.48195 46.92140 37.70167
# Shear Modulus (GPa) = 57.07194 21.41036 39.24115
#
# Velocity S-wave (km/s) = 5.46873 3.34956 4.53467
# Velocity P-wave (km/s) = 7.40279 6.28866 6.86835
#
# Compressibility (1/GPa) = 0.03510996
#
# Stress axis : x y z
#
# Youngs Moduli (GPa) = 41.45515 111.66936 81.86485
#
# Poissons Ratio (x) = 0.34273 -0.03465
# Poissons Ratio (y) = 0.12723 0.20020
# Poissons Ratio (z) = -0.01755 0.27309
#
# Static dielectric constant tensor:
#      x y z
#    x 1.683220 0.000000 -0.049440 
#    y 0.000000 1.664580 0.000000 
#    z -0.049440 0.000000 1.694700 
# 
# From -- ./inp_files/42979.got.cif
#   From: 2010.05.17/outbox.cif.g08.bks.cpg/sg11_22_cif.got.tgz:42979.got - 2010.06.03 12:22:45.
