data_PCOD9163154
_publ_section_title
;
Structure prediction by ZEFSAII (Michael W. Deem and Ramdas Pophale) SiO2 
 PCOD9163154
Probable space group: P 21/M
;
_chemical_formula_sum "Si O2"
_cell_formula_units_Z 20
_cell_length_a 9.435325
_cell_length_b 15.351589
_cell_length_c 9.458306
_cell_angle_alpha 90.000000
_cell_angle_beta 134.148840
_cell_angle_gamma 90.000000
_cell_volume 983.026747
_symmetry_space_group_name_H-M "P 21/M"
_symmetry_group_IT_number 11
_symmetry_cell_setting 'monoclinic'
loop_
_space_group_symop_operation_xyz
x,y,z
-x,1/2+y,-z
-x,-y,-z
x,1/2-y,z
loop_
_atom_site_type_symbol
_atom_site_label
_atom_site_fract_x
_atom_site_fract_y
_atom_site_fract_z
Si Si1 0.643104 0.151151 0.634821
Si Si2 0.102116 0.491547 0.306750
Si Si3 0.430069 0.073852 0.747699
Si Si4 0.782852 0.654694 0.813490
Si Si5 0.301124 0.420575 0.953478
O O1 0.719399 0.250000 0.679604
O O2 0.785739 0.077474 0.672374
O O3 0.577095 0.126097 0.747646
O O4 0.438748 0.147063 0.403644
O O5 0.236649 0.448118 0.521189
O O6 0.094566 0.422374 0.173291
O O7 0.887275 0.518403 0.209592
O O8 0.375907 0.118537 0.858370
O O9 0.532786 0.983037 0.863234
O O10 0.860116 0.750000 0.829001
O O11 0.765753 0.643267 0.968987
#
# Coordination Sequence:
#
# PCOD9163154 Si02
#       5
#     4   4   4   4   4
#     4  10  20  37  60  82 114 154 191 234 284 336
#     4  11  20  39  59  86 111 152 192 236 278 339
#     4  10  21  38  56  83 117 147 185 233 287 340
#     4  10  20  36  59  85 115 149 190 238 282 334
#     4  11  21  35  60  85 111 149 187 235 287 335
#
# _framework density 20.345324999999999
#
# number of rings (size 3 to 8) (size 9 to 14) (size 15 to 20)
#    0.000    1.600    4.000    2.400    0.000    1.600 
#    0.000    0.000    0.000    4.800    0.000    0.000 
#    0.000    0.000    0.000    0.000    0.000    0.000 
#
# Total GULP energy -111747.476096 kJ/mol
# GULP energy per Si atom -5587.373805 kJ/mol
# Density = 2.029902 g / cm^3
# Si number density = 20.345325 Si / 1000 Ang^3
#
#
#
# Elastic Constant Matrix: (Units=GPa)
#
#
# Indices 1 2 3 4 5 6 
#
# 1 46.0077 -4.1595 13.2169 0.0000 -17.1346 0.0000
# 2 -4.1595 68.5589 1.6007 0.0000 -14.9059 0.0000
# 3 13.2169 1.6007 67.4120 0.0000 -8.9436 0.0000
# 4 0.0000 0.0000 0.0000 6.6620 0.0000 -3.6966
# 5 -17.1346 -14.9059 -8.9436 0.0000 35.5614 0.0000
# 6 0.0000 0.0000 0.0000 -3.6966 0.0000 4.4859
#
#
#
# Elastic Compliance Matrix: (Units=1/GPa)
#
#
# Indices 1 2 3 4 5 6 
#
# 1 0.028924 0.005134 -0.003785 0.000000 0.015137 0.000000
# 2 0.005134 0.016978 -0.000142 0.000000 0.009555 0.000000
# 3 -0.003785 -0.000142 0.015859 0.000000 0.002105 0.000000
# 4 0.000000 0.000000 0.000000 0.276563 0.000000 0.227904
# 5 0.015137 0.009555 0.002105 0.000000 0.039948 0.000000
# 6 0.000000 0.000000 0.000000 0.227904 0.000000 0.410729
#
#
# Mechanical properties :
#
#
# Convention : Reuss Voigt Hill
#
# Bulk Modulus (GPa) = 15.58210 22.58833 19.08521
# Shear Modulus (GPa) = 6.18828 20.76322 13.47575
#
# Velocity S-wave (km/s) = 1.74592 3.19806 2.57641
# Velocity P-wave (km/s) = 3.42633 4.97628 4.27218
#
# Compressibility (1/GPa) = 0.06417621
#
# Stress axis : x y z
#
# Youngs Moduli (GPa) = 34.57295 58.89925 63.05620
#
# Poissons Ratio (x) = -0.30240 0.23865
# Poissons Ratio (y) = -0.17751 0.00896
# Poissons Ratio (z) = 0.13085 0.00837
#
# Static dielectric constant tensor:
#      x y z
#    x 1.708220 0.000000 -0.004190 
#    y 0.000000 1.715450 0.000000 
#    z -0.004190 0.000000 1.748790 
# 
# From -- ./inp_files/12225.got.cif
#   From: 2010.05.17/outbox.cif.g08.bks.cpg/sg11_7_cif.got.tgz:12225.got - 2010.06.03 12:22:45.
