data_PCOD9163208
_publ_section_title
;
Structure prediction by ZEFSAII (Michael W. Deem and Ramdas Pophale) SiO2 
 PCOD9163208
Probable space group: P 21/M
;
_chemical_formula_sum "Si O2"
_cell_formula_units_Z 32
_cell_length_a 13.526167
_cell_length_b 14.078948
_cell_length_c 18.874910
_cell_angle_alpha 90.000000
_cell_angle_beta 21.872531
_cell_angle_gamma 90.000000
_cell_volume 1339.078832
_symmetry_space_group_name_H-M "P 21/M"
_symmetry_group_IT_number 11
_symmetry_cell_setting 'monoclinic'
loop_
_space_group_symop_operation_xyz
x,y,z
-x,1/2+y,-z
-x,-y,-z
x,1/2-y,z
loop_
_atom_site_type_symbol
_atom_site_label
_atom_site_fract_x
_atom_site_fract_y
_atom_site_fract_z
Si Si1 0.301874 0.360601 0.757188
Si Si2 0.957876 0.635406 0.311998
Si Si3 0.255221 0.642931 0.907967
Si Si4 0.648243 0.512881 0.995404
Si Si5 0.040186 0.501417 0.387135
Si Si6 0.374064 0.639874 0.662846
Si Si7 0.499357 0.048674 0.759451
Si Si8 0.882227 0.138042 0.304966
O O1 0.273005 0.250000 0.795630
O O2 0.306088 0.419931 0.826131
O O3 0.584360 0.372677 0.532876
O O4 0.051468 0.382227 0.874332
O O5 0.965623 0.750000 0.307275
O O6 0.197231 0.588054 0.108923
O O7 0.977459 0.593399 0.379234
O O8 0.674267 0.601945 0.468633
O O9 0.313566 0.750000 0.892365
O O10 0.273528 0.639928 0.810006
O O11 0.459109 0.564303 0.797376
O O12 0.892280 0.578088 0.804959
O O13 0.352926 0.488516 0.164335
O O14 0.574389 0.579375 0.113037
O O15 0.000000 0.500000 0.500000
O O16 0.794647 0.429845 0.536042
O O17 0.405666 0.750000 0.619864
O O18 0.167992 0.601200 0.742514
O O19 0.951758 0.250000 0.260546
#
# Coordination Sequence:
#
# PCOD9163208 Si02
#       8
#     4   4   4   4   4   4   4   4
#     4  10  22  38  60  90 126 167 213 267 318 383
#     4  11  23  42  67  97 131 169 210 263 329 387
#     4  10  20  36  59  87 123 164 204 253 315 381
#     4  11  25  41  65  95 127 172 217 269 316 382
#     4  10  23  45  67  90 125 164 220 274 312 373
#     4   9  19  36  60  91 127 167 210 259 317 389
#     4  11  22  40  62  90 123 169 214 264 320 374
#     4  10  22  40  61  92 133 172 215 268 325 381
#
# _framework density 23.897024999999999
#
# number of rings (size 3 to 8) (size 9 to 14) (size 15 to 20)
#    0.000    1.750    1.250    2.250    1.750    3.000 
#    0.000    5.625    0.000    0.750    0.000    0.000 
#    0.000    0.000    0.000    0.000    0.000    0.000 
#
# Total GULP energy -178373.432710 kJ/mol
# GULP energy per Si atom -5574.169772 kJ/mol
# Density = 2.384263 g / cm^3
# Si number density = 23.897025 Si / 1000 Ang^3
#
#
#
# Elastic Constant Matrix: (Units=GPa)
#
#
# Indices 1 2 3 4 5 6 
#
# 1 72.4690 12.7540 21.9758 0.0000 -13.6222 0.0000
# 2 12.7540 75.0924 29.1286 0.0000 -8.7429 0.0000
# 3 21.9758 29.1286 171.7375 0.0000 -21.8039 0.0000
# 4 0.0000 0.0000 0.0000 28.4575 0.0000 -3.1690
# 5 -13.6222 -8.7429 -21.8039 0.0000 52.1781 0.0000
# 6 0.0000 0.0000 0.0000 -3.1690 0.0000 19.2008
#
#
#
# Elastic Compliance Matrix: (Units=1/GPa)
#
#
# Indices 1 2 3 4 5 6 
#
# 1 0.015064 -0.001713 -0.001240 0.000000 0.003128 0.000000
# 2 -0.001713 0.014555 -0.002108 0.000000 0.001110 0.000000
# 3 -0.001240 -0.002108 0.006604 0.000000 0.002082 0.000000
# 4 0.000000 0.000000 0.000000 0.035798 0.000000 0.005908
# 5 0.003128 0.001110 0.002082 0.000000 0.021038 0.000000
# 6 0.000000 0.000000 0.000000 0.005908 0.000000 0.053056
#
#
# Mechanical properties :
#
#
# Convention : Reuss Voigt Hill
#
# Bulk Modulus (GPa) = 38.31520 49.66841 43.99181
# Shear Modulus (GPa) = 30.31425 36.99664 33.65545
#
# Velocity S-wave (km/s) = 3.56552 3.93895 3.75687
# Velocity P-wave (km/s) = 5.74620 6.44333 6.10473
#
# Compressibility (1/GPa) = 0.02609930
#
# Stress axis : x y z
#
# Youngs Moduli (GPa) = 66.38127 68.70436 151.43450
#
# Poissons Ratio (x) = 0.11772 0.18777
# Poissons Ratio (y) = 0.11374 0.31929
# Poissons Ratio (z) = 0.08231 0.14486
#
# Static dielectric constant tensor:
#      x y z
#    x 2.036770 0.000000 0.082510 
#    y 0.000000 1.911620 0.000000 
#    z 0.082510 0.000000 2.018630 
# 
# From -- ./inp_files/65753.got.cif
#   From: 2010.05.17/outbox.cif.g08.bks.cpg/sg11_33_cif.got.tgz:65753.got - 2010.06.03 12:22:45.
