data_PCOD9163577
_publ_section_title
;
Structure prediction by ZEFSAII (Michael W. Deem and Ramdas Pophale) SiO2 
 PCOD9163577
Probable space group: P 21/M
;
_chemical_formula_sum "Si O2"
_cell_formula_units_Z 32
_cell_length_a 11.888226
_cell_length_b 7.537737
_cell_length_c 15.869322
_cell_angle_alpha 90.000000
_cell_angle_beta 92.713358
_cell_angle_gamma 90.000000
_cell_volume 1420.460723
_symmetry_space_group_name_H-M "P 21/M"
_symmetry_group_IT_number 11
_symmetry_cell_setting 'monoclinic'
loop_
_space_group_symop_operation_xyz
x,y,z
-x,1/2+y,-z
-x,-y,-z
x,1/2-y,z
loop_
_atom_site_type_symbol
_atom_site_label
_atom_site_fract_x
_atom_site_fract_y
_atom_site_fract_z
Si Si1 0.019914 0.959804 0.268356
Si Si2 0.151900 0.546100 0.433080
Si Si3 0.568697 0.039041 0.123288
Si Si4 0.591650 0.960802 0.575384
Si Si5 0.672090 0.464060 0.953575
Si Si6 0.825738 0.035446 0.384378
Si Si7 0.921516 0.463216 0.916238
Si Si8 0.408286 0.532929 0.691455
O O1 0.044056 0.750000 0.262991
O O2 0.100369 0.034844 0.345910
O O3 0.034678 0.029880 0.173671
O O4 0.897654 0.984054 0.305547
O O5 0.112892 0.750000 0.433271
O O6 0.287229 0.545343 0.432393
O O7 0.126319 0.467452 0.524716
O O8 0.587409 0.250000 0.124307
O O9 0.607050 0.969492 0.214328
O O10 0.435287 0.009783 0.107407
O O11 0.635496 0.968150 0.044855
O O12 0.609647 0.750000 0.579069
O O13 0.527367 0.021445 0.657325
O O14 0.500000 0.000000 0.500000
O O15 0.677616 0.250000 0.957128
O O16 0.793941 0.528440 0.928471
O O17 0.825893 0.250000 0.388813
O O18 0.697432 0.975499 0.368015
O O19 0.916642 0.250000 0.910897
O O20 0.000000 0.500000 0.000000
O O21 0.407956 0.750000 0.690632
#
# Coordination Sequence:
#
# PCOD9163577 Si02
#       8
#     4   4   4   4   4   4   4   4
#     4  10  23  40  58  84 117 149 189 243 293 336
#     4  10  21  39  60  83 116 153 189 238 291 340
#     4   9  18  34  57  82 110 143 180 227 275 328
#     4  11  21  36  56  82 117 151 189 231 280 339
#     4   9  19  36  57  81 109 142 181 225 281 335
#     4  10  20  37  60  83 113 152 195 235 279 341
#     4  10  23  41  59  83 115 150 190 237 285 341
#     4   9  19  34  54  82 113 145 184 230 274 325
#
# _framework density 22.527902999999998
#
# number of rings (size 3 to 8) (size 9 to 14) (size 15 to 20)
#    0.000    2.250    1.250    0.750    3.500    2.000 
#    0.000    1.250    0.000    0.000    0.000    0.000 
#    0.000    0.000    0.000    0.000    0.000    0.000 
#
# Total GULP energy -178661.196658 kJ/mol
# GULP energy per Si atom -5583.162396 kJ/mol
# Density = 2.247663 g / cm^3
# Si number density = 22.527903 Si / 1000 Ang^3
#
#
#
# Elastic Constant Matrix: (Units=GPa)
#
#
# Indices 1 2 3 4 5 6 
#
# 1 86.4319 -7.0981 46.6595 0.0000 -21.9262 0.0000
# 2 -7.0981 64.0807 6.6966 0.0000 -0.6290 0.0000
# 3 46.6595 6.6966 168.6343 0.0000 -6.2522 0.0000
# 4 0.0000 0.0000 0.0000 13.2239 0.0000 -2.2376
# 5 -21.9262 -0.6290 -6.2522 0.0000 25.7739 0.0000
# 6 0.0000 0.0000 0.0000 -2.2376 0.0000 21.4634
#
#
#
# Elastic Compliance Matrix: (Units=1/GPa)
#
#
# Indices 1 2 3 4 5 6 
#
# 1 0.017790 0.002579 -0.004502 0.000000 0.014105 0.000000
# 2 0.002579 0.016046 -0.001266 0.000000 0.002279 0.000000
# 3 -0.004502 -0.001266 0.007147 0.000000 -0.002127 0.000000
# 4 0.000000 0.000000 0.000000 0.076979 0.000000 0.008025
# 5 0.014105 0.002279 -0.002127 0.000000 0.050338 0.000000
# 6 0.000000 0.000000 0.000000 0.008025 0.000000 0.047428
#
#
# Mechanical properties :
#
#
# Convention : Reuss Voigt Hill
#
# Bulk Modulus (GPa) = 28.89722 45.74032 37.31877
# Shear Modulus (GPa) = 21.40046 30.28484 25.84265
#
# Velocity S-wave (km/s) = 3.08548 3.67048 3.39062
# Velocity P-wave (km/s) = 5.05457 6.18960 5.65066
#
# Compressibility (1/GPa) = 0.03460540
#
# Stress axis : x y z
#
# Youngs Moduli (GPa) = 56.21088 62.32173 139.91807
#
# Poissons Ratio (x) = -0.16076 0.62989
# Poissons Ratio (y) = -0.14500 0.17720
# Poissons Ratio (z) = 0.25305 0.07893
#
# Static dielectric constant tensor:
#      x y z
#    x 1.804940 0.000000 -0.007030 
#    y 0.000000 1.846490 0.000000 
#    z -0.007030 0.000000 1.867990 
# 
# From -- ./inp_files/49288.got.cif
#   From: 2010.05.17/outbox.cif.g08.bks.cpg/sg11_25_cif.got.tgz:49288.got - 2010.06.03 12:22:45.
