data_PCOD9163368
_publ_section_title
;
Structure prediction by ZEFSAII (Michael W. Deem and Ramdas Pophale) SiO2 
 PCOD9163368
Probable space group: P 21/M
;
_chemical_formula_sum "Si O2"
_cell_formula_units_Z 28
_cell_length_a 15.052294
_cell_length_b 8.664346
_cell_length_c 10.021514
_cell_angle_alpha 90.000000
_cell_angle_beta 109.781588
_cell_angle_gamma 90.000000
_cell_volume 1229.862695
_symmetry_space_group_name_H-M "P 21/M"
_symmetry_group_IT_number 11
_symmetry_cell_setting 'monoclinic'
loop_
_space_group_symop_operation_xyz
x,y,z
-x,1/2+y,-z
-x,-y,-z
x,1/2-y,z
loop_
_atom_site_type_symbol
_atom_site_label
_atom_site_fract_x
_atom_site_fract_y
_atom_site_fract_z
Si Si1 0.905583 0.933286 0.014944
Si Si2 0.186143 0.929403 0.782712
Si Si3 0.361330 0.080652 0.998077
Si Si4 0.097804 0.066669 0.488566
Si Si5 0.396803 0.434003 0.483086
Si Si6 0.480764 0.420809 0.789778
Si Si7 0.797989 0.433577 0.716845
O O1 0.910143 0.750000 0.031798
O O2 0.825426 0.982509 0.868406
O O3 0.890483 0.012205 0.149975
O O4 0.000000 0.000000 0.000000
O O5 0.175172 0.750000 0.745538
O O6 0.174521 0.027263 0.642438
O O7 0.282960 0.961091 0.911347
O O8 0.318542 0.250000 0.998574
O O9 0.429170 0.031122 0.153077
O O10 0.431004 0.089730 0.906908
O O11 0.089459 0.250000 0.465696
O O12 0.133520 0.990854 0.368714
O O13 0.000000 0.000000 0.500000
O O14 0.500000 0.500000 0.500000
O O15 0.390082 0.250000 0.453641
O O16 0.400091 0.461598 0.644103
O O17 0.308447 0.520370 0.375811
O O18 0.516404 0.250000 0.770984
O O19 0.807727 0.250000 0.737593
#
# Coordination Sequence:
#
# PCOD9163368 Si02
#       7
#     4   4   4   4   4   4   4
#     4  12  26  47  71  99 135 177 223 277 341 407
#     4  12  25  42  66  97 132 171 219 271 329 395
#     4  10  20  36  61  91 122 162 210 264 323 384
#     4  12  25  45  71 102 137 176 224 279 342 410
#     4  11  24  42  64  92 131 179 230 280 333 398
#     4   9  20  38  59  85 123 165 211 264 321 380
#     4  12  26  46  71 102 139 183 231 283 346 412
#
# _framework density 22.766770999999999
#
# number of rings (size 3 to 8) (size 9 to 14) (size 15 to 20)
#    0.000    0.857    0.000    7.714    2.000    2.857 
#    0.000    0.000    0.000    0.000    0.000    0.000 
#    0.000    0.000    0.000    0.000    0.000    0.000 
#
# Total GULP energy -156706.073233 kJ/mol
# GULP energy per Si atom -5596.645473 kJ/mol
# Density = 2.271495 g / cm^3
# Si number density = 22.766771 Si / 1000 Ang^3
#
#
#
# Elastic Constant Matrix: (Units=GPa)
#
#
# Indices 1 2 3 4 5 6 
#
# 1 63.7185 9.2017 -6.1418 0.0000 6.2207 0.0000
# 2 9.2017 98.6194 -11.8776 0.0000 5.1769 0.0000
# 3 -6.1418 -11.8776 68.9972 0.0000 6.3267 0.0000
# 4 0.0000 0.0000 0.0000 36.8935 0.0000 5.3152
# 5 6.2207 5.1769 6.3267 0.0000 39.1705 0.0000
# 6 0.0000 0.0000 0.0000 5.3152 0.0000 36.6550
#
#
#
# Elastic Compliance Matrix: (Units=1/GPa)
#
#
# Indices 1 2 3 4 5 6 
#
# 1 0.016271 -0.001199 0.001486 0.000000 -0.002666 0.000000
# 2 -0.001199 0.010553 0.001848 0.000000 -0.001503 0.000000
# 3 0.001486 0.001848 0.015213 0.000000 -0.002937 0.000000
# 4 0.000000 0.000000 0.000000 0.027683 0.000000 -0.004014
# 5 -0.002666 -0.001503 -0.002937 0.000000 0.026626 0.000000
# 6 0.000000 0.000000 0.000000 -0.004014 0.000000 0.027864
#
#
# Mechanical properties :
#
#
# Convention : Reuss Voigt Hill
#
# Bulk Modulus (GPa) = 21.59506 23.74441 22.66973
# Shear Modulus (GPa) = 36.93425 38.55398 37.74412
#
# Velocity S-wave (km/s) = 4.03213 4.11960 4.07610
# Velocity P-wave (km/s) = 5.58421 5.75154 5.66849
#
# Compressibility (1/GPa) = 0.04630689
#
# Stress axis : x y z
#
# Youngs Moduli (GPa) = 61.46012 94.75700 65.73285
#
# Poissons Ratio (x) = 0.11363 -0.09770
# Poissons Ratio (y) = 0.07370 -0.12146
# Poissons Ratio (z) = -0.09135 -0.17509
#
# Static dielectric constant tensor:
#      x y z
#    x 1.743770 0.000000 -0.021430 
#    y 0.000000 1.810910 0.000000 
#    z -0.021430 0.000000 1.891330 
# 
# From -- ./inp_files/38444.got.cif
#   From: 2010.05.17/outbox.cif.g08.bks.cpg/sg11_20_cif.got.tgz:38444.got - 2010.06.03 12:22:45.
