data_PCOD9163744
_publ_section_title
;
Structure prediction by ZEFSAII (Michael W. Deem and Ramdas Pophale) SiO2 
 PCOD9163744
Probable space group: P 21/M
;
_chemical_formula_sum "Si O2"
_cell_formula_units_Z 32
_cell_length_a 12.068233
_cell_length_b 21.172778
_cell_length_c 5.867514
_cell_angle_alpha 90.000000
_cell_angle_beta 113.456141
_cell_angle_gamma 90.000000
_cell_volume 1375.364629
_symmetry_space_group_name_H-M "P 21/M"
_symmetry_group_IT_number 11
_symmetry_cell_setting 'monoclinic'
loop_
_space_group_symop_operation_xyz
x,y,z
-x,1/2+y,-z
-x,-y,-z
x,1/2-y,z
loop_
_atom_site_type_symbol
_atom_site_label
_atom_site_fract_x
_atom_site_fract_y
_atom_site_fract_z
Si Si1 0.123198 0.078265 0.362648
Si Si2 0.135611 0.324470 0.003852
Si Si3 0.286638 0.868071 0.918299
Si Si4 0.926634 0.115624 0.525478
Si Si5 0.493879 0.178571 0.652008
Si Si6 0.235817 0.532998 0.264112
Si Si7 0.462307 0.927604 0.685650
Si Si8 0.328854 0.396568 0.870939
O O1 0.231320 0.070280 0.630564
O O2 0.001394 0.073305 0.406170
O O3 0.158206 0.030702 0.188260
O O4 0.122693 0.146605 0.245259
O O5 0.143066 0.250000 0.014859
O O6 0.254209 0.354571 0.987008
O O7 0.022853 0.346969 0.756289
O O8 0.167161 0.842708 0.697876
O O9 0.374812 0.895133 0.797737
O O10 0.369611 0.822733 0.136888
O O11 0.247785 0.926021 0.048049
O O12 0.844183 0.073579 0.623390
O O13 0.460334 0.250000 0.560261
O O14 0.495924 0.127526 0.452187
O O15 0.406582 0.149940 0.773776
O O16 0.373139 0.525693 0.475360
O O17 0.581785 0.944964 0.926270
#
# Coordination Sequence:
#
# PCOD9163744 Si02
#       8
#     4   4   4   4   4   4   4   4
#     4  11  24  39  63  92 119 159 202 244 296 351
#     4  11  25  42  60  88 124 159 199 245 293 351
#     4   9  20  38  60  89 120 151 193 246 301 354
#     4  10  22  41  63  88 119 158 201 246 297 355
#     4  10  20  37  62  88 117 156 202 251 301 354
#     4  10  21  41  64  90 122 153 196 250 300 355
#     4   9  20  38  59  87 120 154 196 245 296 351
#     4  10  22  40  60  88 120 158 200 242 299 357
#
# _framework density 23.266555
#
# number of rings (size 3 to 8) (size 9 to 14) (size 15 to 20)
#    0.000    2.000    0.000    2.250    0.000   13.000 
#    0.000   17.500    0.000    0.000    0.000    0.000 
#    0.000    0.000    0.000    0.000    0.000    0.000 
#
# Total GULP energy -178935.702075 kJ/mol
# GULP energy per Si atom -5591.740690 kJ/mol
# Density = 2.321360 g / cm^3
# Si number density = 23.266555 Si / 1000 Ang^3
#
#
#
# Elastic Constant Matrix: (Units=GPa)
#
#
# Indices 1 2 3 4 5 6 
#
# 1 130.6627 20.1455 53.0625 0.0000 -0.8661 0.0000
# 2 20.1455 53.6245 -5.2030 0.0000 -18.1526 0.0000
# 3 53.0625 -5.2030 87.9453 0.0000 13.8077 0.0000
# 4 0.0000 0.0000 0.0000 6.3602 0.0000 -7.5204
# 5 -0.8661 -18.1526 13.8077 0.0000 50.8461 0.0000
# 6 0.0000 0.0000 0.0000 -7.5204 0.0000 14.1151
#
#
#
# Elastic Compliance Matrix: (Units=1/GPa)
#
#
# Indices 1 2 3 4 5 6 
#
# 1 0.011310 -0.004800 -0.007175 0.000000 0.000427 0.000000
# 2 -0.004800 0.023250 0.003114 0.000000 0.007373 0.000000
# 3 -0.007175 0.003114 0.016429 0.000000 -0.003472 0.000000
# 4 0.000000 0.000000 0.000000 0.424934 0.000000 0.226403
# 5 0.000427 0.007373 -0.003472 0.000000 0.023249 0.000000
# 6 0.000000 0.000000 0.000000 0.226403 0.000000 0.191473
#
#
# Mechanical properties :
#
#
# Convention : Reuss Voigt Hill
#
# Bulk Modulus (GPa) = 30.06040 45.36026 37.71033
# Shear Modulus (GPa) = 6.94969 27.87944 17.41456
#
# Velocity S-wave (km/s) = 1.73017 3.46535 2.73881
# Velocity P-wave (km/s) = 4.11574 5.96236 5.12294
#
# Compressibility (1/GPa) = 0.03326635
#
# Stress axis : x y z
#
# Youngs Moduli (GPa) = 88.41659 43.01153 60.86718
#
# Poissons Ratio (x) = 0.20648 0.43673
# Poissons Ratio (y) = 0.42444 -0.18956
# Poissons Ratio (z) = 0.63440 -0.13395
#
# Static dielectric constant tensor:
#      x y z
#    x 1.858800 0.000000 0.039240 
#    y 0.000000 1.833240 0.000000 
#    z 0.039240 0.000000 1.902490 
# 
# From -- ./inp_files/5478.got.cif
#   From: 2010.05.17/outbox.cif.g08.bks.cpg/sg11_3_cif.got.tgz:5478.got - 2010.06.03 12:22:45.
