data_PCOD9163045
_publ_section_title
;
Structure prediction by ZEFSAII (Michael W. Deem and Ramdas Pophale) SiO2 
 PCOD9163045
Probable space group: P 21/M
;
_chemical_formula_sum "Si O2"
_cell_formula_units_Z 32
_cell_length_a 21.431162
_cell_length_b 8.967627
_cell_length_c 26.964406
_cell_angle_alpha 90.000000
_cell_angle_beta 20.954453
_cell_angle_gamma 90.000000
_cell_volume 1853.287612
_symmetry_space_group_name_H-M "P 21/M"
_symmetry_group_IT_number 11
_symmetry_cell_setting 'monoclinic'
loop_
_space_group_symop_operation_xyz
x,y,z
-x,1/2+y,-z
-x,-y,-z
x,1/2-y,z
loop_
_atom_site_type_symbol
_atom_site_label
_atom_site_fract_x
_atom_site_fract_y
_atom_site_fract_z
Si Si1 0.457520 0.427880 0.584396
Si Si2 0.337784 0.072187 0.982598
Si Si3 0.062355 0.429635 0.902966
Si Si4 0.775036 0.574497 0.398309
Si Si5 0.037017 0.928718 0.396735
Si Si6 0.067611 0.929683 0.258363
Si Si7 0.910763 0.073088 0.911614
Si Si8 0.717922 0.572119 0.703529
O O1 0.500000 0.500000 0.500000
O O2 0.463222 0.250000 0.575345
O O3 0.262724 0.472110 0.744346
O O4 0.602203 0.482632 0.515868
O O5 0.340334 0.250000 0.983050
O O6 0.532234 0.007193 0.837990
O O7 0.226272 0.007176 0.111625
O O8 0.234965 0.016375 0.010049
O O9 0.054808 0.250000 0.911272
O O10 0.946539 0.474043 0.941304
O O11 0.000000 0.500000 0.000000
O O12 0.732004 0.750000 0.433538
O O13 0.889531 0.531569 0.361195
O O14 0.908426 0.555761 0.253121
O O15 0.064483 0.750000 0.381450
O O16 0.054124 0.967025 0.326223
O O17 0.846815 0.961068 0.561458
O O18 0.177484 0.013913 0.326021
O O19 0.088752 0.750000 0.237683
O O20 0.868452 0.250000 0.941481
O O21 0.693959 0.750000 0.723927
#
# Coordination Sequence:
#
# PCOD9163045 Si02
#       8
#     4   4   4   4   4   4   4   4
#     4  11  21  35  56  81 108 140 182 226 269 322
#     4  11  22  35  55  84 112 142 184 226 266 322
#     4  10  22  39  56  78 110 144 181 226 274 323
#     4   9  17  33  56  81 108 138 178 223 272 324
#     4   9  19  37  60  83 108 142 184 226 267 318
#     4   9  19  37  58  80 111 144 178 225 274 320
#     4   9  18  37  58  76 107 146 181 223 272 323
#     4  10  20  36  58  82 112 148 182 219 270 326
#
# _framework density 17.266613
#
# number of rings (size 3 to 8) (size 9 to 14) (size 15 to 20)
#    0.000    2.250    1.250    2.625    0.000    5.000 
#    2.250    0.000    0.000    0.000    0.000    0.000 
#    0.000    0.000    0.000    0.000    0.000    0.000 
#
# Total GULP energy -178581.884950 kJ/mol
# GULP energy per Si atom -5580.683905 kJ/mol
# Density = 1.722731 g / cm^3
# Si number density = 17.266613 Si / 1000 Ang^3
#
#
#
# Elastic Constant Matrix: (Units=GPa)
#
#
# Indices 1 2 3 4 5 6 
#
# 1 152.6761 63.4947 98.3449 0.0000 8.4849 0.0000
# 2 63.4947 62.2552 70.0410 0.0000 -4.7029 0.0000
# 3 98.3449 70.0410 140.4967 0.0000 -9.4908 0.0000
# 4 0.0000 0.0000 0.0000 29.6656 0.0000 -5.0583
# 5 8.4849 -4.7029 -9.4908 0.0000 24.2741 0.0000
# 6 0.0000 0.0000 0.0000 -5.0583 0.0000 30.6999
#
#
#
# Elastic Compliance Matrix: (Units=1/GPa)
#
#
# Indices 1 2 3 4 5 6 
#
# 1 0.015034 -0.007946 -0.007212 0.000000 -0.009614 0.000000
# 2 -0.007946 0.040779 -0.014427 0.000000 0.005037 0.000000
# 3 -0.007212 -0.014427 0.019864 0.000000 0.007492 0.000000
# 4 0.000000 0.000000 0.000000 0.034684 0.000000 0.005715
# 5 -0.009614 0.005037 0.007492 0.000000 0.048462 0.000000
# 6 0.000000 0.000000 0.000000 0.005715 0.000000 0.033515
#
#
# Mechanical properties :
#
#
# Convention : Reuss Voigt Hill
#
# Bulk Modulus (GPa) = 60.57831 91.02101 75.79966
# Shear Modulus (GPa) = 19.45456 25.16442 22.30949
#
# Velocity S-wave (km/s) = 3.36030 3.82174 3.59842
# Velocity P-wave (km/s) = 7.08631 8.50316 7.82686
#
# Compressibility (1/GPa) = 0.01650756
#
# Stress axis : x y z
#
# Youngs Moduli (GPa) = 66.51566 24.52251 50.34254
#
# Poissons Ratio (x) = 0.19486 0.36306
# Poissons Ratio (y) = 0.52854 0.72629
# Poissons Ratio (z) = 0.47969 0.35378
#
# Static dielectric constant tensor:
#      x y z
#    x 1.578290 0.000000 -0.002940 
#    y 0.000000 1.573650 0.000000 
#    z -0.002940 0.000000 1.562810 
# 
# From -- ./inp_files/71981.got.cif
#   From: 2010.05.17/outbox.cif.g08.bks.cpg/sg11_36_cif.got.tgz:71981.got - 2010.06.03 12:22:45.
