data_PCOD9163926
_publ_section_title
;
Structure prediction by ZEFSAII (Michael W. Deem and Ramdas Pophale) SiO2 
 PCOD9163926
Probable space group: P 21/M
;
_chemical_formula_sum "Si O2"
_cell_formula_units_Z 24
_cell_length_a 19.887631
_cell_length_b 8.586360
_cell_length_c 27.798665
_cell_angle_alpha 90.000000
_cell_angle_beta 16.498933
_cell_angle_gamma 90.000000
_cell_volume 1348.126316
_symmetry_space_group_name_H-M "P 21/M"
_symmetry_group_IT_number 11
_symmetry_cell_setting 'monoclinic'
loop_
_space_group_symop_operation_xyz
x,y,z
-x,1/2+y,-z
-x,-y,-z
x,1/2-y,z
loop_
_atom_site_type_symbol
_atom_site_label
_atom_site_fract_x
_atom_site_fract_y
_atom_site_fract_z
Si Si1 0.456088 0.935124 0.476906
Si Si2 0.704957 0.561669 0.563132
Si Si3 0.741774 0.062460 0.190030
Si Si4 0.020468 0.936919 0.432519
Si Si5 0.014130 0.062608 0.725503
Si Si6 0.491813 0.437282 0.059880
O O1 0.480095 0.750000 0.460443
O O2 0.500000 0.000000 0.500000
O O3 0.636733 0.004625 0.313098
O O4 0.193569 0.983353 0.639253
O O5 0.695630 0.750000 0.571746
O O6 0.449353 0.509582 0.719352
O O7 0.889862 0.522650 0.393782
O O8 0.808611 0.506604 0.542616
O O9 0.744787 0.250000 0.188821
O O10 0.000000 0.000000 0.000000
O O11 0.015319 0.750000 0.436674
O O12 0.265670 0.992971 0.241285
O O13 0.000000 0.000000 0.500000
O O14 0.036224 0.250000 0.715705
O O15 0.739058 0.020165 0.916313
O O16 0.477698 0.250000 0.068512
O O17 0.500000 0.500000 0.000000
#
# Coordination Sequence:
#
# PCOD9163926 Si02
#       6
#     4   4   4   4   4   4
#     4  11  22  38  60  87 117 151 188 236 290 340
#     4   8  16  34  58  79 109 149 186 227 283 339
#     4  10  20  38  61  86 113 149 193 236 284 342
#     4  11  22  39  57  82 116 155 193 235 289 340
#     4   9  18  36  59  84 113 150 190 233 286 341
#     4  11  21  36  60  88 116 151 191 236 283 336
#
# _framework density 17.802486999999999
#
# number of rings (size 3 to 8) (size 9 to 14) (size 15 to 20)
#    0.000    2.000    1.667    4.000    0.000    1.333 
#    3.000    2.500    0.000    0.000    0.000    0.000 
#    0.000    0.000    0.000    0.000    0.000    0.000 
#
# Total GULP energy -133939.229830 kJ/mol
# GULP energy per Si atom -5580.801243 kJ/mol
# Density = 1.776197 g / cm^3
# Si number density = 17.802487 Si / 1000 Ang^3
#
#
#
# Elastic Constant Matrix: (Units=GPa)
#
#
# Indices 1 2 3 4 5 6 
#
# 1 184.0307 51.0767 93.7426 0.0000 -4.2613 0.0000
# 2 51.0767 73.9992 44.9587 0.0000 -4.3412 0.0000
# 3 93.7426 44.9587 143.2743 0.0000 -12.0287 0.0000
# 4 0.0000 0.0000 0.0000 33.3918 0.0000 0.8015
# 5 -4.2613 -4.3412 -12.0287 0.0000 25.1595 0.0000
# 6 0.0000 0.0000 0.0000 0.8015 0.0000 30.6824
#
#
#
# Elastic Compliance Matrix: (Units=1/GPa)
#
#
# Indices 1 2 3 4 5 6 
#
# 1 0.008752 -0.003178 -0.004845 0.000000 -0.001382 0.000000
# 2 -0.003178 0.017855 -0.003448 0.000000 0.000894 0.000000
# 3 -0.004845 -0.003448 0.011578 0.000000 0.004120 0.000000
# 4 0.000000 0.000000 0.000000 0.029966 0.000000 -0.000783
# 5 -0.001382 0.000894 0.004120 0.000000 0.041636 0.000000
# 6 0.000000 0.000000 0.000000 -0.000783 0.000000 0.032612
#
#
# Mechanical properties :
#
#
# Convention : Reuss Voigt Hill
#
# Bulk Modulus (GPa) = 65.61122 86.76224 76.18673
# Shear Modulus (GPa) = 29.33883 31.94851 30.64367
#
# Velocity S-wave (km/s) = 4.06398 4.24088 4.15337
# Velocity P-wave (km/s) = 7.67831 8.53357 8.11721
#
# Compressibility (1/GPa) = 0.01524130
#
# Stress axis : x y z
#
# Youngs Moduli (GPa) = 114.25967 56.00716 86.37422
#
# Poissons Ratio (x) = 0.17801 0.41849
# Poissons Ratio (y) = 0.36316 0.29783
# Poissons Ratio (z) = 0.55359 0.19312
#
# Static dielectric constant tensor:
#      x y z
#    x 1.605890 0.000000 -0.025210 
#    y 0.000000 1.605690 0.000000 
#    z -0.025210 0.000000 1.586180 
# 
# From -- ./inp_files/69400.got.cif
#   From: 2010.05.17/outbox.cif.g08.bks.cpg/sg11_35_cif.got.tgz:69400.got - 2010.06.03 12:22:45.
