data_PCOD9163400
_publ_section_title
;
Structure prediction by ZEFSAII (Michael W. Deem and Ramdas Pophale) SiO2 
 PCOD9163400
Probable space group: P 21/M
;
_chemical_formula_sum "Si O2"
_cell_formula_units_Z 20
_cell_length_a 7.194829
_cell_length_b 18.111857
_cell_length_c 11.788089
_cell_angle_alpha 90.000000
_cell_angle_beta 36.025577
_cell_angle_gamma 90.000000
_cell_volume 903.466935
_symmetry_space_group_name_H-M "P 21/M"
_symmetry_group_IT_number 11
_symmetry_cell_setting 'monoclinic'
loop_
_space_group_symop_operation_xyz
x,y,z
-x,1/2+y,-z
-x,-y,-z
x,1/2-y,z
loop_
_atom_site_type_symbol
_atom_site_label
_atom_site_fract_x
_atom_site_fract_y
_atom_site_fract_z
Si Si1 0.816826 0.562135 0.784562
Si Si2 0.404584 0.500074 0.415739
Si Si3 0.108231 0.893429 0.303645
Si Si4 0.762432 0.165464 0.992694
Si Si5 0.247738 0.403427 0.925734
O O1 0.776393 0.577220 0.517578
O O2 0.544511 0.614186 0.872153
O O3 0.247788 0.525784 0.194882
O O4 0.882038 0.579887 0.884277
O O5 0.500000 0.500000 0.500000
O O6 0.133690 0.563680 0.552380
O O7 0.657617 0.525625 0.199163
O O8 0.412939 0.862745 0.219458
O O9 0.053570 0.846596 0.217760
O O10 0.668511 0.250000 0.052135
O O11 0.992407 0.140760 0.979653
#
# Coordination Sequence:
#
# PCOD9163400 Si02
#       5
#     4   4   4   4   4
#     4   9  23  39  60  91 118 150 199 257 292 346
#     4  10  20  36  62  93 117 145 193 253 301 341
#     4   9  21  38  60  92 114 149 199 257 288 343
#     4  11  22  37  59  87 121 162 199 239 298 364
#     4  11  19  37  60  87 117 155 192 238 304 349
#
# _framework density 22.136946999999999
#
# number of rings (size 3 to 8) (size 9 to 14) (size 15 to 20)
#    1.200    0.800    2.000    3.000    0.000   10.400 
#    0.000    1.000    0.000    4.800    0.000    0.000 
#    0.000    0.000    0.000    0.000    0.000    0.000 
#
# Total GULP energy -111444.494168 kJ/mol
# GULP energy per Si atom -5572.224708 kJ/mol
# Density = 2.208656 g / cm^3
# Si number density = 22.136947 Si / 1000 Ang^3
#
#
#
# Elastic Constant Matrix: (Units=GPa)
#
#
# Indices 1 2 3 4 5 6 
#
# 1 129.8019 42.2077 31.9020 0.0000 34.7618 0.0000
# 2 42.2077 79.5895 9.2254 0.0000 2.7402 0.0000
# 3 31.9020 9.2254 93.5658 0.0000 4.7293 0.0000
# 4 0.0000 0.0000 0.0000 0.9749 0.0000 -0.9262
# 5 34.7618 2.7402 4.7293 0.0000 49.6018 0.0000
# 6 0.0000 0.0000 0.0000 -0.9262 0.0000 16.2779
#
#
#
# Elastic Compliance Matrix: (Units=1/GPa)
#
#
# Indices 1 2 3 4 5 6 
#
# 1 0.012701 -0.006067 -0.003315 0.000000 -0.008250 0.000000
# 2 -0.006067 0.015625 0.000359 0.000000 0.003355 0.000000
# 3 -0.003315 0.000359 0.011723 0.000000 0.001186 0.000000
# 4 0.000000 0.000000 0.000000 1.084363 0.000000 0.061700
# 5 -0.008250 0.003355 0.001186 0.000000 0.025644 0.000000
# 6 0.000000 0.000000 0.000000 0.061700 0.000000 0.064944
#
#
# Mechanical properties :
#
#
# Convention : Reuss Voigt Hill
#
# Bulk Modulus (GPa) = 45.45312 52.18082 48.81697
# Shear Modulus (GPa) = 4.03102 28.01239 16.02170
#
# Velocity S-wave (km/s) = 1.35089 3.56112 2.69319
# Velocity P-wave (km/s) = 4.79692 6.36646 5.63659
#
# Compressibility (1/GPa) = 0.02200069
#
# Stress axis : x y z
#
# Youngs Moduli (GPa) = 78.73287 63.99987 85.30414
#
# Poissons Ratio (x) = 0.38831 0.28281
# Poissons Ratio (y) = 0.47770 -0.03059
# Poissons Ratio (z) = 0.26103 -0.02295
#
# Static dielectric constant tensor:
#      x y z
#    x 1.968000 0.000000 -0.032430 
#    y 0.000000 1.777120 0.000000 
#    z -0.032430 0.000000 1.918800 
# 
# From -- ./inp_files/13694.got.cif
#   From: 2010.05.17/outbox.cif.g08.bks.cpg/sg11_7_cif.got.tgz:13694.got - 2010.06.03 12:22:45.
