data_PCOD9163472
_publ_section_title
;
Structure prediction by ZEFSAII (Michael W. Deem and Ramdas Pophale) SiO2 
 PCOD9163472
Probable space group: P 21/M
;
_chemical_formula_sum "Si O2"
_cell_formula_units_Z 32
_cell_length_a 11.251313
_cell_length_b 12.126374
_cell_length_c 10.687186
_cell_angle_alpha 90.000000
_cell_angle_beta 90.415159
_cell_angle_gamma 90.000000
_cell_volume 1458.096045
_symmetry_space_group_name_H-M "P 21/M"
_symmetry_group_IT_number 11
_symmetry_cell_setting 'monoclinic'
loop_
_space_group_symop_operation_xyz
x,y,z
-x,1/2+y,-z
-x,-y,-z
x,1/2-y,z
loop_
_atom_site_type_symbol
_atom_site_label
_atom_site_fract_x
_atom_site_fract_y
_atom_site_fract_z
Si Si1 0.411459 0.866581 0.917275
Si Si2 0.745026 0.873992 0.275267
Si Si3 0.323759 0.410666 0.003581
Si Si4 0.600951 0.130160 0.617269
Si Si5 0.429016 0.956221 0.651613
Si Si6 0.050096 0.957574 0.694662
Si Si7 0.951200 0.622070 0.945348
Si Si8 0.122809 0.628092 0.433229
O O1 0.363337 0.750000 0.956324
O O2 0.346991 0.959315 0.995878
O O3 0.387789 0.888660 0.770875
O O4 0.554314 0.868285 0.934894
O O5 0.769237 0.750000 0.316799
O O6 0.678826 0.872097 0.141405
O O7 0.664932 0.944349 0.369749
O O8 0.860668 0.948110 0.255289
O O9 0.193319 0.384703 0.055155
O O10 0.560900 0.250000 0.665140
O O11 0.547462 0.024690 0.685906
O O12 0.741971 0.127558 0.610485
O O13 0.558834 0.114024 0.472821
O O14 0.112292 0.891812 0.582135
O O15 0.004197 0.883146 0.806368
O O16 0.944085 0.028045 0.632924
O O17 0.977900 0.750000 0.996627
O O18 0.000000 0.500000 0.000000
O O19 0.072184 0.750000 0.404466
#
# Coordination Sequence:
#
# PCOD9163472 Si02
#       8
#     4   4   4   4   4   4   4   4
#     4  10  21  40  65  90 121 161 206 258 314 385
#     4  11  20  37  60  85 119 162 205 254 316 386
#     4  10  23  41  61  91 127 162 205 255 320 382
#     4  10  20  37  57  83 120 154 197 260 317 372
#     4  10  21  35  58  88 116 154 204 252 313 380
#     4  11  23  40  64  91 122 168 217 262 316 384
#     4  12  26  44  68  99 136 175 220 272 326 390
#     4  10  22  41  63  88 123 163 211 270 323 377
#
# _framework density 21.946428000000001
#
# number of rings (size 3 to 8) (size 9 to 14) (size 15 to 20)
#    0.000    1.500    2.500    2.625    1.750    1.000 
#    0.000    0.625    0.000    0.000    0.000    0.000 
#    0.000    0.000    0.000    0.000    0.000    0.000 
#
# Total GULP energy -178499.237561 kJ/mol
# GULP energy per Si atom -5578.101174 kJ/mol
# Density = 2.189648 g / cm^3
# Si number density = 21.946428 Si / 1000 Ang^3
#
#
#
# Elastic Constant Matrix: (Units=GPa)
#
#
# Indices 1 2 3 4 5 6 
#
# 1 69.5173 21.0592 -2.4173 0.0000 -8.4195 0.0000
# 2 21.0592 155.5770 0.5666 0.0000 -4.5400 0.0000
# 3 -2.4173 0.5666 28.8705 0.0000 -0.7690 0.0000
# 4 0.0000 0.0000 0.0000 10.8672 0.0000 1.4796
# 5 -8.4195 -4.5400 -0.7690 0.0000 25.9654 0.0000
# 6 0.0000 0.0000 0.0000 1.4796 0.0000 -2.6487
#
#
#
# Elastic Compliance Matrix: (Units=1/GPa)
#
#
# Indices 1 2 3 4 5 6 
#
# 1 0.015612 -0.001980 0.001473 0.000000 0.004760 0.000000
# 2 -0.001980 0.006712 -0.000284 0.000000 0.000523 0.000000
# 3 0.001473 -0.000284 0.034805 0.000000 0.001459 0.000000
# 4 0.000000 0.000000 0.000000 0.085516 0.000000 0.047769
# 5 0.004760 0.000523 0.001459 0.000000 0.040191 0.000000
# 6 0.000000 0.000000 0.000000 0.047769 0.000000 -0.350861
#
#
# Mechanical properties :
#
#
# Convention : Reuss Voigt Hill
#
# Bulk Modulus (GPa) = 18.00228 32.48688 25.24458
# Shear Modulus (GPa) = -33.80043 22.48721 -5.65661
#
# Velocity S-wave (km/s) = -3.92871 3.20447 -1.60719
# Velocity P-wave (km/s) = 3.51554 5.34102 2.84319
#
# Compressibility (1/GPa) = 0.05554853
#
# Stress axis : x y z
#
# Youngs Moduli (GPa) = 64.05185 148.98747 28.73134
#
# Poissons Ratio (x) = 0.29496 -0.04232
# Poissons Ratio (y) = 0.12681 0.00815
# Poissons Ratio (z) = -0.09434 0.04225
#
# Static dielectric constant tensor:
#      x y z
#    x 1.825130 0.000000 0.016900 
#    y 0.000000 1.864730 0.000000 
#    z 0.016900 0.000000 1.793790 
# 
# From -- ./inp_files/34798.got.cif
#   From: 2010.05.17/outbox.cif.g08.bks.cpg/sg11_18_cif.got.tgz:34798.got - 2010.06.03 12:22:45.
