data_PCOD9163415
_publ_section_title
;
Structure prediction by ZEFSAII (Michael W. Deem and Ramdas Pophale) SiO2 
 PCOD9163415
Probable space group: P 21/M
;
_chemical_formula_sum "Si O2"
_cell_formula_units_Z 28
_cell_length_a 12.809005
_cell_length_b 22.805565
_cell_length_c 7.358661
_cell_angle_alpha 90.000000
_cell_angle_beta 39.943623
_cell_angle_gamma 90.000000
_cell_volume 1380.106950
_symmetry_space_group_name_H-M "P 21/M"
_symmetry_group_IT_number 11
_symmetry_cell_setting 'monoclinic'
loop_
_space_group_symop_operation_xyz
x,y,z
-x,1/2+y,-z
-x,-y,-z
x,1/2-y,z
loop_
_atom_site_type_symbol
_atom_site_label
_atom_site_fract_x
_atom_site_fract_y
_atom_site_fract_z
Si Si1 0.761432 0.953671 0.319312
Si Si2 0.484669 0.873774 0.842515
Si Si3 0.814638 0.052077 0.717463
Si Si4 0.874307 0.422667 0.067885
Si Si5 0.176674 0.428875 0.167843
Si Si6 0.640924 0.181907 0.365526
Si Si7 0.647100 0.815665 0.955168
O O1 0.612623 0.924629 0.621252
O O2 0.786090 0.023830 0.292003
O O3 0.736532 0.938370 0.139906
O O4 0.934162 0.926077 0.148364
O O5 0.425758 0.841701 0.738313
O O6 0.566982 0.828302 0.868011
O O7 0.331618 0.905990 0.139375
O O8 0.983716 0.064930 0.393582
O O9 0.777502 0.982809 0.760752
O O10 0.849184 0.063993 0.886547
O O11 0.788013 0.361264 0.222941
O O12 0.222198 0.366269 0.185200
O O13 0.690167 0.250000 0.286312
O O14 0.495101 0.178035 0.705308
O O15 0.713902 0.750000 0.877308
#
# Coordination Sequence:
#
# PCOD9163415 Si02
#       7
#     4   4   4   4   4   4   4
#     4  10  20  36  63  89 122 154 196 248 305 345
#     4  11  22  39  63  89 115 156 200 252 296 347
#     4   9  21  36  61  90 122 152 196 247 305 345
#     4   9  20  37  59  88 124 156 196 246 295 357
#     4  10  20  39  58  89 125 157 193 246 295 362
#     4  10  22  41  60  86 122 159 198 244 291 353
#     4  11  24  40  60  87 121 159 202 244 290 356
#
# _framework density 20.288283
#
# number of rings (size 3 to 8) (size 9 to 14) (size 15 to 20)
#    0.000    2.000    1.429    1.286    4.000    3.429 
#    0.000    8.571    0.000    0.000    0.000    0.000 
#    0.000    0.000    0.000    0.000    0.000    0.000 
#
# Total GULP energy -156531.613721 kJ/mol
# GULP energy per Si atom -5590.414776 kJ/mol
# Density = 2.024211 g / cm^3
# Si number density = 20.288283 Si / 1000 Ang^3
#
#
#
# Elastic Constant Matrix: (Units=GPa)
#
#
# Indices 1 2 3 4 5 6 
#
# 1 50.5255 29.8496 -4.6977 0.0000 -1.2352 0.0000
# 2 29.8496 135.8388 31.6539 0.0000 -18.9126 0.0000
# 3 -4.6977 31.6539 44.5489 0.0000 6.2254 0.0000
# 4 0.0000 0.0000 0.0000 28.9870 0.0000 -4.5809
# 5 -1.2352 -18.9126 6.2254 0.0000 20.4736 0.0000
# 6 0.0000 0.0000 0.0000 -4.5809 0.0000 29.9971
#
#
#
# Elastic Compliance Matrix: (Units=1/GPa)
#
#
# Indices 1 2 3 4 5 6 
#
# 1 0.026546 -0.010082 0.011531 0.000000 -0.011218 0.000000
# 2 -0.010082 0.015516 -0.014627 0.000000 0.018172 0.000000
# 3 0.011531 -0.014627 0.037438 0.000000 -0.024200 0.000000
# 4 0.000000 0.000000 0.000000 0.035351 0.000000 0.005399
# 5 -0.011218 0.018172 -0.024200 0.000000 0.072312 0.000000
# 6 0.000000 0.000000 0.000000 0.005399 0.000000 0.034161
#
#
# Mechanical properties :
#
#
# Convention : Reuss Voigt Hill
#
# Bulk Modulus (GPa) = 18.81713 38.28053 28.54883
# Shear Modulus (GPa) = 18.83977 27.49869 23.16923
#
# Velocity S-wave (km/s) = 3.05061 3.68557 3.38302
# Velocity P-wave (km/s) = 4.65868 6.08444 5.41866
#
# Compressibility (1/GPa) = 0.05314307
#
# Stress axis : x y z
#
# Youngs Moduli (GPa) = 37.67009 64.45059 26.71061
#
# Poissons Ratio (x) = 0.64980 -0.30800
# Poissons Ratio (y) = 0.37980 0.39070
# Poissons Ratio (z) = -0.43437 0.94273
#
# Static dielectric constant tensor:
#      x y z
#    x 1.739540 0.000000 0.029560 
#    y 0.000000 1.697860 0.000000 
#    z 0.029560 0.000000 1.703170 
# 
# From -- ./inp_files/23165.got.cif
#   From: 2010.05.17/outbox.cif.g08.bks.cpg/sg11_12_cif.got.tgz:23165.got - 2010.06.03 12:22:45.
