data_PCOD9163788
_publ_section_title
;
Structure prediction by ZEFSAII (Michael W. Deem and Ramdas Pophale) SiO2 
 PCOD9163788
Probable space group: P 21/M
;
_chemical_formula_sum "Si O2"
_cell_formula_units_Z 30
_cell_length_a 5.329942
_cell_length_b 14.645617
_cell_length_c 19.448902
_cell_angle_alpha 90.000000
_cell_angle_beta 57.905880
_cell_angle_gamma 90.000000
_cell_volume 1286.172203
_symmetry_space_group_name_H-M "P 21/M"
_symmetry_group_IT_number 11
_symmetry_cell_setting 'monoclinic'
loop_
_space_group_symop_operation_xyz
x,y,z
-x,1/2+y,-z
-x,-y,-z
x,1/2-y,z
loop_
_atom_site_type_symbol
_atom_site_label
_atom_site_fract_x
_atom_site_fract_y
_atom_site_fract_z
Si Si1 0.765119 0.062790 0.492578
Si Si2 0.324502 0.890508 0.246086
Si Si3 0.492288 0.250000 0.309696
Si Si4 0.751243 0.101196 0.344808
Si Si5 0.645764 0.611985 0.337001
Si Si6 0.703514 0.643104 0.057301
Si Si7 0.364548 0.861579 0.973561
Si Si8 0.361534 0.104739 0.213568
O O1 0.873896 0.105702 0.405169
O O2 0.598873 0.130633 0.569002
O O3 0.500000 0.000000 0.500000
O O4 0.000000 0.000000 0.500000
O O5 0.520760 0.859015 0.281712
O O6 0.471661 0.863568 0.152924
O O7 0.983514 0.859081 0.301184
O O8 0.334478 0.000987 0.243701
O O9 0.488992 0.170215 0.370364
O O10 0.507682 0.170281 0.247496
O O11 0.021216 0.138103 0.258945
O O12 0.669717 0.998990 0.335460
O O13 0.753288 0.750000 0.036698
O O14 0.564893 0.604873 0.007578
O O15 0.025174 0.606473 0.031209
O O16 0.372401 0.750000 0.973387
O O17 0.484002 0.892403 0.882414
#
# Coordination Sequence:
#
# PCOD9163788 Si02
#       8
#     4   4   2   4   4   4   4   4
#     4  10  20  37  63  88 117 154 205 249 295 358
#     4  11  22  39  63  90 120 153 210 256 311 360
#     4  12  22  38  58  88 132 172 200 246 306 372
#     4  10  23  36  59  89 126 165 204 243 301 370
#     4  10  20  38  62  91 114 157 203 251 298 365
#     4  10  23  41  61  86 113 159 205 266 314 366
#     4  10  22  37  60  85 120 159 207 244 311 373
#     4  11  23  36  59  89 125 165 202 246 302 376
#
# _framework density 23.325023000000002
#
# number of rings (size 3 to 8) (size 9 to 14) (size 15 to 20)
#    0.000    1.600    2.000    3.600    3.733    1.067 
#    0.000    0.000    2.933    0.000    0.000    0.000 
#    0.000    0.000    0.000    0.000    0.000    0.000 
#
# Total GULP energy -167133.630902 kJ/mol
# GULP energy per Si atom -5571.121030 kJ/mol
# Density = 2.327193 g / cm^3
# Si number density = 23.325023 Si / 1000 Ang^3
#
#
#
# Elastic Constant Matrix: (Units=GPa)
#
#
# Indices 1 2 3 4 5 6 
#
# 1 152.9875 9.7980 47.8285 0.0000 18.0039 0.0000
# 2 9.7980 68.0007 -10.4132 0.0000 11.5525 0.0000
# 3 47.8285 -10.4132 100.3290 0.0000 3.3021 0.0000
# 4 0.0000 0.0000 0.0000 -6.8149 0.0000 35.0808
# 5 18.0039 11.5525 3.3021 0.0000 45.6612 0.0000
# 6 0.0000 0.0000 0.0000 35.0808 0.0000 -26.9466
#
#
#
# Elastic Compliance Matrix: (Units=1/GPa)
#
#
# Indices 1 2 3 4 5 6 
#
# 1 0.008160 -0.001339 -0.003944 0.000000 -0.002594 0.000000
# 2 -0.001339 0.015890 0.002408 0.000000 -0.003666 0.000000
# 3 -0.003944 0.002408 0.012095 0.000000 0.000071 0.000000
# 4 0.000000 0.000000 0.000000 0.025736 0.000000 0.033505
# 5 -0.002594 -0.003666 0.000071 0.000000 0.023846 0.000000
# 6 0.000000 0.000000 0.000000 0.033505 0.000000 0.006509
#
#
# Mechanical properties :
#
#
# Convention : Reuss Voigt Hill
#
# Bulk Modulus (GPa) = 32.89861 46.19377 39.54619
# Shear Modulus (GPa) = 46.24580 20.65353 33.44966
#
# Velocity S-wave (km/s) = 4.45755 2.97891 3.79102
# Velocity P-wave (km/s) = 6.37401 5.62843 6.01279
#
# Compressibility (1/GPa) = 0.03039642
#
# Stress axis : x y z
#
# Youngs Moduli (GPa) = 122.54261 62.93122 82.67936
#
# Poissons Ratio (x) = 0.08427 0.32607
# Poissons Ratio (y) = 0.16410 -0.19912
# Poissons Ratio (z) = 0.48329 -0.15156
#
# Static dielectric constant tensor:
#      x y z
#    x 1.978510 0.000000 -0.056710 
#    y 0.000000 1.913260 0.000000 
#    z -0.056710 0.000000 1.904890 
# 
# From -- ./inp_files/57178.got.cif
#   From: 2010.05.17/outbox.cif.g08.bks.cpg/sg11_29_cif.got.tgz:57178.got - 2010.06.03 12:22:45.
