data_PCOD9163551
_publ_section_title
;
Structure prediction by ZEFSAII (Michael W. Deem and Ramdas Pophale) SiO2 
 PCOD9163551
Probable space group: P 21/M
;
_chemical_formula_sum "Si O2"
_cell_formula_units_Z 24
_cell_length_a 9.792094
_cell_length_b 8.152586
_cell_length_c 15.241198
_cell_angle_alpha 90.000000
_cell_angle_beta 98.275451
_cell_angle_gamma 90.000000
_cell_volume 1204.049357
_symmetry_space_group_name_H-M "P 21/M"
_symmetry_group_IT_number 11
_symmetry_cell_setting 'monoclinic'
loop_
_space_group_symop_operation_xyz
x,y,z
-x,1/2+y,-z
-x,-y,-z
x,1/2-y,z
loop_
_atom_site_type_symbol
_atom_site_label
_atom_site_fract_x
_atom_site_fract_y
_atom_site_fract_z
Si Si1 0.597343 0.552528 0.431038
Si Si2 0.387268 0.446244 0.918478
Si Si3 0.454538 0.551052 0.240579
Si Si4 0.070373 0.945977 0.915101
Si Si5 0.872306 0.551895 0.546376
Si Si6 0.144861 0.052089 0.252368
O O1 0.500000 0.500000 0.500000
O O2 0.603702 0.750000 0.425061
O O3 0.532776 0.491661 0.334869
O O4 0.744199 0.490779 0.476812
O O5 0.381806 0.250000 0.916459
O O6 0.453951 0.504473 0.833078
O O7 0.231009 0.504205 0.921980
O O8 0.500000 0.500000 0.000000
O O9 0.451501 0.750000 0.239601
O O10 0.295753 0.494505 0.229176
O O11 0.065963 0.750000 0.912687
O O12 0.976154 0.007244 0.824471
O O13 0.000000 0.000000 0.000000
O O14 0.865533 0.750000 0.550455
O O15 0.869681 0.493120 0.647655
O O16 0.000000 0.500000 0.500000
O O17 0.137700 0.250000 0.253774
#
# Coordination Sequence:
#
# PCOD9163551 Si02
#       6
#     4   4   4   4   4   4
#     4  10  20  37  59  85 117 154 197 241 289 345
#     4  11  24  42  64  91 122 155 197 246 298 355
#     4  10  22  38  60  89 118 153 197 243 293 350
#     4  11  24  42  64  90 121 157 199 244 299 358
#     4  10  22  38  57  84 119 156 197 242 290 347
#     4  10  22  40  60  86 119 156 196 242 294 349
#
# _framework density 19.932739999999999
#
# number of rings (size 3 to 8) (size 9 to 14) (size 15 to 20)
#    0.000    1.667    1.667    2.000    2.333    6.667 
#    0.000    0.000    0.000    0.000    0.000    0.000 
#    0.000    0.000    0.000    0.000    0.000    0.000 
#
# Total GULP energy -133970.771434 kJ/mol
# GULP energy per Si atom -5582.115476 kJ/mol
# Density = 1.988737 g / cm^3
# Si number density = 19.932740 Si / 1000 Ang^3
#
#
#
# Elastic Constant Matrix: (Units=GPa)
#
#
# Indices 1 2 3 4 5 6 
#
# 1 226.3313 12.2264 112.3381 0.0000 8.9776 0.0000
# 2 12.2264 15.3778 18.7296 0.0000 3.1356 0.0000
# 3 112.3381 18.7296 181.7427 0.0000 8.2852 0.0000
# 4 0.0000 0.0000 0.0000 21.0270 0.0000 -4.3691
# 5 8.9776 3.1356 8.2852 0.0000 42.0060 0.0000
# 6 0.0000 0.0000 0.0000 -4.3691 0.0000 36.3749
#
#
#
# Elastic Compliance Matrix: (Units=1/GPa)
#
#
# Indices 1 2 3 4 5 6 
#
# 1 0.006389 -0.000210 -0.003901 0.000000 -0.000580 0.000000
# 2 -0.000210 0.075067 -0.007420 0.000000 -0.004095 0.000000
# 3 -0.003901 -0.007420 0.008693 0.000000 -0.000327 0.000000
# 4 0.000000 0.000000 0.000000 0.048775 0.000000 0.005858
# 5 -0.000580 -0.004095 -0.000327 0.000000 0.024300 0.000000
# 6 0.000000 0.000000 0.000000 0.005858 0.000000 0.028195
#
#
# Mechanical properties :
#
#
# Convention : Reuss Voigt Hill
#
# Bulk Modulus (GPa) = 14.90576 78.89334 46.89955
# Shear Modulus (GPa) = 21.11093 38.55874 29.83484
#
# Velocity S-wave (km/s) = 3.25792 4.40300 3.87302
# Velocity P-wave (km/s) = 4.65257 8.09409 6.60154
#
# Compressibility (1/GPa) = 0.06708816
#
# Stress axis : x y z
#
# Youngs Moduli (GPa) = 156.52161 13.32136 115.03394
#
# Poissons Ratio (x) = 0.00280 0.44875
# Poissons Ratio (y) = 0.03287 0.85351
# Poissons Ratio (z) = 0.61059 0.09884
#
# Static dielectric constant tensor:
#      x y z
#    x 1.863180 0.000000 -0.079260 
#    y 0.000000 1.706560 0.000000 
#    z -0.079260 0.000000 1.738390 
# 
# From -- ./inp_files/20329.got.cif
#   From: 2010.05.17/outbox.cif.g08.bks.cpg/sg11_11_cif.got.tgz:20329.got - 2010.06.03 12:22:45.
