data_PCOD9163490
_publ_section_title
;
Structure prediction by ZEFSAII (Michael W. Deem and Ramdas Pophale) SiO2 
 PCOD9163490
Probable space group: P 21/M
;
_chemical_formula_sum "Si O2"
_cell_formula_units_Z 24
_cell_length_a 14.045964
_cell_length_b 8.419104
_cell_length_c 15.910802
_cell_angle_alpha 90.000000
_cell_angle_beta 40.877530
_cell_angle_gamma 90.000000
_cell_volume 1231.351971
_symmetry_space_group_name_H-M "P 21/M"
_symmetry_group_IT_number 11
_symmetry_cell_setting 'monoclinic'
loop_
_space_group_symop_operation_xyz
x,y,z
-x,1/2+y,-z
-x,-y,-z
x,1/2-y,z
loop_
_atom_site_type_symbol
_atom_site_label
_atom_site_fract_x
_atom_site_fract_y
_atom_site_fract_z
Si Si1 0.084388 0.559477 0.025743
Si Si2 0.919200 0.941972 0.637182
Si Si3 0.580068 0.443782 0.197832
Si Si4 0.583642 0.942083 0.861954
Si Si5 0.081754 0.940585 0.698380
Si Si6 0.587955 0.559311 0.522037
O O1 0.084389 0.750000 0.025058
O O2 0.004444 0.501259 0.162880
O O3 0.252259 0.504248 0.912455
O O4 0.000000 0.500000 0.000000
O O5 0.919500 0.750000 0.636504
O O6 0.751385 0.995401 0.750221
O O7 0.002626 0.995331 0.665609
O O8 0.000000 0.000000 0.500000
O O9 0.580089 0.250000 0.197763
O O10 0.498682 0.495881 0.167506
O O11 0.493480 0.494964 0.338647
O O12 0.583347 0.750000 0.862259
O O13 0.500000 0.000000 0.000000
O O14 0.080761 0.750000 0.700343
O O15 0.247314 0.998815 0.589716
O O16 0.500000 0.500000 0.500000
O O17 0.589169 0.750000 0.520855
#
# Coordination Sequence:
#
# PCOD9163490 Si02
#       6
#     4   4   4   4   4   4
#     4  11  22  38  60  86 114 151 193 240 296 353
#     4  10  22  38  59  85 116 152 194 242 292 345
#     4   9  20  37  58  82 112 146 186 233 286 345
#     4  10  20  37  58  83 112 146 186 232 283 339
#     4  11  23  39  57  85 121 155 193 239 286 348
#     4  11  22  39  62  87 115 152 192 238 292 346
#
# _framework density 19.490772
#
# number of rings (size 3 to 8) (size 9 to 14) (size 15 to 20)
#    0.000    1.667    0.000    4.500    0.000    4.667 
#    0.000    5.000    0.000    0.000    0.000    0.000 
#    0.000    0.000    0.000    0.000    0.000    0.000 
#
# Total GULP energy -134195.946985 kJ/mol
# GULP energy per Si atom -5591.497791 kJ/mol
# Density = 1.944641 g / cm^3
# Si number density = 19.490772 Si / 1000 Ang^3
#
#
#
# Elastic Constant Matrix: (Units=GPa)
#
#
# Indices 1 2 3 4 5 6 
#
# 1 149.0563 26.3679 56.9739 0.0000 2.3276 0.0000
# 2 26.3679 32.8686 23.3323 0.0000 -0.4519 0.0000
# 3 56.9739 23.3323 153.6340 0.0000 1.7533 0.0000
# 4 0.0000 0.0000 0.0000 23.7927 0.0000 6.3694
# 5 2.3276 -0.4519 1.7533 0.0000 47.5007 0.0000
# 6 0.0000 0.0000 0.0000 6.3694 0.0000 25.1957
#
#
#
# Elastic Compliance Matrix: (Units=1/GPa)
#
#
# Indices 1 2 3 4 5 6 
#
# 1 0.008537 -0.005167 -0.002377 0.000000 -0.000380 0.000000
# 2 -0.005167 0.037240 -0.003748 0.000000 0.000746 0.000000
# 3 -0.002377 -0.003748 0.007962 0.000000 -0.000213 0.000000
# 4 0.000000 0.000000 0.000000 0.045080 0.000000 -0.011396
# 5 -0.000380 0.000746 -0.000213 0.000000 0.021086 0.000000
# 6 0.000000 0.000000 0.000000 -0.011396 0.000000 0.042570
#
#
# Mechanical properties :
#
#
# Convention : Reuss Voigt Hill
#
# Bulk Modulus (GPa) = 32.09679 60.98969 46.54324
# Shear Modulus (GPa) = 25.58268 34.55681 30.06975
#
# Velocity S-wave (km/s) = 3.62685 4.21525 3.93207
# Velocity P-wave (km/s) = 5.83456 7.41961 6.67431
#
# Compressibility (1/GPa) = 0.03115576
#
# Stress axis : x y z
#
# Youngs Moduli (GPa) = 117.13224 26.85291 125.59461
#
# Poissons Ratio (x) = 0.13874 0.29854
# Poissons Ratio (y) = 0.60519 0.47074
# Poissons Ratio (z) = 0.27842 0.10065
#
# Static dielectric constant tensor:
#      x y z
#    x 1.658430 0.000000 -0.006650 
#    y 0.000000 1.677550 0.000000 
#    z -0.006650 0.000000 1.636130 
# 
# From -- ./inp_files/51509.got.cif
#   From: 2010.05.17/outbox.cif.g08.bks.cpg/sg11_26_cif.got.tgz:51509.got - 2010.06.03 12:22:45.
