data_PCOD9163339
_publ_section_title
;
Structure prediction by ZEFSAII (Michael W. Deem and Ramdas Pophale) SiO2 
 PCOD9163339
Probable space group: P 21/M
;
_chemical_formula_sum "Si O2"
_cell_formula_units_Z 32
_cell_length_a 21.478460
_cell_length_b 12.665247
_cell_length_c 9.837340
_cell_angle_alpha 90.000000
_cell_angle_beta 43.457594
_cell_angle_gamma 90.000000
_cell_volume 1840.635182
_symmetry_space_group_name_H-M "P 21/M"
_symmetry_group_IT_number 11
_symmetry_cell_setting 'monoclinic'
loop_
_space_group_symop_operation_xyz
x,y,z
-x,1/2+y,-z
-x,-y,-z
x,1/2-y,z
loop_
_atom_site_type_symbol
_atom_site_label
_atom_site_fract_x
_atom_site_fract_y
_atom_site_fract_z
Si Si1 0.136176 0.025950 0.363675
Si Si2 0.095004 0.039290 0.911278
Si Si3 0.620109 0.029939 0.692386
Si Si4 0.250861 0.873465 0.736102
Si Si5 0.458321 0.627745 0.912355
Si Si6 0.021772 0.127188 0.302903
Si Si7 0.777277 0.630069 0.520803
Si Si8 0.715109 0.127170 0.001198
O O1 0.084595 0.088362 0.327018
O O2 0.176407 0.105785 0.409191
O O3 0.213681 0.952588 0.177367
O O4 0.066005 0.947572 0.549728
O O5 0.150120 0.105148 0.712038
O O6 0.161661 0.943139 0.847684
O O7 0.072332 0.105714 0.081438
O O8 0.000000 0.000000 0.000000
O O9 0.670997 0.092993 0.493081
O O10 0.538268 0.956949 0.768802
O O11 0.694664 0.950304 0.634802
O O12 0.584624 0.103269 0.871123
O O13 0.229656 0.750000 0.752892
O O14 0.284255 0.890396 0.837777
O O15 0.488820 0.750000 0.858780
O O16 0.381042 0.613120 0.920740
O O17 0.998464 0.250000 0.353966
O O18 0.746222 0.750000 0.560575
O O19 0.742259 0.250000 0.935259
#
# Coordination Sequence:
#
# PCOD9163339 Si02
#       8
#     4   4   4   4   4   4   4   4
#     4  11  21  39  56  84 115 146 197 232 278 334
#     4  11  22  40  54  84 114 148 192 239 283 337
#     4  10  21  37  58  87 118 146 183 235 276 342
#     4  10  22  39  60  82 114 153 191 234 282 333
#     4  10  20  36  61  88 114 147 185 229 284 336
#     4  11  23  38  58  80 114 153 190 236 282 334
#     4  11  22  37  58  81 114 152 186 232 288 334
#     4  10  20  37  61  85 113 150 189 234 280 331
#
# _framework density 17.385301999999999
#
# number of rings (size 3 to 8) (size 9 to 14) (size 15 to 20)
#    0.000    1.500    3.750    1.875    0.000    1.500 
#    0.000    0.000    0.000    0.000    0.000    0.000 
#    0.000    0.000    0.000    0.000    0.000    0.000 
#
# Total GULP energy -178682.052791 kJ/mol
# GULP energy per Si atom -5583.814150 kJ/mol
# Density = 1.734573 g / cm^3
# Si number density = 17.385302 Si / 1000 Ang^3
#
#
#
# Elastic Constant Matrix: (Units=GPa)
#
#
# Indices 1 2 3 4 5 6 
#
# 1 55.8808 11.4452 13.9691 0.0000 5.6406 0.0000
# 2 11.4452 56.8650 4.2718 0.0000 8.5564 0.0000
# 3 13.9691 4.2718 51.9272 0.0000 7.8754 0.0000
# 4 0.0000 0.0000 0.0000 9.3906 0.0000 5.2367
# 5 5.6406 8.5564 7.8754 0.0000 23.7228 0.0000
# 6 0.0000 0.0000 0.0000 5.2367 0.0000 24.7175
#
#
#
# Elastic Compliance Matrix: (Units=1/GPa)
#
#
# Indices 1 2 3 4 5 6 
#
# 1 0.019982 -0.003369 -0.004804 0.000000 -0.001941 0.000000
# 2 -0.003369 0.019177 0.000270 0.000000 -0.006205 0.000000
# 3 -0.004804 0.000270 0.021449 0.000000 -0.006076 0.000000
# 4 0.000000 0.000000 0.000000 0.120756 0.000000 -0.025584
# 5 -0.001941 -0.006205 -0.006076 0.000000 0.046870 0.000000
# 6 0.000000 0.000000 0.000000 -0.025584 0.000000 0.045877
#
#
# Mechanical properties :
#
#
# Convention : Reuss Voigt Hill
#
# Bulk Modulus (GPa) = 22.32015 24.89390 23.60703
# Shear Modulus (GPa) = 16.40141 20.56531 18.48336
#
# Velocity S-wave (km/s) = 3.07482 3.44308 3.26415
# Velocity P-wave (km/s) = 5.04702 5.49149 5.27394
#
# Compressibility (1/GPa) = 0.04480256
#
# Stress axis : x y z
#
# Youngs Moduli (GPa) = 50.04498 52.14585 46.62157
#
# Poissons Ratio (x) = 0.17567 0.22396
# Poissons Ratio (y) = 0.16859 -0.01258
# Poissons Ratio (z) = 0.24041 -0.01407
#
# Static dielectric constant tensor:
#      x y z
#    x 1.572410 0.000000 0.001310 
#    y 0.000000 1.562220 0.000000 
#    z 0.001310 0.000000 1.568860 
# 
# From -- ./inp_files/21554.got.cif
#   From: 2010.05.17/outbox.cif.g08.bks.cpg/sg11_11_cif.got.tgz:21554.got - 2010.06.03 12:22:45.
