data_PCOD9163353
_publ_section_title
;
Structure prediction by ZEFSAII (Michael W. Deem and Ramdas Pophale) SiO2 
 PCOD9163353
Probable space group: P 21/M
;
_chemical_formula_sum "Si O2"
_cell_formula_units_Z 28
_cell_length_a 20.478099
_cell_length_b 9.272576
_cell_length_c 15.210079
_cell_angle_alpha 90.000000
_cell_angle_beta 29.751397
_cell_angle_gamma 90.000000
_cell_volume 1433.214656
_symmetry_space_group_name_H-M "P 21/M"
_symmetry_group_IT_number 11
_symmetry_cell_setting 'monoclinic'
loop_
_space_group_symop_operation_xyz
x,y,z
-x,1/2+y,-z
-x,-y,-z
x,1/2-y,z
loop_
_atom_site_type_symbol
_atom_site_label
_atom_site_fract_x
_atom_site_fract_y
_atom_site_fract_z
Si Si1 0.061673 0.912066 0.009060
Si Si2 0.816323 0.082850 0.771066
Si Si3 0.658374 0.514745 0.307558
Si Si4 0.121565 0.082289 0.471515
Si Si5 0.885102 0.078644 0.340372
Si Si6 0.325573 0.093598 0.516528
Si Si7 0.366179 0.922247 0.849664
O O1 0.009100 0.750000 0.070251
O O2 0.219391 0.905955 0.821266
O O3 0.000000 0.000000 0.000000
O O4 0.013071 0.997223 0.152015
O O5 0.795269 0.250000 0.769402
O O6 0.965439 0.072436 0.632869
O O7 0.806163 0.980103 0.698858
O O8 0.717861 0.049015 0.965576
O O9 0.500000 0.500000 0.500000
O O10 0.684381 0.604110 0.365986
O O11 0.669978 0.529595 0.188252
O O12 0.153234 0.250000 0.450259
O O13 0.146468 0.984316 0.527107
O O14 0.902235 0.250000 0.320141
O O15 0.768229 0.028296 0.412197
O O16 0.289312 0.250000 0.520815
O O17 0.477914 0.064233 0.316881
O O18 0.345331 0.750000 0.849285
#
# Coordination Sequence:
#
# PCOD9163353 Si02
#       7
#     4   4   4   4   4   4   4
#     4  12  24  39  61  90 127 165 206 254 306 364
#     4   9  18  36  61  89 118 149 192 244 302 366
#     4  10  21  37  61  91 125 165 209 251 305 366
#     4  10  20  36  61  89 119 153 191 243 307 367
#     4  12  25  40  60  86 120 161 207 251 303 366
#     4  10  21  38  59  84 118 158 202 252 305 362
#     4   9  18  35  60  87 116 156 200 249 307 367
#
# _framework density 19.536501000000001
#
# number of rings (size 3 to 8) (size 9 to 14) (size 15 to 20)
#    0.000    1.714    1.429    3.429    0.000    3.429 
#    0.000    4.286    0.000    0.000    0.000    0.000 
#    0.000    0.000    0.000    0.000    0.000    0.000 
#
# Total GULP energy -155870.683451 kJ/mol
# GULP energy per Si atom -5566.810123 kJ/mol
# Density = 1.949203 g / cm^3
# Si number density = 19.536501 Si / 1000 Ang^3
#
#
#
# Elastic Constant Matrix: (Units=GPa)
#
#
# Indices 1 2 3 4 5 6 
#
# 1 82.8303 52.4120 41.4676 0.0000 13.0881 0.0000
# 2 52.4120 129.6377 49.6638 0.0000 14.4774 0.0000
# 3 41.4676 49.6638 132.6565 0.0000 16.5316 0.0000
# 4 0.0000 0.0000 0.0000 16.7687 0.0000 1.6700
# 5 13.0881 14.4774 16.5316 0.0000 35.9434 0.0000
# 6 0.0000 0.0000 0.0000 1.6700 0.0000 18.2017
#
#
#
# Elastic Compliance Matrix: (Units=1/GPa)
#
#
# Indices 1 2 3 4 5 6 
#
# 1 0.017602 -0.005643 -0.003049 0.000000 -0.002734 0.000000
# 2 -0.005643 0.010982 -0.002177 0.000000 -0.001367 0.000000
# 3 -0.003049 -0.002177 0.009610 0.000000 -0.002433 0.000000
# 4 0.000000 0.000000 0.000000 0.060185 0.000000 -0.005522
# 5 -0.002734 -0.001367 -0.002433 0.000000 0.030487 0.000000
# 6 0.000000 0.000000 0.000000 -0.005522 0.000000 0.055447
#
#
# Mechanical properties :
#
#
# Convention : Reuss Voigt Hill
#
# Bulk Modulus (GPa) = 60.76989 70.24569 65.50779
# Shear Modulus (GPa) = 23.63676 27.62150 25.62913
#
# Velocity S-wave (km/s) = 3.48210 3.76419 3.62589
# Velocity P-wave (km/s) = 6.88041 7.41123 7.15075
#
# Compressibility (1/GPa) = 0.01645552
#
# Stress axis : x y z
#
# Youngs Moduli (GPa) = 56.81170 91.05826 104.06336
#
# Poissons Ratio (x) = 0.51385 0.31728
# Poissons Ratio (y) = 0.32059 0.22655
# Poissons Ratio (z) = 0.17321 0.19824
#
# Static dielectric constant tensor:
#      x y z
#    x 1.691160 0.000000 -0.000890 
#    y 0.000000 1.676590 0.000000 
#    z -0.000890 0.000000 1.690160 
# 
# From -- ./inp_files/54507.got.cif
#   From: 2010.05.17/outbox.cif.g08.bks.cpg/sg11_28_cif.got.tgz:54507.got - 2010.06.03 12:22:45.
