data_PCOD9163179
_publ_section_title
;
Structure prediction by ZEFSAII (Michael W. Deem and Ramdas Pophale) SiO2 
 PCOD9163179
Probable space group: P 21/M
;
_chemical_formula_sum "Si O2"
_cell_formula_units_Z 28
_cell_length_a 10.497261
_cell_length_b 8.405735
_cell_length_c 28.560308
_cell_angle_alpha 90.000000
_cell_angle_beta 34.930885
_cell_angle_gamma 90.000000
_cell_volume 1442.968114
_symmetry_space_group_name_H-M "P 21/M"
_symmetry_group_IT_number 11
_symmetry_cell_setting 'monoclinic'
loop_
_space_group_symop_operation_xyz
x,y,z
-x,1/2+y,-z
-x,-y,-z
x,1/2-y,z
loop_
_atom_site_type_symbol
_atom_site_label
_atom_site_fract_x
_atom_site_fract_y
_atom_site_fract_z
Si Si1 0.304421 0.944056 0.686893
Si Si2 0.630588 0.942432 0.506491
Si Si3 0.433564 0.940980 0.968632
Si Si4 0.422608 0.557784 0.755647
Si Si5 0.872546 0.059739 0.664034
Si Si6 0.159671 0.442572 0.220034
Si Si7 0.017168 0.940485 0.941823
O O1 0.303294 0.750000 0.687737
O O2 0.495566 0.995214 0.593053
O O3 0.351236 0.997635 0.725497
O O4 0.064526 0.993747 0.739319
O O5 0.629808 0.750000 0.506429
O O6 0.885898 0.996982 0.426706
O O7 0.500000 0.000000 0.500000
O O8 0.427945 0.750000 0.970475
O O9 0.623306 0.992282 0.874447
O O10 0.500000 0.000000 0.000000
O O11 0.196082 0.004698 0.023476
O O12 0.418216 0.750000 0.756811
O O13 0.667792 0.504209 0.695721
O O14 0.241985 0.502874 0.848381
O O15 0.871111 0.250000 0.662687
O O16 0.842869 0.006175 0.726631
O O17 0.159146 0.250000 0.222363
O O18 0.021630 0.750000 0.941235
O O19 0.000000 0.000000 0.000000
#
# Coordination Sequence:
#
# PCOD9163179 Si02
#       7
#     4   4   4   4   4   4   4
#     4   9  18  36  61  83 109 149 193 235 275 331
#     4  10  20  36  59  86 116 148 187 233 285 341
#     4  11  23  38  59  88 118 152 196 243 296 352
#     4  10  22  40  60  82 111 154 199 233 280 349
#     4  11  23  36  55  88 121 146 184 239 290 336
#     4  10  20  37  61  84 109 151 198 233 278 348
#     4  11  23  40  61  85 116 155 201 247 294 352
#
# _framework density 19.404447999999999
#
# number of rings (size 3 to 8) (size 9 to 14) (size 15 to 20)
#    0.000    1.714    1.429    3.000    0.000    9.143 
#    0.000    1.429    0.000    0.000    0.000    0.000 
#    0.000    0.000    0.000    0.000    0.000    0.000 
#
# Total GULP energy -156490.535625 kJ/mol
# GULP energy per Si atom -5588.947701 kJ/mol
# Density = 1.936028 g / cm^3
# Si number density = 19.404448 Si / 1000 Ang^3
#
#
#
# Elastic Constant Matrix: (Units=GPa)
#
#
# Indices 1 2 3 4 5 6 
#
# 1 98.8090 7.1845 10.7926 0.0000 -8.2638 0.0000
# 2 7.1845 16.5611 13.5316 0.0000 -0.1140 0.0000
# 3 10.7926 13.5316 100.1909 0.0000 -11.1935 0.0000
# 4 0.0000 0.0000 0.0000 18.2775 0.0000 -5.8431
# 5 -8.2638 -0.1140 -11.1935 0.0000 37.3087 0.0000
# 6 0.0000 0.0000 0.0000 -5.8431 0.0000 28.3187
#
#
#
# Elastic Compliance Matrix: (Units=1/GPa)
#
#
# Indices 1 2 3 4 5 6 
#
# 1 0.010660 -0.004357 -0.000308 0.000000 0.002255 0.000000
# 2 -0.004357 0.069904 -0.009370 0.000000 -0.003563 0.000000
# 3 -0.000308 -0.009370 0.011660 0.000000 0.003401 0.000000
# 4 0.000000 0.000000 0.000000 0.058576 0.000000 0.012086
# 5 0.002255 -0.003563 0.003401 0.000000 0.028313 0.000000
# 6 0.000000 0.000000 0.000000 0.012086 0.000000 0.037806
#
#
# Mechanical properties :
#
#
# Convention : Reuss Voigt Hill
#
# Bulk Modulus (GPa) = 15.58765 30.95314 23.27040
# Shear Modulus (GPa) = 18.77076 29.05112 23.91094
#
# Velocity S-wave (km/s) = 3.11359 3.87348 3.51414
# Velocity P-wave (km/s) = 4.58000 5.99928 5.33703
#
# Compressibility (1/GPa) = 0.06415334
#
# Stress axis : x y z
#
# Youngs Moduli (GPa) = 93.81206 14.30538 85.76657
#
# Poissons Ratio (x) = 0.06233 0.02640
# Poissons Ratio (y) = 0.40877 0.80361
# Poissons Ratio (z) = 0.02887 0.13404
#
# Static dielectric constant tensor:
#      x y z
#    x 1.629460 0.000000 -0.003640 
#    y 0.000000 1.675270 0.000000 
#    z -0.003640 0.000000 1.675260 
# 
# From -- ./inp_files/54535.got.cif
#   From: 2010.05.17/outbox.cif.g08.bks.cpg/sg11_28_cif.got.tgz:54535.got - 2010.06.03 12:22:45.
