data_PCOD9163390
_publ_section_title
;
Structure prediction by ZEFSAII (Michael W. Deem and Ramdas Pophale) SiO2 
 PCOD9163390
Probable space group: P 21/M
;
_chemical_formula_sum "Si O2"
_cell_formula_units_Z 32
_cell_length_a 10.022880
_cell_length_b 13.645585
_cell_length_c 12.497188
_cell_angle_alpha 90.000000
_cell_angle_beta 89.252835
_cell_angle_gamma 90.000000
_cell_volume 1709.070843
_symmetry_space_group_name_H-M "P 21/M"
_symmetry_group_IT_number 11
_symmetry_cell_setting 'monoclinic'
loop_
_space_group_symop_operation_xyz
x,y,z
-x,1/2+y,-z
-x,-y,-z
x,1/2-y,z
loop_
_atom_site_type_symbol
_atom_site_label
_atom_site_fract_x
_atom_site_fract_y
_atom_site_fract_z
Si Si1 0.351739 0.523004 0.546260
Si Si2 0.408807 0.631215 0.944266
Si Si3 0.488568 0.133977 0.287057
Si Si4 0.501179 0.866186 0.174336
Si Si5 0.096822 0.633662 0.953579
Si Si6 0.769103 0.866664 0.298296
Si Si7 0.978524 0.460436 0.821154
Si Si8 0.283883 0.974369 0.320016
O O1 0.500000 0.500000 0.500000
O O2 0.388109 0.598571 0.640282
O O3 0.281305 0.428816 0.599201
O O4 0.270665 0.558807 0.443466
O O5 0.414062 0.750000 0.943468
O O6 0.479815 0.600812 0.834347
O O7 0.252954 0.605421 0.945064
O O8 0.475572 0.598801 0.054092
O O9 0.477441 0.250000 0.292533
O O10 0.350874 0.082232 0.322370
O O11 0.476312 0.750000 0.175099
O O12 0.651052 0.881105 0.212792
O O13 0.397814 0.911826 0.259085
O O14 0.082151 0.750000 0.935108
O O15 0.019425 0.565923 0.869728
O O16 0.049838 0.606363 0.073952
O O17 0.781876 0.750000 0.318749
O O18 0.902812 0.912709 0.248573
O O19 0.848647 0.468940 0.748205
#
# Coordination Sequence:
#
# PCOD9163390 Si02
#       8
#     4   4   4   4   4   4   4   4
#     4  10  21  40  62  89 119 159 208 263 312 366
#     4   9  18  34  59  88 119 154 204 258 305 365
#     4  10  21  37  59  91 124 161 206 262 319 370
#     4  10  20  36  62  91 117 155 203 257 311 364
#     4  10  21  38  59  88 130 173 209 255 320 383
#     4  11  23  41  64  92 125 163 212 264 317 375
#     4  11  24  39  61  92 127 173 210 258 315 383
#     4  11  23  40  61  91 124 163 210 261 307 375
#
# _framework density 18.723623
#
# number of rings (size 3 to 8) (size 9 to 14) (size 15 to 20)
#    0.000    1.750    3.750    1.125    0.000    6.500 
#    0.000    1.250    0.000    1.500    0.000    0.000 
#    0.000    0.000    0.000    0.000    0.000    0.000 
#
# Total GULP energy -178612.122802 kJ/mol
# GULP energy per Si atom -5581.628838 kJ/mol
# Density = 1.868101 g / cm^3
# Si number density = 18.723623 Si / 1000 Ang^3
#
#
#
# Elastic Constant Matrix: (Units=GPa)
#
#
# Indices 1 2 3 4 5 6 
#
# 1 105.9947 44.8810 44.6521 0.0000 6.0695 0.0000
# 2 44.8810 94.9107 33.8299 0.0000 3.6848 0.0000
# 3 44.6521 33.8299 102.9991 0.0000 13.8550 0.0000
# 4 0.0000 0.0000 0.0000 19.9540 0.0000 -2.6750
# 5 6.0695 3.6848 13.8550 0.0000 31.8585 0.0000
# 6 0.0000 0.0000 0.0000 -2.6750 0.0000 23.4542
#
#
#
# Elastic Compliance Matrix: (Units=1/GPa)
#
#
# Indices 1 2 3 4 5 6 
#
# 1 0.013203 -0.004762 -0.004137 0.000000 -0.000165 0.000000
# 2 -0.004762 0.013655 -0.002475 0.000000 0.000404 0.000000
# 3 -0.004137 -0.002475 0.012927 0.000000 -0.004547 0.000000
# 4 0.000000 0.000000 0.000000 0.050893 0.000000 0.005804
# 5 -0.000165 0.000404 -0.004547 0.000000 0.033351 0.000000
# 6 0.000000 0.000000 0.000000 0.005804 0.000000 0.043298
#
#
# Mechanical properties :
#
#
# Convention : Reuss Voigt Hill
#
# Bulk Modulus (GPa) = 58.69931 61.18116 59.94023
# Shear Modulus (GPa) = 25.54207 27.08945 26.31576
#
# Velocity S-wave (km/s) = 3.69746 3.80782 3.75305
# Velocity P-wave (km/s) = 7.04605 7.21661 7.13184
#
# Compressibility (1/GPa) = 0.01703598
#
# Stress axis : x y z
#
# Youngs Moduli (GPa) = 75.73800 73.23542 77.35761
#
# Poissons Ratio (x) = 0.34878 0.32007
# Poissons Ratio (y) = 0.36069 0.19143
# Poissons Ratio (z) = 0.31337 0.18123
#
# Static dielectric constant tensor:
#      x y z
#    x 1.614220 0.000000 0.006760 
#    y 0.000000 1.667030 0.000000 
#    z 0.006760 0.000000 1.675690 
# 
# From -- ./inp_files/31875.got.cif
#   From: 2010.05.17/outbox.cif.g08.bks.cpg/sg11_16_cif.got.tgz:31875.got - 2010.06.03 12:22:45.
