data_PCOD9163569
_publ_section_title
;
Structure prediction by ZEFSAII (Michael W. Deem and Ramdas Pophale) SiO2 
 PCOD9163569
Probable space group: P 21/M
;
_chemical_formula_sum "Si O2"
_cell_formula_units_Z 32
_cell_length_a 20.875796
_cell_length_b 9.533032
_cell_length_c 21.371036
_cell_angle_alpha 90.000000
_cell_angle_beta 157.468108
_cell_angle_gamma 90.000000
_cell_volume 1629.755584
_symmetry_space_group_name_H-M "P 21/M"
_symmetry_group_IT_number 11
_symmetry_cell_setting 'monoclinic'
loop_
_space_group_symop_operation_xyz
x,y,z
-x,1/2+y,-z
-x,-y,-z
x,1/2-y,z
loop_
_atom_site_type_symbol
_atom_site_label
_atom_site_fract_x
_atom_site_fract_y
_atom_site_fract_z
Si Si1 0.616761 0.079914 0.556601
Si Si2 0.000462 0.909564 0.096774
Si Si3 0.962140 0.398526 0.722406
Si Si4 0.720290 0.903592 0.083246
Si Si5 0.178808 0.404596 0.495973
Si Si6 0.636602 0.919525 0.783039
Si Si7 0.985448 0.583287 0.422589
Si Si8 0.426561 0.593739 0.148021
O O1 0.614151 0.250000 0.561850
O O2 0.810703 0.032175 0.741369
O O3 0.500000 0.000000 0.500000
O O4 0.525310 0.053075 0.406958
O O5 0.006142 0.750000 0.076927
O O6 0.989791 0.904914 0.162553
O O7 0.815034 0.965904 0.911929
O O8 0.867299 0.250000 0.627396
O O9 0.866360 0.533124 0.612247
O O10 0.123558 0.393090 0.823964
O O11 0.636781 0.750000 0.008555
O O12 0.803634 0.931986 0.225448
O O13 0.618033 0.025234 0.958747
O O14 0.104116 0.250000 0.438651
O O15 0.111495 0.512237 0.486955
O O16 0.375417 0.395809 0.674792
O O17 0.647166 0.750000 0.801675
O O18 0.620429 0.997636 0.834897
O O19 0.015675 0.750000 0.456556
O O20 0.000000 0.500000 0.500000
O O21 0.352236 0.750000 0.087570
#
# Coordination Sequence:
#
# PCOD9163569 Si02
#       8
#     4   4   4   4   4   4   4   4
#     4  10  22  38  57  79 108 148 190 234 283 336
#     4   9  17  33  56  81 107 140 187 232 275 339
#     4   9  16  31  54  79 103 135 181 227 272 327
#     4   9  18  33  55  80 108 141 177 219 268 330
#     4  10  21  34  50  77 113 147 179 223 276 332
#     4  10  20  37  60  81 108 149 188 230 286 342
#     4  10  21  38  59  81 105 142 190 232 272 324
#     4  11  22  34  52  84 119 144 174 224 283 332
#
# _framework density 19.634846
#
# number of rings (size 3 to 8) (size 9 to 14) (size 15 to 20)
#    0.000    2.250    1.250    2.625    0.000    6.500 
#    0.000    1.875    0.000    0.000    0.000    0.000 
#    0.000    0.000    0.000    0.000    0.000    0.000 
#
# Total GULP energy -178142.685851 kJ/mol
# GULP energy per Si atom -5566.958933 kJ/mol
# Density = 1.959016 g / cm^3
# Si number density = 19.634846 Si / 1000 Ang^3
#
#
#
# Elastic Constant Matrix: (Units=GPa)
#
#
# Indices 1 2 3 4 5 6 
#
# 1 34.3825 11.6580 1.0483 0.0000 -8.4011 0.0000
# 2 11.6580 87.2403 30.8263 0.0000 -12.2764 0.0000
# 3 1.0483 30.8263 56.4600 0.0000 6.5574 0.0000
# 4 0.0000 0.0000 0.0000 -3.1167 0.0000 41.1111
# 5 -8.4011 -12.2764 6.5574 0.0000 28.2012 0.0000
# 6 0.0000 0.0000 0.0000 41.1111 0.0000 -50.0129
#
#
#
# Elastic Compliance Matrix: (Units=1/GPa)
#
#
# Indices 1 2 3 4 5 6 
#
# 1 0.032158 -0.003235 0.000226 0.000000 0.008119 0.000000
# 2 -0.003235 0.016653 -0.010033 0.000000 0.008619 0.000000
# 3 0.000226 -0.010033 0.024342 0.000000 -0.009960 0.000000
# 4 0.000000 0.000000 0.000000 0.032598 0.000000 0.026796
# 5 0.008119 0.008619 -0.009960 0.000000 0.043946 0.000000
# 6 0.000000 0.000000 0.000000 0.026796 0.000000 0.002031
#
#
# Mechanical properties :
#
#
# Convention : Reuss Voigt Hill
#
# Bulk Modulus (GPa) = 21.24505 29.46088 25.35297
# Shear Modulus (GPa) = 25.83953 3.98432 14.91193
#
# Velocity S-wave (km/s) = 3.63161 1.42605 2.75882
# Velocity P-wave (km/s) = 5.33183 4.21289 4.80504
#
# Compressibility (1/GPa) = 0.04706979
#
# Stress axis : x y z
#
# Youngs Moduli (GPa) = 31.09614 60.04991 41.08092
#
# Poissons Ratio (x) = 0.19424 -0.00928
# Poissons Ratio (y) = 0.10058 0.41217
# Poissons Ratio (z) = -0.00703 0.60249
#
# Static dielectric constant tensor:
#      x y z
#    x 1.682070 0.000000 -0.001210 
#    y 0.000000 1.733370 0.000000 
#    z -0.001210 0.000000 1.768320 
# 
# From -- ./inp_files/70037.got.cif
#   From: 2010.05.17/outbox.cif.g08.bks.cpg/sg11_36_cif.got.tgz:70037.got - 2010.06.03 12:22:45.
