data_PCOD9163356
_publ_section_title
;
Structure prediction by ZEFSAII (Michael W. Deem and Ramdas Pophale) SiO2 
 PCOD9163356
Probable space group: P 21/M
;
_chemical_formula_sum "Si O2"
_cell_formula_units_Z 28
_cell_length_a 12.002764
_cell_length_b 8.914794
_cell_length_c 15.765609
_cell_angle_alpha 90.000000
_cell_angle_beta 64.480841
_cell_angle_gamma 90.000000
_cell_volume 1522.377237
_symmetry_space_group_name_H-M "P 21/M"
_symmetry_group_IT_number 11
_symmetry_cell_setting 'monoclinic'
loop_
_space_group_symop_operation_xyz
x,y,z
-x,1/2+y,-z
-x,-y,-z
x,1/2-y,z
loop_
_atom_site_type_symbol
_atom_site_label
_atom_site_fract_x
_atom_site_fract_y
_atom_site_fract_z
Si Si1 0.056951 0.069342 0.299930
Si Si2 0.808898 0.569946 0.066006
Si Si3 0.183427 0.572415 0.526971
Si Si4 0.022724 0.928956 0.128023
Si Si5 0.563131 0.570220 0.239019
Si Si6 0.297413 0.070739 0.322298
Si Si7 0.605670 0.072675 0.407086
O O1 0.049516 0.250000 0.295767
O O2 0.192810 0.028960 0.288253
O O3 0.954390 0.023806 0.403101
O O4 0.026107 0.999610 0.219570
O O5 0.816641 0.750000 0.051559
O O6 0.669670 0.530305 0.136900
O O7 0.899382 0.530878 0.115171
O O8 0.864279 0.489597 0.965852
O O9 0.183903 0.750000 0.505261
O O10 0.245424 0.483241 0.430167
O O11 0.266990 0.554126 0.583617
O O12 0.027880 0.750000 0.132540
O O13 0.556281 0.750000 0.246982
O O14 0.429046 0.504482 0.262788
O O15 0.603322 0.505818 0.317089
O O16 0.311004 0.250000 0.318648
O O17 0.581968 0.250000 0.404760
O O18 0.500000 0.000000 0.500000
#
# Coordination Sequence:
#
# PCOD9163356 Si02
#       7
#     4   4   4   4   4   4   4
#     4  10  22  39  57  80 111 148 188 230 278 329
#     4   9  20  38  60  86 115 145 177 223 280 334
#     4  10  21  37  57  80 109 148 189 229 277 331
#     4  10  20  36  61  90 113 139 179 228 279 331
#     4  11  22  37  57  81 113 151 188 226 276 332
#     4  11  23  37  55  79 111 150 190 233 276 324
#     4  11  21  33  53  81 113 146 181 225 276 327
#
# _framework density 18.392285999999999
#
# number of rings (size 3 to 8) (size 9 to 14) (size 15 to 20)
#    0.000    1.714    1.429    3.000    0.000    4.000 
#    0.000    0.714    0.000    0.000    0.000    0.000 
#    0.000    0.000    0.000    0.000    0.000    0.000 
#
# Total GULP energy -156447.764095 kJ/mol
# GULP energy per Si atom -5587.420146 kJ/mol
# Density = 1.835042 g / cm^3
# Si number density = 18.392286 Si / 1000 Ang^3
#
#
#
# Elastic Constant Matrix: (Units=GPa)
#
#
# Indices 1 2 3 4 5 6 
#
# 1 73.4997 36.0443 46.0293 0.0000 -20.6822 0.0000
# 2 36.0443 40.9135 26.9114 0.0000 -12.4662 0.0000
# 3 46.0293 26.9114 83.7746 0.0000 -28.6552 0.0000
# 4 0.0000 0.0000 0.0000 30.9719 0.0000 4.1774
# 5 -20.6822 -12.4662 -28.6552 0.0000 27.0518 0.0000
# 6 0.0000 0.0000 0.0000 4.1774 0.0000 21.2539
#
#
#
# Elastic Compliance Matrix: (Units=1/GPa)
#
#
# Indices 1 2 3 4 5 6 
#
# 1 0.029634 -0.019029 -0.008498 0.000000 0.004885 0.000000
# 2 -0.019029 0.043812 -0.002649 0.000000 0.002836 0.000000
# 3 -0.008498 -0.002649 0.023236 0.000000 0.016895 0.000000
# 4 0.000000 0.000000 0.000000 0.033167 0.000000 -0.006519
# 5 0.004885 0.002836 0.016895 0.000000 0.059905 0.000000
# 6 0.000000 0.000000 0.000000 -0.006519 0.000000 0.048332
#
#
# Mechanical properties :
#
#
# Convention : Reuss Voigt Hill
#
# Bulk Modulus (GPa) = 27.52521 46.23976 36.88249
# Shear Modulus (GPa) = 16.10058 21.80236 18.95147
#
# Velocity S-wave (km/s) = 2.96192 3.44671 3.21347
# Velocity P-wave (km/s) = 5.16676 6.40587 5.81939
#
# Compressibility (1/GPa) = 0.03633033
#
# Stress axis : x y z
#
# Youngs Moduli (GPa) = 33.74497 22.82463 43.03632
#
# Poissons Ratio (x) = 0.43432 0.36574
# Poissons Ratio (y) = 0.64212 0.11400
# Poissons Ratio (z) = 0.28678 0.06046
#
# Static dielectric constant tensor:
#      x y z
#    x 1.641250 0.000000 -0.013920 
#    y 0.000000 1.611800 0.000000 
#    z -0.013920 0.000000 1.598760 
# 
# From -- ./inp_files/37413.got.cif
#   From: 2010.05.17/outbox.cif.g08.bks.cpg/sg11_19_cif.got.tgz:37413.got - 2010.06.03 12:22:45.
