data_PCOD9163861
_publ_section_title
;
Structure prediction by ZEFSAII (Michael W. Deem and Ramdas Pophale) SiO2 
 PCOD9163861
Probable space group: P 21/M
;
_chemical_formula_sum "Si O2"
_cell_formula_units_Z 28
_cell_length_a 9.389962
_cell_length_b 29.283449
_cell_length_c 5.691673
_cell_angle_alpha 90.000000
_cell_angle_beta 68.184660
_cell_angle_gamma 90.000000
_cell_volume 1452.963673
_symmetry_space_group_name_H-M "P 21/M"
_symmetry_group_IT_number 11
_symmetry_cell_setting 'monoclinic'
loop_
_space_group_symop_operation_xyz
x,y,z
-x,1/2+y,-z
-x,-y,-z
x,1/2-y,z
loop_
_atom_site_type_symbol
_atom_site_label
_atom_site_fract_x
_atom_site_fract_y
_atom_site_fract_z
Si Si1 0.658280 0.112854 0.176439
Si Si2 0.044436 0.636116 0.779642
Si Si3 0.764607 0.695939 0.943989
Si Si4 0.323479 0.985646 0.598569
Si Si5 0.810122 0.427153 0.695053
Si Si6 0.329631 0.349855 0.495422
Si Si7 0.882687 0.930133 0.212632
O O1 0.686659 0.063284 0.272534
O O2 0.505173 0.133981 0.370076
O O3 0.810749 0.141983 0.135982
O O4 0.665675 0.098838 0.900868
O O5 0.116055 0.612503 0.509722
O O6 0.943187 0.680920 0.820934
O O7 0.929029 0.597908 0.953588
O O8 0.743877 0.750000 0.961065
O O9 0.701278 0.675960 0.234871
O O10 0.699746 0.676455 0.734159
O O11 0.254772 0.972443 0.387228
O O12 0.500000 0.000000 0.500000
O O13 0.217814 0.025200 0.767875
O O14 0.954110 0.441051 0.768603
O O15 0.218839 0.394408 0.573173
#
# Coordination Sequence:
#
# PCOD9163861 Si02
#       7
#     4   4   4   4   4   4   4
#     4  10  23  39  60  90 129 171 214 258 318 377
#     4   9  21  39  64  87 123 164 208 260 323 375
#     4  11  24  45  72  97 121 159 212 264 325 400
#     4  11  22  35  54  90 127 170 224 265 303 361
#     4  10  21  37  57  85 122 172 212 258 307 374
#     4  11  23  42  69  95 132 164 206 263 328 377
#     4  10  20  38  57  88 125 173 213 261 307 368
#
# _framework density 19.270955000000001
#
# number of rings (size 3 to 8) (size 9 to 14) (size 15 to 20)
#    0.000    1.714    2.857    0.857    4.000    6.857 
#    0.000    1.429    0.000    0.000    0.000    0.000 
#    0.000    0.000    0.000    0.000    0.000    0.000 
#
# Total GULP energy -155948.972930 kJ/mol
# GULP energy per Si atom -5569.606176 kJ/mol
# Density = 1.922709 g / cm^3
# Si number density = 19.270955 Si / 1000 Ang^3
#
#
#
# Elastic Constant Matrix: (Units=GPa)
#
#
# Indices 1 2 3 4 5 6 
#
# 1 78.2409 53.2302 41.7788 0.0000 -11.8885 0.0000
# 2 53.2302 96.5559 40.0650 0.0000 -4.7322 0.0000
# 3 41.7788 40.0650 93.4394 0.0000 -10.7675 0.0000
# 4 0.0000 0.0000 0.0000 18.9433 0.0000 4.5836
# 5 -11.8885 -4.7322 -10.7675 0.0000 28.1177 0.0000
# 6 0.0000 0.0000 0.0000 4.5836 0.0000 24.6697
#
#
#
# Elastic Compliance Matrix: (Units=1/GPa)
#
#
# Indices 1 2 3 4 5 6 
#
# 1 0.023802 -0.010581 -0.005389 0.000000 0.006219 0.000000
# 2 -0.010581 0.017302 -0.003000 0.000000 -0.002711 0.000000
# 3 -0.005389 -0.003000 0.014727 0.000000 0.002856 0.000000
# 4 0.000000 0.000000 0.000000 0.055274 0.000000 -0.010270
# 5 0.006219 -0.002711 0.002856 0.000000 0.038832 0.000000
# 6 0.000000 0.000000 0.000000 -0.010270 0.000000 0.042444
#
#
# Mechanical properties :
#
#
# Convention : Reuss Voigt Hill
#
# Bulk Modulus (GPa) = 55.89304 59.82047 57.85675
# Shear Modulus (GPa) = 21.16090 23.22363 22.19226
#
# Velocity S-wave (km/s) = 3.31731 3.47524 3.39719
# Velocity P-wave (km/s) = 6.61358 6.87111 6.74358
#
# Compressibility (1/GPa) = 0.01789132
#
# Stress axis : x y z
#
# Youngs Moduli (GPa) = 42.01271 57.79705 67.90195
#
# Poissons Ratio (x) = 0.61155 0.36592
# Poissons Ratio (y) = 0.44454 0.20371
# Poissons Ratio (z) = 0.22640 0.17340
#
# Static dielectric constant tensor:
#      x y z
#    x 1.728620 0.000000 0.085070 
#    y 0.000000 1.649720 0.000000 
#    z 0.085070 0.000000 1.794060 
# 
# From -- ./inp_files/3202.got.cif
#   From: 2010.05.17/outbox.cif.g08.bks.cpg/sg11_2_cif.got.tgz:3202.got - 2010.06.03 12:22:45.
