data_PCOD9163077
_publ_section_title
;
Structure prediction by ZEFSAII (Michael W. Deem and Ramdas Pophale) SiO2 
 PCOD9163077
Probable space group: P 21/M
;
_chemical_formula_sum "Si O2"
_cell_formula_units_Z 32
_cell_length_a 13.548760
_cell_length_b 25.039217
_cell_length_c 8.426033
_cell_angle_alpha 90.000000
_cell_angle_beta 31.966064
_cell_angle_gamma 90.000000
_cell_volume 1513.356446
_symmetry_space_group_name_H-M "P 21/M"
_symmetry_group_IT_number 11
_symmetry_cell_setting 'monoclinic'
loop_
_space_group_symop_operation_xyz
x,y,z
-x,1/2+y,-z
-x,-y,-z
x,1/2-y,z
loop_
_atom_site_type_symbol
_atom_site_label
_atom_site_fract_x
_atom_site_fract_y
_atom_site_fract_z
Si Si1 0.695095 0.425742 0.908002
Si Si2 0.056155 0.082663 0.242310
Si Si3 0.087854 0.690203 0.005622
Si Si4 0.381693 0.894933 0.657202
Si Si5 0.405194 0.375192 0.147668
Si Si6 0.567974 0.535645 0.151863
Si Si7 0.218977 0.125804 0.722594
Si Si8 0.888450 0.811022 0.618222
O O1 0.862132 0.440236 0.565879
O O2 0.740984 0.414780 0.027483
O O3 0.600785 0.371357 0.971499
O O4 0.552574 0.475252 0.117498
O O5 0.074295 0.141014 0.306827
O O6 0.221792 0.044824 0.074003
O O7 0.087327 0.090418 0.013524
O O8 0.151770 0.750000 0.890334
O O9 0.256847 0.649607 0.744122
O O10 0.906739 0.677642 0.143943
O O11 0.022932 0.686149 0.279750
O O12 0.432494 0.944192 0.474815
O O13 0.582041 0.872874 0.453592
O O14 0.265470 0.392182 0.480058
O O15 0.314078 0.326153 0.180111
O O16 0.446108 0.421808 0.968697
O O17 0.893913 0.750000 0.671566
#
# Coordination Sequence:
#
# PCOD9163077 Si02
#       8
#     4   4   4   4   4   4   4   4
#     4  11  20  36  59  85 117 154 194 245 289 346
#     4  10  20  36  58  84 116 149 193 240 288 350
#     4  10  20  37  61  86 114 152 194 242 296 349
#     4  10  21  38  60  87 119 155 197 243 293 356
#     4   9  20  37  56  83 114 151 192 241 288 347
#     4  10  21  37  58  83 117 157 194 237 299 342
#     4   9  21  38  57  80 121 152 185 243 294 338
#     4   9  18  37  60  81 112 151 188 239 299 347
#
# _framework density 21.145050999999999
#
# number of rings (size 3 to 8) (size 9 to 14) (size 15 to 20)
#    0.000    2.250    1.250    1.125    1.750    1.000 
#    0.000    8.125    0.000    0.000    0.000    0.000 
#    0.000    0.000    0.000    0.000    0.000    0.000 
#
# Total GULP energy -178181.809951 kJ/mol
# GULP energy per Si atom -5568.181561 kJ/mol
# Density = 2.109692 g / cm^3
# Si number density = 21.145051 Si / 1000 Ang^3
#
#
#
# Elastic Constant Matrix: (Units=GPa)
#
#
# Indices 1 2 3 4 5 6 
#
# 1 26.0134 -7.7236 -3.8004 0.0000 7.6301 0.0000
# 2 -7.7236 62.0968 -12.5061 0.0000 -17.3305 0.0000
# 3 -3.8004 -12.5061 47.8919 0.0000 0.2846 0.0000
# 4 0.0000 0.0000 0.0000 21.2277 0.0000 -0.4563
# 5 7.6301 -17.3305 0.2846 0.0000 20.2310 0.0000
# 6 0.0000 0.0000 0.0000 -0.4563 0.0000 21.2978
#
#
#
# Elastic Compliance Matrix: (Units=1/GPa)
#
#
# Indices 1 2 3 4 5 6 
#
# 1 0.044037 0.002184 0.004153 0.000000 -0.014796 0.000000
# 2 0.002184 0.022778 0.006011 0.000000 0.018604 0.000000
# 3 0.004153 0.006011 0.022760 0.000000 0.003263 0.000000
# 4 0.000000 0.000000 0.000000 0.047130 0.000000 0.001010
# 5 -0.014796 0.018604 0.003263 0.000000 0.070900 0.000000
# 6 0.000000 0.000000 0.000000 0.001010 0.000000 0.046975
#
#
# Mechanical properties :
#
#
# Convention : Reuss Voigt Hill
#
# Bulk Modulus (GPa) = 8.75110 9.77133 9.26122
# Shear Modulus (GPa) = 18.65849 23.22011 20.93930
#
# Velocity S-wave (km/s) = 2.97375 3.31741 3.15027
# Velocity P-wave (km/s) = 3.99231 4.39371 4.19781
#
# Compressibility (1/GPa) = 0.11427133
#
# Stress axis : x y z
#
# Youngs Moduli (GPa) = 22.70835 43.90127 43.93645
#
# Poissons Ratio (x) = -0.09590 -0.18246
# Poissons Ratio (y) = -0.04960 -0.26410
# Poissons Ratio (z) = -0.09430 -0.26389
#
# Static dielectric constant tensor:
#      x y z
#    x 1.858780 0.000000 -0.010820 
#    y 0.000000 1.743250 0.000000 
#    z -0.010820 0.000000 1.780170 
# 
# From -- ./inp_files/23342.got.cif
#   From: 2010.05.17/outbox.cif.g08.bks.cpg/sg11_12_cif.got.tgz:23342.got - 2010.06.03 12:22:45.
