data_PCOD9163285
_publ_section_title
;
Structure prediction by ZEFSAII (Michael W. Deem and Ramdas Pophale) SiO2 
 PCOD9163285
Probable space group: P 21/M
;
_chemical_formula_sum "Si O2"
_cell_formula_units_Z 28
_cell_length_a 11.616006
_cell_length_b 7.832010
_cell_length_c 15.324319
_cell_angle_alpha 90.000000
_cell_angle_beta 54.824116
_cell_angle_gamma 90.000000
_cell_volume 1139.565282
_symmetry_space_group_name_H-M "P 21/M"
_symmetry_group_IT_number 11
_symmetry_cell_setting 'monoclinic'
loop_
_space_group_symop_operation_xyz
x,y,z
-x,1/2+y,-z
-x,-y,-z
x,1/2-y,z
loop_
_atom_site_type_symbol
_atom_site_label
_atom_site_fract_x
_atom_site_fract_y
_atom_site_fract_z
Si Si1 0.563122 0.959485 0.153340
Si Si2 0.072165 0.051328 0.313005
Si Si3 0.723121 0.941197 0.919493
Si Si4 0.747734 0.951161 0.437193
Si Si5 0.271712 0.550010 0.360544
Si Si6 0.974407 0.055085 0.913662
Si Si7 0.704137 0.550520 0.271223
O O1 0.572933 0.750000 0.145242
O O2 0.405941 0.009920 0.246910
O O3 0.652155 0.017854 0.200014
O O4 0.609754 0.019614 0.036441
O O5 0.059010 0.250000 0.294909
O O6 0.198080 0.973824 0.197528
O O7 0.132888 0.039106 0.383979
O O8 0.918201 0.974696 0.366369
O O9 0.676499 0.750000 0.915240
O O10 0.858388 0.934517 0.924137
O O11 0.720465 0.750000 0.448764
O O12 0.676187 0.024366 0.379955
O O13 0.696696 0.023926 0.551457
O O14 0.251084 0.750000 0.355595
O O15 0.923131 0.250000 0.930236
O O16 0.126545 0.046749 0.803868
O O17 0.000000 0.000000 0.000000
O O18 0.658539 0.750000 0.291039
#
# Coordination Sequence:
#
# PCOD9163285 Si02
#       7
#     4   4   4   4   4   4   4
#     4   9  19  38  60  85 119 159 193 226 284 356
#     4  11  23  39  62  90 118 147 192 249 299 343
#     4  10  20  36  60  88 118 152 190 238 293 349
#     4  11  22  39  63  89 117 149 193 245 297 344
#     4  11  24  41  61  82 113 159 204 240 284 344
#     4  11  19  31  54  86 121 155 190 235 291 347
#     4   9  18  33  58  87 117 151 186 230 289 348
#
# _framework density 24.570771000000001
#
# number of rings (size 3 to 8) (size 9 to 14) (size 15 to 20)
#    0.000    1.714    2.857    2.143    0.000    1.714 
#    0.000    1.429    0.000    0.000    0.000    0.000 
#    0.000    0.000    0.000    0.000    0.000    0.000 
#
# Total GULP energy -156310.604197 kJ/mol
# GULP energy per Si atom -5582.521578 kJ/mol
# Density = 2.451485 g / cm^3
# Si number density = 24.570771 Si / 1000 Ang^3
#
#
#
# Elastic Constant Matrix: (Units=GPa)
#
#
# Indices 1 2 3 4 5 6 
#
# 1 45.4914 -2.4639 0.1240 0.0000 1.3909 0.0000
# 2 -2.4639 52.8920 -2.6743 0.0000 -5.4278 0.0000
# 3 0.1240 -2.6743 84.7737 0.0000 -11.7827 0.0000
# 4 0.0000 0.0000 0.0000 11.2621 0.0000 3.2787
# 5 1.3909 -5.4278 -11.7827 0.0000 31.2549 0.0000
# 6 0.0000 0.0000 0.0000 3.2787 0.0000 15.1789
#
#
#
# Elastic Compliance Matrix: (Units=1/GPa)
#
#
# Indices 1 2 3 4 5 6 
#
# 1 0.022059 0.000932 -0.000123 0.000000 -0.000866 0.000000
# 2 0.000932 0.019392 0.001132 0.000000 0.003753 0.000000
# 3 -0.000123 0.001132 0.012516 0.000000 0.004920 0.000000
# 4 0.000000 0.000000 0.000000 0.094752 0.000000 -0.020466
# 5 -0.000866 0.003753 0.004920 0.000000 0.034540 0.000000
# 6 0.000000 0.000000 0.000000 -0.020466 0.000000 0.070302
#
#
# Mechanical properties :
#
#
# Convention : Reuss Voigt Hill
#
# Bulk Modulus (GPa) = 17.28603 19.23652 18.26128
# Shear Modulus (GPa) = 18.58998 24.08393 21.33695
#
# Velocity S-wave (km/s) = 2.75360 3.13419 2.95004
# Velocity P-wave (km/s) = 4.14249 4.57641 4.36485
#
# Compressibility (1/GPa) = 0.05785018
#
# Stress axis : x y z
#
# Youngs Moduli (GPa) = 45.33197 51.56695 79.89841
#
# Poissons Ratio (x) = -0.04809 0.00985
# Poissons Ratio (y) = -0.04227 -0.09045
# Poissons Ratio (z) = 0.00559 -0.05838
#
# Static dielectric constant tensor:
#      x y z
#    x 1.901510 0.000000 0.041500 
#    y 0.000000 1.907080 0.000000 
#    z 0.041500 0.000000 2.018650 
# 
# From -- ./inp_files/49167.got.cif
#   From: 2010.05.17/outbox.cif.g08.bks.cpg/sg11_25_cif.got.tgz:49167.got - 2010.06.03 12:22:45.
