data_PCOD9163582
_publ_section_title
;
Structure prediction by ZEFSAII (Michael W. Deem and Ramdas Pophale) SiO2 
 PCOD9163582
Probable space group: P 21/M
;
_chemical_formula_sum "Si O2"
_cell_formula_units_Z 24
_cell_length_a 14.662316
_cell_length_b 14.548626
_cell_length_c 9.320331
_cell_angle_alpha 90.000000
_cell_angle_beta 41.529164
_cell_angle_gamma 90.000000
_cell_volume 1318.166276
_symmetry_space_group_name_H-M "P 21/M"
_symmetry_group_IT_number 11
_symmetry_cell_setting 'monoclinic'
loop_
_space_group_symop_operation_xyz
x,y,z
-x,1/2+y,-z
-x,-y,-z
x,1/2-y,z
loop_
_atom_site_type_symbol
_atom_site_label
_atom_site_fract_x
_atom_site_fract_y
_atom_site_fract_z
Si Si1 0.074178 0.360925 0.036850
Si Si2 0.265365 0.360550 0.073930
Si Si3 0.237385 0.641391 0.556472
Si Si4 0.308782 0.147661 0.548725
Si Si5 0.501803 0.100889 0.566683
Si Si6 0.652958 0.517100 0.762389
O O1 0.081235 0.250000 0.019665
O O2 0.140970 0.383811 0.111951
O O3 0.915674 0.387024 0.214854
O O4 0.176965 0.392194 0.790122
O O5 0.264827 0.250000 0.104372
O O6 0.266448 0.424777 0.211840
O O7 0.402361 0.384296 0.820634
O O8 0.236227 0.750000 0.521448
O O9 0.347934 0.626610 0.553459
O O10 0.281592 0.578220 0.370018
O O11 0.276851 0.250000 0.531204
O O12 0.429382 0.155618 0.523971
O O13 0.351968 0.080829 0.372098
O O14 0.500000 0.000000 0.500000
O O15 0.500000 0.500000 0.000000
#
# Coordination Sequence:
#
# PCOD9163582 Si02
#       6
#     4   4   4   4   4   4
#     4   8  19  38  61  85 109 147 195 232 282 346
#     4  10  20  38  60  82 116 155 187 230 287 342
#     4  11  22  38  60  84 117 151 186 241 293 328
#     4  10  20  37  60  84 111 147 191 237 280 335
#     4  11  19  36  57  86 112 147 192 233 278 343
#     4  12  23  35  56  90 116 148 196 234 273 346
#
# _framework density 18.207111000000001
#
# number of rings (size 3 to 8) (size 9 to 14) (size 15 to 20)
#    0.000    1.667    3.333    3.000    0.000    2.000 
#    0.000    0.000    3.667    0.000    0.000    0.000 
#    0.000    0.000    0.000    0.000    0.000    0.000 
#
# Total GULP energy -133832.046310 kJ/mol
# GULP energy per Si atom -5576.335263 kJ/mol
# Density = 1.816567 g / cm^3
# Si number density = 18.207111 Si / 1000 Ang^3
#
#
#
# Elastic Constant Matrix: (Units=GPa)
#
#
# Indices 1 2 3 4 5 6 
#
# 1 113.8511 31.3247 79.0015 0.0000 -12.9778 0.0000
# 2 31.3247 115.7377 49.8830 0.0000 7.5771 0.0000
# 3 79.0015 49.8830 121.9980 0.0000 -4.8699 0.0000
# 4 0.0000 0.0000 0.0000 18.3033 0.0000 6.8867
# 5 -12.9778 7.5771 -4.8699 0.0000 39.0236 0.0000
# 6 0.0000 0.0000 0.0000 6.8867 0.0000 26.8204
#
#
#
# Elastic Compliance Matrix: (Units=1/GPa)
#
#
# Indices 1 2 3 4 5 6 
#
# 1 0.016616 -0.000258 -0.010484 0.000000 0.004267 0.000000
# 2 -0.000258 0.010759 -0.004340 0.000000 -0.002716 0.000000
# 3 -0.010484 -0.004340 0.016738 0.000000 -0.000555 0.000000
# 4 0.000000 0.000000 0.000000 0.060478 0.000000 -0.015529
# 5 0.004267 -0.002716 -0.000555 0.000000 0.027503 0.000000
# 6 0.000000 0.000000 0.000000 -0.015529 0.000000 0.041273
#
#
# Mechanical properties :
#
#
# Convention : Reuss Voigt Hill
#
# Bulk Modulus (GPa) = 71.69382 74.66724 73.18053
# Shear Modulus (GPa) = 24.01774 29.58797 26.80286
#
# Velocity S-wave (km/s) = 3.63594 4.03560 3.84097
# Velocity P-wave (km/s) = 7.55573 7.92551 7.74283
#
# Compressibility (1/GPa) = 0.01394820
#
# Stress axis : x y z
#
# Youngs Moduli (GPa) = 60.18456 92.94899 59.74291
#
# Poissons Ratio (x) = 0.02397 0.62633
# Poissons Ratio (y) = 0.01552 0.25931
# Poissons Ratio (z) = 0.63096 0.40344
#
# Static dielectric constant tensor:
#      x y z
#    x 1.633740 0.000000 -0.011260 
#    y 0.000000 1.685390 0.000000 
#    z -0.011260 0.000000 1.616110 
# 
# From -- ./inp_files/21980.got.cif
#   From: 2010.05.17/outbox.cif.g08.bks.cpg/sg11_11_cif.got.tgz:21980.got - 2010.06.03 12:22:45.
