data_PCOD9163969
_publ_section_title
;
Structure prediction by ZEFSAII (Michael W. Deem and Ramdas Pophale) SiO2 
 PCOD9163969
Probable space group: P 21/M
;
_chemical_formula_sum "Si O2"
_cell_formula_units_Z 32
_cell_length_a 20.363118
_cell_length_b 8.567284
_cell_length_c 14.709773
_cell_angle_alpha 90.000000
_cell_angle_beta 38.844412
_cell_angle_gamma 90.000000
_cell_volume 1609.551231
_symmetry_space_group_name_H-M "P 21/M"
_symmetry_group_IT_number 11
_symmetry_cell_setting 'monoclinic'
loop_
_space_group_symop_operation_xyz
x,y,z
-x,1/2+y,-z
-x,-y,-z
x,1/2-y,z
loop_
_atom_site_type_symbol
_atom_site_label
_atom_site_fract_x
_atom_site_fract_y
_atom_site_fract_z
Si Si1 0.253589 0.439806 0.071973
Si Si2 0.981231 0.938072 0.621039
Si Si3 0.010010 0.936261 0.089976
Si Si4 0.373355 0.936568 0.384423
Si Si5 0.604654 0.562304 0.434885
Si Si6 0.148389 0.062843 0.584480
Si Si7 0.541262 0.561248 0.051411
Si Si8 0.234836 0.438077 0.891504
O O1 0.253627 0.250000 0.073897
O O2 0.135176 0.489069 0.221743
O O3 0.341560 0.492056 0.048238
O O4 0.282468 0.486052 0.937497
O O5 0.984567 0.750000 0.619949
O O6 0.000000 0.000000 0.500000
O O7 0.071569 0.004711 0.588346
O O8 0.015721 0.750000 0.082436
O O9 0.116545 0.002946 0.016412
O O10 0.910831 0.980551 0.258140
O O11 0.000000 0.000000 0.000000
O O12 0.377512 0.750000 0.387499
O O13 0.464630 0.986342 0.216552
O O14 0.385239 0.005122 0.472767
O O15 0.262507 0.988324 0.462251
O O16 0.500000 0.500000 0.500000
O O17 0.603669 0.750000 0.436016
O O18 0.700220 0.509086 0.266466
O O19 0.158009 0.250000 0.569560
O O20 0.541244 0.750000 0.047805
O O21 0.500000 0.500000 0.000000
O O22 0.233234 0.250000 0.891013
#
# Coordination Sequence:
#
# PCOD9163969 Si02
#       8
#     4   4   4   4   4   4   4   4
#     4   9  19  39  65  89 119 159 200 247 310 371
#     4  11  23  40  65  94 124 164 206 255 316 375
#     4  11  23  37  57  87 122 161 203 251 302 361
#     4  11  24  42  64  92 129 168 211 261 312 375
#     4  11  23  39  63  93 126 166 210 259 313 370
#     4  11  24  42  62  90 129 168 210 259 310 372
#     4  10  23  43  65  92 122 160 206 257 313 370
#     4  10  20  38  62  87 118 158 203 251 305 368
#
# _framework density 19.881319999999999
#
# number of rings (size 3 to 8) (size 9 to 14) (size 15 to 20)
#    0.000    1.500    1.250    3.375    1.750    8.500 
#    0.000    1.250    0.000    0.000    0.000    0.000 
#    0.000    0.000    0.000    0.000    0.000    0.000 
#
# Total GULP energy -178865.075166 kJ/mol
# GULP energy per Si atom -5589.533599 kJ/mol
# Density = 1.983607 g / cm^3
# Si number density = 19.881320 Si / 1000 Ang^3
#
#
#
# Elastic Constant Matrix: (Units=GPa)
#
#
# Indices 1 2 3 4 5 6 
#
# 1 147.5685 12.4248 46.4674 0.0000 3.3194 0.0000
# 2 12.4248 21.6865 20.8504 0.0000 2.8958 0.0000
# 3 46.4674 20.8504 100.2490 0.0000 4.1087 0.0000
# 4 0.0000 0.0000 0.0000 24.8103 0.0000 3.0234
# 5 3.3194 2.8958 4.1087 0.0000 40.8630 0.0000
# 6 0.0000 0.0000 0.0000 3.0234 0.0000 38.5658
#
#
#
# Elastic Compliance Matrix: (Units=1/GPa)
#
#
# Indices 1 2 3 4 5 6 
#
# 1 0.007964 -0.001242 -0.003425 0.000000 -0.000215 0.000000
# 2 -0.001242 0.058173 -0.011406 0.000000 -0.002875 0.000000
# 3 -0.003425 -0.011406 0.013948 0.000000 -0.000316 0.000000
# 4 0.000000 0.000000 0.000000 0.040695 0.000000 -0.003190
# 5 -0.000215 -0.002875 -0.000316 0.000000 0.024725 0.000000
# 6 0.000000 0.000000 0.000000 -0.003190 0.000000 0.026180
#
#
# Mechanical properties :
#
#
# Convention : Reuss Voigt Hill
#
# Bulk Modulus (GPa) = 20.85908 47.66546 34.26227
# Shear Modulus (GPa) = 22.74708 33.49859 28.12283
#
# Velocity S-wave (km/s) = 3.38619 4.10924 3.76511
# Velocity P-wave (km/s) = 5.07966 6.82213 6.01434
#
# Compressibility (1/GPa) = 0.04794076
#
# Stress axis : x y z
#
# Youngs Moduli (GPa) = 125.56144 17.19014 71.69661
#
# Poissons Ratio (x) = 0.02135 0.24553
# Poissons Ratio (y) = 0.15592 0.81775
# Poissons Ratio (z) = 0.42999 0.19607
#
# Static dielectric constant tensor:
#      x y z
#    x 1.680020 0.000000 0.002780 
#    y 0.000000 1.679880 0.000000 
#    z 0.002780 0.000000 1.705830 
# 
# From -- ./inp_files/54247.got.cif
#   From: 2010.05.17/outbox.cif.g08.bks.cpg/sg11_28_cif.got.tgz:54247.got - 2010.06.03 12:22:45.
