data_PCOD9163886
_publ_section_title
;
Structure prediction by ZEFSAII (Michael W. Deem and Ramdas Pophale) SiO2 
 PCOD9163886
Probable space group: P 21/M
;
_chemical_formula_sum "Si O2"
_cell_formula_units_Z 32
_cell_length_a 23.747817
_cell_length_b 7.569955
_cell_length_c 16.730000
_cell_angle_alpha 90.000000
_cell_angle_beta 29.268193
_cell_angle_gamma 90.000000
_cell_volume 1470.386216
_symmetry_space_group_name_H-M "P 21/M"
_symmetry_group_IT_number 11
_symmetry_cell_setting 'monoclinic'
loop_
_space_group_symop_operation_xyz
x,y,z
-x,1/2+y,-z
-x,-y,-z
x,1/2-y,z
loop_
_atom_site_type_symbol
_atom_site_label
_atom_site_fract_x
_atom_site_fract_y
_atom_site_fract_z
Si Si1 0.235311 0.459486 0.501030
Si Si2 0.340694 0.964547 0.990348
Si Si3 0.213209 0.546805 0.863958
Si Si4 0.085332 0.961327 0.322022
Si Si5 0.540205 0.962000 0.861049
Si Si6 0.420840 0.044154 0.714762
Si Si7 0.019410 0.532579 0.225765
Si Si8 0.680129 0.464351 0.425312
O O1 0.227337 0.250000 0.496446
O O2 0.334031 0.530823 0.319506
O O3 0.106832 0.527543 0.645551
O O4 0.279935 0.485184 0.535881
O O5 0.342947 0.750000 0.987160
O O6 0.215730 0.024151 0.175158
O O7 0.444420 0.028310 0.917461
O O8 0.360731 0.024533 0.875220
O O9 0.178610 0.750000 0.894501
O O10 0.337227 0.543633 0.754100
O O11 0.234200 0.469779 0.750113
O O12 0.118437 0.470647 0.041740
O O13 0.091449 0.750000 0.308135
O O14 0.044043 0.025344 0.286100
O O15 0.000000 0.000000 0.500000
O O16 0.543912 0.750000 0.847573
O O17 0.500000 0.000000 0.000000
O O18 0.428114 0.250000 0.684018
O O19 0.550389 0.973789 0.565646
O O20 0.023189 0.750000 0.221350
O O21 0.676963 0.250000 0.426691
#
# Coordination Sequence:
#
# PCOD9163886 Si02
#       8
#     4   4   4   4   4   4   4   4
#     4  10  21  38  59  82 110 147 189 229 273 331
#     4  10  20  38  60  81 108 152 192 221 277 344
#     4  10  20  38  60  80 112 152 185 223 280 343
#     4  10  21  37  58  82 110 144 185 228 276 331
#     4  10  22  37  57  83 110 144 186 227 275 329
#     4  11  21  34  55  87 117 141 184 237 281 324
#     4   9  19  37  59  81 108 147 188 224 271 334
#     4  10  22  37  56  84 114 148 185 228 283 332
#
# _framework density 21.762989000000001
#
# number of rings (size 3 to 8) (size 9 to 14) (size 15 to 20)
#    0.000    2.000    2.500    0.750    1.750    3.000 
#    0.000    1.250    0.000    0.000    0.000    0.000 
#    0.000    0.000    0.000    0.000    0.000    0.000 
#
# Total GULP energy -178785.526646 kJ/mol
# GULP energy per Si atom -5587.047708 kJ/mol
# Density = 2.171346 g / cm^3
# Si number density = 21.762989 Si / 1000 Ang^3
#
#
#
# Elastic Constant Matrix: (Units=GPa)
#
#
# Indices 1 2 3 4 5 6 
#
# 1 51.0631 -3.8842 32.2557 0.0000 -14.3187 0.0000
# 2 -3.8842 48.0453 5.3598 0.0000 -6.6598 0.0000
# 3 32.2557 5.3598 148.5323 0.0000 -8.2652 0.0000
# 4 0.0000 0.0000 0.0000 6.2510 0.0000 9.0968
# 5 -14.3187 -6.6598 -8.2652 0.0000 41.0875 0.0000
# 6 0.0000 0.0000 0.0000 9.0968 0.0000 10.7580
#
#
#
# Elastic Compliance Matrix: (Units=1/GPa)
#
#
# Indices 1 2 3 4 5 6 
#
# 1 0.025543 0.003821 -0.005213 0.000000 0.008472 0.000000
# 2 0.003821 0.021914 -0.001364 0.000000 0.004609 0.000000
# 3 -0.005213 -0.001364 0.007889 0.000000 -0.000451 0.000000
# 4 0.000000 0.000000 0.000000 -0.693883 0.000000 0.586739
# 5 0.008472 0.004609 -0.000451 0.000000 0.027947 0.000000
# 6 0.000000 0.000000 0.000000 0.586739 0.000000 -0.403185
#
#
# Mechanical properties :
#
#
# Convention : Reuss Voigt Hill
#
# Bulk Modulus (GPa) = 20.06716 35.01148 27.53932
# Shear Modulus (GPa) = -5.04210 25.87993 10.41891
#
# Velocity S-wave (km/s) = -1.52376 3.45218 2.19040
# Velocity P-wave (km/s) = 2.47891 5.65797 4.36793
#
# Compressibility (1/GPa) = 0.04983267
#
# Stress axis : x y z
#
# Youngs Moduli (GPa) = 39.14929 45.63367 126.76139
#
# Poissons Ratio (x) = -0.17437 0.66087
# Poissons Ratio (y) = -0.14959 0.17291
# Poissons Ratio (z) = 0.20410 0.06225
#
# Static dielectric constant tensor:
#      x y z
#    x 1.747700 0.000000 -0.016300 
#    y 0.000000 1.831470 0.000000 
#    z -0.016300 0.000000 1.798230 
# 
# From -- ./inp_files/55516.got.cif
#   From: 2010.05.17/outbox.cif.g08.bks.cpg/sg11_28_cif.got.tgz:55516.got - 2010.06.03 12:22:45.
