data_PCOD9163572
_publ_section_title
;
Structure prediction by ZEFSAII (Michael W. Deem and Ramdas Pophale) SiO2 
 PCOD9163572
Probable space group: P 21/M
;
_chemical_formula_sum "Si O2"
_cell_formula_units_Z 20
_cell_length_a 13.969673
_cell_length_b 8.933680
_cell_length_c 19.346576
_cell_angle_alpha 90.000000
_cell_angle_beta 152.586947
_cell_angle_gamma 90.000000
_cell_volume 1111.624165
_symmetry_space_group_name_H-M "P 21/M"
_symmetry_group_IT_number 11
_symmetry_cell_setting 'monoclinic'
loop_
_space_group_symop_operation_xyz
x,y,z
-x,1/2+y,-z
-x,-y,-z
x,1/2-y,z
loop_
_atom_site_type_symbol
_atom_site_label
_atom_site_fract_x
_atom_site_fract_y
_atom_site_fract_z
Si Si1 0.836966 0.569736 0.842162
Si Si2 0.614502 0.570374 0.425359
Si Si3 0.951010 0.929045 0.758296
Si Si4 0.940151 0.072002 0.534297
Si Si5 0.278217 0.426599 0.871128
O O1 0.834684 0.750000 0.846156
O O2 0.609129 0.504442 0.710791
O O3 0.902645 0.529370 0.805891
O O4 0.000000 0.500000 0.000000
O O5 0.596420 0.750000 0.409073
O O6 0.756928 0.533244 0.583715
O O7 0.740244 0.506216 0.440526
O O8 0.978495 0.750000 0.772474
O O9 0.154459 0.005252 0.856717
O O10 0.906237 0.250000 0.505958
O O11 0.128433 0.047947 0.709137
O O12 0.000000 0.000000 0.500000
O O13 0.302880 0.250000 0.896488
O O14 0.500000 0.500000 0.000000
#
# Coordination Sequence:
#
# PCOD9163572 Si02
#       5
#     4   4   4   4   4
#     4  11  23  38  56  82 114 146 181 226 275 325
#     4  10  20  37  60  83 108 143 184 227 274 327
#     4   9  20  38  59  81 108 143 184 226 271 324
#     4  10  21  37  57  83 112 145 184 226 272 325
#     4  10  21  36  57  83 111 143 182 225 271 323
#
# _framework density 17.991693000000001
#
# number of rings (size 3 to 8) (size 9 to 14) (size 15 to 20)
#    0.000    2.000    0.000    3.000    0.000    6.400 
#    0.000    2.000    0.000    0.000    0.000    0.000 
#    0.000    0.000    0.000    0.000    0.000    0.000 
#
# Total GULP energy -111732.050781 kJ/mol
# GULP energy per Si atom -5586.602539 kJ/mol
# Density = 1.795074 g / cm^3
# Si number density = 17.991693 Si / 1000 Ang^3
#
#
#
# Elastic Constant Matrix: (Units=GPa)
#
#
# Indices 1 2 3 4 5 6 
#
# 1 208.1487 88.5414 105.2083 0.0000 15.6634 0.0000
# 2 88.5414 75.7329 71.0933 0.0000 12.6277 0.0000
# 3 105.2083 71.0933 121.7267 0.0000 34.9308 0.0000
# 4 0.0000 0.0000 0.0000 35.4198 0.0000 5.8958
# 5 15.6634 12.6277 34.9308 0.0000 31.7659 0.0000
# 6 0.0000 0.0000 0.0000 5.8958 0.0000 37.5206
#
#
#
# Elastic Compliance Matrix: (Units=1/GPa)
#
#
# Indices 1 2 3 4 5 6 
#
# 1 0.010840 -0.007553 -0.006261 0.000000 0.004542 0.000000
# 2 -0.007553 0.037077 -0.017482 0.000000 0.008209 0.000000
# 3 -0.006261 -0.017482 0.030618 0.000000 -0.023632 0.000000
# 4 0.000000 0.000000 0.000000 0.028991 0.000000 -0.004556
# 5 0.004542 0.008209 -0.023632 0.000000 0.051964 0.000000
# 6 0.000000 0.000000 0.000000 -0.004556 0.000000 0.027368
#
#
# Mechanical properties :
#
#
# Convention : Reuss Voigt Hill
#
# Bulk Modulus (GPa) = 62.72448 103.92160 83.32304
# Shear Modulus (GPa) = 19.62589 30.32563 24.97576
#
# Velocity S-wave (km/s) = 3.30636 4.10998 3.72987
# Velocity P-wave (km/s) = 7.03667 8.96710 8.05989
#
# Compressibility (1/GPa) = 0.01594274
#
# Stress axis : x y z
#
# Youngs Moduli (GPa) = 92.24981 26.97072 32.66016
#
# Poissons Ratio (x) = 0.20372 0.20449
# Poissons Ratio (y) = 0.69679 0.57096
# Poissons Ratio (z) = 0.57760 0.47150
#
# Static dielectric constant tensor:
#      x y z
#    x 1.588760 0.000000 -0.012780 
#    y 0.000000 1.610550 0.000000 
#    z -0.012780 0.000000 1.592720 
# 
# From -- ./inp_files/15922.got.cif
#   From: 2010.05.17/outbox.cif.g08.bks.cpg/sg11_8_cif.got.tgz:15922.got - 2010.06.03 12:22:45.
