data_PCOD9163709
_publ_section_title
;
Structure prediction by ZEFSAII (Michael W. Deem and Ramdas Pophale) SiO2 
 PCOD9163709
Probable space group: P 21/M
;
_chemical_formula_sum "Si O2"
_cell_formula_units_Z 28
_cell_length_a 22.374956
_cell_length_b 8.800653
_cell_length_c 14.911061
_cell_angle_alpha 90.000000
_cell_angle_beta 30.484453
_cell_angle_gamma 90.000000
_cell_volume 1489.547603
_symmetry_space_group_name_H-M "P 21/M"
_symmetry_group_IT_number 11
_symmetry_cell_setting 'monoclinic'
loop_
_space_group_symop_operation_xyz
x,y,z
-x,1/2+y,-z
-x,-y,-z
x,1/2-y,z
loop_
_atom_site_type_symbol
_atom_site_label
_atom_site_fract_x
_atom_site_fract_y
_atom_site_fract_z
Si Si1 0.490829 0.431329 0.412223
Si Si2 0.241449 0.567624 0.715862
Si Si3 0.287831 0.068436 0.979247
Si Si4 0.131716 0.930710 0.672682
Si Si5 0.886117 0.068482 0.933831
Si Si6 0.646451 0.569104 0.715304
Si Si7 0.606326 0.568515 0.973891
O O1 0.500000 0.500000 0.500000
O O2 0.500417 0.250000 0.403000
O O3 0.363872 0.482854 0.540162
O O4 0.596771 0.499821 0.217637
O O5 0.262642 0.750000 0.688224
O O6 0.150833 0.533003 0.753180
O O7 0.189898 0.524548 0.879480
O O8 0.288561 0.250000 0.967964
O O9 0.301963 0.031681 0.066142
O O10 0.175603 0.001676 0.073336
O O11 0.118134 0.750000 0.681716
O O12 0.249678 0.984445 0.470211
O O13 0.017912 0.011829 0.779699
O O14 0.883674 0.250000 0.930851
O O15 0.658310 0.750000 0.688231
O O16 0.517382 0.515811 0.850535
O O17 0.649921 0.533015 0.817346
O O18 0.583413 0.750000 0.006796
#
# Coordination Sequence:
#
# PCOD9163709 Si02
#       7
#     4   4   4   4   4   4   4
#     4  12  23  35  55  83 116 151 188 231 279 332
#     4  10  22  39  58  82 114 151 191 237 286 336
#     4  11  22  38  59  84 116 153 190 232 286 341
#     4  11  23  39  59  83 114 152 192 235 286 339
#     4  11  23  39  58  81 113 152 195 238 280 337
#     4  10  20  37  61  89 117 146 187 236 284 337
#     4   9  20  38  61  88 118 149 183 231 289 342
#
# _framework density 18.797653
#
# number of rings (size 3 to 8) (size 9 to 14) (size 15 to 20)
#    0.000    1.429    1.429    4.286    0.000    6.857 
#    0.000    0.714    0.000    0.000    0.000    0.000 
#    0.000    0.000    0.000    0.000    0.000    0.000 
#
# Total GULP energy -156540.876291 kJ/mol
# GULP energy per Si atom -5590.745582 kJ/mol
# Density = 1.875487 g / cm^3
# Si number density = 18.797653 Si / 1000 Ang^3
#
#
#
# Elastic Constant Matrix: (Units=GPa)
#
#
# Indices 1 2 3 4 5 6 
#
# 1 146.5919 47.5048 23.9998 0.0000 -16.7778 0.0000
# 2 47.5048 50.4321 15.0865 0.0000 -7.0341 0.0000
# 3 23.9998 15.0865 30.1543 0.0000 -11.2620 0.0000
# 4 0.0000 0.0000 0.0000 30.9109 0.0000 -4.2774
# 5 -16.7778 -7.0341 -11.2620 0.0000 24.7828 0.0000
# 6 0.0000 0.0000 0.0000 -4.2774 0.0000 27.0617
#
#
#
# Elastic Compliance Matrix: (Units=1/GPa)
#
#
# Indices 1 2 3 4 5 6 
#
# 1 0.010422 -0.008517 -0.002772 0.000000 0.003379 0.000000
# 2 -0.008517 0.030330 -0.008834 0.000000 -0.001171 0.000000
# 3 -0.002772 -0.008834 0.045950 0.000000 0.016497 0.000000
# 4 0.000000 0.000000 0.000000 0.033074 0.000000 0.005228
# 5 0.003379 -0.001171 0.016497 0.000000 0.049802 0.000000
# 6 0.000000 0.000000 0.000000 0.005228 0.000000 0.037779
#
#
# Mechanical properties :
#
#
# Convention : Reuss Voigt Hill
#
# Bulk Modulus (GPa) = 21.52509 44.48453 33.00481
# Shear Modulus (GPa) = 19.00504 25.92356 22.46430
#
# Velocity S-wave (km/s) = 3.18312 3.71763 3.46071
# Velocity P-wave (km/s) = 4.99855 6.49184 5.79351
#
# Compressibility (1/GPa) = 0.04645741
#
# Stress axis : x y z
#
# Youngs Moduli (GPa) = 95.94955 32.97048 21.76286
#
# Poissons Ratio (x) = 0.28080 0.06033
# Poissons Ratio (y) = 0.81717 0.19224
# Poissons Ratio (z) = 0.26598 0.29125
#
# Static dielectric constant tensor:
#      x y z
#    x 1.675010 0.000000 0.012450 
#    y 0.000000 1.623770 0.000000 
#    z 0.012450 0.000000 1.611840 
# 
# From -- ./inp_files/37907.got.cif
#   From: 2010.05.17/outbox.cif.g08.bks.cpg/sg11_19_cif.got.tgz:37907.got - 2010.06.03 12:22:45.
