data_PCOD9163683
_publ_section_title
;
Structure prediction by ZEFSAII (Michael W. Deem and Ramdas Pophale) SiO2 
 PCOD9163683
Probable space group: P 21/M
;
_chemical_formula_sum "Si O2"
_cell_formula_units_Z 32
_cell_length_a 11.832263
_cell_length_b 15.922063
_cell_length_c 16.334344
_cell_angle_alpha 90.000000
_cell_angle_beta 33.707912
_cell_angle_gamma 90.000000
_cell_volume 1707.772395
_symmetry_space_group_name_H-M "P 21/M"
_symmetry_group_IT_number 11
_symmetry_cell_setting 'monoclinic'
loop_
_space_group_symop_operation_xyz
x,y,z
-x,1/2+y,-z
-x,-y,-z
x,1/2-y,z
loop_
_atom_site_type_symbol
_atom_site_label
_atom_site_fract_x
_atom_site_fract_y
_atom_site_fract_z
Si Si1 0.246795 0.904850 0.066068
Si Si2 0.077235 0.418432 0.403411
Si Si3 0.162359 0.009825 0.700607
Si Si4 0.639952 0.151080 0.652507
Si Si5 0.581007 0.156767 0.870436
Si Si6 0.473365 0.153371 0.248006
Si Si7 0.512291 0.006743 0.356331
Si Si8 0.199587 0.077671 0.146069
O O1 0.285245 0.873168 0.134291
O O2 0.007037 0.916590 0.192420
O O3 0.320135 0.001410 0.029399
O O4 0.372867 0.857048 0.921648
O O5 0.247689 0.369753 0.351949
O O6 0.172369 0.441417 0.258022
O O7 0.000000 0.500000 0.500000
O O8 0.882620 0.361342 0.499394
O O9 0.288388 0.998205 0.707045
O O10 0.321154 0.024516 0.531737
O O11 0.022396 0.929046 0.761098
O O12 0.585012 0.250000 0.673392
O O13 0.593072 0.119077 0.772909
O O14 0.531512 0.083701 0.658781
O O15 0.653720 0.250000 0.810269
O O16 0.347634 0.154315 0.042009
O O17 0.481117 0.250000 0.272380
O O18 0.527271 0.082006 0.282034
#
# Coordination Sequence:
#
# PCOD9163683 Si02
#       8
#     4   4   4   4   4   4   4   4
#     4  10  21  38  60  88 119 157 205 241 311 365
#     4  12  21  36  62  93 124 160 200 254 317 375
#     4   9  23  41  68  85 112 166 213 255 304 366
#     4  11  23  38  61  93 125 160 203 255 312 366
#     4  11  22  35  56  90 128 157 192 246 305 374
#     4  12  25  39  62  94 130 163 202 260 314 372
#     4  11  22  46  64  88 122 162 217 255 307 362
#     4  10  20  37  61  87 113 163 198 244 313 365
#
# _framework density 18.737860000000001
#
# number of rings (size 3 to 8) (size 9 to 14) (size 15 to 20)
#    0.750    0.500    3.750    2.625    1.750    1.000 
#    0.000    5.000    0.000    0.000    0.000    0.000 
#    0.000    0.000    0.000    0.000    0.000    0.000 
#
# Total GULP energy -178238.749049 kJ/mol
# GULP energy per Si atom -5569.960908 kJ/mol
# Density = 1.869521 g / cm^3
# Si number density = 18.737860 Si / 1000 Ang^3
#
#
#
# Elastic Constant Matrix: (Units=GPa)
#
#
# Indices 1 2 3 4 5 6 
#
# 1 134.0552 39.4825 35.4806 0.0000 1.3024 0.0000
# 2 39.4825 89.9651 23.8480 0.0000 10.4423 0.0000
# 3 35.4806 23.8480 68.9504 0.0000 2.7064 0.0000
# 4 0.0000 0.0000 0.0000 -272.7543 0.0000 254.5641
# 5 1.3024 10.4423 2.7064 0.0000 28.1772 0.0000
# 6 0.0000 0.0000 0.0000 254.5641 0.0000 -211.8934
#
#
#
# Elastic Compliance Matrix: (Units=1/GPa)
#
#
# Indices 1 2 3 4 5 6 
#
# 1 0.009403 -0.003263 -0.003755 0.000000 0.001135 0.000000
# 2 -0.003263 0.013872 -0.002934 0.000000 -0.004708 0.000000
# 3 -0.003755 -0.002934 0.017466 0.000000 -0.000417 0.000000
# 4 0.000000 0.000000 0.000000 0.030236 0.000000 0.036324
# 5 0.001135 -0.004708 -0.000417 0.000000 0.037222 0.000000
# 6 0.000000 0.000000 0.000000 0.036324 0.000000 0.038920
#
#
# Mechanical properties :
#
#
# Convention : Reuss Voigt Hill
#
# Bulk Modulus (GPa) = 47.98949 54.51031 51.24990
# Shear Modulus (GPa) = 28.74077 -78.35012 -24.80468
#
# Velocity S-wave (km/s) = 3.92067 -6.47337 -3.64232
# Velocity P-wave (km/s) = 6.79427 5.16901 3.11797
#
# Compressibility (1/GPa) = 0.02083790
#
# Stress axis : x y z
#
# Youngs Moduli (GPa) = 106.34354 72.08891 57.25290
#
# Poissons Ratio (x) = 0.23525 0.21497
# Poissons Ratio (y) = 0.34703 0.16797
# Poissons Ratio (z) = 0.39929 0.21149
#
# Static dielectric constant tensor:
#      x y z
#    x 1.640950 0.000000 0.009330 
#    y 0.000000 1.673250 0.000000 
#    z 0.009330 0.000000 1.701800 
# 
# From -- ./inp_files/50382.got.cif
#   From: 2010.05.17/outbox.cif.g08.bks.cpg/sg11_26_cif.got.tgz:50382.got - 2010.06.03 12:22:45.
