data_PCOD9163107
_publ_section_title
;
Structure prediction by ZEFSAII (Michael W. Deem and Ramdas Pophale) SiO2 
 PCOD9163107
Probable space group: P 21/M
;
_chemical_formula_sum "Si O2"
_cell_formula_units_Z 28
_cell_length_a 5.416999
_cell_length_b 15.114887
_cell_length_c 17.038205
_cell_angle_alpha 90.000000
_cell_angle_beta 68.857822
_cell_angle_gamma 90.000000
_cell_volume 1301.139961
_symmetry_space_group_name_H-M "P 21/M"
_symmetry_group_IT_number 11
_symmetry_cell_setting 'monoclinic'
loop_
_space_group_symop_operation_xyz
x,y,z
-x,1/2+y,-z
-x,-y,-z
x,1/2-y,z
loop_
_atom_site_type_symbol
_atom_site_label
_atom_site_fract_x
_atom_site_fract_y
_atom_site_fract_z
Si Si1 0.754448 0.433231 0.875089
Si Si2 0.743471 0.596893 0.979812
Si Si3 0.432969 0.484124 0.248614
Si Si4 0.781161 0.846285 0.249522
Si Si5 0.392846 0.352102 0.564904
Si Si6 0.721923 0.967262 0.562621
Si Si7 0.326308 0.848046 0.892233
O O1 0.807799 0.497026 0.942906
O O2 0.778106 0.492878 0.794442
O O3 0.958938 0.356795 0.833489
O O4 0.449390 0.405198 0.923151
O O5 0.546301 0.634993 0.934750
O O6 0.023409 0.643946 0.956135
O O7 0.586802 0.574354 0.250190
O O8 0.304810 0.448279 0.342402
O O9 0.628847 0.416820 0.182889
O O10 0.658740 0.750000 0.249058
O O11 0.825662 0.851181 0.339463
O O12 0.501478 0.250000 0.554372
O O13 0.328280 0.379255 0.483192
O O14 0.550763 0.442739 0.568380
O O15 0.000000 0.000000 0.500000
O O16 0.368946 0.750000 0.857051
#
# Coordination Sequence:
#
# PCOD9163107 Si02
#       7
#     4   4   4   4   4   4   4
#     4  10  21  37  60  86 119 158 203 253 317 365
#     4  10  23  39  65  88 125 167 212 258 315 373
#     4  10  22  38  60  87 122 156 203 259 314 369
#     4  10  20  36  58  86 119 155 200 254 314 374
#     4   9  20  37  57  86 122 156 196 253 312 371
#     4  10  20  37  62  87 118 159 205 251 309 375
#     4  11  23  42  62  91 127 170 213 260 310 372
#
# _framework density 21.519593
#
# number of rings (size 3 to 8) (size 9 to 14) (size 15 to 20)
#    0.000    2.000    1.429    1.286    2.000    4.571 
#    0.000    2.857    0.000    0.000    0.000    0.000 
#    0.000    0.000    0.000    0.000    0.000    0.000 
#
# Total GULP energy -155972.462601 kJ/mol
# GULP energy per Si atom -5570.445093 kJ/mol
# Density = 2.147061 g / cm^3
# Si number density = 21.519593 Si / 1000 Ang^3
#
#
#
# Elastic Constant Matrix: (Units=GPa)
#
#
# Indices 1 2 3 4 5 6 
#
# 1 49.3814 12.3697 27.3073 0.0000 -2.7193 0.0000
# 2 12.3697 125.0922 24.2179 0.0000 -0.7373 0.0000
# 3 27.3073 24.2179 128.9893 0.0000 3.6324 0.0000
# 4 0.0000 0.0000 0.0000 21.7189 0.0000 1.5159
# 5 -2.7193 -0.7373 3.6324 0.0000 32.2807 0.0000
# 6 0.0000 0.0000 0.0000 1.5159 0.0000 13.8152
#
#
#
# Elastic Compliance Matrix: (Units=1/GPa)
#
#
# Indices 1 2 3 4 5 6 
#
# 1 0.023362 -0.001375 -0.004757 0.000000 0.002472 0.000000
# 2 -0.001375 0.008381 -0.001289 0.000000 0.000221 0.000000
# 3 -0.004757 -0.001289 0.009042 0.000000 -0.001448 0.000000
# 4 0.000000 0.000000 0.000000 0.046398 0.000000 -0.005091
# 5 0.002472 0.000221 -0.001448 0.000000 0.031354 0.000000
# 6 0.000000 0.000000 0.000000 -0.005091 0.000000 0.072942
#
#
# Mechanical properties :
#
#
# Convention : Reuss Voigt Hill
#
# Bulk Modulus (GPa) = 38.54472 47.91698 43.23085
# Shear Modulus (GPa) = 23.25916 29.53417 26.39666
#
# Velocity S-wave (km/s) = 3.29117 3.70865 3.50613
# Velocity P-wave (km/s) = 5.69147 6.37604 6.04345
#
# Compressibility (1/GPa) = 0.02594389
#
# Stress axis : x y z
#
# Youngs Moduli (GPa) = 42.80510 119.32003 110.58966
#
# Poissons Ratio (x) = 0.16401 0.52610
# Poissons Ratio (y) = 0.05884 0.14252
# Poissons Ratio (z) = 0.20364 0.15377
#
# Static dielectric constant tensor:
#      x y z
#    x 1.848160 0.000000 0.035330 
#    y 0.000000 1.822360 0.000000 
#    z 0.035330 0.000000 1.817660 
# 
# From -- ./inp_files/8010.got.cif
#   From: 2010.05.17/outbox.cif.g08.bks.cpg/sg11_5_cif.got.tgz:8010.got - 2010.06.03 12:22:45.
