data_PCOD9163870
_publ_section_title
;
Structure prediction by ZEFSAII (Michael W. Deem and Ramdas Pophale) SiO2 
 PCOD9163870
Probable space group: P 21/M
;
_chemical_formula_sum "Si O2"
_cell_formula_units_Z 32
_cell_length_a 7.869817
_cell_length_b 22.098997
_cell_length_c 13.706007
_cell_angle_alpha 90.000000
_cell_angle_beta 43.113152
_cell_angle_gamma 90.000000
_cell_volume 1629.106229
_symmetry_space_group_name_H-M "P 21/M"
_symmetry_group_IT_number 11
_symmetry_cell_setting 'monoclinic'
loop_
_space_group_symop_operation_xyz
x,y,z
-x,1/2+y,-z
-x,-y,-z
x,1/2-y,z
loop_
_atom_site_type_symbol
_atom_site_label
_atom_site_fract_x
_atom_site_fract_y
_atom_site_fract_z
Si Si1 0.289799 0.822981 0.504532
Si Si2 0.181054 0.105141 0.241550
Si Si3 0.143529 0.681981 0.347369
Si Si4 0.476924 0.123309 0.930312
Si Si5 0.270937 0.476783 0.914714
Si Si6 0.723282 0.531402 0.612562
Si Si7 0.268010 0.100384 0.586033
Si Si8 0.144238 0.525928 0.166538
O O1 0.322100 0.750000 0.498670
O O2 0.244018 0.839768 0.410008
O O3 0.516572 0.860512 0.455547
O O4 0.041982 0.847442 0.660484
O O5 0.267761 0.087515 0.314256
O O6 0.099245 0.039553 0.232472
O O7 0.380627 0.129710 0.080138
O O8 0.055617 0.750000 0.398593
O O9 0.379146 0.678557 0.176254
O O10 0.922075 0.644474 0.391893
O O11 0.683212 0.069514 0.841648
O O12 0.268798 0.093488 0.948261
O O13 0.494215 0.491096 0.747608
O O14 0.297503 0.515049 0.004049
O O15 0.000000 0.500000 0.000000
O O16 0.661664 0.553387 0.529308
O O17 0.000000 0.500000 0.500000
O O18 0.112029 0.062641 0.731891
#
# Coordination Sequence:
#
# PCOD9163870 Si02
#       8
#     4   4   4   4   4   4   4   4
#     4  11  26  42  59  87 121 161 214 265 303 365
#     4  11  20  38  60  86 125 156 202 249 309 369
#     4  10  22  42  65  85 111 162 214 258 311 368
#     4  10  20  38  60  85 119 158 196 249 308 377
#     4  11  23  34  56  91 133 159 196 245 312 381
#     4  12  21  38  61  95 132 167 204 248 314 391
#     4  11  23  38  65  89 127 158 203 261 317 375
#     4  10  20  38  58  91 119 160 194 250 314 376
#
# _framework density 19.642671
#
# number of rings (size 3 to 8) (size 9 to 14) (size 15 to 20)
#    0.000    1.250    5.000    1.875    5.250    1.000 
#    0.000    0.000    0.000    0.000    0.000    0.000 
#    0.000    0.000    0.000    0.000    0.000    0.000 
#
# Total GULP energy -178413.995813 kJ/mol
# GULP energy per Si atom -5575.437369 kJ/mol
# Density = 1.959796 g / cm^3
# Si number density = 19.642671 Si / 1000 Ang^3
#
#
#
# Elastic Constant Matrix: (Units=GPa)
#
#
# Indices 1 2 3 4 5 6 
#
# 1 68.8899 13.8528 20.4056 0.0000 -3.7287 0.0000
# 2 13.8528 39.1554 20.5253 0.0000 3.1927 0.0000
# 3 20.4056 20.5253 118.8214 0.0000 1.9343 0.0000
# 4 0.0000 0.0000 0.0000 23.3525 0.0000 -6.2624
# 5 -3.7287 3.1927 1.9343 0.0000 15.8873 0.0000
# 6 0.0000 0.0000 0.0000 -6.2624 0.0000 30.9971
#
#
#
# Elastic Compliance Matrix: (Units=1/GPa)
#
#
# Indices 1 2 3 4 5 6 
#
# 1 0.016431 -0.005178 -0.002011 0.000000 0.005142 0.000000
# 2 -0.005178 0.030126 -0.004205 0.000000 -0.006758 0.000000
# 3 -0.002011 -0.004205 0.009500 0.000000 -0.000784 0.000000
# 4 0.000000 0.000000 0.000000 0.045275 0.000000 0.009147
# 5 0.005142 -0.006758 -0.000784 0.000000 0.065604 0.000000
# 6 0.000000 0.000000 0.000000 0.009147 0.000000 0.034109
#
#
# Mechanical properties :
#
#
# Convention : Reuss Voigt Hill
#
# Bulk Modulus (GPa) = 30.05717 37.38158 33.71938
# Shear Modulus (GPa) = 21.28351 25.51957 23.40154
#
# Velocity S-wave (km/s) = 3.29528 3.60834 3.45536
# Velocity P-wave (km/s) = 5.46019 6.03591 5.75526
#
# Compressibility (1/GPa) = 0.03326993
#
# Stress axis : x y z
#
# Youngs Moduli (GPa) = 60.85990 33.19345 105.25823
#
# Poissons Ratio (x) = 0.17189 0.21167
# Poissons Ratio (y) = 0.31515 0.44259
# Poissons Ratio (z) = 0.12239 0.13957
#
# Static dielectric constant tensor:
#      x y z
#    x 1.788240 0.000000 -0.003460 
#    y 0.000000 1.718240 0.000000 
#    z -0.003460 0.000000 1.718430 
# 
# From -- ./inp_files/48244.got.cif
#   From: 2010.05.17/outbox.cif.g08.bks.cpg/sg11_25_cif.got.tgz:48244.got - 2010.06.03 12:22:45.
