data_PCOD9163813
_publ_section_title
;
Structure prediction by ZEFSAII (Michael W. Deem and Ramdas Pophale) SiO2 
 PCOD9163813
Probable space group: P 21/M
;
_chemical_formula_sum "Si O2"
_cell_formula_units_Z 32
_cell_length_a 11.754427
_cell_length_b 19.023042
_cell_length_c 14.960763
_cell_angle_alpha 90.000000
_cell_angle_beta 151.750308
_cell_angle_gamma 90.000000
_cell_volume 1583.380815
_symmetry_space_group_name_H-M "P 21/M"
_symmetry_group_IT_number 11
_symmetry_cell_setting 'monoclinic'
loop_
_space_group_symop_operation_xyz
x,y,z
-x,1/2+y,-z
-x,-y,-z
x,1/2-y,z
loop_
_atom_site_type_symbol
_atom_site_label
_atom_site_fract_x
_atom_site_fract_y
_atom_site_fract_z
Si Si1 0.291183 0.331879 0.983727
Si Si2 0.157101 0.602671 0.401891
Si Si3 0.539226 0.165707 0.858110
Si Si4 0.958146 0.916512 0.462697
Si Si5 0.895148 0.106578 0.962884
Si Si6 0.215439 0.510859 0.284454
Si Si7 0.743560 0.166669 0.186267
Si Si8 0.364796 0.330715 0.229910
O O1 0.332533 0.250000 0.025032
O O2 0.022605 0.342415 0.766973
O O3 0.479520 0.354794 0.039837
O O4 0.346634 0.364102 0.118148
O O5 0.086318 0.601027 0.456835
O O6 0.114656 0.534150 0.311810
O O7 0.431988 0.625147 0.580369
O O8 0.476080 0.250000 0.811081
O O9 0.670554 0.138631 0.860120
O O10 0.310548 0.116159 0.721833
O O11 0.730479 0.157379 0.071396
O O12 0.078919 0.878453 0.631154
O O13 0.000000 0.000000 0.500000
O O14 0.813360 0.070021 0.813444
O O15 0.097689 0.164399 0.082509
O O16 0.048287 0.051071 0.128991
O O17 0.500000 0.500000 0.500000
O O18 0.783537 0.250000 0.231390
O O19 0.445685 0.250000 0.284536
#
# Coordination Sequence:
#
# PCOD9163813 Si02
#       8
#     4   4   4   4   4   4   4   4
#     4  10  20  37  63  94 125 157 206 270 328 381
#     4  12  23  41  66  95 128 167 215 272 335 388
#     4  11  26  47  69  95 138 187 229 277 342 416
#     4  12  28  41  67 102 136 174 226 284 340 408
#     4  11  25  44  68  94 131 179 223 270 332 405
#     4  11  25  43  67  95 132 175 220 275 336 400
#     4  10  22  43  67  93 130 177 223 272 336 404
#     4  11  22  39  65  96 125 161 215 272 324 385
#
# _framework density 20.20992
#
# number of rings (size 3 to 8) (size 9 to 14) (size 15 to 20)
#    0.000    1.000    5.000    1.125    3.500    2.500 
#    0.000    0.000    0.000    0.000    0.000    0.000 
#    0.000    0.000    0.000    0.000    0.000    0.000 
#
# Total GULP energy -178402.905707 kJ/mol
# GULP energy per Si atom -5575.090803 kJ/mol
# Density = 2.016392 g / cm^3
# Si number density = 20.209920 Si / 1000 Ang^3
#
#
#
# Elastic Constant Matrix: (Units=GPa)
#
#
# Indices 1 2 3 4 5 6 
#
# 1 60.4670 14.2064 10.9827 0.0000 1.9169 0.0000
# 2 14.2064 73.0558 37.7453 0.0000 -9.4654 0.0000
# 3 10.9827 37.7453 116.4976 0.0000 -8.7828 0.0000
# 4 0.0000 0.0000 0.0000 24.0025 0.0000 -2.5374
# 5 1.9169 -9.4654 -8.7828 0.0000 26.7892 0.0000
# 6 0.0000 0.0000 0.0000 -2.5374 0.0000 23.3617
#
#
#
# Elastic Compliance Matrix: (Units=1/GPa)
#
#
# Indices 1 2 3 4 5 6 
#
# 1 0.017554 -0.003366 -0.000767 0.000000 -0.002697 0.000000
# 2 -0.003366 0.017552 -0.005008 0.000000 0.004801 0.000000
# 3 -0.000767 -0.005008 0.010407 0.000000 0.001697 0.000000
# 4 0.000000 0.000000 0.000000 0.042146 0.000000 0.004578
# 5 -0.002697 0.004801 0.001697 0.000000 0.039774 0.000000
# 6 0.000000 0.000000 0.000000 0.004578 0.000000 0.043302
#
#
# Mechanical properties :
#
#
# Convention : Reuss Voigt Hill
#
# Bulk Modulus (GPa) = 36.72488 41.76547 39.24518
# Shear Modulus (GPa) = 25.24045 27.30308 26.27177
#
# Velocity S-wave (km/s) = 3.53783 3.67955 3.60939
# Velocity P-wave (km/s) = 5.90758 6.22598 6.06887
#
# Compressibility (1/GPa) = 0.02722950
#
# Stress axis : x y z
#
# Youngs Moduli (GPa) = 56.96780 56.97342 96.09250
#
# Poissons Ratio (x) = 0.19180 0.07375
# Poissons Ratio (y) = 0.19178 0.48119
# Poissons Ratio (z) = 0.04372 0.28530
#
# Static dielectric constant tensor:
#      x y z
#    x 1.761060 0.000000 -0.004370 
#    y 0.000000 1.746840 0.000000 
#    z -0.004370 0.000000 1.702380 
# 
# From -- ./inp_files/50734.got.cif
#   From: 2010.05.17/outbox.cif.g08.bks.cpg/sg11_26_cif.got.tgz:50734.got - 2010.06.03 12:22:45.
