data_PCOD9163211
_publ_section_title
;
Structure prediction by ZEFSAII (Michael W. Deem and Ramdas Pophale) SiO2 
 PCOD9163211
Probable space group: P 21/M
;
_chemical_formula_sum "Si O2"
_cell_formula_units_Z 28
_cell_length_a 26.713011
_cell_length_b 8.567289
_cell_length_c 9.744170
_cell_angle_alpha 90.000000
_cell_angle_beta 141.980146
_cell_angle_gamma 90.000000
_cell_volume 1373.553695
_symmetry_space_group_name_H-M "P 21/M"
_symmetry_group_IT_number 11
_symmetry_cell_setting 'monoclinic'
loop_
_space_group_symop_operation_xyz
x,y,z
-x,1/2+y,-z
-x,-y,-z
x,1/2-y,z
loop_
_atom_site_type_symbol
_atom_site_label
_atom_site_fract_x
_atom_site_fract_y
_atom_site_fract_z
Si Si1 0.368328 0.062608 0.458833
Si Si2 0.527782 0.937425 0.911518
Si Si3 0.696565 0.560854 0.382213
Si Si4 0.756085 0.437083 0.026302
Si Si5 0.996208 0.066382 0.839465
Si Si6 0.178086 0.436011 0.561329
Si Si7 0.925105 0.435828 0.248727
O O1 0.364049 0.250000 0.444775
O O2 0.325906 0.009163 0.512017
O O3 0.462495 0.010743 0.667948
O O4 0.319865 0.989133 0.228663
O O5 0.521714 0.750000 0.892966
O O6 0.622696 0.981549 0.119226
O O7 0.500000 0.000000 0.000000
O O8 0.697821 0.750000 0.390201
O O9 0.780318 0.512248 0.491905
O O10 0.756527 0.250000 0.045564
O O11 0.762332 0.522078 0.185495
O O12 0.838299 0.484404 0.121847
O O13 0.007989 0.250000 0.866646
O O14 0.906032 0.023355 0.592919
O O15 0.060654 0.992456 0.875063
O O16 0.000000 0.000000 0.000000
O O17 0.163355 0.250000 0.524791
O O18 0.928987 0.250000 0.261806
O O19 0.000000 0.500000 0.500000
#
# Coordination Sequence:
#
# PCOD9163211 Si02
#       7
#     4   4   4   4   4   4   4
#     4  10  20  36  59  88 117 151 195 242 289 344
#     4   9  16  32  56  84 117 151 189 237 289 346
#     4   8  18  35  58  87 116 148 189 237 291 346
#     4  11  24  40  58  86 119 154 195 241 290 350
#     4  12  26  43  62  88 120 155 198 246 295 349
#     4  11  22  40  62  86 117 155 194 240 297 352
#     4  11  23  41  64  88 117 155 198 242 295 352
#
# _framework density 20.385079999999999
#
# number of rings (size 3 to 8) (size 9 to 14) (size 15 to 20)
#    0.000    1.714    1.429    4.286    2.000    1.714 
#    0.000    8.571    0.000    0.000    0.000    0.000 
#    0.000    0.000    0.000    0.000    0.000    0.000 
#
# Total GULP energy -156389.128975 kJ/mol
# GULP energy per Si atom -5585.326035 kJ/mol
# Density = 2.033868 g / cm^3
# Si number density = 20.385080 Si / 1000 Ang^3
#
#
#
# Elastic Constant Matrix: (Units=GPa)
#
#
# Indices 1 2 3 4 5 6 
#
# 1 42.1331 -1.6978 -23.0721 0.0000 -8.3382 0.0000
# 2 -1.6978 43.2407 -5.2744 0.0000 -0.0804 0.0000
# 3 -23.0721 -5.2744 68.1582 0.0000 -11.6294 0.0000
# 4 0.0000 0.0000 0.0000 35.2252 0.0000 -1.1994
# 5 -8.3382 -0.0804 -11.6294 0.0000 26.5023 0.0000
# 6 0.0000 0.0000 0.0000 -1.1994 0.0000 19.7195
#
#
#
# Elastic Compliance Matrix: (Units=1/GPa)
#
#
# Indices 1 2 3 4 5 6 
#
# 1 0.035960 0.003339 0.015526 0.000000 0.018137 0.000000
# 2 0.003339 0.023678 0.003410 0.000000 0.002619 0.000000
# 3 0.015526 0.003410 0.022728 0.000000 0.014868 0.000000
# 4 0.000000 0.000000 0.000000 0.028448 0.000000 0.001730
# 5 0.018137 0.002619 0.014868 0.000000 0.049971 0.000000
# 6 0.000000 0.000000 0.000000 0.001730 0.000000 0.050816
#
#
# Mechanical properties :
#
#
# Convention : Reuss Voigt Hill
#
# Bulk Modulus (GPa) = 7.87922 10.38259 9.13090
# Shear Modulus (GPa) = 23.88263 28.52783 26.20523
#
# Velocity S-wave (km/s) = 3.42654 3.74498 3.58929
# Velocity P-wave (km/s) = 4.41910 4.87894 4.65471
#
# Compressibility (1/GPa) = 0.12691619
#
# Stress axis : x y z
#
# Youngs Moduli (GPa) = 27.80859 42.23283 43.99842
#
# Poissons Ratio (x) = -0.14104 -0.68311
# Poissons Ratio (y) = -0.09287 -0.15002
# Poissons Ratio (z) = -0.43175 -0.14400
#
# Static dielectric constant tensor:
#      x y z
#    x 1.724610 0.000000 0.013830 
#    y 0.000000 1.680080 0.000000 
#    z 0.013830 0.000000 1.759250 
# 
# From -- ./inp_files/28542.got.cif
#   From: 2010.05.17/outbox.cif.g08.bks.cpg/sg11_15_cif.got.tgz:28542.got - 2010.06.03 12:22:45.
