data_PCOD9163044
_publ_section_title
;
Structure prediction by ZEFSAII (Michael W. Deem and Ramdas Pophale) SiO2 
 PCOD9163044
Probable space group: P 21/M
;
_chemical_formula_sum "Si O2"
_cell_formula_units_Z 16
_cell_length_a 4.999412
_cell_length_b 7.603573
_cell_length_c 19.070214
_cell_angle_alpha 90.000000
_cell_angle_beta 121.994123
_cell_angle_gamma 90.000000
_cell_volume 614.809445
_symmetry_space_group_name_H-M "P 21/M"
_symmetry_group_IT_number 11
_symmetry_cell_setting 'monoclinic'
loop_
_space_group_symop_operation_xyz
x,y,z
-x,1/2+y,-z
-x,-y,-z
x,1/2-y,z
loop_
_atom_site_type_symbol
_atom_site_label
_atom_site_fract_x
_atom_site_fract_y
_atom_site_fract_z
Si Si1 0.492073 0.964202 0.181556
Si Si2 0.195642 0.460332 0.911665
Si Si3 0.000324 0.250000 0.518375
Si Si4 0.457703 0.946693 0.336330
Si Si5 0.724093 0.750000 0.591846
O O1 0.505959 0.750000 0.182945
O O2 0.740280 0.026300 0.158556
O O3 0.516203 0.013910 0.266078
O O4 0.142541 0.023318 0.108661
O O5 0.171747 0.250000 0.905522
O O6 0.500000 0.500000 0.000000
O O7 0.208044 0.408318 0.579690
O O8 0.044678 0.250000 0.441117
O O9 0.636547 0.250000 0.489342
O O10 0.306046 0.750000 0.311301
O O11 0.265794 0.079504 0.357498
#
# Coordination Sequence:
#
# PCOD9163044 Si02
#       5
#     4   4   2   4   2
#     4   9  19  37  56  81 111 149 185 225 279 341
#     4  10  20  36  58  82 112 144 185 228 278 338
#     4  10  24  38  64  82 123 152 199 242 296 340
#     4   9  22  40  61  87 118 160 192 243 294 343
#     4  12  22  42  56  94 115 154 199 248 284 352
#
# _framework density 26.024322999999999
#
# number of rings (size 3 to 8) (size 9 to 14) (size 15 to 20)
#    0.750    1.500    0.000    2.250    0.000    4.000 
#    4.500    0.000    0.000    0.000    0.000    0.000 
#    0.000    0.000    0.000    0.000    0.000    0.000 
#
# Total GULP energy -89610.733388 kJ/mol
# GULP energy per Si atom -5600.670837 kJ/mol
# Density = 2.596509 g / cm^3
# Si number density = 26.024323 Si / 1000 Ang^3
#
#
#
# Elastic Constant Matrix: (Units=GPa)
#
#
# Indices 1 2 3 4 5 6 
#
# 1 100.4117 18.8998 0.2413 0.0000 -0.4304 0.0000
# 2 18.8998 92.1739 7.4069 0.0000 -8.7728 0.0000
# 3 0.2413 7.4069 96.2230 0.0000 -5.1540 0.0000
# 4 0.0000 0.0000 0.0000 23.3325 0.0000 -4.1811
# 5 -0.4304 -8.7728 -5.1540 0.0000 38.7273 0.0000
# 6 0.0000 0.0000 0.0000 -4.1811 0.0000 17.5872
#
#
#
# Elastic Compliance Matrix: (Units=1/GPa)
#
#
# Indices 1 2 3 4 5 6 
#
# 1 0.010365 -0.002169 0.000122 0.000000 -0.000360 0.000000
# 2 -0.002169 0.011592 -0.000753 0.000000 0.002502 0.000000
# 3 0.000122 -0.000753 0.010516 0.000000 0.001230 0.000000
# 4 0.000000 0.000000 0.000000 0.044766 0.000000 0.010642
# 5 -0.000360 0.002502 0.001230 0.000000 0.026548 0.000000
# 6 0.000000 0.000000 0.000000 0.010642 0.000000 0.059389
#
#
# Mechanical properties :
#
#
# Convention : Reuss Voigt Hill
#
# Bulk Modulus (GPa) = 37.21233 37.98939 37.60086
# Shear Modulus (GPa) = 28.13158 33.41344 30.77251
#
# Velocity S-wave (km/s) = 3.29138 3.58709 3.44241
# Velocity P-wave (km/s) = 5.36417 5.63787 5.50272
#
# Compressibility (1/GPa) = 0.02687281
#
# Stress axis : x y z
#
# Youngs Moduli (GPa) = 96.47390 86.26272 95.09247
#
# Poissons Ratio (x) = 0.18714 -0.01157
# Poissons Ratio (y) = 0.20929 0.07160
# Poissons Ratio (z) = -0.01174 0.06495
#
# Static dielectric constant tensor:
#      x y z
#    x 1.976710 0.000000 0.055270 
#    y 0.000000 2.156240 0.000000 
#    z 0.055270 0.000000 2.044270 
# 
# From -- ./inp_files/5888.got.cif
#   From: 2010.05.17/outbox.cif.g08.bks.cpg/sg11_3_cif.got.tgz:5888.got - 2010.06.03 12:22:45.
