data_PCOD9163777
_publ_section_title
;
Structure prediction by ZEFSAII (Michael W. Deem and Ramdas Pophale) SiO2 
 PCOD9163777
Probable space group: P 21/M
;
_chemical_formula_sum "Si O2"
_cell_formula_units_Z 28
_cell_length_a 14.703892
_cell_length_b 9.097465
_cell_length_c 21.516751
_cell_angle_alpha 90.000000
_cell_angle_beta 151.303251
_cell_angle_gamma 90.000000
_cell_volume 1382.062824
_symmetry_space_group_name_H-M "P 21/M"
_symmetry_group_IT_number 11
_symmetry_cell_setting 'monoclinic'
loop_
_space_group_symop_operation_xyz
x,y,z
-x,1/2+y,-z
-x,-y,-z
x,1/2-y,z
loop_
_atom_site_type_symbol
_atom_site_label
_atom_site_fract_x
_atom_site_fract_y
_atom_site_fract_z
Si Si1 0.669648 0.418849 0.429047
Si Si2 0.702734 0.077289 0.116811
Si Si3 0.070071 0.925898 0.106060
Si Si4 0.771999 0.922459 0.036495
Si Si5 0.379460 0.924360 0.733167
Si Si6 0.534682 0.074055 0.588125
Si Si7 0.107815 0.419296 0.656811
O O1 0.627183 0.250000 0.421750
O O2 0.555188 0.458827 0.297927
O O3 0.628595 0.522586 0.462095
O O4 0.882902 0.422798 0.530570
O O5 0.677620 0.250000 0.100121
O O6 0.814998 0.025784 0.244045
O O7 0.500000 0.000000 0.000000
O O8 0.806018 0.019474 0.117161
O O9 0.080412 0.750000 0.101629
O O10 0.270852 0.970461 0.258500
O O11 0.912672 0.953916 0.064504
O O12 0.000000 0.000000 0.000000
O O13 0.791568 0.750000 0.064680
O O14 0.557550 0.947268 0.884902
O O15 0.330553 0.750000 0.705233
O O16 0.205498 0.021477 0.652916
O O17 0.538978 0.250000 0.582872
O O18 0.500000 0.000000 0.500000
O O19 0.168022 0.250000 0.702616
#
# Coordination Sequence:
#
# PCOD9163777 Si02
#       7
#     4   4   4   4   4   4   4
#     4  10  23  42  64  90 123 166 207 252 312 370
#     4  12  24  39  59  87 122 161 207 254 307 368
#     4  10  23  43  68  97 129 166 212 266 325 382
#     4  10  21  38  62  90 123 161 201 252 311 368
#     4  10  20  37  62  91 124 162 202 247 305 369
#     4  11  25  44  66  95 129 170 217 270 324 381
#     4  11  23  38  60  89 125 164 205 253 305 364
#
# _framework density 20.259571999999999
#
# number of rings (size 3 to 8) (size 9 to 14) (size 15 to 20)
#    0.000    1.429    1.429    3.429    2.000    4.571 
#    0.000    0.000    0.000    0.000    0.000    0.000 
#    0.000    0.000    0.000    0.000    0.000    0.000 
#
# Total GULP energy -156403.355622 kJ/mol
# GULP energy per Si atom -5585.834129 kJ/mol
# Density = 2.021346 g / cm^3
# Si number density = 20.259572 Si / 1000 Ang^3
#
#
#
# Elastic Constant Matrix: (Units=GPa)
#
#
# Indices 1 2 3 4 5 6 
#
# 1 113.5908 64.4553 32.3060 0.0000 -19.3988 0.0000
# 2 64.4553 86.2219 28.8807 0.0000 -14.0718 0.0000
# 3 32.3060 28.8807 62.3102 0.0000 -11.8525 0.0000
# 4 0.0000 0.0000 0.0000 27.9389 0.0000 -5.4909
# 5 -19.3988 -14.0718 -11.8525 0.0000 36.7333 0.0000
# 6 0.0000 0.0000 0.0000 -5.4909 0.0000 34.5419
#
#
#
# Elastic Compliance Matrix: (Units=1/GPa)
#
#
# Indices 1 2 3 4 5 6 
#
# 1 0.016240 -0.010608 -0.002818 0.000000 0.003603 0.000000
# 2 -0.010608 0.021073 -0.004046 0.000000 0.001165 0.000000
# 3 -0.002818 -0.004046 0.020037 0.000000 0.003427 0.000000
# 4 0.000000 0.000000 0.000000 0.036947 0.000000 0.005873
# 5 0.003603 0.001165 0.003427 0.000000 0.030678 0.000000
# 6 0.000000 0.000000 0.000000 0.005873 0.000000 0.029884
#
#
# Mechanical properties :
#
#
# Convention : Reuss Voigt Hill
#
# Bulk Modulus (GPa) = 44.62935 57.04523 50.83729
# Shear Modulus (GPa) = 25.34587 28.94154 27.14370
#
# Velocity S-wave (km/s) = 3.54086 3.78370 3.66429
# Velocity P-wave (km/s) = 6.22845 6.87799 6.56126
#
# Compressibility (1/GPa) = 0.02240678
#
# Stress axis : x y z
#
# Youngs Moduli (GPa) = 61.57776 47.45302 49.90836
#
# Poissons Ratio (x) = 0.50339 0.14062
# Poissons Ratio (y) = 0.65323 0.20192
# Poissons Ratio (z) = 0.17350 0.19199
#
# Static dielectric constant tensor:
#      x y z
#    x 1.713510 0.000000 0.003720 
#    y 0.000000 1.684970 0.000000 
#    z 0.003720 0.000000 1.773840 
# 
# From -- ./inp_files/49015.got.cif
#   From: 2010.05.17/outbox.cif.g08.bks.cpg/sg11_25_cif.got.tgz:49015.got - 2010.06.03 12:22:45.
