data_PCOD9163001
_publ_section_title
;
Structure prediction by ZEFSAII (Michael W. Deem and Ramdas Pophale) SiO2 
 PCOD9163001
Probable space group: P 21/M
;
_chemical_formula_sum "Si O2"
_cell_formula_units_Z 32
_cell_length_a 12.026877
_cell_length_b 8.244765
_cell_length_c 29.074936
_cell_angle_alpha 90.000000
_cell_angle_beta 31.592829
_cell_angle_gamma 90.000000
_cell_volume 1510.362375
_symmetry_space_group_name_H-M "P 21/M"
_symmetry_group_IT_number 11
_symmetry_cell_setting 'monoclinic'
loop_
_space_group_symop_operation_xyz
x,y,z
-x,1/2+y,-z
-x,-y,-z
x,1/2-y,z
loop_
_atom_site_type_symbol
_atom_site_label
_atom_site_fract_x
_atom_site_fract_y
_atom_site_fract_z
Si Si1 0.151225 0.055663 0.810076
Si Si2 0.161927 0.945362 0.327730
Si Si3 0.284591 0.058984 0.477701
Si Si4 0.891350 0.446726 0.990853
Si Si5 0.591338 0.555968 0.848750
Si Si6 0.353621 0.063977 0.592782
Si Si7 0.044767 0.058734 0.216247
Si Si8 0.638867 0.053523 0.644626
O O1 0.161515 0.250000 0.809592
O O2 0.394398 0.998103 0.725821
O O3 0.033790 0.014296 0.804042
O O4 0.024644 0.996872 0.899551
O O5 0.171728 0.750000 0.320213
O O6 0.274934 0.991068 0.335692
O O7 0.914778 0.988830 0.420657
O O8 0.279436 0.020200 0.243151
O O9 0.328450 0.250000 0.469171
O O10 0.490472 0.956631 0.418586
O O11 0.235747 0.026022 0.441748
O O12 0.889052 0.250000 0.991433
O O13 0.648491 0.505872 0.071655
O O14 0.000000 0.500000 0.000000
O O15 0.577781 0.750000 0.859212
O O16 0.734910 0.492756 0.840438
O O17 0.299161 0.250000 0.603547
O O18 0.500000 0.000000 0.500000
O O19 0.138976 0.971942 0.681076
O O20 0.065034 0.250000 0.202183
O O21 0.651445 0.250000 0.636230
#
# Coordination Sequence:
#
# PCOD9163001 Si02
#       8
#     4   4   4   4   4   4   4   4
#     4  10  21  38  62  89 121 162 202 248 306 364
#     4  10  22  38  58  86 120 159 203 249 302 365
#     4  11  22  36  56  86 119 156 203 251 300 361
#     4  10  22  42  66  94 126 159 200 247 304 366
#     4  10  23  41  61  88 122 158 198 250 304 357
#     4  12  24  39  59  84 118 161 207 255 306 360
#     4  11  23  40  61  88 122 159 205 254 303 361
#     4  10  20  36  57  84 119 158 199 246 302 359
#
# _framework density 21.186969999999999
#
# number of rings (size 3 to 8) (size 9 to 14) (size 15 to 20)
#    0.000    1.500    1.250    3.750    0.000    7.000 
#    0.000    0.000    0.000    0.000    0.000    0.000 
#    0.000    0.000    0.000    0.000    0.000    0.000 
#
# Total GULP energy -178912.332909 kJ/mol
# GULP energy per Si atom -5591.010403 kJ/mol
# Density = 2.113875 g / cm^3
# Si number density = 21.186970 Si / 1000 Ang^3
#
#
#
# Elastic Constant Matrix: (Units=GPa)
#
#
# Indices 1 2 3 4 5 6 
#
# 1 96.5667 -5.4990 29.7188 0.0000 -8.2217 0.0000
# 2 -5.4990 8.3773 1.2524 0.0000 -1.5962 0.0000
# 3 29.7188 1.2524 108.0583 0.0000 -2.8809 0.0000
# 4 0.0000 0.0000 0.0000 20.1064 0.0000 3.2151
# 5 -8.2217 -1.5962 -2.8809 0.0000 39.8421 0.0000
# 6 0.0000 0.0000 0.0000 3.2151 0.0000 31.1048
#
#
#
# Elastic Compliance Matrix: (Units=1/GPa)
#
#
# Indices 1 2 3 4 5 6 
#
# 1 0.012126 0.008962 -0.003369 0.000000 0.002618 0.000000
# 2 0.008962 0.127085 -0.003760 0.000000 0.006669 0.000000
# 3 -0.003369 -0.003760 0.010222 0.000000 -0.000107 0.000000
# 4 0.000000 0.000000 0.000000 0.050571 0.000000 -0.005227
# 5 0.002618 0.006669 -0.000107 0.000000 0.025899 0.000000
# 6 0.000000 0.000000 0.000000 -0.005227 0.000000 0.032690
#
#
# Mechanical properties :
#
#
# Convention : Reuss Voigt Hill
#
# Bulk Modulus (GPa) = 6.53176 29.32742 17.92959
# Shear Modulus (GPa) = 16.34209 30.71267 23.52738
#
# Velocity S-wave (km/s) = 2.78029 3.81149 3.33598
# Velocity P-wave (km/s) = 3.66010 5.76561 4.82900
#
# Compressibility (1/GPa) = 0.15309807
#
# Stress axis : x y z
#
# Youngs Moduli (GPa) = 82.47071 7.86875 97.83267
#
# Poissons Ratio (x) = -0.07052 0.32959
# Poissons Ratio (y) = -0.73908 0.36783
# Poissons Ratio (z) = 0.27784 0.02958
#
# Static dielectric constant tensor:
#      x y z
#    x 1.793340 0.000000 -0.018210 
#    y 0.000000 1.736640 0.000000 
#    z -0.018210 0.000000 1.753100 
# 
# From -- ./inp_files/73087.got.cif
#   From: 2010.05.17/outbox.cif.g08.bks.cpg/sg11_37_cif.got.tgz:73087.got - 2010.06.03 12:22:45.
