data_PCOD9163605
_publ_section_title
;
Structure prediction by ZEFSAII (Michael W. Deem and Ramdas Pophale) SiO2 
 PCOD9163605
Probable space group: P 21/M
;
_chemical_formula_sum "Si O2"
_cell_formula_units_Z 24
_cell_length_a 9.809026
_cell_length_b 8.123602
_cell_length_c 15.235819
_cell_angle_alpha 90.000000
_cell_angle_beta 81.506987
_cell_angle_gamma 90.000000
_cell_volume 1200.746965
_symmetry_space_group_name_H-M "P 21/M"
_symmetry_group_IT_number 11
_symmetry_cell_setting 'monoclinic'
loop_
_space_group_symop_operation_xyz
x,y,z
-x,1/2+y,-z
-x,-y,-z
x,1/2-y,z
loop_
_atom_site_type_symbol
_atom_site_label
_atom_site_fract_x
_atom_site_fract_y
_atom_site_fract_z
Si Si1 0.372976 0.448810 0.453059
Si Si2 0.902290 0.551804 0.431384
Si Si3 0.887630 0.551090 0.082227
Si Si4 0.355748 0.446812 0.251940
Si Si5 0.046022 0.949448 0.240982
Si Si6 0.427197 0.446472 0.916166
O O1 0.500000 0.500000 0.500000
O O2 0.365948 0.250000 0.448879
O O3 0.244311 0.510334 0.522361
O O4 0.371171 0.508081 0.351699
O O5 0.895249 0.750000 0.425110
O O6 0.000000 0.500000 0.500000
O O7 0.967426 0.490262 0.335221
O O8 0.880555 0.750000 0.084756
O O9 0.731178 0.490807 0.078866
O O10 0.955347 0.494858 0.167172
O O11 0.000000 0.500000 0.000000
O O12 0.361239 0.250000 0.253562
O O13 0.205157 0.496153 0.229365
O O14 0.476450 0.505214 0.175331
O O15 0.047786 0.750000 0.240337
O O16 0.419622 0.250000 0.918922
O O17 0.500000 0.500000 0.000000
#
# Coordination Sequence:
#
# PCOD9163605 Si02
#       6
#     4   4   4   4   4   4
#     4  10  23  39  58  86 122 160 202 250 297 352
#     4  10  20  37  60  86 118 156 199 247 294 349
#     4  10  23  41  62  89 117 150 193 242 294 350
#     4  11  23  40  60  89 124 158 199 247 299 355
#     4  10  21  38  62  88 116 155 201 245 298 358
#     4  11  24  42  65  91 122 159 197 242 296 356
#
# _framework density 19.987558
#
# number of rings (size 3 to 8) (size 9 to 14) (size 15 to 20)
#    0.000    1.667    1.667    2.000    2.333    6.667 
#    0.000    0.000    0.000    0.000    0.000    0.000 
#    0.000    0.000    0.000    0.000    0.000    0.000 
#
# Total GULP energy -133972.781498 kJ/mol
# GULP energy per Si atom -5582.199229 kJ/mol
# Density = 1.994207 g / cm^3
# Si number density = 19.987558 Si / 1000 Ang^3
#
#
#
# Elastic Constant Matrix: (Units=GPa)
#
#
# Indices 1 2 3 4 5 6 
#
# 1 234.2509 13.1818 115.3710 0.0000 -7.1434 0.0000
# 2 13.1818 18.6566 15.0479 0.0000 -0.7391 0.0000
# 3 115.3710 15.0479 181.3406 0.0000 -6.0349 0.0000
# 4 0.0000 0.0000 0.0000 26.1551 0.0000 1.9260
# 5 -7.1434 -0.7391 -6.0349 0.0000 40.9369 0.0000
# 6 0.0000 0.0000 0.0000 1.9260 0.0000 28.7838
#
#
#
# Elastic Compliance Matrix: (Units=1/GPa)
#
#
# Indices 1 2 3 4 5 6 
#
# 1 0.006256 -0.001290 -0.003857 0.000000 0.000500 0.000000
# 2 -0.001290 0.057716 -0.003961 0.000000 0.000233 0.000000
# 3 -0.003857 -0.003961 0.008313 0.000000 0.000481 0.000000
# 4 0.000000 0.000000 0.000000 0.038423 0.000000 -0.002571
# 5 0.000500 0.000233 0.000481 0.000000 0.024590 0.000000
# 6 0.000000 0.000000 0.000000 -0.002571 0.000000 0.034914
#
#
# Mechanical properties :
#
#
# Convention : Reuss Voigt Hill
#
# Bulk Modulus (GPa) = 18.49454 80.16103 49.32779
# Shear Modulus (GPa) = 24.21897 38.55164 31.38531
#
# Velocity S-wave (km/s) = 3.48473 4.39655 3.96693
# Velocity P-wave (km/s) = 5.04621 8.12191 6.76127
#
# Compressibility (1/GPa) = 0.05407001
#
# Stress axis : x y z
#
# Youngs Moduli (GPa) = 159.84258 17.32626 120.29683
#
# Poissons Ratio (x) = 0.02235 0.46393
# Poissons Ratio (y) = 0.20618 0.47649
# Poissons Ratio (z) = 0.61644 0.06863
#
# Static dielectric constant tensor:
#      x y z
#    x 1.930590 0.000000 0.117010 
#    y 0.000000 1.691700 0.000000 
#    z 0.117010 0.000000 1.754730 
# 
# From -- ./inp_files/20395.got.cif
#   From: 2010.05.17/outbox.cif.g08.bks.cpg/sg11_11_cif.got.tgz:20395.got - 2010.06.03 12:22:45.
