data_PCOD9163288
_publ_section_title
;
Structure prediction by ZEFSAII (Michael W. Deem and Ramdas Pophale) SiO2 
 PCOD9163288
Probable space group: P 21/M
;
_chemical_formula_sum "Si O2"
_cell_formula_units_Z 24
_cell_length_a 12.795409
_cell_length_b 8.817178
_cell_length_c 12.000821
_cell_angle_alpha 90.000000
_cell_angle_beta 90.173566
_cell_angle_gamma 90.000000
_cell_volume 1353.919197
_symmetry_space_group_name_H-M "P 21/M"
_symmetry_group_IT_number 11
_symmetry_cell_setting 'monoclinic'
loop_
_space_group_symop_operation_xyz
x,y,z
-x,1/2+y,-z
-x,-y,-z
x,1/2-y,z
loop_
_atom_site_type_symbol
_atom_site_label
_atom_site_fract_x
_atom_site_fract_y
_atom_site_fract_z
Si Si1 0.619909 0.930703 0.371973
Si Si2 0.812613 0.431732 0.771658
Si Si3 0.622667 0.431522 0.611591
Si Si4 0.002692 0.430840 0.377010
Si Si5 0.883298 0.569134 0.000949
Si Si6 0.201532 0.929786 0.773586
O O1 0.632134 0.750000 0.363625
O O2 0.497025 0.968715 0.358171
O O3 0.649619 0.985398 0.496380
O O4 0.693054 0.011542 0.282928
O O5 0.820523 0.250000 0.782995
O O6 0.704704 0.468550 0.708240
O O7 0.906436 0.491844 0.694700
O O8 0.824525 0.508163 0.891598
O O9 0.627997 0.250000 0.591384
O O10 0.020078 0.250000 0.382408
O O11 0.893285 0.457197 0.313345
O O12 0.000000 0.500000 0.500000
O O13 0.890927 0.750000 0.997626
O O14 0.826328 0.514537 0.112578
O O15 0.000000 0.500000 0.000000
O O16 0.206661 0.750000 0.794501
#
# Coordination Sequence:
#
# PCOD9163288 Si02
#       6
#     4   4   4   4   4   4
#     4  10  20  36  60  88 118 153 195 240 288 343
#     4  11  22  38  60  84 115 152 193 238 288 344
#     4   9  20  38  59  86 119 155 193 237 290 345
#     4  11  23  36  54  82 117 150 187 236 290 347
#     4  12  24  40  61  85 114 152 195 237 288 345
#     4  11  23  39  58  83 116 153 194 238 287 342
#
# _framework density 17.726316000000001
#
# number of rings (size 3 to 8) (size 9 to 14) (size 15 to 20)
#    0.000    1.333    1.667    4.500    0.000    8.000 
#    0.000    0.833    0.000    0.000    0.000    0.000 
#    0.000    0.000    0.000    0.000    0.000    0.000 
#
# Total GULP energy -134182.656788 kJ/mol
# GULP energy per Si atom -5590.944033 kJ/mol
# Density = 1.768597 g / cm^3
# Si number density = 17.726316 Si / 1000 Ang^3
#
#
#
# Elastic Constant Matrix: (Units=GPa)
#
#
# Indices 1 2 3 4 5 6 
#
# 1 85.2535 50.3943 59.0287 0.0000 -11.5669 0.0000
# 2 50.3943 85.3060 66.4780 0.0000 -8.9928 0.0000
# 3 59.0287 66.4780 137.3938 0.0000 -17.6082 0.0000
# 4 0.0000 0.0000 0.0000 37.8958 0.0000 -2.7921
# 5 -11.5669 -8.9928 -17.6082 0.0000 20.5072 0.0000
# 6 0.0000 0.0000 0.0000 -2.7921 0.0000 27.4773
#
#
#
# Elastic Compliance Matrix: (Units=1/GPa)
#
#
# Indices 1 2 3 4 5 6 
#
# 1 0.019949 -0.008159 -0.004089 0.000000 0.004163 0.000000
# 2 -0.008159 0.022159 -0.007372 0.000000 -0.001215 0.000000
# 3 -0.004089 -0.007372 0.013363 0.000000 0.005934 0.000000
# 4 0.000000 0.000000 0.000000 0.026587 0.000000 0.002702
# 5 0.004163 -0.001215 0.005934 0.000000 0.055674 0.000000
# 6 0.000000 0.000000 0.000000 0.002702 0.000000 0.036668
#
#
# Mechanical properties :
#
#
# Convention : Reuss Voigt Hill
#
# Bulk Modulus (GPa) = 61.61452 73.30615 67.46034
# Shear Modulus (GPa) = 22.82564 25.97956 24.40260
#
# Velocity S-wave (km/s) = 3.59230 3.83246 3.71432
# Velocity P-wave (km/s) = 7.21391 7.81203 7.51892
#
# Compressibility (1/GPa) = 0.01622994
#
# Stress axis : x y z
#
# Youngs Moduli (GPa) = 50.12799 45.12752 74.83458
#
# Poissons Ratio (x) = 0.36820 0.30603
# Poissons Ratio (y) = 0.40900 0.55169
# Poissons Ratio (z) = 0.20499 0.33268
#
# Static dielectric constant tensor:
#      x y z
#    x 1.591120 0.000000 0.010870 
#    y 0.000000 1.592550 0.000000 
#    z 0.010870 0.000000 1.570620 
# 
# From -- ./inp_files/33781.got.cif
#   From: 2010.05.17/outbox.cif.g08.bks.cpg/sg11_17_cif.got.tgz:33781.got - 2010.06.03 12:22:45.
