data_PCOD9163201
_publ_section_title
;
Structure prediction by ZEFSAII (Michael W. Deem and Ramdas Pophale) SiO2 
 PCOD9163201
Probable space group: P 21/M
;
_chemical_formula_sum "Si O2"
_cell_formula_units_Z 32
_cell_length_a 23.054765
_cell_length_b 8.068606
_cell_length_c 15.712488
_cell_angle_alpha 90.000000
_cell_angle_beta 148.523887
_cell_angle_gamma 90.000000
_cell_volume 1526.137513
_symmetry_space_group_name_H-M "P 21/M"
_symmetry_group_IT_number 11
_symmetry_cell_setting 'monoclinic'
loop_
_space_group_symop_operation_xyz
x,y,z
-x,1/2+y,-z
-x,-y,-z
x,1/2-y,z
loop_
_atom_site_type_symbol
_atom_site_label
_atom_site_fract_x
_atom_site_fract_y
_atom_site_fract_z
Si Si1 0.124931 0.057513 0.137615
Si Si2 0.077033 0.944817 0.900600
Si Si3 0.831263 0.939146 0.344351
Si Si4 0.591338 0.063117 0.050862
Si Si5 0.193241 0.050006 0.874711
Si Si6 0.550550 0.945596 0.822308
Si Si7 0.159199 0.452534 0.454701
Si Si8 0.684847 0.951190 0.498363
O O1 0.125349 0.250000 0.158139
O O2 0.222895 0.986717 0.318768
O O3 0.141809 0.030288 0.058316
O O4 0.000000 0.000000 0.000000
O O5 0.077362 0.750000 0.918984
O O6 0.948741 0.999943 0.734833
O O7 0.127672 0.977445 0.871573
O O8 0.872942 0.750000 0.395090
O O9 0.860373 0.014930 0.472945
O O10 0.697330 0.944225 0.182035
O O11 0.850187 0.011426 0.272937
O O12 0.627783 0.250000 0.115972
O O13 0.500000 0.000000 0.000000
O O14 0.538816 0.053264 0.892393
O O15 0.182288 0.250000 0.859892
O O16 0.324674 0.013057 0.052508
O O17 0.552105 0.750000 0.844337
O O18 0.437191 0.982812 0.631242
O O19 0.162173 0.250000 0.464403
O O20 0.267979 0.501773 0.536707
O O21 0.680385 0.750000 0.493557
#
# Coordination Sequence:
#
# PCOD9163201 Si02
#       8
#     4   4   4   4   4   4   4   4
#     4  11  22  39  62  89 119 151 186 232 291 348
#     4  11  22  38  60  85 113 152 197 239 288 345
#     4   9  18  34  55  77 110 153 191 235 288 337
#     4  11  20  31  49  75 109 148 193 238 285 337
#     4   9  20  38  56  80 115 154 194 237 285 338
#     4  10  21  37  57  82 113 149 191 236 287 342
#     4   9  18  34  55  83 116 149 187 235 290 340
#     4  10  20  36  59  87 119 149 185 234 293 348
#
# _framework density 20.967966000000001
#
# number of rings (size 3 to 8) (size 9 to 14) (size 15 to 20)
#    0.000    2.000    1.250    3.750    0.000    5.000 
#    0.000    1.875    0.000    0.000    0.000    0.000 
#    0.000    0.000    0.000    0.000    0.000    0.000 
#
# Total GULP energy -178448.932525 kJ/mol
# GULP energy per Si atom -5576.529141 kJ/mol
# Density = 2.092024 g / cm^3
# Si number density = 20.967966 Si / 1000 Ang^3
#
#
#
# Elastic Constant Matrix: (Units=GPa)
#
#
# Indices 1 2 3 4 5 6 
#
# 1 49.6233 -3.0103 -0.1245 0.0000 -9.0061 0.0000
# 2 -3.0103 33.4358 2.5657 0.0000 5.0162 0.0000
# 3 -0.1245 2.5657 89.9798 0.0000 -8.7209 0.0000
# 4 0.0000 0.0000 0.0000 20.5253 0.0000 1.1849
# 5 -9.0061 5.0162 -8.7209 0.0000 26.9083 0.0000
# 6 0.0000 0.0000 0.0000 1.1849 0.0000 17.9949
#
#
#
# Elastic Compliance Matrix: (Units=1/GPa)
#
#
# Indices 1 2 3 4 5 6 
#
# 1 0.021524 0.000790 0.000714 0.000000 0.007288 0.000000
# 2 0.000790 0.030990 -0.001463 0.000000 -0.005987 0.000000
# 3 0.000714 -0.001463 0.011569 0.000000 0.004261 0.000000
# 4 0.000000 0.000000 0.000000 0.048906 0.000000 -0.003220
# 5 0.007288 -0.005987 0.004261 0.000000 0.042100 0.000000
# 6 0.000000 0.000000 0.000000 -0.003220 0.000000 0.055783
#
#
# Mechanical properties :
#
#
# Convention : Reuss Voigt Hill
#
# Bulk Modulus (GPa) = 15.58500 19.10007 17.34253
# Shear Modulus (GPa) = 21.53509 24.65958 23.09734
#
# Velocity S-wave (km/s) = 3.20823 3.43309 3.32257
# Velocity P-wave (km/s) = 4.60137 4.98435 4.79668
#
# Compressibility (1/GPa) = 0.06416427
#
# Stress axis : x y z
#
# Youngs Moduli (GPa) = 46.45918 32.26892 86.43573
#
# Poissons Ratio (x) = -0.02548 -0.06168
# Poissons Ratio (y) = -0.03669 0.12644
# Poissons Ratio (z) = -0.03316 0.04720
#
# Static dielectric constant tensor:
#      x y z
#    x 1.740100 0.000000 -0.041360 
#    y 0.000000 1.762310 0.000000 
#    z -0.041360 0.000000 1.838700 
# 
# From -- ./inp_files/55663.got.cif
#   From: 2010.05.17/outbox.cif.g08.bks.cpg/sg11_28_cif.got.tgz:55663.got - 2010.06.03 12:22:45.
