data_PCOD9163850
_publ_section_title
;
Structure prediction by ZEFSAII (Michael W. Deem and Ramdas Pophale) SiO2 
 PCOD9163850
Probable space group: P 21/M
;
_chemical_formula_sum "Si O2"
_cell_formula_units_Z 28
_cell_length_a 6.639814
_cell_length_b 20.588854
_cell_length_c 12.457946
_cell_angle_alpha 90.000000
_cell_angle_beta 118.546643
_cell_angle_gamma 90.000000
_cell_volume 1496.032022
_symmetry_space_group_name_H-M "P 21/M"
_symmetry_group_IT_number 11
_symmetry_cell_setting 'monoclinic'
loop_
_space_group_symop_operation_xyz
x,y,z
-x,1/2+y,-z
-x,-y,-z
x,1/2-y,z
loop_
_atom_site_type_symbol
_atom_site_label
_atom_site_fract_x
_atom_site_fract_y
_atom_site_fract_z
Si Si1 0.055989 0.324965 0.525390
Si Si2 0.372106 0.421578 0.505380
Si Si3 0.833677 0.424896 0.766260
Si Si4 0.217358 0.524225 0.809294
Si Si5 0.614513 0.083544 0.939917
Si Si6 0.778929 0.677102 0.193014
Si Si7 0.285090 0.556799 0.579963
O O1 0.985327 0.250000 0.486391
O O2 0.859908 0.379704 0.490696
O O3 0.220902 0.357532 0.479316
O O4 0.197968 0.324755 0.672164
O O5 0.599649 0.417134 0.638680
O O6 0.235975 0.484852 0.516716
O O7 0.465114 0.431549 0.409233
O O8 0.770261 0.426789 0.875262
O O9 0.976647 0.487409 0.762865
O O10 0.011117 0.366274 0.794569
O O11 0.414300 0.470335 0.877696
O O12 0.260468 0.551038 0.701321
O O13 0.252362 0.574311 0.915154
O O14 0.468549 0.149285 0.899889
O O15 0.807808 0.750000 0.162320
#
# Coordination Sequence:
#
# PCOD9163850 Si02
#       7
#     4   4   4   4   4   4   4
#     4  11  23  38  56  83 119 151 186 233 284 342
#     4  11  22  34  60  89 114 144 189 236 287 337
#     4  11  19  35  57  89 113 138 183 236 286 326
#     4  10  22  35  57  82 115 144 184 227 281 334
#     4  10  20  38  55  82 111 147 183 231 278 328
#     4  10  21  36  56  82 112 147 188 230 278 334
#     4  11  23  37  59  86 115 150 188 235 284 337
#
# _framework density 18.716177999999999
#
# number of rings (size 3 to 8) (size 9 to 14) (size 15 to 20)
#    0.000    1.429    4.286    1.714    4.000    1.714 
#    0.000    0.714    0.000    1.714    0.000    0.000 
#    0.000    0.000    0.000    0.000    0.000    0.000 
#
# Total GULP energy -156198.375328 kJ/mol
# GULP energy per Si atom -5578.513405 kJ/mol
# Density = 1.867358 g / cm^3
# Si number density = 18.716178 Si / 1000 Ang^3
#
#
#
# Elastic Constant Matrix: (Units=GPa)
#
#
# Indices 1 2 3 4 5 6 
#
# 1 110.4057 49.0154 44.5477 0.0000 -19.5743 0.0000
# 2 49.0154 125.4210 38.5747 0.0000 4.8727 0.0000
# 3 44.5477 38.5747 88.8123 0.0000 -15.6232 0.0000
# 4 0.0000 0.0000 0.0000 21.0778 0.0000 -0.0445
# 5 -19.5743 4.8727 -15.6232 0.0000 23.0651 0.0000
# 6 0.0000 0.0000 0.0000 -0.0445 0.0000 21.2345
#
#
#
# Elastic Compliance Matrix: (Units=1/GPa)
#
#
# Indices 1 2 3 4 5 6 
#
# 1 0.014644 -0.005228 -0.003059 0.000000 0.011460 0.000000
# 2 -0.005228 0.011672 -0.004157 0.000000 -0.009718 0.000000
# 3 -0.003059 -0.004157 0.016232 0.000000 0.009277 0.000000
# 4 0.000000 0.000000 0.000000 0.047443 0.000000 0.000100
# 5 0.011460 -0.009718 0.009277 0.000000 0.061418 0.000000
# 6 0.000000 0.000000 0.000000 0.000100 0.000000 0.047093
#
#
# Mechanical properties :
#
#
# Convention : Reuss Voigt Hill
#
# Bulk Modulus (GPa) = 56.62241 65.43498 61.02870
# Shear Modulus (GPa) = 21.80763 25.90889 23.85826
#
# Velocity S-wave (km/s) = 3.41717 3.72466 3.57422
# Velocity P-wave (km/s) = 6.77409 7.31677 7.05065
#
# Compressibility (1/GPa) = 0.01766085
#
# Stress axis : x y z
#
# Youngs Moduli (GPa) = 68.28517 85.67323 61.60835
#
# Poissons Ratio (x) = 0.44786 0.18846
# Poissons Ratio (y) = 0.35697 0.25611
# Poissons Ratio (z) = 0.20888 0.35616
#
# Static dielectric constant tensor:
#      x y z
#    x 1.672870 0.000000 0.006000 
#    y 0.000000 1.667390 0.000000 
#    z 0.006000 0.000000 1.665380 
# 
# From -- ./inp_files/30022.got.cif
#   From: 2010.05.17/outbox.cif.g08.bks.cpg/sg11_16_cif.got.tgz:30022.got - 2010.06.03 12:22:45.
