data_PCOD9163768
_publ_section_title
;
Structure prediction by ZEFSAII (Michael W. Deem and Ramdas Pophale) SiO2 
 PCOD9163768
Probable space group: P 21/M
;
_chemical_formula_sum "Si O2"
_cell_formula_units_Z 28
_cell_length_a 14.553594
_cell_length_b 8.464059
_cell_length_c 9.658915
_cell_angle_alpha 90.000000
_cell_angle_beta 82.010783
_cell_angle_gamma 90.000000
_cell_volume 1178.261090
_symmetry_space_group_name_H-M "P 21/M"
_symmetry_group_IT_number 11
_symmetry_cell_setting 'monoclinic'
loop_
_space_group_symop_operation_xyz
x,y,z
-x,1/2+y,-z
-x,-y,-z
x,1/2-y,z
loop_
_atom_site_type_symbol
_atom_site_label
_atom_site_fract_x
_atom_site_fract_y
_atom_site_fract_z
Si Si1 0.730037 0.935658 0.246931
Si Si2 0.774193 0.429169 0.819580
Si Si3 0.809128 0.071291 0.503788
Si Si4 0.415923 0.063871 0.107824
Si Si5 0.049371 0.434263 0.325038
Si Si6 0.478657 0.441649 0.658562
Si Si7 0.923268 0.938696 0.122095
O O1 0.723719 0.750000 0.216527
O O2 0.624577 0.995830 0.269661
O O3 0.816827 0.000516 0.138126
O O4 0.766308 0.959954 0.397239
O O5 0.801707 0.250000 0.849389
O O6 0.750653 0.428988 0.658735
O O7 0.681690 0.485710 0.911832
O O8 0.863285 0.542371 0.801637
O O9 0.811974 0.250000 0.448539
O O10 0.908120 0.022831 0.550228
O O11 0.406345 0.250000 0.094543
O O12 0.446743 0.017080 0.255117
O O13 0.500000 0.000000 0.000000
O O14 0.037462 0.250000 0.353419
O O15 0.963691 0.509762 0.262967
O O16 0.500000 0.500000 0.500000
O O17 0.482209 0.250000 0.663827
O O18 0.921110 0.750000 0.114884
O O19 0.000000 0.000000 0.000000
#
# Coordination Sequence:
#
# PCOD9163768 Si02
#       7
#     4   4   4   4   4   4   4
#     4  10  23  41  64  91 126 168 212 261 320 386
#     4   9  19  37  60  89 122 159 205 262 318 379
#     4   9  19  35  61  92 123 156 201 255 312 372
#     4  12  25  41  63  93 130 174 221 275 336 401
#     4  10  20  37  62  90 120 159 201 249 313 376
#     4  11  24  44  69  99 135 175 222 278 341 406
#     4  11  24  43  62  87 123 167 217 268 320 381
#
# _framework density 23.763833999999999
#
# number of rings (size 3 to 8) (size 9 to 14) (size 15 to 20)
#    0.857    0.857    0.000    4.714    0.000    6.286 
#    0.000    4.286    0.000    0.000    0.000    0.000 
#    0.000    0.000    0.000    0.000    0.000    0.000 
#
# Total GULP energy -156490.106618 kJ/mol
# GULP energy per Si atom -5588.932379 kJ/mol
# Density = 2.370975 g / cm^3
# Si number density = 23.763834 Si / 1000 Ang^3
#
#
#
# Elastic Constant Matrix: (Units=GPa)
#
#
# Indices 1 2 3 4 5 6 
#
# 1 126.2255 9.3752 17.0868 0.0000 -21.8733 0.0000
# 2 9.3752 84.2153 9.6101 0.0000 -10.4455 0.0000
# 3 17.0868 9.6101 80.4636 0.0000 -14.4649 0.0000
# 4 0.0000 0.0000 0.0000 32.1285 0.0000 -1.4300
# 5 -21.8733 -10.4455 -14.4649 0.0000 47.6021 0.0000
# 6 0.0000 0.0000 0.0000 -1.4300 0.0000 29.8203
#
#
#
# Elastic Compliance Matrix: (Units=1/GPa)
#
#
# Indices 1 2 3 4 5 6 
#
# 1 0.008728 -0.000396 -0.001164 0.000000 0.003570 0.000000
# 2 -0.000396 0.012306 -0.000987 0.000000 0.002219 0.000000
# 3 -0.001164 -0.000987 0.013389 0.000000 0.003317 0.000000
# 4 0.000000 0.000000 0.000000 0.031192 0.000000 0.001496
# 5 0.003570 0.002219 0.003317 0.000000 0.024143 0.000000
# 6 0.000000 0.000000 0.000000 0.001496 0.000000 0.033606
#
#
# Mechanical properties :
#
#
# Convention : Reuss Voigt Hill
#
# Bulk Modulus (GPa) = 34.09580 40.33874 37.21727
# Shear Modulus (GPa) = 36.17042 38.89901 37.53471
#
# Velocity S-wave (km/s) = 3.90561 4.05025 3.97859
# Velocity P-wave (km/s) = 5.89214 6.23574 6.06637
#
# Compressibility (1/GPa) = 0.02932913
#
# Stress axis : x y z
#
# Youngs Moduli (GPa) = 114.57429 81.25979 74.68587
#
# Poissons Ratio (x) = 0.03218 0.08696
# Poissons Ratio (y) = 0.04537 0.07370
# Poissons Ratio (z) = 0.13341 0.08019
#
# Static dielectric constant tensor:
#      x y z
#    x 1.910560 0.000000 -0.050050 
#    y 0.000000 1.805850 0.000000 
#    z -0.050050 0.000000 2.070850 
# 
# From -- ./inp_files/37916.got.cif
#   From: 2010.05.17/outbox.cif.g08.bks.cpg/sg11_19_cif.got.tgz:37916.got - 2010.06.03 12:22:45.
