data_PCOD9163090
_publ_section_title
;
Structure prediction by ZEFSAII (Michael W. Deem and Ramdas Pophale) SiO2 
 PCOD9163090
Probable space group: P 21/M
;
_chemical_formula_sum "Si O2"
_cell_formula_units_Z 28
_cell_length_a 21.167326
_cell_length_b 9.211954
_cell_length_c 15.551268
_cell_angle_alpha 90.000000
_cell_angle_beta 27.106569
_cell_angle_gamma 90.000000
_cell_volume 1381.694565
_symmetry_space_group_name_H-M "P 21/M"
_symmetry_group_IT_number 11
_symmetry_cell_setting 'monoclinic'
loop_
_space_group_symop_operation_xyz
x,y,z
-x,1/2+y,-z
-x,-y,-z
x,1/2-y,z
loop_
_atom_site_type_symbol
_atom_site_label
_atom_site_fract_x
_atom_site_fract_y
_atom_site_fract_z
Si Si1 0.913227 0.424763 0.181156
Si Si2 0.393499 0.924917 0.195361
Si Si3 0.395421 0.573890 0.391450
Si Si4 0.857208 0.086898 0.770022
Si Si5 0.814731 0.586220 0.659894
Si Si6 0.881079 0.918951 0.916823
Si Si7 0.573747 0.579960 0.333713
O O1 0.916960 0.250000 0.163604
O O2 0.753057 0.470028 0.387651
O O3 0.991735 0.455890 0.175737
O O4 0.000000 0.500000 0.000000
O O5 0.400729 0.750000 0.181240
O O6 0.412829 0.971735 0.271217
O O7 0.245629 0.982963 0.340542
O O8 0.500000 0.000000 0.000000
O O9 0.394020 0.750000 0.389589
O O10 0.516417 0.528385 0.310405
O O11 0.800430 0.250000 0.836946
O O12 0.019637 0.094712 0.547671
O O13 0.782431 0.984784 0.791296
O O14 0.861192 0.017875 0.858579
O O15 0.758580 0.750000 0.721285
O O16 0.894454 0.750000 0.873620
O O17 0.738284 0.933939 0.141919
O O18 0.500000 0.500000 0.500000
O O19 0.539358 0.750000 0.380376
#
# Coordination Sequence:
#
# PCOD9163090 Si02
#       7
#     4   4   4   4   4   4   4
#     4  10  20  36  58  85 113 149 193 241 297 358
#     4  11  23  39  60  86 118 160 208 252 295 358
#     4   9  20  38  59  81 116 159 194 232 298 363
#     4  10  21  36  58  87 114 147 193 242 293 351
#     4  10  21  38  58  82 117 154 190 240 297 349
#     4  10  21  35  56  83 113 147 190 238 295 355
#     4  10  21  38  58  83 113 152 192 236 294 356
#
# _framework density 20.264970000000002
#
# number of rings (size 3 to 8) (size 9 to 14) (size 15 to 20)
#    0.000    2.000    0.000    3.000    2.000    4.000 
#    0.000    2.857    0.000    0.000    0.000    0.000 
#    0.000    0.000    0.000    0.000    0.000    0.000 
#
# Total GULP energy -156346.062095 kJ/mol
# GULP energy per Si atom -5583.787932 kJ/mol
# Density = 2.021885 g / cm^3
# Si number density = 20.264970 Si / 1000 Ang^3
#
#
#
# Elastic Constant Matrix: (Units=GPa)
#
#
# Indices 1 2 3 4 5 6 
#
# 1 46.6381 2.4720 -2.7105 0.0000 -0.2426 0.0000
# 2 2.4720 47.3638 12.3684 0.0000 9.9552 0.0000
# 3 -2.7105 12.3684 36.4482 0.0000 5.7844 0.0000
# 4 0.0000 0.0000 0.0000 29.6670 0.0000 7.0513
# 5 -0.2426 9.9552 5.7844 0.0000 37.8874 0.0000
# 6 0.0000 0.0000 0.0000 7.0513 0.0000 28.4110
#
#
#
# Elastic Compliance Matrix: (Units=1/GPa)
#
#
# Indices 1 2 3 4 5 6 
#
# 1 0.021662 -0.001752 0.002163 0.000000 0.000269 0.000000
# 2 -0.001752 0.024274 -0.007536 0.000000 -0.005239 0.000000
# 3 0.002163 -0.007536 0.030579 0.000000 -0.002675 0.000000
# 4 0.000000 0.000000 0.000000 0.035821 0.000000 -0.008890
# 5 0.000269 -0.005239 -0.002675 0.000000 0.028181 0.000000
# 6 0.000000 0.000000 0.000000 -0.008890 0.000000 0.037404
#
#
# Mechanical properties :
#
#
# Convention : Reuss Voigt Hill
#
# Bulk Modulus (GPa) = 16.06066 17.18998 16.62532
# Shear Modulus (GPa) = 23.48256 27.08110 25.28183
#
# Velocity S-wave (km/s) = 3.40777 3.65958 3.53592
# Velocity P-wave (km/s) = 4.84008 5.13398 4.98919
#
# Compressibility (1/GPa) = 0.06226394
#
# Stress axis : x y z
#
# Youngs Moduli (GPa) = 46.16455 41.19697 32.70244
#
# Poissons Ratio (x) = 0.07217 -0.07073
# Poissons Ratio (y) = 0.08087 0.24644
# Poissons Ratio (z) = -0.09984 0.31046
#
# Static dielectric constant tensor:
#      x y z
#    x 1.702380 0.000000 -0.029800 
#    y 0.000000 1.704260 0.000000 
#    z -0.029800 0.000000 1.744540 
# 
# From -- ./inp_files/51967.got.cif
#   From: 2010.05.17/outbox.cif.g08.bks.cpg/sg11_26_cif.got.tgz:51967.got - 2010.06.03 12:22:45.
