data_PCOD9163307
_publ_section_title
;
Structure prediction by ZEFSAII (Michael W. Deem and Ramdas Pophale) SiO2 
 PCOD9163307
Probable space group: P 21/M
;
_chemical_formula_sum "Si O2"
_cell_formula_units_Z 32
_cell_length_a 26.277303
_cell_length_b 8.115837
_cell_length_c 25.703381
_cell_angle_alpha 90.000000
_cell_angle_beta 15.689702
_cell_angle_gamma 90.000000
_cell_volume 1482.364728
_symmetry_space_group_name_H-M "P 21/M"
_symmetry_group_IT_number 11
_symmetry_cell_setting 'monoclinic'
loop_
_space_group_symop_operation_xyz
x,y,z
-x,1/2+y,-z
-x,-y,-z
x,1/2-y,z
loop_
_atom_site_type_symbol
_atom_site_label
_atom_site_fract_x
_atom_site_fract_y
_atom_site_fract_z
Si Si1 0.786953 0.052683 0.215593
Si Si2 0.487634 0.447219 0.426596
Si Si3 0.299661 0.945224 0.105818
Si Si4 0.593871 0.949107 0.608268
Si Si5 0.350069 0.944737 0.944193
Si Si6 0.848383 0.559778 0.528681
Si Si7 0.065891 0.940383 0.664191
Si Si8 0.782486 0.448011 0.704097
O O1 0.773234 0.250000 0.230367
O O2 0.661973 0.990551 0.289760
O O3 0.694209 0.985262 0.359526
O O4 0.000000 0.000000 0.000000
O O5 0.507543 0.250000 0.403159
O O6 0.467296 0.511786 0.388106
O O7 0.344720 0.750000 0.063489
O O8 0.327899 0.014518 0.136226
O O9 0.072256 0.956307 0.320960
O O10 0.382750 0.015331 0.970265
O O11 0.580179 0.750000 0.621048
O O12 0.464680 0.013180 0.782712
O O13 0.804740 0.995993 0.416713
O O14 0.392718 0.750000 0.905752
O O15 0.129195 0.963217 0.149310
O O16 0.808761 0.750000 0.556831
O O17 0.823474 0.464133 0.499462
O O18 0.739592 0.509719 0.688222
O O19 0.021036 0.750000 0.715045
O O20 0.773569 0.250000 0.712973
O O21 0.000000 0.500000 0.500000
#
# Coordination Sequence:
#
# PCOD9163307 Si02
#       8
#     4   4   4   4   4   4   4   4
#     4  10  20  36  60  89 121 156 190 229 277 324
#     4   9  20  38  58  84 116 151 194 234 270 321
#     4   7  12  23  41  66  95 126 165 216 271 328
#     4  10  21  38  60  82 109 149 192 233 273 321
#     4   9  18  35  57  79 105 143 189 230 275 335
#     4   9  16  28  45  66  95 132 177 226 275 334
#     4  11  22  35  53  79 111 144 181 230 286 342
#     4   9  14  21  37  64  96 129 167 217 278 340
#
# _framework density 21.587129000000001
#
# number of rings (size 3 to 8) (size 9 to 14) (size 15 to 20)
#    0.000    2.750    0.000    3.750    0.000    2.500 
#    0.000    3.125    0.000    0.750    0.000    0.000 
#    0.000    0.000    0.000    0.000    0.000    0.000 
#
# Total GULP energy -178625.139028 kJ/mol
# GULP energy per Si atom -5582.035595 kJ/mol
# Density = 2.153800 g / cm^3
# Si number density = 21.587129 Si / 1000 Ang^3
#
#
#
# Elastic Constant Matrix: (Units=GPa)
#
#
# Indices 1 2 3 4 5 6 
#
# 1 163.8804 7.6216 59.0963 0.0000 14.2048 0.0000
# 2 7.6216 19.4589 -15.0988 0.0000 5.7667 0.0000
# 3 59.0963 -15.0988 85.1365 0.0000 1.5231 0.0000
# 4 0.0000 0.0000 0.0000 11.6605 0.0000 8.4678
# 5 14.2048 5.7667 1.5231 0.0000 13.8856 0.0000
# 6 0.0000 0.0000 0.0000 8.4678 0.0000 18.0355
#
#
#
# Elastic Compliance Matrix: (Units=1/GPa)
#
#
# Indices 1 2 3 4 5 6 
#
# 1 0.010044 -0.008783 -0.008427 0.000000 -0.005703 0.000000
# 2 -0.008783 0.078345 0.020452 0.000000 -0.025795 0.000000
# 3 -0.008427 0.020452 0.021262 0.000000 -0.002205 0.000000
# 4 0.000000 0.000000 0.000000 0.130127 0.000000 -0.061095
# 5 -0.005703 -0.025795 -0.002205 0.000000 0.088805 0.000000
# 6 0.000000 0.000000 0.000000 -0.061095 0.000000 0.084131
#
#
# Mechanical properties :
#
#
# Convention : Reuss Voigt Hill
#
# Bulk Modulus (GPa) = 8.61067 41.30156 24.95612
# Shear Modulus (GPa) = 11.23744 23.17343 17.20544
#
# Velocity S-wave (km/s) = 2.28406 3.27996 2.82622
# Velocity P-wave (km/s) = 3.30959 5.78949 4.71548
#
# Compressibility (1/GPa) = 0.11613492
#
# Stress axis : x y z
#
# Youngs Moduli (GPa) = 99.56462 12.76409 47.03177
#
# Poissons Ratio (x) = 0.11211 0.39635
# Poissons Ratio (y) = 0.87448 -0.96191
# Poissons Ratio (z) = 0.83907 -0.26106
#
# Static dielectric constant tensor:
#      x y z
#    x 1.793610 0.000000 0.048190 
#    y 0.000000 1.767140 0.000000 
#    z 0.048190 0.000000 1.678490 
# 
# From -- ./inp_files/69988.got.cif
#   From: 2010.05.17/outbox.cif.g08.bks.cpg/sg11_35_cif.got.tgz:69988.got - 2010.06.03 12:22:45.
