data_PCOD9163359
_publ_section_title
;
Structure prediction by ZEFSAII (Michael W. Deem and Ramdas Pophale) SiO2 
 PCOD9163359
Probable space group: P 21/M
;
_chemical_formula_sum "Si O2"
_cell_formula_units_Z 20
_cell_length_a 17.268400
_cell_length_b 8.930768
_cell_length_c 17.266798
_cell_angle_alpha 90.000000
_cell_angle_beta 24.828820
_cell_angle_gamma 90.000000
_cell_volume 1118.169216
_symmetry_space_group_name_H-M "P 21/M"
_symmetry_group_IT_number 11
_symmetry_cell_setting 'monoclinic'
loop_
_space_group_symop_operation_xyz
x,y,z
-x,1/2+y,-z
-x,-y,-z
x,1/2-y,z
loop_
_atom_site_type_symbol
_atom_site_label
_atom_site_fract_x
_atom_site_fract_y
_atom_site_fract_z
Si Si1 0.830501 0.073806 0.365881
Si Si2 0.109367 0.426435 0.972163
Si Si3 0.071079 0.929665 0.547550
Si Si4 0.487221 0.927368 0.596795
Si Si5 0.302525 0.070407 0.201067
O O1 0.776118 0.250000 0.414763
O O2 0.893699 0.034553 0.394876
O O3 0.661911 0.976226 0.488346
O O4 0.992962 0.057076 0.156016
O O5 0.134546 0.250000 0.933613
O O6 0.303869 0.507471 0.801614
O O7 0.000000 0.500000 0.000000
O O8 0.090721 0.750000 0.519584
O O9 0.862988 0.968360 0.709124
O O10 0.219048 0.009843 0.357740
O O11 0.476101 0.750000 0.598559
O O12 0.500000 0.000000 0.500000
O O13 0.320490 0.250000 0.187024
O O14 0.500000 0.000000 0.000000
#
# Coordination Sequence:
#
# PCOD9163359 Si02
#       5
#     4   4   4   4   4
#     4  10  22  40  61  84 114 153 198 245 293 348
#     4  11  22  37  59  84 113 152 197 244 294 348
#     4   9  20  39  60  85 117 154 195 239 288 346
#     4  12  24  38  58  83 114 152 196 246 298 352
#     4  10  20  36  61  90 120 155 191 234 289 350
#
# _framework density 17.886381
#
# number of rings (size 3 to 8) (size 9 to 14) (size 15 to 20)
#    0.000    1.600    2.000    3.000    0.000    4.000 
#    0.000    4.000    0.000    0.000    0.000    0.000 
#    0.000    0.000    0.000    0.000    0.000    0.000 
#
# Total GULP energy -111725.689039 kJ/mol
# GULP energy per Si atom -5586.284452 kJ/mol
# Density = 1.784567 g / cm^3
# Si number density = 17.886381 Si / 1000 Ang^3
#
#
#
# Elastic Constant Matrix: (Units=GPa)
#
#
# Indices 1 2 3 4 5 6 
#
# 1 136.8596 76.2185 65.0368 0.0000 9.6363 0.0000
# 2 76.2185 119.2838 90.5507 0.0000 -1.7791 0.0000
# 3 65.0368 90.5507 140.4059 0.0000 -10.7433 0.0000
# 4 0.0000 0.0000 0.0000 37.1803 0.0000 -2.9564
# 5 9.6363 -1.7791 -10.7433 0.0000 19.5827 0.0000
# 6 0.0000 0.0000 0.0000 -2.9564 0.0000 28.1384
#
#
#
# Elastic Compliance Matrix: (Units=1/GPa)
#
#
# Indices 1 2 3 4 5 6 
#
# 1 0.012508 -0.006365 -0.002301 0.000000 -0.007995 0.000000
# 2 -0.006365 0.020053 -0.010026 0.000000 -0.000547 0.000000
# 3 -0.002301 -0.010026 0.015314 0.000000 0.008622 0.000000
# 4 0.000000 0.000000 0.000000 0.027123 0.000000 0.002850
# 5 -0.007995 -0.000547 0.008622 0.000000 0.059681 0.000000
# 6 0.000000 0.000000 0.000000 0.002850 0.000000 0.035838
#
#
# Mechanical properties :
#
#
# Convention : Reuss Voigt Hill
#
# Bulk Modulus (GPa) = 95.31786 95.57345 95.44566
# Shear Modulus (GPa) = 23.65223 27.96316 25.80769
#
# Velocity S-wave (km/s) = 3.64037 3.95825 3.80263
# Velocity P-wave (km/s) = 8.43067 8.62786 8.52983
#
# Compressibility (1/GPa) = 0.01049121
#
# Stress axis : x y z
#
# Youngs Moduli (GPa) = 79.95183 49.86689 65.30029
#
# Poissons Ratio (x) = 0.31739 0.15023
# Poissons Ratio (y) = 0.50888 0.65473
# Poissons Ratio (z) = 0.18393 0.49999
#
# Static dielectric constant tensor:
#      x y z
#    x 1.661860 0.000000 -0.466550 
#    y 0.000000 1.608880 0.000000 
#    z -0.466550 0.000000 4.751030 
# 
# From -- ./inp_files/56646.got.cif
#   From: 2010.05.17/outbox.cif.g08.bks.cpg/sg11_29_cif.got.tgz:56646.got - 2010.06.03 12:22:45.
