data_PCOD9163334
_publ_section_title
;
Structure prediction by ZEFSAII (Michael W. Deem and Ramdas Pophale) SiO2 
 PCOD9163334
Probable space group: P 21/M
;
_chemical_formula_sum "Si O2"
_cell_formula_units_Z 20
_cell_length_a 9.803925
_cell_length_b 13.551881
_cell_length_c 14.380246
_cell_angle_alpha 90.000000
_cell_angle_beta 151.092296
_cell_angle_gamma 90.000000
_cell_volume 923.575930
_symmetry_space_group_name_H-M "P 21/M"
_symmetry_group_IT_number 11
_symmetry_cell_setting 'monoclinic'
loop_
_space_group_symop_operation_xyz
x,y,z
-x,1/2+y,-z
-x,-y,-z
x,1/2-y,z
loop_
_atom_site_type_symbol
_atom_site_label
_atom_site_fract_x
_atom_site_fract_y
_atom_site_fract_z
Si Si1 0.770222 0.135626 0.553530
Si Si2 0.331657 0.462303 0.809242
Si Si3 0.490981 0.362169 0.195316
Si Si4 0.217325 0.866195 0.052283
Si Si5 0.133216 0.549627 0.199435
O O1 0.820287 0.250000 0.605673
O O2 0.540856 0.131453 0.335149
O O3 0.711595 0.079543 0.614073
O O4 0.049426 0.088257 0.675432
O O5 0.300195 0.560909 0.728968
O O6 0.522335 0.388892 0.861025
O O7 0.500000 0.500000 0.000000
O O8 0.541338 0.250000 0.195646
O O9 0.172632 0.394333 0.981809
O O10 0.155410 0.750000 0.020227
O O11 0.276813 0.910591 0.190893
O O12 0.963562 0.935856 0.864065
#
# Coordination Sequence:
#
# PCOD9163334 Si02
#       5
#     4   4   4   4   4
#     4  11  21  37  61  84 113 153 194 235 289 346
#     4  11  21  37  57  84 117 153 192 238 288 339
#     4  10  21  36  60  86 113 151 195 238 284 344
#     4  10  20  36  61  86 115 153 192 237 292 340
#     4  10  21  39  60  85 115 151 190 239 285 345
#
# _framework density 21.654961
#
# number of rings (size 3 to 8) (size 9 to 14) (size 15 to 20)
#    0.000    1.600    4.000    3.000    0.000    0.800 
#    0.000    9.000    0.000    9.600    0.000    0.000 
#    0.000    0.000    0.000    0.000    0.000    0.000 
#
# Total GULP energy -111845.963672 kJ/mol
# GULP energy per Si atom -5592.298184 kJ/mol
# Density = 2.160567 g / cm^3
# Si number density = 21.654961 Si / 1000 Ang^3
#
#
#
# Elastic Constant Matrix: (Units=GPa)
#
#
# Indices 1 2 3 4 5 6 
#
# 1 105.6890 44.2923 19.7820 0.0000 -16.4412 0.0000
# 2 44.2923 201.4616 31.6887 0.0000 -6.2110 0.0000
# 3 19.7820 31.6887 48.5266 0.0000 -13.9501 0.0000
# 4 0.0000 0.0000 0.0000 22.4011 0.0000 -10.6198
# 5 -16.4412 -6.2110 -13.9501 0.0000 36.3921 0.0000
# 6 0.0000 0.0000 0.0000 -10.6198 0.0000 24.3532
#
#
#
# Elastic Compliance Matrix: (Units=1/GPa)
#
#
# Indices 1 2 3 4 5 6 
#
# 1 0.011330 -0.002030 -0.002159 0.000000 0.003945 0.000000
# 2 -0.002030 0.005904 -0.003373 0.000000 -0.001203 0.000000
# 3 -0.002159 -0.003373 0.026123 0.000000 0.008462 0.000000
# 4 0.000000 0.000000 0.000000 0.056274 0.000000 0.024540
# 5 0.003945 -0.001203 0.008462 0.000000 0.032299 0.000000
# 6 0.000000 0.000000 0.000000 0.024540 0.000000 0.051763
#
#
# Mechanical properties :
#
#
# Convention : Reuss Voigt Hill
#
# Bulk Modulus (GPa) = 35.42098 60.80035 48.11067
# Shear Modulus (GPa) = 24.01201 33.95690 28.98445
#
# Velocity S-wave (km/s) = 3.33355 3.96421 3.66248
# Velocity P-wave (km/s) = 5.58652 7.00650 6.33641
#
# Compressibility (1/GPa) = 0.02823185
#
# Stress axis : x y z
#
# Youngs Moduli (GPa) = 88.26018 169.39096 38.28033
#
# Poissons Ratio (x) = 0.34382 0.08266
# Poissons Ratio (y) = 0.17914 0.12913
# Poissons Ratio (z) = 0.19058 0.57142
#
# Static dielectric constant tensor:
#      x y z
#    x 1.801680 0.000000 0.002350 
#    y 0.000000 1.781930 0.000000 
#    z 0.002350 0.000000 1.803340 
# 
# From -- ./inp_files/50098.got.cif
#   From: 2010.05.17/outbox.cif.g08.bks.cpg/sg11_26_cif.got.tgz:50098.got - 2010.06.03 12:22:45.
