data_PCOD9163754
_publ_section_title
;
Structure prediction by ZEFSAII (Michael W. Deem and Ramdas Pophale) SiO2 
 PCOD9163754
Probable space group: P 21/M
;
_chemical_formula_sum "Si O2"
_cell_formula_units_Z 24
_cell_length_a 11.590969
_cell_length_b 8.844240
_cell_length_c 12.262911
_cell_angle_alpha 90.000000
_cell_angle_beta 104.687435
_cell_angle_gamma 90.000000
_cell_volume 1216.033457
_symmetry_space_group_name_H-M "P 21/M"
_symmetry_group_IT_number 11
_symmetry_cell_setting 'monoclinic'
loop_
_space_group_symop_operation_xyz
x,y,z
-x,1/2+y,-z
-x,-y,-z
x,1/2-y,z
loop_
_atom_site_type_symbol
_atom_site_label
_atom_site_fract_x
_atom_site_fract_y
_atom_site_fract_z
Si Si1 0.010509 0.575068 0.339095
Si Si2 0.754857 0.069088 0.319568
Si Si3 0.740087 0.569272 0.539256
Si Si4 0.085749 0.924054 0.107736
Si Si5 0.330673 0.432013 0.238803
Si Si6 0.462335 0.567681 0.875641
O O1 0.979528 0.250000 0.622156
O O2 0.883860 0.506313 0.339722
O O3 0.121820 0.479923 0.410970
O O4 0.024324 0.571537 0.211707
O O5 0.766023 0.250000 0.324228
O O6 0.668792 0.025274 0.198908
O O7 0.698345 0.012855 0.419795
O O8 0.731891 0.750000 0.525649
O O9 0.674176 0.520473 0.635256
O O10 0.107107 0.750000 0.083084
O O11 0.211619 0.007129 0.152537
O O12 0.000000 0.000000 0.000000
O O13 0.326428 0.250000 0.238290
O O14 0.444159 0.479923 0.195752
O O15 0.466350 0.750000 0.884191
O O16 0.500000 0.500000 0.000000
#
# Coordination Sequence:
#
# PCOD9163754 Si02
#       6
#     4   4   4   4   4   4
#     4  10  21  37  57  85 119 154 192 237 288 346
#     4  11  23  38  58  86 120 156 193 238 290 346
#     4  10  20  37  62  89 117 151 191 239 294 349
#     4  10  21  35  56  85 115 151 193 238 290 345
#     4   9  20  40  61  83 115 151 192 243 291 339
#     4  10  24  43  61  84 116 155 197 243 290 341
#
# _framework density 19.736298000000001
#
# number of rings (size 3 to 8) (size 9 to 14) (size 15 to 20)
#    0.000    2.000    0.000    2.500    2.333    5.333 
#    0.000    0.000    0.000    0.000    0.000    0.000 
#    0.000    0.000    0.000    0.000    0.000    0.000 
#
# Total GULP energy -134088.935848 kJ/mol
# GULP energy per Si atom -5587.038994 kJ/mol
# Density = 1.969138 g / cm^3
# Si number density = 19.736298 Si / 1000 Ang^3
#
#
#
# Elastic Constant Matrix: (Units=GPa)
#
#
# Indices 1 2 3 4 5 6 
#
# 1 65.0486 5.0446 14.9925 0.0000 -22.7589 0.0000
# 2 5.0446 27.6347 9.1256 0.0000 -8.6844 0.0000
# 3 14.9925 9.1256 89.4851 0.0000 4.1517 0.0000
# 4 0.0000 0.0000 0.0000 35.5079 0.0000 -3.6922
# 5 -22.7589 -8.6844 4.1517 0.0000 8.2007 0.0000
# 6 0.0000 0.0000 0.0000 -3.6922 0.0000 21.7509
#
#
#
# Elastic Compliance Matrix: (Units=1/GPa)
#
#
# Indices 1 2 3 4 5 6 
#
# 1 -0.025660 -0.036357 0.013412 0.000000 -0.116503 0.000000
# 2 -0.036357 0.009666 0.009536 0.000000 -0.095489 0.000000
# 3 0.013412 0.009536 0.005899 0.000000 0.044333 0.000000
# 4 0.000000 0.000000 0.000000 0.028669 0.000000 0.004867
# 5 -0.116503 -0.095489 0.044333 0.000000 -0.324946 0.000000
# 6 0.000000 0.000000 0.000000 0.004867 0.000000 0.046801
#
#
# Mechanical properties :
#
#
# Convention : Reuss Voigt Hill
#
# Bulk Modulus (GPa) = -27.09096 26.72153 -0.18471
# Shear Modulus (GPa) = -20.40332 23.29230 1.44449
#
# Velocity S-wave (km/s) = -3.21876 3.43910 0.85644
# Velocity P-wave (km/s) = 5.25073 5.41650 0.94031
#
# Compressibility (1/GPa) = -0.03691269
#
# Stress axis : x y z
#
# Youngs Moduli (GPa) = -38.97091 103.45193 169.53003
#
# Poissons Ratio (x) = 3.76115 -2.27374
# Poissons Ratio (y) = -1.41685 -1.61660
# Poissons Ratio (z) = 0.52268 -0.98649
#
# Static dielectric constant tensor:
#      x y z
#    x 1.687930 0.000000 -0.024580 
#    y 0.000000 1.666080 0.000000 
#    z -0.024580 0.000000 1.691800 
# 
# From -- ./inp_files/33888.got.cif
#   From: 2010.05.17/outbox.cif.g08.bks.cpg/sg11_17_cif.got.tgz:33888.got - 2010.06.03 12:22:45.
