data_PCOD9163687
_publ_section_title
;
Structure prediction by ZEFSAII (Michael W. Deem and Ramdas Pophale) SiO2 
 PCOD9163687
Probable space group: P 21/M
;
_chemical_formula_sum "Si O2"
_cell_formula_units_Z 28
_cell_length_a 7.967467
_cell_length_b 15.290124
_cell_length_c 12.051790
_cell_angle_alpha 90.000000
_cell_angle_beta 67.572777
_cell_angle_gamma 90.000000
_cell_volume 1357.145056
_symmetry_space_group_name_H-M "P 21/M"
_symmetry_group_IT_number 11
_symmetry_cell_setting 'monoclinic'
loop_
_space_group_symop_operation_xyz
x,y,z
-x,1/2+y,-z
-x,-y,-z
x,1/2-y,z
loop_
_atom_site_type_symbol
_atom_site_label
_atom_site_fract_x
_atom_site_fract_y
_atom_site_fract_z
Si Si1 0.745460 0.647230 0.172504
Si Si2 0.435572 0.515906 0.892728
Si Si3 0.115081 0.650728 0.940915
Si Si4 0.420720 0.450665 0.363983
Si Si5 0.219334 0.650054 0.672852
Si Si6 0.132706 0.916281 0.462178
Si Si7 0.835758 0.648685 0.399403
O O1 0.686937 0.750000 0.187438
O O2 0.613051 0.577186 0.150526
O O3 0.790680 0.617575 0.286923
O O4 0.929963 0.642402 0.054456
O O5 0.259292 0.577992 0.939386
O O6 0.574549 0.561538 0.770411
O O7 0.500000 0.500000 0.000000
O O8 0.185326 0.750000 0.942311
O O9 0.093582 0.641563 0.813129
O O10 0.621036 0.421460 0.351968
O O11 0.337220 0.547678 0.400671
O O12 0.289829 0.393472 0.474437
O O13 0.293173 0.750000 0.654933
O O14 0.121874 0.633959 0.580971
O O15 0.045857 0.864896 0.381582
O O16 0.000000 0.000000 0.500000
O O17 0.795827 0.750000 0.409264
#
# Coordination Sequence:
#
# PCOD9163687 Si02
#       7
#     4   4   4   4   4   4   4
#     4  10  23  42  63  90 126 166 208 253 309 377
#     4  11  25  40  64  94 124 164 209 256 319 371
#     4   9  21  41  65  88 120 163 211 259 303 364
#     4  10  23  39  59  88 126 156 201 254 308 362
#     4  10  20  37  61  87 115 157 203 251 306 362
#     4  10  22  34  57  87 122 152 195 247 301 363
#     4  10  22  40  62  90 122 164 206 250 308 368
#
# _framework density 20.631546
#
# number of rings (size 3 to 8) (size 9 to 14) (size 15 to 20)
#    0.000    2.000    0.000    1.714   12.000    3.429 
#    0.000    2.143    0.000    0.000    0.000    0.000 
#    0.000    0.000    0.000    0.000    0.000    0.000 
#
# Total GULP energy -156118.105835 kJ/mol
# GULP energy per Si atom -5575.646637 kJ/mol
# Density = 2.058459 g / cm^3
# Si number density = 20.631546 Si / 1000 Ang^3
#
#
#
# Elastic Constant Matrix: (Units=GPa)
#
#
# Indices 1 2 3 4 5 6 
#
# 1 67.0136 42.7311 65.4024 0.0000 33.4619 0.0000
# 2 42.7311 88.7340 54.5661 0.0000 8.8404 0.0000
# 3 65.4024 54.5661 126.2524 0.0000 25.5209 0.0000
# 4 0.0000 0.0000 0.0000 32.8505 0.0000 3.7694
# 5 33.4619 8.8404 25.5209 0.0000 41.9934 0.0000
# 6 0.0000 0.0000 0.0000 3.7694 0.0000 17.4624
#
#
#
# Elastic Compliance Matrix: (Units=1/GPa)
#
#
# Indices 1 2 3 4 5 6 
#
# 1 0.054840 -0.013214 -0.016447 0.000000 -0.030921 0.000000
# 2 -0.013214 0.018564 -0.002869 0.000000 0.008365 0.000000
# 3 -0.016447 -0.002869 0.016997 0.000000 0.003380 0.000000
# 4 0.000000 0.000000 0.000000 0.031214 0.000000 -0.006738
# 5 -0.030921 0.008365 0.003380 0.000000 0.044638 0.000000
# 6 0.000000 0.000000 0.000000 -0.006738 0.000000 0.058720
#
#
# Mechanical properties :
#
#
# Convention : Reuss Voigt Hill
#
# Bulk Modulus (GPa) = 39.46192 67.48882 53.47537
# Shear Modulus (GPa) = 16.75151 26.41461 21.58306
#
# Velocity S-wave (km/s) = 2.85254 3.58201 3.23789
# Velocity P-wave (km/s) = 5.47885 7.06330 6.32092
#
# Compressibility (1/GPa) = 0.02534089
#
# Stress axis : x y z
#
# Youngs Moduli (GPa) = 18.23489 53.86764 58.83261
#
# Poissons Ratio (x) = 0.71183 0.96761
# Poissons Ratio (y) = 0.24096 0.16878
# Poissons Ratio (z) = 0.29991 0.15454
#
# Static dielectric constant tensor:
#      x y z
#    x 1.762930 0.000000 0.004210 
#    y 0.000000 1.769990 0.000000 
#    z 0.004210 0.000000 1.776210 
# 
# From -- ./inp_files/31777.got.cif
#   From: 2010.05.17/outbox.cif.g08.bks.cpg/sg11_16_cif.got.tgz:31777.got - 2010.06.03 12:22:45.
