data_PCOD9163820
_publ_section_title
;
Structure prediction by ZEFSAII (Michael W. Deem and Ramdas Pophale) SiO2 
 PCOD9163820
Probable space group: P 21/M
;
_chemical_formula_sum "Si O2"
_cell_formula_units_Z 20
_cell_length_a 7.204905
_cell_length_b 19.330381
_cell_length_c 5.021005
_cell_angle_alpha 90.000000
_cell_angle_beta 90.948598
_cell_angle_gamma 90.000000
_cell_volume 699.197397
_symmetry_space_group_name_H-M "P 21/M"
_symmetry_group_IT_number 11
_symmetry_cell_setting 'monoclinic'
loop_
_space_group_symop_operation_xyz
x,y,z
-x,1/2+y,-z
-x,-y,-z
x,1/2-y,z
loop_
_atom_site_type_symbol
_atom_site_label
_atom_site_fract_x
_atom_site_fract_y
_atom_site_fract_z
Si Si1 0.706771 0.173894 0.140013
Si Si2 0.198187 0.554436 0.556569
Si Si3 0.291876 0.472495 0.045638
Si Si4 0.939619 0.672435 0.578188
Si Si5 0.369146 0.171864 0.809131
O O1 0.657458 0.250000 0.242616
O O2 0.654432 0.111993 0.337776
O O3 0.932531 0.170974 0.146951
O O4 0.590387 0.165503 0.868172
O O5 0.166037 0.513407 0.829343
O O6 0.035711 0.604948 0.454326
O O7 0.251055 0.499364 0.338655
O O8 0.287078 0.391313 0.980206
O O9 0.500000 0.500000 0.000000
O O10 0.989473 0.750000 0.478156
O O11 0.725662 0.667515 0.483042
O O12 0.322261 0.250000 0.907926
#
# Coordination Sequence:
#
# PCOD9163820 Si02
#       5
#     4   4   4   4   4
#     4   8  16  36  60  91 125 167 209 256 319 378
#     4  10  22  40  65  91 126 169 204 266 318 366
#     4  12  23  40  66  96 128 166 215 264 317 379
#     4   8  17  38  62  93 129 166 214 261 309 380
#     4  10  20  37  64  92 127 169 210 260 320 380
#
# _framework density 28.604222
#
# number of rings (size 3 to 8) (size 9 to 14) (size 15 to 20)
#    1.200    1.200    2.000    0.600    0.000    1.600 
#    0.000    7.000    0.000    4.800    0.000    0.000 
#    0.000    0.000    0.000    0.000    0.000    0.000 
#
# Total GULP energy -111505.677704 kJ/mol
# GULP energy per Si atom -5575.283885 kJ/mol
# Density = 2.853912 g / cm^3
# Si number density = 28.604222 Si / 1000 Ang^3
#
#
#
# Elastic Constant Matrix: (Units=GPa)
#
#
# Indices 1 2 3 4 5 6 
#
# 1 170.4506 49.3758 74.7589 0.0000 69.1108 0.0000
# 2 49.3758 256.2076 80.1811 0.0000 -1.8800 0.0000
# 3 74.7589 80.1811 182.5555 0.0000 39.5662 0.0000
# 4 0.0000 0.0000 0.0000 42.7616 0.0000 19.7185
# 5 69.1108 -1.8800 39.5662 0.0000 71.0026 0.0000
# 6 0.0000 0.0000 0.0000 19.7185 0.0000 39.8806
#
#
#
# Elastic Compliance Matrix: (Units=1/GPa)
#
#
# Indices 1 2 3 4 5 6 
#
# 1 0.011114 -0.001698 -0.001650 0.000000 -0.009943 0.000000
# 2 -0.001698 0.004910 -0.002101 0.000000 0.002954 0.000000
# 3 -0.001650 -0.002101 0.007666 0.000000 -0.002721 0.000000
# 4 0.000000 0.000000 0.000000 0.030292 0.000000 -0.014978
# 5 -0.009943 0.002954 -0.002721 0.000000 0.025357 0.000000
# 6 0.000000 0.000000 0.000000 -0.014978 0.000000 0.032480
#
#
# Mechanical properties :
#
#
# Convention : Reuss Voigt Hill
#
# Bulk Modulus (GPa) = 78.18346 113.09392 95.63869
# Shear Modulus (GPa) = 39.37537 57.72216 48.54876
#
# Velocity S-wave (km/s) = 3.71422 4.49704 4.12425
# Velocity P-wave (km/s) = 6.76654 8.16014 7.49580
#
# Compressibility (1/GPa) = 0.01279043
#
# Stress axis : x y z
#
# Youngs Moduli (GPa) = 89.97399 203.68193 130.44166
#
# Poissons Ratio (x) = 0.34593 0.21528
# Poissons Ratio (y) = 0.15281 0.27407
# Poissons Ratio (z) = 0.14849 0.42795
#
# Static dielectric constant tensor:
#      x y z
#    x 2.280060 0.000000 -0.032440 
#    y 0.000000 2.205470 0.000000 
#    z -0.032440 0.000000 2.214930 
# 
# From -- ./inp_files/2182.got.cif
#   From: 2010.05.17/outbox.cif.g08.bks.cpg/sg11_2_cif.got.tgz:2182.got - 2010.06.03 12:22:45.
