data_PCOD9163155
_publ_section_title
;
Structure prediction by ZEFSAII (Michael W. Deem and Ramdas Pophale) SiO2 
 PCOD9163155
Probable space group: P 21/M
;
_chemical_formula_sum "Si O2"
_cell_formula_units_Z 30
_cell_length_a 7.006401
_cell_length_b 9.557901
_cell_length_c 23.271006
_cell_angle_alpha 90.000000
_cell_angle_beta 64.277485
_cell_angle_gamma 90.000000
_cell_volume 1403.952504
_symmetry_space_group_name_H-M "P 21/M"
_symmetry_group_IT_number 11
_symmetry_cell_setting 'monoclinic'
loop_
_space_group_symop_operation_xyz
x,y,z
-x,1/2+y,-z
-x,-y,-z
x,1/2-y,z
loop_
_atom_site_type_symbol
_atom_site_label
_atom_site_fract_x
_atom_site_fract_y
_atom_site_fract_z
Si Si1 0.796200 0.911065 0.923054
Si Si2 0.028397 0.408822 0.314288
Si Si3 0.594120 0.029845 0.408774
Si Si4 0.293660 0.588418 0.955865
Si Si5 0.382317 0.411518 0.835355
Si Si6 0.883223 0.090146 0.803652
Si Si7 0.552057 0.750000 0.480559
Si Si8 0.515504 0.089021 0.285511
O O1 0.133007 0.250000 0.083858
O O2 0.903595 0.000406 0.858662
O O3 0.545096 0.907465 0.939187
O O4 0.808767 0.991877 0.981678
O O5 0.008455 0.250000 0.294878
O O6 0.843973 0.434685 0.384260
O O7 0.008309 0.515277 0.264316
O O8 0.262308 0.423345 0.309173
O O9 0.459416 0.129376 0.467193
O O10 0.556631 0.061095 0.346766
O O11 0.554054 0.872332 0.431186
O O12 0.221031 0.750000 0.966029
O O13 0.278692 0.512868 0.896301
O O14 0.309035 0.250000 0.847315
O O15 0.632092 0.408642 0.820649
O O16 0.379014 0.481260 0.772859
O O17 0.950120 0.250000 0.802104
O O18 0.574949 0.250000 0.263354
#
# Coordination Sequence:
#
# PCOD9163155 Si02
#       8
#     4   4   4   4   4   4   2   4
#     4   9  15  23  37  60  96 142 187 233 287 338
#     4  10  20  36  59  85 115 152 191 232 283 336
#     4  11  22  44  62  88 117 152 182 234 275 338
#     4   9  15  23  37  60  96 142 187 233 287 338
#     4   9  17  28  44  71 105 140 186 239 282 331
#     4   9  17  28  44  71 105 140 186 239 282 331
#     4  10  24  42  66  86 120 148 186 226 282 330
#     4  10  20  36  59  85 115 152 191 232 283 336
#
# _framework density 21.368243
#
# number of rings (size 3 to 8) (size 9 to 14) (size 15 to 20)
#    0.000    2.400    1.333    1.600    1.867    6.400 
#    0.000    4.000    0.000    0.000    0.000    0.933 
#    0.000    0.000    0.000    0.000    0.000    0.000 
#
# Total GULP energy -167210.656526 kJ/mol
# GULP energy per Si atom -5573.688551 kJ/mol
# Density = 2.131961 g / cm^3
# Si number density = 21.368243 Si / 1000 Ang^3
#
#
#
# Elastic Constant Matrix: (Units=GPa)
#
#
# Indices 1 2 3 4 5 6 
#
# 1 63.3146 13.4215 10.2553 0.0000 5.1074 0.0000
# 2 13.4215 218.9907 54.8339 0.0000 12.8113 0.0000
# 3 10.2553 54.8339 70.9448 0.0000 20.5639 0.0000
# 4 0.0000 0.0000 0.0000 -1.1101 0.0000 17.2742
# 5 5.1074 12.8113 20.5639 0.0000 10.5288 0.0000
# 6 0.0000 0.0000 0.0000 17.2742 0.0000 0.5965
#
#
#
# Elastic Compliance Matrix: (Units=1/GPa)
#
#
# Indices 1 2 3 4 5 6 
#
# 1 0.016513 -0.000656 0.000485 0.000000 -0.008160 0.000000
# 2 -0.000656 0.005756 -0.005569 0.000000 0.004191 0.000000
# 3 0.000485 -0.005569 0.037876 0.000000 -0.067436 0.000000
# 4 0.000000 0.000000 0.000000 -0.001994 0.000000 0.057762
# 5 -0.008160 0.004191 -0.067436 0.000000 0.225547 0.000000
# 6 0.000000 0.000000 0.000000 0.057762 0.000000 0.003712
#
#
# Mechanical properties :
#
#
# Convention : Reuss Voigt Hill
#
# Bulk Modulus (GPa) = 20.54827 56.69683 38.62255
# Shear Modulus (GPa) = 15.86745 20.31899 18.09322
#
# Velocity S-wave (km/s) = 2.72797 3.08701 2.91303
# Velocity P-wave (km/s) = 4.42262 6.26873 5.42478
#
# Compressibility (1/GPa) = 0.04866590
#
# Stress axis : x y z
#
# Youngs Moduli (GPa) = 60.55893 173.73809 26.40177
#
# Poissons Ratio (x) = 0.11401 -0.01281
# Poissons Ratio (y) = 0.03974 0.14702
# Poissons Ratio (z) = -0.02939 0.96747
#
# Static dielectric constant tensor:
#      x y z
#    x 1.855880 0.000000 -0.020420 
#    y 0.000000 1.728250 0.000000 
#    z -0.020420 0.000000 1.718530 
# 
# From -- ./inp_files/67783.got.cif
#   From: 2010.05.17/outbox.cif.g08.bks.cpg/sg11_34_cif.got.tgz:67783.got - 2010.06.03 12:22:45.
