data_PCOD9163507
_publ_section_title
;
Structure prediction by ZEFSAII (Michael W. Deem and Ramdas Pophale) SiO2 
 PCOD9163507
Probable space group: P 21/M
;
_chemical_formula_sum "Si O2"
_cell_formula_units_Z 28
_cell_length_a 9.366506
_cell_length_b 8.529852
_cell_length_c 29.796168
_cell_angle_alpha 90.000000
_cell_angle_beta 38.217941
_cell_angle_gamma 90.000000
_cell_volume 1472.745349
_symmetry_space_group_name_H-M "P 21/M"
_symmetry_group_IT_number 11
_symmetry_cell_setting 'monoclinic'
loop_
_space_group_symop_operation_xyz
x,y,z
-x,1/2+y,-z
-x,-y,-z
x,1/2-y,z
loop_
_atom_site_type_symbol
_atom_site_label
_atom_site_fract_x
_atom_site_fract_y
_atom_site_fract_z
Si Si1 0.663789 0.936503 0.998927
Si Si2 0.986888 0.938357 0.273777
Si Si3 0.341904 0.060047 0.727671
Si Si4 0.182787 0.061443 0.864991
Si Si5 0.504652 0.564035 0.864622
Si Si6 0.413175 0.563247 0.568812
Si Si7 0.741667 0.061348 0.565667
O O1 0.683931 0.750000 0.990033
O O2 0.557400 0.980816 0.073300
O O3 0.500000 0.000000 0.000000
O O4 0.916229 0.012871 0.933292
O O5 0.007139 0.750000 0.268346
O O6 0.847895 0.987652 0.262784
O O7 0.827582 0.990087 0.354678
O O8 0.237521 0.014149 0.212729
O O9 0.334949 0.250000 0.730190
O O10 0.282936 0.006422 0.792128
O O11 0.593084 0.015410 0.646475
O O12 0.201026 0.250000 0.862922
O O13 0.326287 0.988876 0.870353
O O14 0.490856 0.750000 0.874289
O O15 0.500000 0.500000 0.500000
O O16 0.393729 0.750000 0.572640
O O17 0.599506 0.509459 0.559555
O O18 0.739041 0.250000 0.563307
O O19 0.000000 0.000000 0.500000
#
# Coordination Sequence:
#
# PCOD9163507 Si02
#       7
#     4   4   4   4   4   4   4
#     4  12  25  43  65  91 120 156 198 245 297 356
#     4  10  20  39  63  88 117 154 198 249 301 356
#     4   8  18  36  60  84 112 149 193 239 292 352
#     4  11  22  40  63  89 120 158 199 246 298 352
#     4  12  25  41  60  89 124 160 200 246 294 349
#     4  11  22  38  59  86 118 157 201 250 301 357
#     4  10  20  37  58  85 118 156 199 247 298 356
#
# _framework density 19.012112999999999
#
# number of rings (size 3 to 8) (size 9 to 14) (size 15 to 20)
#    0.000    1.429    0.000    7.286    0.000    2.286 
#    0.000   12.143    0.000    0.000    0.000    0.000 
#    0.000    0.000    0.000    0.000    0.000    0.000 
#
# Total GULP energy -156537.098996 kJ/mol
# GULP energy per Si atom -5590.610678 kJ/mol
# Density = 1.896884 g / cm^3
# Si number density = 19.012113 Si / 1000 Ang^3
#
#
#
# Elastic Constant Matrix: (Units=GPa)
#
#
# Indices 1 2 3 4 5 6 
#
# 1 90.0781 -7.0958 49.5844 0.0000 -3.8319 0.0000
# 2 -7.0958 51.1078 -23.8670 0.0000 2.4468 0.0000
# 3 49.5844 -23.8670 103.2246 0.0000 1.9921 0.0000
# 4 0.0000 0.0000 0.0000 32.9674 0.0000 -3.5487
# 5 -3.8319 2.4468 1.9921 0.0000 41.0376 0.0000
# 6 0.0000 0.0000 0.0000 -3.5487 0.0000 34.3001
#
#
#
# Elastic Compliance Matrix: (Units=1/GPa)
#
#
# Indices 1 2 3 4 5 6 
#
# 1 0.015335 -0.001591 -0.007771 0.000000 0.001904 0.000000
# 2 -0.001591 0.022200 0.005931 0.000000 -0.001760 0.000000
# 3 -0.007771 0.005931 0.014826 0.000000 -0.001799 0.000000
# 4 0.000000 0.000000 0.000000 0.030675 0.000000 0.003174
# 5 0.001904 -0.001760 -0.001799 0.000000 0.024738 0.000000
# 6 0.000000 0.000000 0.000000 0.003174 0.000000 0.029483
#
#
# Mechanical properties :
#
#
# Convention : Reuss Voigt Hill
#
# Bulk Modulus (GPa) = 21.97827 31.29487 26.63657
# Shear Modulus (GPa) = 31.39059 36.71361 34.05210
#
# Velocity S-wave (km/s) = 4.06776 4.39915 4.23670
# Velocity P-wave (km/s) = 5.80064 6.50382 6.16227
#
# Compressibility (1/GPa) = 0.04549950
#
# Stress axis : x y z
#
# Youngs Moduli (GPa) = 65.21209 45.04580 67.44754
#
# Poissons Ratio (x) = 0.07167 0.52411
# Poissons Ratio (y) = 0.10375 -0.40004
# Poissons Ratio (z) = 0.50674 -0.26717
#
# Static dielectric constant tensor:
#      x y z
#    x 1.622250 0.000000 0.007890 
#    y 0.000000 2.087940 0.000000 
#    z 0.007890 0.000000 1.654800 
# 
# From -- ./inp_files/70847.got.cif
#   From: 2010.05.17/outbox.cif.g08.bks.cpg/sg11_36_cif.got.tgz:70847.got - 2010.06.03 12:22:45.
