data_PCOD9163279
_publ_section_title
;
Structure prediction by ZEFSAII (Michael W. Deem and Ramdas Pophale) SiO2 
 PCOD9163279
Probable space group: P 21/M
;
_chemical_formula_sum "Si O2"
_cell_formula_units_Z 20
_cell_length_a 6.934114
_cell_length_b 18.617739
_cell_length_c 11.220746
_cell_angle_alpha 90.000000
_cell_angle_beta 39.051205
_cell_angle_gamma 90.000000
_cell_volume 912.620689
_symmetry_space_group_name_H-M "P 21/M"
_symmetry_group_IT_number 11
_symmetry_cell_setting 'monoclinic'
loop_
_space_group_symop_operation_xyz
x,y,z
-x,1/2+y,-z
-x,-y,-z
x,1/2-y,z
loop_
_atom_site_type_symbol
_atom_site_label
_atom_site_fract_x
_atom_site_fract_y
_atom_site_fract_z
Si Si1 0.299339 0.075671 0.810875
Si Si2 0.704674 0.834508 0.947308
Si Si3 0.629904 0.165988 0.448722
Si Si4 0.231021 0.557774 0.116547
Si Si5 0.644500 0.956782 0.543793
O O1 0.249333 0.116903 0.957320
O O2 0.462587 0.132749 0.643356
O O3 0.987755 0.051662 0.893745
O O4 0.525896 0.006724 0.706166
O O5 0.684372 0.750000 0.984624
O O6 0.397655 0.865358 0.036296
O O7 0.005205 0.845911 0.722133
O O8 0.570746 0.250000 0.466211
O O9 0.502874 0.121652 0.396209
O O10 0.998033 0.550480 0.340131
O O11 0.500000 0.500000 0.000000
O O12 0.500000 0.000000 0.500000
#
# Coordination Sequence:
#
# PCOD9163279 Si02
#       5
#     4   4   4   4   4
#     4  10  21  39  60  81 116 155 188 233 290 339
#     4  11  23  37  59  88 113 149 195 234 285 346
#     4   9  18  35  55  79 115 149 185 234 281 334
#     4  10  20  36  60  88 116 147 193 242 283 337
#     4   8  17  33  55  80 107 146 185 221 278 337
#
# _framework density 21.914908
#
# number of rings (size 3 to 8) (size 9 to 14) (size 15 to 20)
#    0.000    2.800    0.000    4.200    0.000    8.000 
#    0.000    6.000    0.000    4.800    0.000    0.000 
#    0.000    0.000    0.000    0.000    0.000    0.000 
#
# Total GULP energy -111685.376952 kJ/mol
# GULP energy per Si atom -5584.268848 kJ/mol
# Density = 2.186503 g / cm^3
# Si number density = 21.914908 Si / 1000 Ang^3
#
#
#
# Elastic Constant Matrix: (Units=GPa)
#
#
# Indices 1 2 3 4 5 6 
#
# 1 63.1661 4.3125 19.0620 0.0000 -12.1677 0.0000
# 2 4.3125 114.8041 57.3873 0.0000 -12.3944 0.0000
# 3 19.0620 57.3873 126.8460 0.0000 -27.0073 0.0000
# 4 0.0000 0.0000 0.0000 42.5815 0.0000 -5.5797
# 5 -12.1677 -12.3944 -27.0073 0.0000 33.5593 0.0000
# 6 0.0000 0.0000 0.0000 -5.5797 0.0000 28.5914
#
#
#
# Elastic Compliance Matrix: (Units=1/GPa)
#
#
# Indices 1 2 3 4 5 6 
#
# 1 0.017324 0.000851 -0.001912 0.000000 0.005057 0.000000
# 2 0.000851 0.011298 -0.005171 0.000000 0.000320 0.000000
# 3 -0.001912 -0.005171 0.012015 0.000000 0.007066 0.000000
# 4 0.000000 0.000000 0.000000 0.024101 0.000000 0.004703
# 5 0.005057 0.000320 0.007066 0.000000 0.037436 0.000000
# 6 0.000000 0.000000 0.000000 0.004703 0.000000 0.035893
#
#
# Mechanical properties :
#
#
# Convention : Reuss Voigt Hill
#
# Bulk Modulus (GPa) = 35.49500 51.81554 43.65527
# Shear Modulus (GPa) = 31.26515 35.88339 33.57427
#
# Velocity S-wave (km/s) = 3.78121 4.05087 3.91836
# Velocity P-wave (km/s) = 5.94099 6.75090 6.35885
#
# Compressibility (1/GPa) = 0.02817298
#
# Stress axis : x y z
#
# Youngs Moduli (GPa) = 57.72262 88.51145 83.23013
#
# Poissons Ratio (x) = -0.07530 0.15910
# Poissons Ratio (y) = -0.04911 0.43040
# Poissons Ratio (z) = 0.11034 0.45771
#
# Static dielectric constant tensor:
#      x y z
#    x 1.844590 0.000000 0.025960 
#    y 0.000000 1.816510 0.000000 
#    z 0.025960 0.000000 1.843710 
# 
# From -- ./inp_files/47906.got.cif
#   From: 2010.05.17/outbox.cif.g08.bks.cpg/sg11_24_cif.got.tgz:47906.got - 2010.06.03 12:22:45.
