data_PCOD9163055
_publ_section_title
;
Structure prediction by ZEFSAII (Michael W. Deem and Ramdas Pophale) SiO2 
 PCOD9163055
Probable space group: P 21/M
;
_chemical_formula_sum "Si O2"
_cell_formula_units_Z 32
_cell_length_a 14.954272
_cell_length_b 16.604658
_cell_length_c 21.204071
_cell_angle_alpha 90.000000
_cell_angle_beta 160.528681
_cell_angle_gamma 90.000000
_cell_volume 1755.073523
_symmetry_space_group_name_H-M "P 21/M"
_symmetry_group_IT_number 11
_symmetry_cell_setting 'monoclinic'
loop_
_space_group_symop_operation_xyz
x,y,z
-x,1/2+y,-z
-x,-y,-z
x,1/2-y,z
loop_
_atom_site_type_symbol
_atom_site_label
_atom_site_fract_x
_atom_site_fract_y
_atom_site_fract_z
Si Si1 0.939003 0.013336 0.810182
Si Si2 0.259866 0.343392 0.527806
Si Si3 0.423520 0.013336 0.552402
Si Si4 0.652355 0.347220 0.152389
Si Si5 0.703159 0.077336 0.404303
Si Si6 0.507796 0.077333 0.806614
Si Si7 0.668459 0.843393 0.936336
Si Si8 0.708891 0.847699 0.208916
O O1 0.715106 0.005740 0.715142
O O2 0.071961 0.101407 0.897278
O O3 0.792840 0.999999 0.646441
O O4 0.186540 0.952851 0.986178
O O5 0.242555 0.250000 0.499091
O O6 0.372979 0.398596 0.547743
O O7 0.448680 0.356852 0.713725
O O8 0.959478 0.373391 0.346884
O O9 0.384819 0.952848 0.585265
O O10 0.663558 0.250000 0.163597
O O11 0.508936 0.373393 0.121606
O O12 0.472431 0.368243 0.972448
O O13 0.508861 0.143148 0.243837
O O14 0.998806 0.113400 0.603630
O O15 0.663956 0.000001 0.331976
O O16 0.418331 0.113391 0.813430
O O17 0.731391 0.750000 0.987856
O O18 0.724449 0.750000 0.224484
#
# Coordination Sequence:
#
# PCOD9163055 Si02
#       8
#     4   4   4   4   4   4   4   4
#     4  10  22  40  59  79 108 147 189 231 275 327
#     4  10  20  36  58  83 113 146 184 229 276 327
#     4  10  22  40  59  79 108 147 189 231 275 327
#     4   9  19  33  52  80 111 142 174 217 272 324
#     4  10  21  35  55  82 110 144 182 224 277 334
#     4  10  21  35  55  82 110 144 182 224 277 334
#     4  10  20  36  58  83 113 146 184 229 276 327
#     4  11  20  33  55  82 113 144 181 227 273 326
#
# _framework density 18.232854
#
# number of rings (size 3 to 8) (size 9 to 14) (size 15 to 20)
#    0.000    2.000    0.000    3.375    0.000    9.000 
#    0.000    7.500    0.000    5.250    0.000    0.000 
#    0.000    0.000    0.000    0.000    0.000    0.000 
#
# Total GULP energy -178636.687932 kJ/mol
# GULP energy per Si atom -5582.396498 kJ/mol
# Density = 1.819136 g / cm^3
# Si number density = 18.232854 Si / 1000 Ang^3
#
#
#
# Elastic Constant Matrix: (Units=GPa)
#
#
# Indices 1 2 3 4 5 6 
#
# 1 202.8335 61.6303 40.4429 0.0000 -23.1995 0.0000
# 2 61.6303 60.0574 54.7544 0.0000 7.9801 0.0000
# 3 40.4429 54.7544 198.9806 0.0000 25.3073 0.0000
# 4 0.0000 0.0000 0.0000 21.6060 0.0000 -4.7683
# 5 -23.1995 7.9801 25.3073 0.0000 28.6179 0.0000
# 6 0.0000 0.0000 0.0000 -4.7683 0.0000 17.8627
#
#
#
# Elastic Compliance Matrix: (Units=1/GPa)
#
#
# Indices 1 2 3 4 5 6 
#
# 1 0.009646 -0.011081 -0.000337 0.000000 0.011207 0.000000
# 2 -0.011081 0.034976 -0.005622 0.000000 -0.013764 0.000000
# 3 -0.000337 -0.005622 0.007297 0.000000 -0.005158 0.000000
# 4 0.000000 0.000000 0.000000 0.049181 0.000000 0.013128
# 5 0.011207 -0.013764 -0.005158 0.000000 0.052428 0.000000
# 6 0.000000 0.000000 0.000000 0.013128 0.000000 0.059487
#
#
# Mechanical properties :
#
#
# Convention : Reuss Voigt Hill
#
# Bulk Modulus (GPa) = 56.05218 86.16964 71.11091
# Shear Modulus (GPa) = 19.75966 33.95358 26.85662
#
# Velocity S-wave (km/s) = 3.29559 4.32003 3.84211
# Velocity P-wave (km/s) = 6.72981 8.49981 7.66607
#
# Compressibility (1/GPa) = 0.01784052
#
# Stress axis : x y z
#
# Youngs Moduli (GPa) = 103.66945 28.59102 137.04086
#
# Poissons Ratio (x) = 0.31681 0.04616
# Poissons Ratio (y) = 1.14874 0.77040
# Poissons Ratio (z) = 0.03492 0.16073
#
# Static dielectric constant tensor:
#      x y z
#    x 1.610430 0.000000 -0.006400 
#    y 0.000000 1.635450 0.000000 
#    z -0.006400 0.000000 1.615450 
# 
# From -- ./inp_files/65855.got.cif
#   From: 2010.05.17/outbox.cif.g08.bks.cpg/sg11_33_cif.got.tgz:65855.got - 2010.06.03 12:22:45.
