data_PCOD9163528
_publ_section_title
;
Structure prediction by ZEFSAII (Michael W. Deem and Ramdas Pophale) SiO2 
 PCOD9163528
Probable space group: P 21/M
;
_chemical_formula_sum "Si O2"
_cell_formula_units_Z 28
_cell_length_a 16.542118
_cell_length_b 8.422566
_cell_length_c 20.838422
_cell_angle_alpha 90.000000
_cell_angle_beta 149.994415
_cell_angle_gamma 90.000000
_cell_volume 1451.923338
_symmetry_space_group_name_H-M "P 21/M"
_symmetry_group_IT_number 11
_symmetry_cell_setting 'monoclinic'
loop_
_space_group_symop_operation_xyz
x,y,z
-x,1/2+y,-z
-x,-y,-z
x,1/2-y,z
loop_
_atom_site_type_symbol
_atom_site_label
_atom_site_fract_x
_atom_site_fract_y
_atom_site_fract_z
Si Si1 0.995656 0.557630 0.809065
Si Si2 0.441089 0.559895 0.279213
Si Si3 0.807900 0.943875 0.552199
Si Si4 0.044586 0.942020 0.601251
Si Si5 0.865137 0.939966 0.857480
Si Si6 0.645357 0.559695 0.921950
Si Si7 0.588810 0.441734 0.124723
O O1 0.002026 0.750000 0.813147
O O2 0.894683 0.506060 0.677542
O O3 0.912198 0.506319 0.818269
O O4 0.178191 0.495162 0.933970
O O5 0.439274 0.750000 0.280239
O O6 0.622669 0.503293 0.419075
O O7 0.308516 0.497225 0.237775
O O8 0.390623 0.507463 0.173164
O O9 0.806790 0.750000 0.551203
O O10 0.914361 0.995664 0.564497
O O11 0.044309 0.750000 0.601034
O O12 0.225386 0.995411 0.743956
O O13 0.000000 0.000000 0.500000
O O14 0.868142 0.750000 0.860297
O O15 0.000000 0.000000 0.000000
O O16 0.642280 0.750000 0.916260
O O17 0.511166 0.506333 0.881205
O O18 0.588732 0.250000 0.124018
O O19 0.500000 0.500000 0.000000
#
# Coordination Sequence:
#
# PCOD9163528 Si02
#       7
#     4   4   4   4   4   4   4
#     4  10  21  39  62  84 111 152 194 234 287 346
#     4  11  22  37  59  85 114 151 192 234 284 340
#     4   9  20  38  59  84 113 149 194 236 279 341
#     4  10  20  37  59  82 113 151 191 236 283 337
#     4  11  22  37  60  88 117 148 191 237 284 342
#     4  11  22  36  56  85 117 148 191 242 288 338
#     4  10  22  37  56  84 115 149 190 240 291 340
#
# _framework density 19.284765
#
# number of rings (size 3 to 8) (size 9 to 14) (size 15 to 20)
#    0.000    1.714    1.429    3.000    0.000    4.000 
#    0.000    2.857    0.000    0.000    0.000    0.000 
#    0.000    0.000    0.000    0.000    0.000    0.000 
#
# Total GULP energy -156493.295922 kJ/mol
# GULP energy per Si atom -5589.046283 kJ/mol
# Density = 1.924087 g / cm^3
# Si number density = 19.284765 Si / 1000 Ang^3
#
#
#
# Elastic Constant Matrix: (Units=GPa)
#
#
# Indices 1 2 3 4 5 6 
#
# 1 140.7580 19.5794 74.5765 0.0000 18.7955 0.0000
# 2 19.5794 16.9249 16.9653 0.0000 4.2835 0.0000
# 3 74.5765 16.9653 176.4757 0.0000 15.6724 0.0000
# 4 0.0000 0.0000 0.0000 17.6269 0.0000 5.0362
# 5 18.7955 4.2835 15.6724 0.0000 42.2488 0.0000
# 6 0.0000 0.0000 0.0000 5.0362 0.0000 22.6984
#
#
#
# Elastic Compliance Matrix: (Units=1/GPa)
#
#
# Indices 1 2 3 4 5 6 
#
# 1 0.010338 -0.007927 -0.003381 0.000000 -0.002541 0.000000
# 2 -0.007927 0.072281 -0.003372 0.000000 -0.002551 0.000000
# 3 -0.003381 -0.003372 0.007503 0.000000 -0.000937 0.000000
# 4 0.000000 0.000000 0.000000 0.060571 0.000000 -0.013439
# 5 -0.002541 -0.002551 -0.000937 0.000000 0.025406 0.000000
# 6 0.000000 0.000000 0.000000 -0.013439 0.000000 0.047038
#
#
# Mechanical properties :
#
#
# Convention : Reuss Voigt Hill
#
# Bulk Modulus (GPa) = 16.45793 61.82234 39.14013
# Shear Modulus (GPa) = 18.33184 31.38399 24.85791
#
# Velocity S-wave (km/s) = 3.08650 4.03848 3.59415
# Velocity P-wave (km/s) = 4.61028 7.33982 6.12893
#
# Compressibility (1/GPa) = 0.06076099
#
# Stress axis : x y z
#
# Youngs Moduli (GPa) = 96.73445 13.83492 133.28690
#
# Poissons Ratio (x) = 0.10967 0.45062
# Poissons Ratio (y) = 0.76681 0.44948
# Poissons Ratio (z) = 0.32704 0.04665
#
# Static dielectric constant tensor:
#      x y z
#    x 1.653890 0.000000 0.011680 
#    y 0.000000 1.670360 0.000000 
#    z 0.011680 0.000000 1.637540 
# 
# From -- ./inp_files/65467.got.cif
#   From: 2010.05.17/outbox.cif.g08.bks.cpg/sg11_33_cif.got.tgz:65467.got - 2010.06.03 12:22:45.
