data_PCOD9163588
_publ_section_title
;
Structure prediction by ZEFSAII (Michael W. Deem and Ramdas Pophale) SiO2 
 PCOD9163588
Probable space group: P 21/M
;
_chemical_formula_sum "Si O2"
_cell_formula_units_Z 24
_cell_length_a 14.872125
_cell_length_b 8.198059
_cell_length_c 8.314132
_cell_angle_alpha 90.000000
_cell_angle_beta 101.357388
_cell_angle_gamma 90.000000
_cell_volume 993.830260
_symmetry_space_group_name_H-M "P 21/M"
_symmetry_group_IT_number 11
_symmetry_cell_setting 'monoclinic'
loop_
_space_group_symop_operation_xyz
x,y,z
-x,1/2+y,-z
-x,-y,-z
x,1/2-y,z
loop_
_atom_site_type_symbol
_atom_site_label
_atom_site_fract_x
_atom_site_fract_y
_atom_site_fract_z
Si Si1 0.279509 0.055239 0.755317
Si Si2 0.057719 0.561795 0.370386
Si Si3 0.781207 0.053005 0.771178
Si Si4 0.554095 0.445725 0.361181
Si Si5 0.893336 0.440654 0.136872
Si Si6 0.611648 0.556194 0.892883
O O1 0.268565 0.250000 0.762257
O O2 0.343469 0.010836 0.627985
O O3 0.180209 0.977080 0.746918
O O4 0.339496 0.991066 0.929868
O O5 0.075626 0.750000 0.404594
O O6 0.985427 0.540406 0.199038
O O7 0.000000 0.500000 0.500000
O O8 0.155017 0.487817 0.350664
O O9 0.770475 0.250000 0.754599
O O10 0.682681 0.978030 0.772767
O O11 0.840677 0.019534 0.953846
O O12 0.500000 0.500000 0.500000
O O13 0.558199 0.250000 0.359638
O O14 0.487436 0.508483 0.193388
O O15 0.916316 0.250000 0.146337
O O16 0.603331 0.750000 0.910560
#
# Coordination Sequence:
#
# PCOD9163588 Si02
#       6
#     4   4   4   4   4   4
#     4  10  20  37  60  85 110 142 183 230 279 331
#     4  11  23  38  55  81 115 151 187 228 276 330
#     4   9  20  37  59  84 110 141 183 230 278 329
#     4  11  23  38  55  81 115 151 187 228 276 330
#     4  10  20  37  60  85 110 142 183 230 279 331
#     4   9  20  37  59  84 110 141 183 230 278 329
#
# _framework density 24.148992
#
# number of rings (size 3 to 8) (size 9 to 14) (size 15 to 20)
#    0.000    2.000    0.000    3.000    0.000    5.333 
#    0.000    3.333    0.000    0.000    0.000    0.000 
#    0.000    0.000    0.000    0.000    0.000    0.000 
#
# Total GULP energy -134219.566735 kJ/mol
# GULP energy per Si atom -5592.481947 kJ/mol
# Density = 2.409403 g / cm^3
# Si number density = 24.148992 Si / 1000 Ang^3
#
#
#
# Elastic Constant Matrix: (Units=GPa)
#
#
# Indices 1 2 3 4 5 6 
#
# 1 132.9295 -8.6116 13.0936 0.0000 -26.0244 0.0000
# 2 -8.6116 20.0680 -0.5762 0.0000 -0.6692 0.0000
# 3 13.0936 -0.5762 59.0321 0.0000 -20.8317 0.0000
# 4 0.0000 0.0000 0.0000 24.1434 0.0000 -5.9248
# 5 -26.0244 -0.6692 -20.8317 0.0000 46.2965 0.0000
# 6 0.0000 0.0000 0.0000 -5.9248 0.0000 28.9645
#
#
#
# Elastic Compliance Matrix: (Units=1/GPa)
#
#
# Indices 1 2 3 4 5 6 
#
# 1 0.008752 0.003914 -0.000175 0.000000 0.004898 0.000000
# 2 0.003914 0.051644 0.000803 0.000000 0.003308 0.000000
# 3 -0.000175 0.000803 0.020157 0.000000 0.008983 0.000000
# 4 0.000000 0.000000 0.000000 0.043608 0.000000 0.008920
# 5 0.004898 0.003308 0.008983 0.000000 0.028443 0.000000
# 6 0.000000 0.000000 0.000000 0.008920 0.000000 0.036350
#
#
# Mechanical properties :
#
#
# Convention : Reuss Voigt Hill
#
# Bulk Modulus (GPa) = 11.15591 24.42678 17.79135
# Shear Modulus (GPa) = 23.83818 33.75580 28.79699
#
# Velocity S-wave (km/s) = 3.14527 3.74279 3.45696
# Velocity P-wave (km/s) = 4.22137 5.36796 4.82882
#
# Compressibility (1/GPa) = 0.08963857
#
# Stress axis : x y z
#
# Youngs Moduli (GPa) = 114.25338 19.36342 49.61158
#
# Poissons Ratio (x) = -0.07579 0.00867
# Poissons Ratio (y) = -0.44721 -0.03986
# Poissons Ratio (z) = 0.01996 -0.01556
#
# Static dielectric constant tensor:
#      x y z
#    x 1.926940 0.000000 0.001430 
#    y 0.000000 1.824070 0.000000 
#    z 0.001430 0.000000 2.086790 
# 
# From -- ./inp_files/20339.got.cif
#   From: 2010.05.17/outbox.cif.g08.bks.cpg/sg11_11_cif.got.tgz:20339.got - 2010.06.03 12:22:45.
