data_PCOD9163845
_publ_section_title
;
Structure prediction by ZEFSAII (Michael W. Deem and Ramdas Pophale) SiO2 
 PCOD9163845
Probable space group: P 21/M
;
_chemical_formula_sum "Si O2"
_cell_formula_units_Z 24
_cell_length_a 11.731910
_cell_length_b 16.540375
_cell_length_c 9.901263
_cell_angle_alpha 90.000000
_cell_angle_beta 151.298750
_cell_angle_gamma 90.000000
_cell_volume 922.710330
_symmetry_space_group_name_H-M "P 21/M"
_symmetry_group_IT_number 11
_symmetry_cell_setting 'monoclinic'
loop_
_space_group_symop_operation_xyz
x,y,z
-x,1/2+y,-z
-x,-y,-z
x,1/2-y,z
loop_
_atom_site_type_symbol
_atom_site_label
_atom_site_fract_x
_atom_site_fract_y
_atom_site_fract_z
Si Si1 0.832627 0.250000 0.522633
Si Si2 0.814204 0.615087 0.193757
Si Si3 0.267876 0.459936 0.411698
Si Si4 0.749245 0.250000 0.751913
Si Si5 0.528870 0.608814 0.630944
Si Si6 0.770524 0.250000 0.066423
Si Si7 0.794681 0.067596 0.091408
Si Si8 0.399993 0.250000 0.864427
O O1 0.844499 0.250000 0.698488
O O2 0.603533 0.250000 0.189934
O O3 0.955990 0.165942 0.608375
O O4 0.645610 0.635246 0.890400
O O5 0.723523 0.664545 0.229518
O O6 0.815503 0.516852 0.199695
O O7 0.304855 0.555504 0.440477
O O8 0.281761 0.434291 0.269013
O O9 0.022762 0.438454 0.228481
O O10 0.525315 0.437104 0.749172
O O11 0.574405 0.175413 0.572737
O O12 0.880575 0.250000 0.030589
O O13 0.820168 0.159284 0.174503
O O14 0.487567 0.250000 0.801988
#
# Coordination Sequence:
#
# PCOD9163845 Si02
#       8
#     2   4   4   2   4   2   4   2
#     4  11  22  42  76 104 138 181 251 306 359 427
#     4  10  23  43  76 104 132 194 246 309 350 433
#     4  10  23  41  67 106 151 182 235 299 371 428
#     4  12  20  39  68 106 140 190 229 302 360 435
#     4  10  20  37  68 106 143 181 236 302 362 426
#     4  12  29  46  69 106 151 197 233 304 366 445
#     4  11  25  46  70 106 147 196 240 299 366 437
#     4  11  25  51  69 104 147 182 251 300 369 431
#
# _framework density 26.010328999999999
#
# number of rings (size 3 to 8) (size 9 to 14) (size 15 to 20)
#    0.000    1.333    3.333    1.500    4.667    8.000 
#    6.000    0.833    0.000    0.000    0.000    0.000 
#    0.000    0.000    0.000    0.000    0.000    0.000 
#
# Total GULP energy -133716.951367 kJ/mol
# GULP energy per Si atom -5571.539640 kJ/mol
# Density = 2.595113 g / cm^3
# Si number density = 26.010329 Si / 1000 Ang^3
#
#
#
# Elastic Constant Matrix: (Units=GPa)
#
#
# Indices 1 2 3 4 5 6 
#
# 1 118.5563 25.5907 25.7556 0.0000 15.1158 0.0000
# 2 25.5907 213.9972 36.9326 0.0000 -0.1660 0.0000
# 3 25.7556 36.9326 89.1376 0.0000 12.1903 0.0000
# 4 0.0000 0.0000 0.0000 17.7032 0.0000 43.8992
# 5 15.1158 -0.1660 12.1903 0.0000 29.0561 0.0000
# 6 0.0000 0.0000 0.0000 43.8992 0.0000 2.8067
#
#
#
# Elastic Compliance Matrix: (Units=1/GPa)
#
#
# Indices 1 2 3 4 5 6 
#
# 1 0.009549 -0.000827 -0.001842 0.000000 -0.004200 0.000000
# 2 -0.000827 0.005130 -0.002068 0.000000 0.001327 0.000000
# 3 -0.001842 -0.002068 0.013238 0.000000 -0.004607 0.000000
# 4 0.000000 0.000000 0.000000 -0.001495 0.000000 0.023382
# 5 -0.004200 0.001327 -0.004607 0.000000 0.038542 0.000000
# 6 0.000000 0.000000 0.000000 0.023382 0.000000 -0.009429
#
#
# Mechanical properties :
#
#
# Convention : Reuss Voigt Hill
#
# Bulk Modulus (GPa) = 54.22369 66.47212 60.34790
# Shear Modulus (GPa) = 70.26857 32.14066 51.20462
#
# Velocity S-wave (km/s) = 5.20330 3.51905 4.44173
# Velocity P-wave (km/s) = 7.54926 6.49023 7.03969
#
# Compressibility (1/GPa) = 0.01844212
#
# Stress axis : x y z
#
# Youngs Moduli (GPa) = 104.72309 194.93903 75.54158
#
# Poissons Ratio (x) = 0.16127 0.13915
# Poissons Ratio (y) = 0.08663 0.15621
# Poissons Ratio (z) = 0.19290 0.40312
#
# Static dielectric constant tensor:
#      x y z
#    x 2.047770 0.000000 0.033970 
#    y 0.000000 2.084570 0.000000 
#    z 0.033970 0.000000 2.064590 
# 
# From -- ./inp_files/36203.got.cif
#   From: 2010.05.17/outbox.cif.g08.bks.cpg/sg11_19_cif.got.tgz:36203.got - 2010.06.03 12:22:45.
