data_PCOD9163931
_publ_section_title
;
Structure prediction by ZEFSAII (Michael W. Deem and Ramdas Pophale) SiO2 
 PCOD9163931
Probable space group: P 21/M
;
_chemical_formula_sum "Si O2"
_cell_formula_units_Z 24
_cell_length_a 9.816809
_cell_length_b 13.949601
_cell_length_c 10.951883
_cell_angle_alpha 90.000000
_cell_angle_beta 39.274478
_cell_angle_gamma 90.000000
_cell_volume 949.400389
_symmetry_space_group_name_H-M "P 21/M"
_symmetry_group_IT_number 11
_symmetry_cell_setting 'monoclinic'
loop_
_space_group_symop_operation_xyz
x,y,z
-x,1/2+y,-z
-x,-y,-z
x,1/2-y,z
loop_
_atom_site_type_symbol
_atom_site_label
_atom_site_fract_x
_atom_site_fract_y
_atom_site_fract_z
Si Si1 0.602604 0.423476 0.110252
Si Si2 0.235810 0.439351 0.554811
Si Si3 0.192858 0.859650 0.254433
Si Si4 0.267703 0.354326 0.014303
Si Si5 0.961027 0.891781 0.070929
Si Si6 0.169042 0.856392 0.556926
O O1 0.406012 0.405995 0.337051
O O2 0.635884 0.538771 0.072834
O O3 0.601531 0.383626 0.972865
O O4 0.808751 0.370484 0.028213
O O5 0.000356 0.426753 0.657696
O O6 0.214075 0.387292 0.699336
O O7 0.267427 0.552775 0.558066
O O8 0.126511 0.750000 0.279358
O O9 0.218517 0.871960 0.380351
O O10 0.385551 0.250000 0.943125
O O11 0.124139 0.344204 0.990790
O O12 0.088279 0.358749 0.244854
O O13 0.000000 0.000000 0.000000
O O14 0.244022 0.750000 0.541454
#
# Coordination Sequence:
#
# PCOD9163931 Si02
#       6
#     4   4   4   4   4   4
#     4  10  22  37  63  88 116 150 197 243 287 346
#     4  11  21  37  65  88 115 152 200 237 294 341
#     4  10  22  41  59  82 119 156 194 243 291 341
#     4  10  20  38  61  86 118 156 191 235 293 345
#     4   9  18  37  55  83 114 153 183 236 284 340
#     4  10  20  38  62  86 118 155 191 236 292 349
#
# _framework density 25.279112999999999
#
# number of rings (size 3 to 8) (size 9 to 14) (size 15 to 20)
#    0.000    2.000    5.000    0.500    0.000    7.333 
#    0.000    0.000    0.000    0.000    0.000    0.000 
#    0.000    0.000    0.000    0.000    0.000    0.000 
#
# Total GULP energy -134119.776899 kJ/mol
# GULP energy per Si atom -5588.324037 kJ/mol
# Density = 2.522158 g / cm^3
# Si number density = 25.279113 Si / 1000 Ang^3
#
#
#
# Elastic Constant Matrix: (Units=GPa)
#
#
# Indices 1 2 3 4 5 6 
#
# 1 32.7302 16.4459 12.4994 0.0000 2.0394 0.0000
# 2 16.4459 117.9906 11.2660 0.0000 3.8327 0.0000
# 3 12.4994 11.2660 214.8067 0.0000 -6.9029 0.0000
# 4 0.0000 0.0000 0.0000 3.1829 0.0000 -9.9391
# 5 2.0394 3.8327 -6.9029 0.0000 25.7962 0.0000
# 6 0.0000 0.0000 0.0000 -9.9391 0.0000 20.9130
#
#
#
# Elastic Compliance Matrix: (Units=1/GPa)
#
#
# Indices 1 2 3 4 5 6 
#
# 1 0.033624 -0.004434 -0.001804 0.000000 -0.002482 0.000000
# 2 -0.004434 0.009153 -0.000257 0.000000 -0.001078 0.000000
# 3 -0.001804 -0.000257 0.004821 0.000000 0.001471 0.000000
# 4 0.000000 0.000000 0.000000 -0.649050 0.000000 -0.308467
# 5 -0.002482 -0.001078 0.001471 0.000000 0.039515 0.000000
# 6 0.000000 0.000000 0.000000 -0.308467 0.000000 -0.098785
#
#
# Mechanical properties :
#
#
# Convention : Reuss Voigt Hill
#
# Bulk Modulus (GPa) = 28.89381 49.55001 39.22191
# Shear Modulus (GPa) = -7.85921 31.66615 11.90347
#
# Velocity S-wave (km/s) = -1.76514 3.54313 2.17233
# Velocity P-wave (km/s) = 2.70193 6.03176 4.67346
#
# Compressibility (1/GPa) = 0.03460949
#
# Stress axis : x y z
#
# Youngs Moduli (GPa) = 29.74046 109.25648 207.42421
#
# Poissons Ratio (x) = 0.48442 0.37415
# Poissons Ratio (y) = 0.13186 0.05324
# Poissons Ratio (z) = 0.05365 0.02804
#
# Static dielectric constant tensor:
#      x y z
#    x 2.060390 0.000000 -0.027120 
#    y 0.000000 2.103960 0.000000 
#    z -0.027120 0.000000 1.978020 
# 
# From -- ./inp_files/39414.got.cif
#   From: 2010.05.17/outbox.cif.g08.bks.cpg/sg11_20_cif.got.tgz:39414.got - 2010.06.03 12:22:45.
