data_PCOD9163715
_publ_section_title
;
Structure prediction by ZEFSAII (Michael W. Deem and Ramdas Pophale) SiO2 
 PCOD9163715
Probable space group: P 21/M
;
_chemical_formula_sum "Si O2"
_cell_formula_units_Z 32
_cell_length_a 8.801923
_cell_length_b 22.073674
_cell_length_c 15.557676
_cell_angle_alpha 90.000000
_cell_angle_beta 31.935818
_cell_angle_gamma 90.000000
_cell_volume 1598.921343
_symmetry_space_group_name_H-M "P 21/M"
_symmetry_group_IT_number 11
_symmetry_cell_setting 'monoclinic'
loop_
_space_group_symop_operation_xyz
x,y,z
-x,1/2+y,-z
-x,-y,-z
x,1/2-y,z
loop_
_atom_site_type_symbol
_atom_site_label
_atom_site_fract_x
_atom_site_fract_y
_atom_site_fract_z
Si Si1 0.747833 0.455350 0.847463
Si Si2 0.034468 0.321660 0.500000
Si Si3 0.153927 0.459930 0.500000
Si Si4 0.350252 0.182388 0.820019
Si Si5 0.770505 0.880550 0.953325
Si Si6 0.130479 0.880550 0.046675
Si Si7 0.790220 0.044649 0.152538
Si Si8 0.310309 0.317612 0.179981
O O1 0.883228 0.426111 0.867307
O O2 0.990957 0.477300 0.666129
O O3 0.500000 0.500000 0.000000
O O4 0.549530 0.408443 0.889278
O O5 0.098354 0.250000 0.500000
O O6 0.130738 0.385393 0.500000
O O7 0.165273 0.325281 0.341726
O O8 0.690451 0.325281 0.658274
O O9 0.489343 0.477300 0.333872
O O10 0.000000 0.500000 0.500000
O O11 0.281291 0.250000 0.825391
O O12 0.179457 0.138759 0.838158
O O13 0.231763 0.171120 0.973083
O O14 0.806069 0.861241 0.838158
O O15 0.014851 0.926111 0.867307
O O16 0.282638 0.908443 0.889277
O O17 0.348987 0.828880 0.973083
O O18 0.000000 0.000000 0.000000
O O19 0.257465 0.250000 0.174609
#
# Coordination Sequence:
#
# PCOD9163715 Si02
#       8
#     4   4   4   4   4   4   4   4
#     4  11  23  41  61  92 128 171 215 273 323 396
#     4  10  22  41  62  92 129 168 216 269 329 401
#     4  12  24  41  67  96 130 177 223 270 343 391
#     4  10  20  37  61  89 121 163 211 265 323 391
#     4  10  21  37  61  86 127 158 214 260 330 383
#     4  10  21  37  61  86 127 158 214 260 330 383
#     4  11  23  41  61  92 128 171 215 273 323 396
#     4  10  20  37  61  89 121 163 211 265 323 391
#
# _framework density 20.013493
#
# number of rings (size 3 to 8) (size 9 to 14) (size 15 to 20)
#    0.000    1.500    2.500    3.000    3.500    1.000 
#    0.000    3.750    0.000    0.000    0.000    0.000 
#    0.000    0.000    0.000    0.000    0.000    0.000 
#
# Total GULP energy -178353.355644 kJ/mol
# GULP energy per Si atom -5573.542364 kJ/mol
# Density = 1.996794 g / cm^3
# Si number density = 20.013493 Si / 1000 Ang^3
#
#
#
# Elastic Constant Matrix: (Units=GPa)
#
#
# Indices 1 2 3 4 5 6 
#
# 1 67.8438 13.4629 14.6860 0.0000 0.3283 0.0000
# 2 13.4629 69.7023 27.4769 0.0000 -0.4492 0.0000
# 3 14.6860 27.4769 109.9927 0.0000 -1.6793 0.0000
# 4 0.0000 0.0000 0.0000 26.3049 0.0000 0.0486
# 5 0.3283 -0.4492 -1.6793 0.0000 21.5223 0.0000
# 6 0.0000 0.0000 0.0000 0.0486 0.0000 27.8215
#
#
#
# Elastic Compliance Matrix: (Units=1/GPa)
#
#
# Indices 1 2 3 4 5 6 
#
# 1 0.015542 -0.002423 -0.001476 0.000000 -0.000403 0.000000
# 2 -0.002423 0.016291 -0.003745 0.000000 0.000085 0.000000
# 3 -0.001476 -0.003745 0.010235 0.000000 0.000743 0.000000
# 4 0.000000 0.000000 0.000000 0.038016 0.000000 -0.000066
# 5 -0.000403 0.000085 0.000743 0.000000 0.046529 0.000000
# 6 0.000000 0.000000 0.000000 -0.000066 0.000000 0.035944
#
#
# Mechanical properties :
#
#
# Convention : Reuss Voigt Hill
#
# Bulk Modulus (GPa) = 37.33914 39.86559 38.60237
# Shear Modulus (GPa) = 26.77059 27.92394 27.34726
#
# Velocity S-wave (km/s) = 3.66133 3.73936 3.70055
# Velocity P-wave (km/s) = 6.04742 6.21340 6.13097
#
# Compressibility (1/GPa) = 0.02678155
#
# Stress axis : x y z
#
# Youngs Moduli (GPa) = 64.34194 61.38184 97.69962
#
# Poissons Ratio (x) = 0.14870 0.14421
# Poissons Ratio (y) = 0.15588 0.36588
# Poissons Ratio (z) = 0.09498 0.22987
#
# Static dielectric constant tensor:
#      x y z
#    x 1.679660 0.000000 -0.000390 
#    y 0.000000 1.849140 0.000000 
#    z -0.000390 0.000000 1.691760 
# 
# From -- ./inp_files/23395.got.cif
#   From: 2010.05.17/outbox.cif.g08.bks.cpg/sg11_12_cif.got.tgz:23395.got - 2010.06.03 12:22:45.
