data_PCOD9163141
_publ_section_title
;
Structure prediction by ZEFSAII (Michael W. Deem and Ramdas Pophale) SiO2 
 PCOD9163141
Probable space group: P 21/M
;
_chemical_formula_sum "Si O2"
_cell_formula_units_Z 32
_cell_length_a 29.549826
_cell_length_b 9.390375
_cell_length_c 5.275767
_cell_angle_alpha 90.000000
_cell_angle_beta 77.723109
_cell_angle_gamma 90.000000
_cell_volume 1430.462403
_symmetry_space_group_name_H-M "P 21/M"
_symmetry_group_IT_number 11
_symmetry_cell_setting 'monoclinic'
loop_
_space_group_symop_operation_xyz
x,y,z
-x,1/2+y,-z
-x,-y,-z
x,1/2-y,z
loop_
_atom_site_type_symbol
_atom_site_label
_atom_site_fract_x
_atom_site_fract_y
_atom_site_fract_z
Si Si1 0.824614 0.901087 0.929508
Si Si2 0.778494 0.097896 0.663606
Si Si3 0.679971 0.093814 0.039221
Si Si4 0.451852 0.419265 0.586718
Si Si5 0.392924 0.419703 0.162715
Si Si6 0.949935 0.073476 0.603540
Si Si7 0.910076 0.920228 0.157888
Si Si8 0.730391 0.595724 0.318094
O O1 0.839790 0.750000 0.789533
O O2 0.856160 0.918830 0.138075
O O3 0.822895 0.038946 0.757234
O O4 0.770436 0.886357 0.059201
O O5 0.788484 0.250000 0.529556
O O6 0.733173 0.115111 0.893202
O O7 0.759298 0.987223 0.489009
O O8 0.660433 0.250000 0.120258
O O9 0.651400 0.013566 0.858142
O O10 0.686515 0.988755 0.266703
O O11 0.500000 0.500000 0.500000
O O12 0.459961 0.250000 0.557752
O O13 0.417550 0.457767 0.396483
O O14 0.428044 0.446960 0.885838
O O15 0.382604 0.250000 0.173189
O O16 0.950553 0.250000 0.603375
O O17 0.932923 0.006041 0.892639
O O18 0.000000 0.000000 0.500000
O O19 0.920947 0.005292 0.402454
O O20 0.924167 0.750000 0.154518
O O21 0.715888 0.750000 0.426632
#
# Coordination Sequence:
#
# PCOD9163141 Si02
#       8
#     4   4   4   4   4   4   4   4
#     4   9  21  39  59  86 119 162 211 253 308 373
#     4  10  21  36  56  84 121 159 201 256 309 359
#     4  10  22  38  55  83 118 156 203 253 305 359
#     4  10  22  40  62  88 119 152 195 244 302 363
#     4  10  22  39  60  89 120 155 199 248 297 362
#     4  12  26  46  70 100 134 173 218 269 333 398
#     4  11  24  44  70 100 135 174 219 274 326 390
#     4  10  20  36  59  84 116 161 206 251 304 366
#
# _framework density 22.370388999999999
#
# number of rings (size 3 to 8) (size 9 to 14) (size 15 to 20)
#    0.000    1.750    0.000    3.375    3.500    4.000 
#    0.000    0.000    0.000    0.000    0.000    0.000 
#    0.000    0.000    0.000    0.000    0.000    0.000 
#
# Total GULP energy -178511.175397 kJ/mol
# GULP energy per Si atom -5578.474231 kJ/mol
# Density = 2.231947 g / cm^3
# Si number density = 22.370389 Si / 1000 Ang^3
#
#
#
# Elastic Constant Matrix: (Units=GPa)
#
#
# Indices 1 2 3 4 5 6 
#
# 1 101.8823 39.1487 23.7872 0.0000 9.4899 0.0000
# 2 39.1487 164.8339 41.5004 0.0000 16.7429 0.0000
# 3 23.7872 41.5004 79.8368 0.0000 4.8712 0.0000
# 4 0.0000 0.0000 0.0000 30.0301 0.0000 21.6570
# 5 9.4899 16.7429 4.8712 0.0000 32.5776 0.0000
# 6 0.0000 0.0000 0.0000 21.6570 0.0000 60.3749
#
#
#
# Elastic Compliance Matrix: (Units=1/GPa)
#
#
# Indices 1 2 3 4 5 6 
#
# 1 0.011255 -0.001910 -0.002241 0.000000 -0.001962 0.000000
# 2 -0.001910 0.007623 -0.003218 0.000000 -0.002880 0.000000
# 3 -0.002241 -0.003218 0.014861 0.000000 0.000085 0.000000
# 4 0.000000 0.000000 0.000000 0.044920 0.000000 -0.016113
# 5 -0.001962 -0.002880 0.000085 0.000000 0.032735 0.000000
# 6 0.000000 0.000000 0.000000 -0.016113 0.000000 0.022343
#
#
# Mechanical properties :
#
#
# Convention : Reuss Voigt Hill
#
# Bulk Modulus (GPa) = 52.62655 61.71396 57.17025
# Shear Modulus (GPa) = 32.29797 40.73764 36.51780
#
# Velocity S-wave (km/s) = 3.80384 4.27201 4.04470
# Velocity P-wave (km/s) = 6.54740 7.20976 6.88655
#
# Compressibility (1/GPa) = 0.01900182
#
# Stress axis : x y z
#
# Youngs Moduli (GPa) = 88.84933 131.18241 67.29112
#
# Poissons Ratio (x) = 0.25050 0.15080
# Poissons Ratio (y) = 0.16966 0.21653
# Poissons Ratio (z) = 0.19912 0.42212
#
# Static dielectric constant tensor:
#      x y z
#    x 1.824240 0.000000 -0.070930 
#    y 0.000000 1.686000 0.000000 
#    z -0.070930 0.000000 1.890100 
# 
# From -- ./inp_files/9673.got.cif
#   From: 2010.05.17/outbox.cif.g08.bks.cpg/sg11_5_cif.got.tgz:9673.got - 2010.06.03 12:22:45.
