data_PCOD9163891
_publ_section_title
;
Structure prediction by ZEFSAII (Michael W. Deem and Ramdas Pophale) SiO2 
 PCOD9163891
Probable space group: P 21/M
;
_chemical_formula_sum "Si O2"
_cell_formula_units_Z 32
_cell_length_a 13.207265
_cell_length_b 7.858366
_cell_length_c 14.590364
_cell_angle_alpha 90.000000
_cell_angle_beta 96.015859
_cell_angle_gamma 90.000000
_cell_volume 1505.958376
_symmetry_space_group_name_H-M "P 21/M"
_symmetry_group_IT_number 11
_symmetry_cell_setting 'monoclinic'
loop_
_space_group_symop_operation_xyz
x,y,z
-x,1/2+y,-z
-x,-y,-z
x,1/2-y,z
loop_
_atom_site_type_symbol
_atom_site_label
_atom_site_fract_x
_atom_site_fract_y
_atom_site_fract_z
Si Si1 0.605143 0.453880 0.060470
Si Si2 0.993910 0.956159 0.704358
Si Si3 0.599336 0.041573 0.710965
Si Si4 0.043039 0.450108 0.102227
Si Si5 0.275181 0.544862 0.100755
Si Si6 0.820077 0.449341 0.397089
Si Si7 0.623485 0.550831 0.272329
Si Si8 0.221728 0.544687 0.404090
O O1 0.610939 0.250000 0.070752
O O2 0.613939 0.530761 0.161942
O O3 0.500000 0.500000 0.000000
O O4 0.691615 0.512799 0.997072
O O5 0.001932 0.750000 0.706050
O O6 0.007253 0.021979 0.809742
O O7 0.080157 0.022677 0.643311
O O8 0.880855 0.000993 0.660364
O O9 0.597821 0.250000 0.711076
O O10 0.646635 0.987234 0.813238
O O11 0.482523 0.985020 0.694394
O O12 0.677500 0.984082 0.639836
O O13 0.029662 0.250000 0.106796
O O14 0.162236 0.491828 0.115533
O O15 0.000000 0.500000 0.000000
O O16 0.278950 0.750000 0.100424
O O17 0.841859 0.250000 0.415001
O O18 0.723354 0.463550 0.321555
O O19 0.791915 0.522229 0.493923
O O20 0.632665 0.750000 0.294942
O O21 0.230375 0.750000 0.407426
#
# Coordination Sequence:
#
# PCOD9163891 Si02
#       8
#     4   4   4   4   4   4   4   4
#     4  11  22  37  59  85 116 154 193 235 286 345
#     4  10  22  40  60  85 121 153 188 243 300 346
#     4   9  18  36  60  87 118 151 191 242 293 341
#     4  11  24  39  57  86 120 156 195 239 292 351
#     4  10  20  38  60  82 116 155 190 240 296 344
#     4  10  23  41  59  86 120 156 194 241 299 350
#     4  11  23  40  59  86 121 158 198 242 293 349
#     4  10  20  38  66  89 111 150 200 243 290 355
#
# _framework density 21.248926000000001
#
# number of rings (size 3 to 8) (size 9 to 14) (size 15 to 20)
#    0.000    1.750    2.500    1.500    1.750    3.000 
#    0.000    1.250    0.000    0.000    0.000    0.000 
#    0.000    0.000    0.000    0.000    0.000    0.000 
#
# Total GULP energy -178762.208467 kJ/mol
# GULP energy per Si atom -5586.319015 kJ/mol
# Density = 2.120056 g / cm^3
# Si number density = 21.248926 Si / 1000 Ang^3
#
#
#
# Elastic Constant Matrix: (Units=GPa)
#
#
# Indices 1 2 3 4 5 6 
#
# 1 129.6524 -20.6710 19.6220 0.0000 -49.7386 0.0000
# 2 -20.6710 24.6248 -1.8963 0.0000 -6.5627 0.0000
# 3 19.6220 -1.8963 123.6582 0.0000 -30.3109 0.0000
# 4 0.0000 0.0000 0.0000 17.2091 0.0000 4.4207
# 5 -49.7386 -6.5627 -30.3109 0.0000 44.6496 0.0000
# 6 0.0000 0.0000 0.0000 4.4207 0.0000 24.1083
#
#
#
# Elastic Compliance Matrix: (Units=1/GPa)
#
#
# Indices 1 2 3 4 5 6 
#
# 1 0.027377 0.033948 0.005848 0.000000 0.039458 0.000000
# 2 0.033948 0.085071 0.009900 0.000000 0.057041 0.000000
# 3 0.005848 0.009900 0.011113 0.000000 0.015514 0.000000
# 4 0.000000 0.000000 0.000000 0.060981 0.000000 -0.011182
# 5 0.039458 0.057041 0.015514 0.000000 0.085268 0.000000
# 6 0.000000 0.000000 0.000000 -0.011182 0.000000 0.043530
#
#
# Mechanical properties :
#
#
# Convention : Reuss Voigt Hill
#
# Bulk Modulus (GPa) = 4.48526 30.22721 17.35624
# Shear Modulus (GPa) = 17.34504 35.91877 26.63190
#
# Velocity S-wave (km/s) = 2.86016 4.11588 3.54408
# Velocity P-wave (km/s) = 3.60870 6.06988 4.99331
#
# Compressibility (1/GPa) = 0.22295229
#
# Stress axis : x y z
#
# Youngs Moduli (GPa) = 36.52648 11.75494 89.98088
#
# Poissons Ratio (x) = -0.39905 -0.52622
# Poissons Ratio (y) = -1.23999 -0.89077
# Poissons Ratio (z) = -0.21361 -0.11637
#
# Static dielectric constant tensor:
#      x y z
#    x 1.742640 0.000000 -0.039140 
#    y 0.000000 1.806420 0.000000 
#    z -0.039140 0.000000 1.785700 
# 
# From -- ./inp_files/49340.got.cif
#   From: 2010.05.17/outbox.cif.g08.bks.cpg/sg11_25_cif.got.tgz:49340.got - 2010.06.03 12:22:45.
