data_PCOD9163416
_publ_section_title
;
Structure prediction by ZEFSAII (Michael W. Deem and Ramdas Pophale) SiO2 
 PCOD9163416
Probable space group: P 21/M
;
_chemical_formula_sum "Si O2"
_cell_formula_units_Z 28
_cell_length_a 15.839700
_cell_length_b 14.190892
_cell_length_c 9.427807
_cell_angle_alpha 90.000000
_cell_angle_beta 131.646225
_cell_angle_gamma 90.000000
_cell_volume 1583.581238
_symmetry_space_group_name_H-M "P 21/M"
_symmetry_group_IT_number 11
_symmetry_cell_setting 'monoclinic'
loop_
_space_group_symop_operation_xyz
x,y,z
-x,1/2+y,-z
-x,-y,-z
x,1/2-y,z
loop_
_atom_site_type_symbol
_atom_site_label
_atom_site_fract_x
_atom_site_fract_y
_atom_site_fract_z
Si Si1 0.799619 0.637228 0.991857
Si Si2 0.841601 0.853934 0.491133
Si Si3 0.585213 0.358935 0.100066
Si Si4 0.209120 0.855977 0.467713
Si Si5 0.997759 0.103063 0.565641
Si Si6 0.124575 0.026655 0.193566
Si Si7 0.654818 0.942829 0.080622
O O1 0.788714 0.750000 0.960537
O O2 0.915637 0.617079 0.207724
O O3 0.702700 0.597101 0.986723
O O4 0.809057 0.580149 0.856792
O O5 0.793218 0.750000 0.464006
O O6 0.947561 0.843055 0.504476
O O7 0.879809 0.904112 0.676570
O O8 0.749609 0.916822 0.304420
O O9 0.589924 0.250000 0.052951
O O10 0.666209 0.363336 0.328137
O O11 0.630352 0.444983 0.052291
O O12 0.458888 0.388613 0.001823
O O13 0.189701 0.750000 0.392931
O O14 0.122961 0.871685 0.504118
O O15 0.183250 0.932825 0.319910
O O16 0.000000 0.000000 0.500000
O O17 0.000000 0.000000 0.000000
#
# Coordination Sequence:
#
# PCOD9163416 Si02
#       7
#     4   4   4   4   4   4   4
#     4  11  22  37  58  83 116 154 191 236 291 341
#     4  11  21  35  58  85 112 144 193 244 285 330
#     4  10  20  36  63  90 116 150 188 238 296 342
#     4  11  21  36  56  81 116 155 189 228 292 353
#     4  11  18  34  55  83 112 145 187 239 285 338
#     4  12  23  37  53  83 119 151 192 234 287 344
#     4  10  20  39  63  90 114 145 196 245 282 339
#
# _framework density 17.681442000000001
#
# number of rings (size 3 to 8) (size 9 to 14) (size 15 to 20)
#    0.000    1.143    4.286    4.714    0.000    0.571 
#    0.000    1.429    0.000    0.000    0.000    0.000 
#    0.000    0.000    0.000    0.000    0.000    0.000 
#
# Total GULP energy -156160.003564 kJ/mol
# GULP energy per Si atom -5577.142984 kJ/mol
# Density = 1.764120 g / cm^3
# Si number density = 17.681442 Si / 1000 Ang^3
#
#
#
# Elastic Constant Matrix: (Units=GPa)
#
#
# Indices 1 2 3 4 5 6 
#
# 1 93.5323 52.9800 57.1813 0.0000 -8.8911 0.0000
# 2 52.9800 182.6579 42.2021 0.0000 -9.2599 0.0000
# 3 57.1813 42.2021 71.8537 0.0000 -11.0325 0.0000
# 4 0.0000 0.0000 0.0000 116.5118 0.0000 -38.9542
# 5 -8.8911 -9.2599 -11.0325 0.0000 31.4082 0.0000
# 6 0.0000 0.0000 0.0000 -38.9542 0.0000 38.8304
#
#
#
# Elastic Compliance Matrix: (Units=1/GPa)
#
#
# Indices 1 2 3 4 5 6 
#
# 1 0.021909 -0.002695 -0.015879 0.000000 -0.000170 0.000000
# 2 -0.002695 0.006676 -0.001682 0.000000 0.000615 0.000000
# 3 -0.015879 -0.001682 0.028302 0.000000 0.004950 0.000000
# 4 0.000000 0.000000 0.000000 0.012914 0.000000 0.012955
# 5 -0.000170 0.000615 0.004950 0.000000 0.033711 0.000000
# 6 0.000000 0.000000 0.000000 0.012955 0.000000 0.038750
#
#
# Mechanical properties :
#
#
# Convention : Reuss Voigt Hill
#
# Bulk Modulus (GPa) = 61.06708 72.53008 66.79858
# Shear Modulus (GPa) = 26.56288 50.39545 38.47916
#
# Velocity S-wave (km/s) = 3.88016 5.34451 4.67009
# Velocity P-wave (km/s) = 7.39504 8.89913 8.18172
#
# Compressibility (1/GPa) = 0.01637543
#
# Stress axis : x y z
#
# Youngs Moduli (GPa) = 45.64262 149.78672 35.33340
#
# Poissons Ratio (x) = 0.40363 0.56106
# Poissons Ratio (y) = 0.12299 0.05944
# Poissons Ratio (z) = 0.72476 0.25199
#
# Static dielectric constant tensor:
#      x y z
#    x 1.583570 0.000000 0.024600 
#    y 0.000000 1.639060 0.000000 
#    z 0.024600 0.000000 1.566390 
# 
# From -- ./inp_files/22257.got.cif
#   From: 2010.05.17/outbox.cif.g08.bks.cpg/sg11_12_cif.got.tgz:22257.got - 2010.06.03 12:22:45.
