data_PCOD9163881
_publ_section_title
;
Structure prediction by ZEFSAII (Michael W. Deem and Ramdas Pophale) SiO2 
 PCOD9163881
Probable space group: P 21/M
;
_chemical_formula_sum "Si O2"
_cell_formula_units_Z 30
_cell_length_a 21.530239
_cell_length_b 9.497636
_cell_length_c 12.184145
_cell_angle_alpha 90.000000
_cell_angle_beta 32.533841
_cell_angle_gamma 90.000000
_cell_volume 1339.918345
_symmetry_space_group_name_H-M "P 21/M"
_symmetry_group_IT_number 11
_symmetry_cell_setting 'monoclinic'
loop_
_space_group_symop_operation_xyz
x,y,z
-x,1/2+y,-z
-x,-y,-z
x,1/2-y,z
loop_
_atom_site_type_symbol
_atom_site_label
_atom_site_fract_x
_atom_site_fract_y
_atom_site_fract_z
Si Si1 0.660122 0.585085 0.178963
Si Si2 0.002573 0.973410 0.850756
Si Si3 0.281007 0.589872 0.104666
Si Si4 0.047037 0.250000 0.919906
Si Si5 0.386481 0.587161 0.540418
Si Si6 0.027071 0.591826 0.565326
Si Si7 0.387578 0.416952 0.131041
Si Si8 0.735017 0.093087 0.513547
O O1 0.690567 0.750000 0.129200
O O2 0.525987 0.571535 0.337215
O O3 0.661863 0.520774 0.298033
O O4 0.735493 0.485528 0.987433
O O5 0.916127 0.874020 0.045595
O O6 0.991847 0.966407 0.736066
O O7 0.126716 0.902441 0.698232
O O8 0.007519 0.127545 0.891317
O O9 0.326468 0.750000 0.024172
O O10 0.165885 0.600484 0.349043
O O11 0.358444 0.481740 0.057095
O O12 0.361973 0.750000 0.609310
O O13 0.329976 0.568241 0.504714
O O14 0.980294 0.750000 0.623474
O O15 0.000000 0.500000 0.500000
O O16 0.398984 0.250000 0.111299
O O17 0.294383 0.468016 0.359364
O O18 0.500000 0.500000 0.000000
O O19 0.696963 0.250000 0.609948
#
# Coordination Sequence:
#
# PCOD9163881 Si02
#       8
#     4   4   4   2   4   4   4   4
#     4  10  20  38  59  88 128 167 214 261 310 379
#     4  11  22  46  68  98 132 168 219 280 348 405
#     4  11  23  42  65  91 126 170 214 264 323 386
#     4  10  24  42  72  98 126 170 210 276 344 408
#     4   9  20  37  60  87 122 169 210 257 315 377
#     4  11  25  45  68  95 131 175 221 277 339 405
#     4  12  25  39  63  97 132 171 214 262 318 388
#     4  11  21  39  65  92 128 166 211 267 328 390
#
# _framework density 22.389424000000002
#
# number of rings (size 3 to 8) (size 9 to 14) (size 15 to 20)
#    0.000    1.333    2.667    2.800    1.867    3.200 
#    4.800    0.000    0.000    0.000    0.000    0.000 
#    0.000    0.000    0.000    0.000    0.000    0.000 
#
# Total GULP energy -167167.383422 kJ/mol
# GULP energy per Si atom -5572.246114 kJ/mol
# Density = 2.233846 g / cm^3
# Si number density = 22.389424 Si / 1000 Ang^3
#
#
#
# Elastic Constant Matrix: (Units=GPa)
#
#
# Indices 1 2 3 4 5 6 
#
# 1 104.6960 53.9852 20.4836 0.0000 32.5217 0.0000
# 2 53.9852 228.6891 51.3400 0.0000 40.3052 0.0000
# 3 20.4836 51.3400 45.5654 0.0000 31.2835 0.0000
# 4 0.0000 0.0000 0.0000 53.0464 0.0000 14.4178
# 5 32.5217 40.3052 31.2835 0.0000 46.1788 0.0000
# 6 0.0000 0.0000 0.0000 14.4178 0.0000 27.4815
#
#
#
# Elastic Compliance Matrix: (Units=1/GPa)
#
#
# Indices 1 2 3 4 5 6 
#
# 1 0.012926 -0.002065 0.002857 0.000000 -0.009237 0.000000
# 2 -0.002065 0.006219 -0.006264 0.000000 0.000270 0.000000
# 3 0.002857 -0.006264 0.047389 0.000000 -0.028648 0.000000
# 4 0.000000 0.000000 0.000000 0.021987 0.000000 -0.011535
# 5 -0.009237 0.000270 -0.028648 0.000000 0.047332 0.000000
# 6 0.000000 0.000000 0.000000 -0.011535 0.000000 0.042440
#
#
# Mechanical properties :
#
#
# Convention : Reuss Voigt Hill
#
# Bulk Modulus (GPa) = 17.98860 70.06312 44.02586
# Shear Modulus (GPa) = 24.06554 42.21745 33.14150
#
# Velocity S-wave (km/s) = 3.28207 4.34706 3.85155
# Velocity P-wave (km/s) = 4.73439 7.52042 6.28376
#
# Compressibility (1/GPa) = 0.05559076
#
# Stress axis : x y z
#
# Youngs Moduli (GPa) = 77.36068 160.79984 21.10213
#
# Poissons Ratio (x) = 0.33205 -0.06030
# Poissons Ratio (y) = 0.15975 0.13218
# Poissons Ratio (z) = -0.22105 1.00726
#
# Static dielectric constant tensor:
#      x y z
#    x 1.872870 0.000000 -0.018550 
#    y 0.000000 1.798680 0.000000 
#    z -0.018550 0.000000 2.216730 
# 
# From -- ./inp_files/43953.got.cif
#   From: 2010.05.17/outbox.cif.g08.bks.cpg/sg11_22_cif.got.tgz:43953.got - 2010.06.03 12:22:45.
