data_PCOD9163171
_publ_section_title
;
Structure prediction by ZEFSAII (Michael W. Deem and Ramdas Pophale) SiO2 
 PCOD9163171
Probable space group: P 21/M
;
_chemical_formula_sum "Si O2"
_cell_formula_units_Z 28
_cell_length_a 8.404489
_cell_length_b 9.463199
_cell_length_c 26.345577
_cell_angle_alpha 90.000000
_cell_angle_beta 137.383414
_cell_angle_gamma 90.000000
_cell_volume 1418.739878
_symmetry_space_group_name_H-M "P 21/M"
_symmetry_group_IT_number 11
_symmetry_cell_setting 'monoclinic'
loop_
_space_group_symop_operation_xyz
x,y,z
-x,1/2+y,-z
-x,-y,-z
x,1/2-y,z
loop_
_atom_site_type_symbol
_atom_site_label
_atom_site_fract_x
_atom_site_fract_y
_atom_site_fract_z
Si Si1 0.176125 0.914142 0.076370
Si Si2 0.247219 0.471857 0.674481
Si Si3 0.867634 0.910971 0.725148
Si Si4 0.276405 0.400740 0.193747
Si Si5 0.409765 0.412149 0.599338
Si Si6 0.710346 0.598467 0.202461
Si Si7 0.725247 0.076641 0.526998
O O1 0.113291 0.750000 0.062992
O O2 0.446825 0.925355 0.121319
O O3 0.189544 0.978861 0.135908
O O4 0.000000 0.000000 0.000000
O O5 0.444532 0.592460 0.727935
O O6 0.314110 0.411852 0.634628
O O7 0.298646 0.390459 0.738588
O O8 0.965865 0.483934 0.607670
O O9 0.823149 0.750000 0.696510
O O10 0.847374 0.909810 0.781155
O O11 0.670961 0.021720 0.660645
O O12 0.119161 0.969858 0.768984
O O13 0.225975 0.250000 0.157132
O O14 0.405831 0.250000 0.579653
O O15 0.271822 0.519444 0.530237
O O16 0.800370 0.750000 0.203739
O O17 0.719468 0.250000 0.528764
O O18 0.500000 0.000000 0.500000
#
# Coordination Sequence:
#
# PCOD9163171 Si02
#       7
#     4   4   4   4   4   4   4
#     4  10  21  37  60  88 118 150 188 229 275 331
#     4  10  22  38  59  83 109 144 189 236 282 335
#     4  10  21  37  57  85 116 148 188 234 281 333
#     4   9  20  38  61  86 114 147 187 233 280 333
#     4  11  22  38  59  81 110 149 189 235 287 337
#     4  10  20  36  59  86 113 146 187 232 278 331
#     4  12  25  40  57  81 113 148 189 237 286 338
#
# _framework density 19.735823
#
# number of rings (size 3 to 8) (size 9 to 14) (size 15 to 20)
#    0.000    1.714    0.000    4.286    0.000    9.143 
#    0.000    0.714    0.000    0.000    0.000    0.000 
#    0.000    0.000    0.000    0.000    0.000    0.000 
#
# Total GULP energy -156013.316851 kJ/mol
# GULP energy per Si atom -5571.904173 kJ/mol
# Density = 1.969090 g / cm^3
# Si number density = 19.735823 Si / 1000 Ang^3
#
#
#
# Elastic Constant Matrix: (Units=GPa)
#
#
# Indices 1 2 3 4 5 6 
#
# 1 73.9685 43.4692 27.4181 0.0000 9.0194 0.0000
# 2 43.4692 114.5011 45.8605 0.0000 0.7939 0.0000
# 3 27.4181 45.8605 123.8228 0.0000 10.2474 0.0000
# 4 0.0000 0.0000 0.0000 13.4961 0.0000 -7.9601
# 5 9.0194 0.7939 10.2474 0.0000 16.4984 0.0000
# 6 0.0000 0.0000 0.0000 -7.9601 0.0000 5.9771
#
#
#
# Elastic Compliance Matrix: (Units=1/GPa)
#
#
# Indices 1 2 3 4 5 6 
#
# 1 0.019001 -0.006783 -0.000909 0.000000 -0.009496 0.000000
# 2 -0.006783 0.012737 -0.003660 0.000000 0.005369 0.000000
# 3 -0.000909 -0.003660 0.010096 0.000000 -0.005598 0.000000
# 4 0.000000 0.000000 0.000000 0.345408 0.000000 0.460003
# 5 -0.009496 0.005369 -0.005598 0.000000 0.069022 0.000000
# 6 0.000000 0.000000 0.000000 0.460003 0.000000 0.779922
#
#
# Mechanical properties :
#
#
# Convention : Reuss Voigt Hill
#
# Bulk Modulus (GPa) = 52.27517 60.64312 56.45915
# Shear Modulus (GPa) = 3.95173 20.23062 12.09118
#
# Velocity S-wave (km/s) = 1.41657 3.20515 2.47786
# Velocity P-wave (km/s) = 5.40560 6.67019 6.07091
#
# Compressibility (1/GPa) = 0.01912954
#
# Stress axis : x y z
#
# Youngs Moduli (GPa) = 52.62990 78.50864 99.04822
#
# Poissons Ratio (x) = 0.53256 0.09003
# Poissons Ratio (y) = 0.35701 0.36250
# Poissons Ratio (z) = 0.04784 0.28733
#
# Static dielectric constant tensor:
#      x y z
#    x 1.717290 0.000000 0.004300 
#    y 0.000000 1.707210 0.000000 
#    z 0.004300 0.000000 1.682970 
# 
# From -- ./inp_files/70891.got.cif
#   From: 2010.05.17/outbox.cif.g08.bks.cpg/sg11_36_cif.got.tgz:70891.got - 2010.06.03 12:22:45.
