data_PCOD9163785
_publ_section_title
;
Structure prediction by ZEFSAII (Michael W. Deem and Ramdas Pophale) SiO2 
 PCOD9163785
Probable space group: P 21/M
;
_chemical_formula_sum "Si O2"
_cell_formula_units_Z 32
_cell_length_a 15.943731
_cell_length_b 14.690151
_cell_length_c 10.217587
_cell_angle_alpha 90.000000
_cell_angle_beta 34.690527
_cell_angle_gamma 90.000000
_cell_volume 1362.029170
_symmetry_space_group_name_H-M "P 21/M"
_symmetry_group_IT_number 11
_symmetry_cell_setting 'monoclinic'
loop_
_space_group_symop_operation_xyz
x,y,z
-x,1/2+y,-z
-x,-y,-z
x,1/2-y,z
loop_
_atom_site_type_symbol
_atom_site_label
_atom_site_fract_x
_atom_site_fract_y
_atom_site_fract_z
Si Si1 0.983668 0.647818 0.773796
Si Si2 0.414471 0.462924 0.924984
Si Si3 0.904194 0.590061 0.595018
Si Si4 0.733725 0.037157 0.506973
Si Si5 0.884203 0.851704 0.333757
Si Si6 0.335920 0.359149 0.758352
Si Si7 0.205224 0.854902 0.824130
Si Si8 0.425450 0.644763 0.772085
O O1 0.020746 0.750000 0.769417
O O2 0.934312 0.648395 0.685747
O O3 0.124154 0.584036 0.610182
O O4 0.836221 0.615550 0.038294
O O5 0.575962 0.439338 0.771644
O O6 0.394291 0.414032 0.808946
O O7 0.417028 0.570520 0.894987
O O8 0.269123 0.434618 0.188605
O O9 0.938646 0.637656 0.414229
O O10 0.000000 0.500000 0.500000
O O11 0.732226 0.077469 0.362990
O O12 0.767600 0.930508 0.460340
O O13 0.826471 0.750000 0.385278
O O14 0.030171 0.865400 0.060134
O O15 0.338614 0.250000 0.782272
O O16 0.439319 0.373758 0.501125
O O17 0.239982 0.750000 0.743091
O O18 0.281628 0.869120 0.865486
O O19 0.431457 0.750000 0.806360
#
# Coordination Sequence:
#
# PCOD9163785 Si02
#       8
#     4   4   4   4   4   4   4   4
#     4  10  22  40  66  98 128 170 221 270 324 387
#     4  11  24  38  68  95 130 168 221 268 330 382
#     4  11  22  46  72  90 122 173 230 275 313 381
#     4  12  24  40  66  99 138 168 206 272 337 392
#     4  11  25  44  65  93 133 178 220 262 322 391
#     4   9  19  36  61  91 128 170 216 261 317 387
#     4  10  22  40  66  99 132 169 214 270 331 389
#     4  10  20  37  62  95 133 172 218 270 322 387
#
# _framework density 23.494357999999998
#
# number of rings (size 3 to 8) (size 9 to 14) (size 15 to 20)
#    0.000    1.500    2.500    2.250    1.750    3.000 
#    0.000    3.125    0.000    0.000    0.000    0.000 
#    0.000    0.000    0.000    0.000    0.000    0.000 
#
# Total GULP energy -179222.462347 kJ/mol
# GULP energy per Si atom -5600.701948 kJ/mol
# Density = 2.344088 g / cm^3
# Si number density = 23.494358 Si / 1000 Ang^3
#
#
#
# Elastic Constant Matrix: (Units=GPa)
#
#
# Indices 1 2 3 4 5 6 
#
# 1 59.3489 23.1812 31.0929 0.0000 -25.0072 0.0000
# 2 23.1812 86.1121 42.7794 0.0000 -14.1473 0.0000
# 3 31.0929 42.7794 113.5176 0.0000 -31.2707 0.0000
# 4 0.0000 0.0000 0.0000 19.4335 0.0000 -0.1325
# 5 -25.0072 -14.1473 -31.2707 0.0000 45.4647 0.0000
# 6 0.0000 0.0000 0.0000 -0.1325 0.0000 23.7311
#
#
#
# Elastic Compliance Matrix: (Units=1/GPa)
#
#
# Indices 1 2 3 4 5 6 
#
# 1 0.023841 -0.003554 -0.002323 0.000000 0.010410 0.000000
# 2 -0.003554 0.014848 -0.004797 0.000000 -0.000633 0.000000
# 3 -0.002323 -0.004797 0.012942 0.000000 0.006131 0.000000
# 4 0.000000 0.000000 0.000000 0.051460 0.000000 0.000287
# 5 0.010410 -0.000633 0.006131 0.000000 0.031741 0.000000
# 6 0.000000 0.000000 0.000000 0.000287 0.000000 0.042140
#
#
# Mechanical properties :
#
#
# Convention : Reuss Voigt Hill
#
# Bulk Modulus (GPa) = 33.02081 50.34283 41.68182
# Shear Modulus (GPa) = 23.99071 28.52086 26.25578
#
# Velocity S-wave (km/s) = 3.19897 3.48795 3.34658
# Velocity P-wave (km/s) = 5.26592 6.13964 5.71949
#
# Compressibility (1/GPa) = 0.03028393
#
# Stress axis : x y z
#
# Youngs Moduli (GPa) = 41.94471 67.34784 77.26653
#
# Poissons Ratio (x) = 0.23932 0.17952
# Poissons Ratio (y) = 0.14905 0.37063
# Poissons Ratio (z) = 0.09746 0.32305
#
# Static dielectric constant tensor:
#      x y z
#    x 1.903190 0.000000 -0.014660 
#    y 0.000000 1.854500 0.000000 
#    z -0.014660 0.000000 1.863400 
# 
# From -- ./inp_files/41620.got.cif
#   From: 2010.05.17/outbox.cif.g08.bks.cpg/sg11_21_cif.got.tgz:41620.got - 2010.06.03 12:22:45.
