data_PCOD9163260
_publ_section_title
;
Structure prediction by ZEFSAII (Michael W. Deem and Ramdas Pophale) SiO2 
 PCOD9163260
Probable space group: P 21/M
;
_chemical_formula_sum "Si O2"
_cell_formula_units_Z 28
_cell_length_a 5.763960
_cell_length_b 11.685104
_cell_length_c 18.917938
_cell_angle_alpha 90.000000
_cell_angle_beta 100.709066
_cell_angle_gamma 90.000000
_cell_volume 1251.978191
_symmetry_space_group_name_H-M "P 21/M"
_symmetry_group_IT_number 11
_symmetry_cell_setting 'monoclinic'
loop_
_space_group_symop_operation_xyz
x,y,z
-x,1/2+y,-z
-x,-y,-z
x,1/2-y,z
loop_
_atom_site_type_symbol
_atom_site_label
_atom_site_fract_x
_atom_site_fract_y
_atom_site_fract_z
Si Si1 0.990335 0.473436 0.106530
Si Si2 0.248568 0.876841 0.478456
Si Si3 0.184530 0.750000 0.860192
Si Si4 0.669925 0.889886 0.992115
Si Si5 0.828202 0.955025 0.727866
Si Si6 0.512159 0.621421 0.361313
Si Si7 0.898481 0.450052 0.385362
Si Si8 0.622605 0.750000 0.778102
O O1 0.807207 0.366727 0.095664
O O2 0.217255 0.423361 0.077666
O O3 0.047443 0.490716 0.192193
O O4 0.883471 0.582072 0.060198
O O5 0.147510 0.750000 0.454136
O O6 0.488027 0.883001 0.445894
O O7 0.101568 0.983385 0.440415
O O8 0.246966 0.882556 0.563043
O O9 0.403027 0.750000 0.818913
O O10 0.907260 0.750000 0.817089
O O11 0.618148 0.750000 0.991975
O O12 0.500000 0.000000 0.000000
O O13 0.618947 0.866850 0.734292
O O14 0.719360 0.065356 0.684667
O O15 0.991053 0.894463 0.677845
O O16 0.534137 0.750000 0.340445
O O17 0.730520 0.549368 0.348498
#
# Coordination Sequence:
#
# PCOD9163260 Si02
#       8
#     4   4   2   4   4   4   4   2
#     4  10  24  44  70  96 139 177 233 281 352 417
#     4   9  19  36  56  82 120 163 211 269 330 404
#     4  10  22  42  76  98 136 188 223 280 353 419
#     4  11  26  44  71 105 138 184 234 289 353 425
#     4  10  24  40  62  96 126 170 217 276 342 407
#     4  10  21  38  60  87 121 170 220 272 338 401
#     4  10  20  36  60  86 123 159 217 268 337 400
#     4  10  24  40  68 102 140 178 223 276 351 417
#
# _framework density 22.364605000000001
#
# number of rings (size 3 to 8) (size 9 to 14) (size 15 to 20)
#    0.000    2.000    0.714    0.857   10.000    1.714 
#    1.286    1.429    0.000    0.000    0.000    0.000 
#    0.000    0.000    0.000    0.000    0.000    0.000 
#
# Total GULP energy -155909.157112 kJ/mol
# GULP energy per Si atom -5568.184183 kJ/mol
# Density = 2.231370 g / cm^3
# Si number density = 22.364605 Si / 1000 Ang^3
#
#
#
# Elastic Constant Matrix: (Units=GPa)
#
#
# Indices 1 2 3 4 5 6 
#
# 1 77.7391 40.4851 31.6206 0.0000 -26.8025 0.0000
# 2 40.4851 124.4089 29.7946 0.0000 -5.9407 0.0000
# 3 31.6206 29.7946 124.3580 0.0000 -19.3837 0.0000
# 4 0.0000 0.0000 0.0000 22.6589 0.0000 0.3370
# 5 -26.8025 -5.9407 -19.3837 0.0000 44.3605 0.0000
# 6 0.0000 0.0000 0.0000 0.3370 0.0000 24.3071
#
#
#
# Elastic Compliance Matrix: (Units=1/GPa)
#
#
# Indices 1 2 3 4 5 6 
#
# 1 0.020297 -0.005579 -0.002178 0.000000 0.010565 0.000000
# 2 -0.005579 0.010064 -0.001403 0.000000 -0.002636 0.000000
# 3 -0.002178 -0.001403 0.009333 0.000000 0.002574 0.000000
# 4 0.000000 0.000000 0.000000 0.044142 0.000000 -0.000612
# 5 0.010565 -0.002636 0.002574 0.000000 0.029698 0.000000
# 6 0.000000 0.000000 0.000000 -0.000612 0.000000 0.041149
#
#
# Mechanical properties :
#
#
# Convention : Reuss Voigt Hill
#
# Bulk Modulus (GPa) = 46.78757 58.92297 52.85527
# Shear Modulus (GPa) = 27.75827 33.23903 30.49865
#
# Velocity S-wave (km/s) = 3.52685 3.85935 3.69684
# Velocity P-wave (km/s) = 6.12786 6.80171 6.47356
#
# Compressibility (1/GPa) = 0.02137320
#
# Stress axis : x y z
#
# Youngs Moduli (GPa) = 49.26765 99.36604 107.15238
#
# Poissons Ratio (x) = 0.55438 0.23333
# Poissons Ratio (y) = 0.27487 0.15039
# Poissons Ratio (z) = 0.10728 0.13946
#
# Static dielectric constant tensor:
#      x y z
#    x 1.931520 0.000000 0.022320 
#    y 0.000000 1.880800 0.000000 
#    z 0.022320 0.000000 1.894910 
# 
# From -- ./inp_files/62565.got.cif
#   From: 2010.05.17/outbox.cif.g08.bks.cpg/sg11_32_cif.got.tgz:62565.got - 2010.06.03 12:22:45.
