data_PCOD9163806
_publ_section_title
;
Structure prediction by ZEFSAII (Michael W. Deem and Ramdas Pophale) SiO2 
 PCOD9163806
Probable space group: P 21/M
;
_chemical_formula_sum "Si O2"
_cell_formula_units_Z 24
_cell_length_a 10.446927
_cell_length_b 13.729460
_cell_length_c 11.961044
_cell_angle_alpha 90.000000
_cell_angle_beta 41.317118
_cell_angle_gamma 90.000000
_cell_volume 1132.671014
_symmetry_space_group_name_H-M "P 21/M"
_symmetry_group_IT_number 11
_symmetry_cell_setting 'monoclinic'
loop_
_space_group_symop_operation_xyz
x,y,z
-x,1/2+y,-z
-x,-y,-z
x,1/2-y,z
loop_
_atom_site_type_symbol
_atom_site_label
_atom_site_fract_x
_atom_site_fract_y
_atom_site_fract_z
Si Si1 0.367436 0.368230 0.098467
Si Si2 0.511285 0.024710 0.362945
Si Si3 0.825511 0.868062 0.544292
Si Si4 0.288963 0.366293 0.898599
Si Si5 0.188002 0.631876 0.168676
Si Si6 0.892303 0.366896 0.031278
O O1 0.373529 0.250000 0.098147
O O2 0.282272 0.392832 0.033487
O O3 0.590731 0.401623 0.962806
O O4 0.239884 0.397591 0.288464
O O5 0.327317 0.084094 0.439989
O O6 0.702742 0.087715 0.211193
O O7 0.500000 0.000000 0.500000
O O8 0.540921 0.926156 0.272241
O O9 0.810541 0.750000 0.546852
O O10 0.039904 0.896298 0.363364
O O11 0.318587 0.250000 0.869814
O O12 0.089559 0.391953 0.966165
O O13 0.194841 0.750000 0.165295
O O14 0.106613 0.604315 0.100016
O O15 0.874593 0.250000 0.046829
#
# Coordination Sequence:
#
# PCOD9163806 Si02
#       6
#     4   4   4   4   4   4
#     4   9  18  38  62  88 123 163 201 248 308 364
#     4  12  24  38  60  91 125 160 209 255 304 360
#     4  10  20  37  63  93 121 158 210 254 298 365
#     4  10  23  41  61  87 125 164 199 251 315 363
#     4   9  17  34  64  91 118 157 203 250 297 356
#     4  10  20  40  66  89 117 160 203 251 307 359
#
# _framework density 21.188852000000001
#
# number of rings (size 3 to 8) (size 9 to 14) (size 15 to 20)
#    0.000    2.000    1.667    2.000    0.000    3.333 
#    3.000    0.833    0.000    0.000    0.000    0.000 
#    0.000    0.000    0.000    0.000    0.000    0.000 
#
# Total GULP energy -134251.517523 kJ/mol
# GULP energy per Si atom -5593.813230 kJ/mol
# Density = 2.114063 g / cm^3
# Si number density = 21.188852 Si / 1000 Ang^3
#
#
#
# Elastic Constant Matrix: (Units=GPa)
#
#
# Indices 1 2 3 4 5 6 
#
# 1 132.0537 41.4347 76.6943 0.0000 17.4059 0.0000
# 2 41.4347 83.9843 35.2376 0.0000 -3.5594 0.0000
# 3 76.6943 35.2376 190.3263 0.0000 19.9748 0.0000
# 4 0.0000 0.0000 0.0000 25.0069 0.0000 -3.4297
# 5 17.4059 -3.5594 19.9748 0.0000 36.5079 0.0000
# 6 0.0000 0.0000 0.0000 -3.4297 0.0000 34.7414
#
#
#
# Elastic Compliance Matrix: (Units=1/GPa)
#
#
# Indices 1 2 3 4 5 6 
#
# 1 0.011446 -0.004403 -0.003373 0.000000 -0.004041 0.000000
# 2 -0.004403 0.014864 -0.001432 0.000000 0.004332 0.000000
# 3 -0.003373 -0.001432 0.007134 0.000000 -0.002435 0.000000
# 4 0.000000 0.000000 0.000000 0.040538 0.000000 0.004002
# 5 -0.004041 0.004332 -0.002435 0.000000 0.031072 0.000000
# 6 0.000000 0.000000 0.000000 0.004002 0.000000 0.029179
#
#
# Mechanical properties :
#
#
# Convention : Reuss Voigt Hill
#
# Bulk Modulus (GPa) = 66.54655 79.23305 72.88980
# Shear Modulus (GPa) = 31.71408 36.11774 33.91591
#
# Velocity S-wave (km/s) = 3.87296 4.13311 4.00515
# Velocity P-wave (km/s) = 7.17456 7.76220 7.47416
#
# Compressibility (1/GPa) = 0.01502708
#
# Stress axis : x y z
#
# Youngs Moduli (GPa) = 87.36848 67.27736 140.17323
#
# Poissons Ratio (x) = 0.29622 0.47280
# Poissons Ratio (y) = 0.38468 0.20078
# Poissons Ratio (z) = 0.29469 0.09637
#
# Static dielectric constant tensor:
#      x y z
#    x 1.726860 0.000000 0.002160 
#    y 0.000000 1.801130 0.000000 
#    z 0.002160 0.000000 1.721890 
# 
# From -- ./inp_files/35388.got.cif
#   From: 2010.05.17/outbox.cif.g08.bks.cpg/sg11_18_cif.got.tgz:35388.got - 2010.06.03 12:22:45.
