data_PCOD9163319
_publ_section_title
;
Structure prediction by ZEFSAII (Michael W. Deem and Ramdas Pophale) SiO2 
 PCOD9163319
Probable space group: P 21/M
;
_chemical_formula_sum "Si O2"
_cell_formula_units_Z 20
_cell_length_a 21.760145
_cell_length_b 8.789596
_cell_length_c 13.675009
_cell_angle_alpha 90.000000
_cell_angle_beta 158.379806
_cell_angle_gamma 90.000000
_cell_volume 963.694789
_symmetry_space_group_name_H-M "P 21/M"
_symmetry_group_IT_number 11
_symmetry_cell_setting 'monoclinic'
loop_
_space_group_symop_operation_xyz
x,y,z
-x,1/2+y,-z
-x,-y,-z
x,1/2-y,z
loop_
_atom_site_type_symbol
_atom_site_label
_atom_site_fract_x
_atom_site_fract_y
_atom_site_fract_z
Si Si1 0.336647 0.931253 0.310868
Si Si2 0.087396 0.928885 0.768008
Si Si3 0.254393 0.073206 0.829257
Si Si4 0.184265 0.433353 0.279549
Si Si5 0.558802 0.572012 0.187480
O O1 0.359151 0.750000 0.356777
O O2 0.500000 0.000000 0.500000
O O3 0.293940 0.008141 0.350631
O O4 0.177669 0.955586 0.004031
O O5 0.114361 0.750000 0.782392
O O6 0.889127 0.952801 0.464919
O O7 0.171388 0.033268 0.809914
O O8 0.304457 0.250000 0.899652
O O9 0.409718 0.965352 0.041468
O O10 0.179111 0.250000 0.270277
O O11 0.273479 0.484000 0.512141
O O12 0.000000 0.500000 0.000000
O O13 0.577260 0.750000 0.198872
O O14 0.500000 0.500000 0.000000
#
# Coordination Sequence:
#
# PCOD9163319 Si02
#       5
#     4   4   4   4   4
#     4  11  23  40  64  93 129 170 216 267 321 382
#     4   9  20  37  58  87 124 162 201 255 313 368
#     4  10  20  36  60  90 123 159 206 258 311 370
#     4  11  26  46  67  95 132 171 216 269 325 387
#     4  11  25  43  64  90 124 164 209 261 314 374
#
# _framework density 20.753458999999999
#
# number of rings (size 3 to 8) (size 9 to 14) (size 15 to 20)
#    0.000    1.600    0.000    3.600    2.800   10.400 
#    0.000    0.000    0.000    0.000    0.000    0.000 
#    0.000    0.000    0.000    0.000    0.000    0.000 
#
# Total GULP energy -111810.338199 kJ/mol
# GULP energy per Si atom -5590.516910 kJ/mol
# Density = 2.070622 g / cm^3
# Si number density = 20.753459 Si / 1000 Ang^3
#
#
#
# Elastic Constant Matrix: (Units=GPa)
#
#
# Indices 1 2 3 4 5 6 
#
# 1 75.1355 28.9024 49.7889 0.0000 -12.1873 0.0000
# 2 28.9024 48.7375 48.9375 0.0000 -18.2892 0.0000
# 3 49.7889 48.9375 142.4915 0.0000 -26.5373 0.0000
# 4 0.0000 0.0000 0.0000 30.6685 0.0000 2.1722
# 5 -12.1873 -18.2892 -26.5373 0.0000 34.3723 0.0000
# 6 0.0000 0.0000 0.0000 2.1722 0.0000 37.5829
#
#
#
# Elastic Compliance Matrix: (Units=1/GPa)
#
#
# Indices 1 2 3 4 5 6 
#
# 1 0.018738 -0.007022 -0.004198 0.000000 -0.000333 0.000000
# 2 -0.007022 0.037032 -0.008244 0.000000 0.010850 0.000000
# 3 -0.004198 -0.008244 0.011938 0.000000 0.003342 0.000000
# 4 0.000000 0.000000 0.000000 0.032741 0.000000 -0.001892
# 5 -0.000333 0.010850 0.003342 0.000000 0.037328 0.000000
# 6 0.000000 0.000000 0.000000 -0.001892 0.000000 0.026717
#
#
# Mechanical properties :
#
#
# Convention : Reuss Voigt Hill
#
# Bulk Modulus (GPa) = 34.74595 57.95801 46.35198
# Shear Modulus (GPa) = 23.47245 29.77378 26.62311
#
# Velocity S-wave (km/s) = 3.36670 3.79178 3.58554
# Velocity P-wave (km/s) = 5.64726 6.86714 6.28686
#
# Compressibility (1/GPa) = 0.02878034
#
# Stress axis : x y z
#
# Youngs Moduli (GPa) = 53.36712 27.00404 83.76266
#
# Poissons Ratio (x) = 0.18963 0.35162
# Poissons Ratio (y) = 0.37475 0.69053
# Poissons Ratio (z) = 0.22402 0.22262
#
# Static dielectric constant tensor:
#      x y z
#    x 1.764820 0.000000 -0.023540 
#    y 0.000000 1.691480 0.000000 
#    z -0.023540 0.000000 1.774270 
# 
# From -- ./inp_files/55484.got.cif
#   From: 2010.05.17/outbox.cif.g08.bks.cpg/sg11_28_cif.got.tgz:55484.got - 2010.06.03 12:22:45.
