data_PCOD9163065
_publ_section_title
;
Structure prediction by ZEFSAII (Michael W. Deem and Ramdas Pophale) SiO2 
 PCOD9163065
Probable space group: P 21/M
;
_chemical_formula_sum "Si O2"
_cell_formula_units_Z 20
_cell_length_a 11.918291
_cell_length_b 11.091555
_cell_length_c 13.947297
_cell_angle_alpha 90.000000
_cell_angle_beta 32.099775
_cell_angle_gamma 90.000000
_cell_volume 979.747450
_symmetry_space_group_name_H-M "P 21/M"
_symmetry_group_IT_number 11
_symmetry_cell_setting 'monoclinic'
loop_
_space_group_symop_operation_xyz
x,y,z
-x,1/2+y,-z
-x,-y,-z
x,1/2-y,z
loop_
_atom_site_type_symbol
_atom_site_label
_atom_site_fract_x
_atom_site_fract_y
_atom_site_fract_z
Si Si1 0.795853 0.889215 0.270900
Si Si2 0.360634 0.881647 0.493762
Si Si3 0.860720 0.390909 0.721703
Si Si4 0.701452 0.499228 0.645755
Si Si5 0.750515 0.107414 0.017667
O O1 0.793017 0.750000 0.314755
O O2 0.615182 0.887343 0.321114
O O3 0.040577 0.912962 0.069711
O O4 0.726369 0.999091 0.390282
O O5 0.297528 0.750000 0.580640
O O6 0.283123 0.890506 0.440993
O O7 0.811194 0.250000 0.751614
O O8 0.731950 0.460769 0.733285
O O9 0.811431 0.432380 0.865309
O O10 0.106732 0.412157 0.519314
O O11 0.470438 0.551134 0.794518
O O12 0.716469 0.250000 0.039994
#
# Coordination Sequence:
#
# PCOD9163065 Si02
#       5
#     4   4   4   4   4
#     4   9  19  37  60  84 116 153 190 234 283 341
#     4  10  20  36  58  86 118 151 189 236 289 338
#     4  10  21  37  54  79 114 151 191 237 282 336
#     4  11  21  34  58  82 113 149 191 232 289 337
#     4  10  20  36  58  84 111 147 195 238 279 339
#
# _framework density 20.413423999999999
#
# number of rings (size 3 to 8) (size 9 to 14) (size 15 to 20)
#    0.000    2.000    2.000    1.800    0.000    1.600 
#    0.000    2.000    0.000    0.000    0.000    0.000 
#    0.000    0.000    0.000    0.000    0.000    0.000 
#
# Total GULP energy -111436.647948 kJ/mol
# GULP energy per Si atom -5571.832397 kJ/mol
# Density = 2.036696 g / cm^3
# Si number density = 20.413424 Si / 1000 Ang^3
#
#
#
# Elastic Constant Matrix: (Units=GPa)
#
#
# Indices 1 2 3 4 5 6 
#
# 1 50.8979 19.8661 -3.8939 0.0000 -10.2504 0.0000
# 2 19.8661 72.7449 25.5351 0.0000 -11.2428 0.0000
# 3 -3.8939 25.5351 67.1884 0.0000 -30.4635 0.0000
# 4 0.0000 0.0000 0.0000 16.7582 0.0000 -4.2347
# 5 -10.2504 -11.2428 -30.4635 0.0000 32.0186 0.0000
# 6 0.0000 0.0000 0.0000 -4.2347 0.0000 15.3805
#
#
#
# Elastic Compliance Matrix: (Units=1/GPa)
#
#
# Indices 1 2 3 4 5 6 
#
# 1 0.028278 -0.009675 0.013859 0.000000 0.018841 0.000000
# 2 -0.009675 0.019175 -0.010903 0.000000 -0.006738 0.000000
# 3 0.013859 -0.010903 0.035360 0.000000 0.034251 0.000000
# 4 0.000000 0.000000 0.000000 0.064134 0.000000 0.017658
# 5 0.018841 -0.006738 0.034251 0.000000 0.067485 0.000000
# 6 0.000000 0.000000 0.000000 0.017658 0.000000 0.069879
#
#
# Mechanical properties :
#
#
# Convention : Reuss Voigt Hill
#
# Bulk Modulus (GPa) = 14.41480 30.42731 22.42106
# Shear Modulus (GPa) = 15.58234 22.78638 19.18436
#
# Velocity S-wave (km/s) = 2.76585 3.34465 3.06893
# Velocity P-wave (km/s) = 4.15653 5.46383 4.85439
#
# Compressibility (1/GPa) = 0.06937312
#
# Stress axis : x y z
#
# Youngs Moduli (GPa) = 35.36281 52.15162 28.28052
#
# Poissons Ratio (x) = 0.50459 -0.39193
# Poissons Ratio (y) = 0.34215 0.30835
# Poissons Ratio (z) = -0.49008 0.56863
#
# Static dielectric constant tensor:
#      x y z
#    x 1.740460 0.000000 0.006630 
#    y 0.000000 1.731910 0.000000 
#    z 0.006630 0.000000 1.721480 
# 
# From -- ./inp_files/7622.got.cif
#   From: 2010.05.17/outbox.cif.g08.bks.cpg/sg11_4_cif.got.tgz:7622.got - 2010.06.03 12:22:45.
