data_PCOD9163937
_publ_section_title
;
Structure prediction by ZEFSAII (Michael W. Deem and Ramdas Pophale) SiO2 
 PCOD9163937
Probable space group: P 21/M
;
_chemical_formula_sum "Si O2"
_cell_formula_units_Z 24
_cell_length_a 9.138165
_cell_length_b 17.163429
_cell_length_c 15.915727
_cell_angle_alpha 90.000000
_cell_angle_beta 146.367379
_cell_angle_gamma 90.000000
_cell_volume 1382.591836
_symmetry_space_group_name_H-M "P 21/M"
_symmetry_group_IT_number 11
_symmetry_cell_setting 'monoclinic'
loop_
_space_group_symop_operation_xyz
x,y,z
-x,1/2+y,-z
-x,-y,-z
x,1/2-y,z
loop_
_atom_site_type_symbol
_atom_site_label
_atom_site_fract_x
_atom_site_fract_y
_atom_site_fract_z
Si Si1 0.288956 0.570656 0.808069
Si Si2 0.463921 0.899185 0.075606
Si Si3 0.583348 0.342779 0.301522
Si Si4 0.032092 0.839013 0.357860
Si Si5 0.190249 0.989456 0.340592
Si Si6 0.941396 0.936761 0.900977
O O1 0.454712 0.490521 0.876308
O O2 0.319871 0.622167 0.740544
O O3 0.989904 0.542685 0.684077
O O4 0.395173 0.611091 0.944058
O O5 0.720223 0.850702 0.223535
O O6 0.203660 0.886710 0.006368
O O7 0.548076 0.250000 0.278402
O O8 0.797777 0.357907 0.477620
O O9 0.310330 0.384758 0.196023
O O10 0.087907 0.750000 0.360906
O O11 0.111040 0.901212 0.324647
O O12 0.114837 0.016116 0.211566
O O13 0.500000 0.000000 0.500000
O O14 0.000000 0.000000 0.000000
#
# Coordination Sequence:
#
# PCOD9163937 Si02
#       6
#     4   4   4   4   4   4
#     4   9  19  36  57  85 113 147 193 235 283 352
#     4   9  19  36  60  82 110 149 193 234 284 345
#     4  11  23  38  57  87 122 154 191 244 297 340
#     4  10  22  38  58  85 119 153 195 244 292 343
#     4  10  20  38  61  87 114 156 197 234 291 347
#     4  11  21  37  60  90 118 148 199 245 282 348
#
# _framework density 17.358702999999998
#
# number of rings (size 3 to 8) (size 9 to 14) (size 15 to 20)
#    0.000    2.000    3.333    1.000    0.000    5.333 
#    0.000    3.333    0.000    0.000    0.000    0.000 
#    0.000    0.000    0.000    0.000    0.000    0.000 
#
# Total GULP energy -133903.815486 kJ/mol
# GULP energy per Si atom -5579.325645 kJ/mol
# Density = 1.731919 g / cm^3
# Si number density = 17.358703 Si / 1000 Ang^3
#
#
#
# Elastic Constant Matrix: (Units=GPa)
#
#
# Indices 1 2 3 4 5 6 
#
# 1 134.7573 56.6119 65.3328 0.0000 13.6908 0.0000
# 2 56.6119 81.7791 45.9842 0.0000 -5.2057 0.0000
# 3 65.3328 45.9842 95.1369 0.0000 29.2379 0.0000
# 4 0.0000 0.0000 0.0000 21.2584 0.0000 -3.6916
# 5 13.6908 -5.2057 29.2379 0.0000 32.9565 0.0000
# 6 0.0000 0.0000 0.0000 -3.6916 0.0000 17.1493
#
#
#
# Elastic Compliance Matrix: (Units=1/GPa)
#
#
# Indices 1 2 3 4 5 6 
#
# 1 0.012627 -0.005711 -0.005529 0.000000 -0.001243 0.000000
# 2 -0.005711 0.025335 -0.014137 0.000000 0.018916 0.000000
# 3 -0.005529 -0.014137 0.029039 0.000000 -0.025698 0.000000
# 4 0.000000 0.000000 0.000000 0.048867 0.000000 0.010519
# 5 -0.001243 0.018916 -0.025698 0.000000 0.056646 0.000000
# 6 0.000000 0.000000 0.000000 0.010519 0.000000 0.060576
#
#
# Mechanical properties :
#
#
# Convention : Reuss Voigt Hill
#
# Bulk Modulus (GPa) = 61.55123 71.94791 66.74957
# Shear Modulus (GPa) = 17.28557 23.85580 20.57069
#
# Velocity S-wave (km/s) = 3.15903 3.71116 3.44617
# Velocity P-wave (km/s) = 6.98866 7.73959 7.37369
#
# Compressibility (1/GPa) = 0.01624663
#
# Stress axis : x y z
#
# Youngs Moduli (GPa) = 79.19735 39.47105 34.43680
#
# Poissons Ratio (x) = 0.22543 0.19039
# Poissons Ratio (y) = 0.45232 0.48683
# Poissons Ratio (z) = 0.43785 0.55800
#
# Static dielectric constant tensor:
#      x y z
#    x 1.587110 0.000000 0.019520 
#    y 0.000000 1.571710 0.000000 
#    z 0.019520 0.000000 1.598900 
# 
# From -- ./inp_files/47711.got.cif
#   From: 2010.05.17/outbox.cif.g08.bks.cpg/sg11_24_cif.got.tgz:47711.got - 2010.06.03 12:22:45.
