data_PCOD9163089
_publ_section_title
;
Structure prediction by ZEFSAII (Michael W. Deem and Ramdas Pophale) SiO2 
 PCOD9163089
Probable space group: P 21/M
;
_chemical_formula_sum "Si O2"
_cell_formula_units_Z 28
_cell_length_a 20.841629
_cell_length_b 9.017705
_cell_length_c 23.829287
_cell_angle_alpha 90.000000
_cell_angle_beta 19.380537
_cell_angle_gamma 90.000000
_cell_volume 1486.169662
_symmetry_space_group_name_H-M "P 21/M"
_symmetry_group_IT_number 11
_symmetry_cell_setting 'monoclinic'
loop_
_space_group_symop_operation_xyz
x,y,z
-x,1/2+y,-z
-x,-y,-z
x,1/2-y,z
loop_
_atom_site_type_symbol
_atom_site_label
_atom_site_fract_x
_atom_site_fract_y
_atom_site_fract_z
Si Si1 0.381698 0.928955 0.546582
Si Si2 0.955480 0.914439 0.479685
Si Si3 0.419048 0.428944 0.737279
Si Si4 0.956778 0.427125 0.892956
Si Si5 0.289944 0.926868 0.009821
Si Si6 0.647316 0.075176 0.656715
Si Si7 0.651873 0.413168 0.911755
O O1 0.372959 0.750000 0.558005
O O2 0.498659 0.964671 0.392312
O O3 0.500000 0.000000 0.500000
O O4 0.163951 0.994537 0.728578
O O5 0.878108 0.750000 0.556165
O O6 0.158443 0.902548 0.281562
O O7 0.815984 0.993827 0.550692
O O8 0.000000 0.000000 0.500000
O O9 0.389582 0.250000 0.765134
O O10 0.589480 0.468963 0.641073
O O11 0.219156 0.506722 0.923228
O O12 0.971616 0.250000 0.891295
O O13 0.890672 0.449015 0.882538
O O14 0.336196 0.750000 0.966724
O O15 0.280342 0.967218 0.083064
O O16 0.456566 0.029516 0.847853
O O17 0.682806 0.250000 0.628578
O O18 0.567019 0.250000 0.991378
O O19 0.500000 0.500000 0.000000
#
# Coordination Sequence:
#
# PCOD9163089 Si02
#       7
#     4   4   4   4   4   4   4
#     4  11  24  42  64  92 126 164 205 253 305 365
#     4  11  23  37  54  78 110 149 190 237 289 345
#     4   9  21  41  63  89 124 163 204 249 302 364
#     4  10  21  38  64  94 123 159 203 253 309 364
#     4   9  19  37  58  82 112 147 189 237 290 348
#     4  10  20  36  58  85 113 145 188 237 290 348
#     4  10  22  37  53  76 107 145 188 234 285 339
#
# _framework density 18.84038
#
# number of rings (size 3 to 8) (size 9 to 14) (size 15 to 20)
#    0.000    2.000    0.000    2.571    2.000    6.857 
#    0.000    0.000    0.000    0.000    0.000    0.000 
#    0.000    0.000    0.000    0.000    0.000    0.000 
#
# Total GULP energy -156076.204049 kJ/mol
# GULP energy per Si atom -5574.150145 kJ/mol
# Density = 1.879750 g / cm^3
# Si number density = 18.840380 Si / 1000 Ang^3
#
#
#
# Elastic Constant Matrix: (Units=GPa)
#
#
# Indices 1 2 3 4 5 6 
#
# 1 190.8608 82.6785 92.0954 0.0000 -0.0678 0.0000
# 2 82.6785 84.8308 57.3234 0.0000 -12.4156 0.0000
# 3 92.0954 57.3234 98.7250 0.0000 -14.7479 0.0000
# 4 0.0000 0.0000 0.0000 30.2678 0.0000 -6.4611
# 5 -0.0678 -12.4156 -14.7479 0.0000 39.4309 0.0000
# 6 0.0000 0.0000 0.0000 -6.4611 0.0000 31.9480
#
#
#
# Elastic Compliance Matrix: (Units=1/GPa)
#
#
# Indices 1 2 3 4 5 6 
#
# 1 0.012257 -0.007338 -0.007960 0.000000 -0.005267 0.000000
# 2 -0.007338 0.023944 -0.006284 0.000000 0.005176 0.000000
# 3 -0.007960 -0.006284 0.022143 0.000000 0.006290 0.000000
# 4 0.000000 0.000000 0.000000 0.034529 0.000000 0.006983
# 5 -0.005267 0.005176 0.006290 0.000000 0.029334 0.000000
# 6 0.000000 0.000000 0.000000 0.006983 0.000000 0.032713
#
#
# Mechanical properties :
#
#
# Convention : Reuss Voigt Hill
#
# Bulk Modulus (GPa) = 65.87801 93.17901 79.52851
# Shear Modulus (GPa) = 24.61280 29.81728 27.21504
#
# Velocity S-wave (km/s) = 3.61832 3.98254 3.80479
# Velocity P-wave (km/s) = 7.24559 8.40904 7.84890
#
# Compressibility (1/GPa) = 0.01517957
#
# Stress axis : x y z
#
# Youngs Moduli (GPa) = 81.58349 41.76362 45.16053
#
# Poissons Ratio (x) = 0.30647 0.35949
# Poissons Ratio (y) = 0.59868 0.28380
# Poissons Ratio (z) = 0.64942 0.26245
#
# Static dielectric constant tensor:
#      x y z
#    x 1.770030 0.000000 -0.000840 
#    y 0.000000 1.660360 0.000000 
#    z -0.000840 0.000000 1.600460 
# 
# From -- ./inp_files/69779.got.cif
#   From: 2010.05.17/outbox.cif.g08.bks.cpg/sg11_35_cif.got.tgz:69779.got - 2010.06.03 12:22:45.
