data_PCOD9163629
_publ_section_title
;
Structure prediction by ZEFSAII (Michael W. Deem and Ramdas Pophale) SiO2 
 PCOD9163629
Probable space group: P 21/M
;
_chemical_formula_sum "Si O2"
_cell_formula_units_Z 28
_cell_length_a 21.591259
_cell_length_b 8.787747
_cell_length_c 15.683942
_cell_angle_alpha 90.000000
_cell_angle_beta 26.164850
_cell_angle_gamma 90.000000
_cell_volume 1312.215983
_symmetry_space_group_name_H-M "P 21/M"
_symmetry_group_IT_number 11
_symmetry_cell_setting 'monoclinic'
loop_
_space_group_symop_operation_xyz
x,y,z
-x,1/2+y,-z
-x,-y,-z
x,1/2-y,z
loop_
_atom_site_type_symbol
_atom_site_label
_atom_site_fract_x
_atom_site_fract_y
_atom_site_fract_z
Si Si1 0.004659 0.431939 0.898101
Si Si2 0.484227 0.573466 0.134665
Si Si3 0.809707 0.066736 0.980436
Si Si4 0.504566 0.567934 0.587626
Si Si5 0.704721 0.072814 0.470633
Si Si6 0.728427 0.924576 0.725815
Si Si7 0.990858 0.927227 0.605484
O O1 0.996373 0.250000 0.915665
O O2 0.156153 0.483107 0.674668
O O3 0.887514 0.481351 0.973033
O O4 0.000000 0.500000 0.000000
O O5 0.460163 0.750000 0.136436
O O6 0.420658 0.560711 0.306309
O O7 0.394548 0.456419 0.189540
O O8 0.649115 0.547277 0.913993
O O9 0.820813 0.250000 0.963555
O O10 0.645348 0.026062 0.185160
O O11 0.885736 0.000124 0.803512
O O12 0.500000 0.500000 0.500000
O O13 0.514937 0.750000 0.574182
O O14 0.639133 0.497974 0.467386
O O15 0.740700 0.250000 0.415109
O O16 0.777610 0.750000 0.661227
O O17 0.852749 0.039151 0.553228
O O18 0.961296 0.750000 0.633945
O O19 0.000000 0.000000 0.500000
#
# Coordination Sequence:
#
# PCOD9163629 Si02
#       7
#     4   4   4   4   4   4   4
#     4  11  23  41  67  97 130 168 213 269 332 392
#     4   9  20  37  59  88 121 160 202 250 307 366
#     4  10  24  45  67  96 132 171 217 272 327 389
#     4  11  24  43  67  96 130 168 212 263 327 390
#     4  11  23  39  61  91 127 164 212 261 310 378
#     4  10  20  37  60  88 123 160 204 255 307 363
#     4  12  26  42  63  90 125 170 217 265 320 382
#
# _framework density 21.337951
#
# number of rings (size 3 to 8) (size 9 to 14) (size 15 to 20)
#    0.000    1.429    0.000    4.714    2.000    7.429 
#    0.000    0.000    0.000    0.000    0.000    0.000 
#    0.000    0.000    0.000    0.000    0.000    0.000 
#
# Total GULP energy -156468.102081 kJ/mol
# GULP energy per Si atom -5588.146503 kJ/mol
# Density = 2.128938 g / cm^3
# Si number density = 21.337951 Si / 1000 Ang^3
#
#
#
# Elastic Constant Matrix: (Units=GPa)
#
#
# Indices 1 2 3 4 5 6 
#
# 1 57.0703 12.5552 -6.1121 0.0000 1.5082 0.0000
# 2 12.5552 33.8639 12.5055 0.0000 10.4303 0.0000
# 3 -6.1121 12.5055 74.5193 0.0000 10.9562 0.0000
# 4 0.0000 0.0000 0.0000 35.3494 0.0000 3.6569
# 5 1.5082 10.4303 10.9562 0.0000 33.8525 0.0000
# 6 0.0000 0.0000 0.0000 3.6569 0.0000 28.2435
#
#
#
# Elastic Compliance Matrix: (Units=1/GPa)
#
#
# Indices 1 2 3 4 5 6 
#
# 1 0.019720 -0.008657 0.002948 0.000000 0.000835 0.000000
# 2 -0.008657 0.037726 -0.005658 0.000000 -0.009407 0.000000
# 3 0.002948 -0.005658 0.015092 0.000000 -0.003272 0.000000
# 4 0.000000 0.000000 0.000000 0.028673 0.000000 -0.003713
# 5 0.000835 -0.009407 -0.003272 0.000000 0.033460 0.000000
# 6 0.000000 0.000000 0.000000 -0.003713 0.000000 0.035887
#
#
# Mechanical properties :
#
#
# Convention : Reuss Voigt Hill
#
# Bulk Modulus (GPa) = 20.07895 22.59454 21.33674
# Shear Modulus (GPa) = 23.82141 29.25607 26.53874
#
# Velocity S-wave (km/s) = 3.34486 3.70683 3.53049
# Velocity P-wave (km/s) = 4.93436 5.37891 5.16142
#
# Compressibility (1/GPa) = 0.04980340
#
# Stress axis : x y z
#
# Youngs Moduli (GPa) = 50.70898 26.50661 66.26150
#
# Poissons Ratio (x) = 0.22947 -0.19531
# Poissons Ratio (y) = 0.43899 0.37491
# Poissons Ratio (z) = -0.14947 0.14998
#
# Static dielectric constant tensor:
#      x y z
#    x 1.792330 0.000000 0.003960 
#    y 0.000000 1.728800 0.000000 
#    z 0.003960 0.000000 1.813600 
# 
# From -- ./inp_files/54496.got.cif
#   From: 2010.05.17/outbox.cif.g08.bks.cpg/sg11_28_cif.got.tgz:54496.got - 2010.06.03 12:22:45.
