data_PCOD9163538
_publ_section_title
;
Structure prediction by ZEFSAII (Michael W. Deem and Ramdas Pophale) SiO2 
 PCOD9163538
Probable space group: P 21/M
;
_chemical_formula_sum "Si O2"
_cell_formula_units_Z 24
_cell_length_a 9.768678
_cell_length_b 9.294353
_cell_length_c 13.012600
_cell_angle_alpha 90.000000
_cell_angle_beta 101.374929
_cell_angle_gamma 90.000000
_cell_volume 1158.253294
_symmetry_space_group_name_H-M "P 21/M"
_symmetry_group_IT_number 11
_symmetry_cell_setting 'monoclinic'
loop_
_space_group_symop_operation_xyz
x,y,z
-x,1/2+y,-z
-x,-y,-z
x,1/2-y,z
loop_
_atom_site_type_symbol
_atom_site_label
_atom_site_fract_x
_atom_site_fract_y
_atom_site_fract_z
Si Si1 0.788212 0.078850 0.952959
Si Si2 0.774290 0.416202 0.267333
Si Si3 0.504102 0.421368 0.809560
Si Si4 0.605750 0.076913 0.593118
Si Si5 0.861348 0.083846 0.507680
Si Si6 0.039220 0.419707 0.845432
O O1 0.797968 0.250000 0.978731
O O2 0.628285 0.041964 0.906346
O O3 0.882955 0.057992 0.864674
O O4 0.860043 0.984395 0.051137
O O5 0.780395 0.250000 0.237784
O O6 0.638588 0.492184 0.200364
O O7 0.768870 0.423134 0.389822
O O8 0.912310 0.497265 0.248400
O O9 0.477074 0.250000 0.812733
O O10 0.563854 0.450972 0.704088
O O11 0.599336 0.250000 0.576614
O O12 0.762534 0.031172 0.584863
O O13 0.500000 0.000000 0.500000
O O14 0.898128 0.250000 0.532944
O O15 0.000000 0.000000 0.500000
O O16 0.060738 0.250000 0.835913
#
# Coordination Sequence:
#
# PCOD9163538 Si02
#       6
#     4   4   4   4   4   4
#     4   9  20  39  61  86 114 146 188 237 286 338
#     4  11  23  39  57  84 119 152 188 236 283 333
#     4  10  21  37  60  86 112 150 193 234 284 337
#     4  10  20  37  59  83 115 151 189 232 279 334
#     4  10  23  39  57  84 117 152 191 233 281 333
#     4  10  21  38  62  87 114 150 188 232 286 342
#
# _framework density 20.720855
#
# number of rings (size 3 to 8) (size 9 to 14) (size 15 to 20)
#    0.000    2.000    1.667    1.000    2.333    4.000 
#    0.000    0.000    0.000    0.000    0.000    0.000 
#    0.000    0.000    0.000    0.000    0.000    0.000 
#
# Total GULP energy -134100.006280 kJ/mol
# GULP energy per Si atom -5587.500262 kJ/mol
# Density = 2.067369 g / cm^3
# Si number density = 20.720855 Si / 1000 Ang^3
#
#
#
# Elastic Constant Matrix: (Units=GPa)
#
#
# Indices 1 2 3 4 5 6 
#
# 1 98.0967 32.0521 -3.8413 0.0000 0.6118 0.0000
# 2 32.0521 46.3820 1.9587 0.0000 -0.0441 0.0000
# 3 -3.8413 1.9587 28.5550 0.0000 -4.3537 0.0000
# 4 0.0000 0.0000 0.0000 24.7187 0.0000 -1.3699
# 5 0.6118 -0.0441 -4.3537 0.0000 39.3405 0.0000
# 6 0.0000 0.0000 0.0000 -1.3699 0.0000 34.3435
#
#
#
# Elastic Compliance Matrix: (Units=1/GPa)
#
#
# Indices 1 2 3 4 5 6 
#
# 1 0.013334 -0.009317 0.002441 0.000000 0.000052 0.000000
# 2 -0.009317 0.028134 -0.003211 0.000000 -0.000179 0.000000
# 3 0.002441 -0.003211 0.036173 0.000000 0.003962 0.000000
# 4 0.000000 0.000000 0.000000 0.040545 0.000000 0.001617
# 5 0.000052 -0.000179 0.003962 0.000000 0.025857 0.000000
# 6 0.000000 0.000000 0.000000 0.001617 0.000000 0.029182
#
#
# Mechanical properties :
#
#
# Convention : Reuss Voigt Hill
#
# Bulk Modulus (GPa) = 17.40143 25.93032 21.66587
# Shear Modulus (GPa) = 23.52355 29.20482 26.36418
#
# Velocity S-wave (km/s) = 3.37302 3.75832 3.57087
# Velocity P-wave (km/s) = 4.85653 5.60131 5.24216
#
# Compressibility (1/GPa) = 0.05746655
#
# Stress axis : x y z
#
# Youngs Moduli (GPa) = 74.99882 35.54412 27.64517
#
# Poissons Ratio (x) = 0.33117 -0.06748
# Poissons Ratio (y) = 0.69877 0.08876
# Poissons Ratio (z) = -0.18305 0.11411
#
# Static dielectric constant tensor:
#      x y z
#    x 1.735490 0.000000 -0.017430 
#    y 0.000000 1.690370 0.000000 
#    z -0.017430 0.000000 1.776590 
# 
# From -- ./inp_files/20559.got.cif
#   From: 2010.05.17/outbox.cif.g08.bks.cpg/sg11_11_cif.got.tgz:20559.got - 2010.06.03 12:22:45.
