data_PCOD9163954
_publ_section_title
;
Structure prediction by ZEFSAII (Michael W. Deem and Ramdas Pophale) SiO2 
 PCOD9163954
Probable space group: P 21/M
;
_chemical_formula_sum "Si O2"
_cell_formula_units_Z 32
_cell_length_a 26.625551
_cell_length_b 8.622059
_cell_length_c 21.276203
_cell_angle_alpha 90.000000
_cell_angle_beta 159.116519
_cell_angle_gamma 90.000000
_cell_volume 1741.105361
_symmetry_space_group_name_H-M "P 21/M"
_symmetry_group_IT_number 11
_symmetry_cell_setting 'monoclinic'
loop_
_space_group_symop_operation_xyz
x,y,z
-x,1/2+y,-z
-x,-y,-z
x,1/2-y,z
loop_
_atom_site_type_symbol
_atom_site_label
_atom_site_fract_x
_atom_site_fract_y
_atom_site_fract_z
Si Si1 0.926145 0.063638 0.975344
Si Si2 0.349547 0.065042 0.028919
Si Si3 0.243518 0.562981 0.038007
Si Si4 0.641257 0.564677 0.696656
Si Si5 0.646564 0.434953 0.196942
Si Si6 0.844038 0.434729 0.309364
Si Si7 0.944709 0.562350 0.740964
Si Si8 0.347407 0.435907 0.658339
O O1 0.913371 0.250000 0.958174
O O2 0.773483 0.990804 0.809393
O O3 0.018529 0.021598 0.144601
O O4 0.000000 0.000000 0.000000
O O5 0.347685 0.250000 0.028769
O O6 0.302914 0.998516 0.041883
O O7 0.506388 0.007806 0.194567
O O8 0.242301 0.007817 0.849395
O O9 0.248319 0.750000 0.044281
O O10 0.329423 0.501794 0.199062
O O11 0.079978 0.513185 0.857680
O O12 0.500000 0.500000 0.500000
O O13 0.636482 0.750000 0.694010
O O14 0.636736 0.250000 0.195411
O O15 0.760745 0.465423 0.276624
O O16 0.676090 0.518276 0.296886
O O17 0.500000 0.500000 0.000000
O O18 0.848408 0.250000 0.304657
O O19 0.000000 0.500000 0.500000
O O20 0.941368 0.750000 0.733073
O O21 0.791720 0.507210 0.540903
O O22 0.358895 0.250000 0.666027
#
# Coordination Sequence:
#
# PCOD9163954 Si02
#       8
#     4   4   4   4   4   4   4   4
#     4  10  20  38  61  89 124 161 203 252 303 358
#     4  12  25  41  60  88 123 160 202 250 300 358
#     4  10  21  41  64  89 121 159 200 251 306 360
#     4  11  22  39  62  91 123 162 206 252 305 362
#     4  11  23  40  62  88 118 155 197 246 303 359
#     4  11  25  43  63  89 120 156 200 249 304 362
#     4   8  19  38  61  87 116 153 196 240 296 357
#     4  11  22  39  62  88 117 157 202 248 301 359
#
# _framework density 18.379128000000001
#
# number of rings (size 3 to 8) (size 9 to 14) (size 15 to 20)
#    0.000    1.500    1.250    4.875    1.750    2.500 
#    0.000   10.625    0.000    0.000    0.000    0.000 
#    0.000    0.000    0.000    0.000    0.000    0.000 
#
# Total GULP energy -178812.428556 kJ/mol
# GULP energy per Si atom -5587.888392 kJ/mol
# Density = 1.833730 g / cm^3
# Si number density = 18.379128 Si / 1000 Ang^3
#
#
#
# Elastic Constant Matrix: (Units=GPa)
#
#
# Indices 1 2 3 4 5 6 
#
# 1 157.4989 80.4182 94.4949 0.0000 1.8197 0.0000
# 2 80.4182 110.2409 69.0176 0.0000 9.6437 0.0000
# 3 94.4949 69.0176 199.1152 0.0000 5.6660 0.0000
# 4 0.0000 0.0000 0.0000 27.7046 0.0000 -0.5958
# 5 1.8197 9.6437 5.6660 0.0000 16.1226 0.0000
# 6 0.0000 0.0000 0.0000 -0.5958 0.0000 37.9674
#
#
#
# Elastic Compliance Matrix: (Units=1/GPa)
#
#
# Indices 1 2 3 4 5 6 
#
# 1 0.011817 -0.006877 -0.003337 0.000000 0.003952 0.000000
# 2 -0.006877 0.016105 -0.002088 0.000000 -0.008123 0.000000
# 3 -0.003337 -0.002088 0.007357 0.000000 -0.000960 0.000000
# 4 0.000000 0.000000 0.000000 0.036107 0.000000 0.000567
# 5 0.003952 -0.008123 -0.000960 0.000000 0.066775 0.000000
# 6 0.000000 0.000000 0.000000 0.000567 0.000000 0.026347
#
#
# Mechanical properties :
#
#
# Convention : Reuss Voigt Hill
#
# Bulk Modulus (GPa) = 93.66659 106.07962 99.87311
# Shear Modulus (GPa) = 25.95118 31.22054 28.58586
#
# Velocity S-wave (km/s) = 3.76172 4.12599 3.94806
# Velocity P-wave (km/s) = 8.36311 8.97447 8.67418
#
# Compressibility (1/GPa) = 0.01067616
#
# Stress axis : x y z
#
# Youngs Moduli (GPa) = 84.62511 62.09190 135.93028
#
# Poissons Ratio (x) = 0.42699 0.45357
# Poissons Ratio (y) = 0.58195 0.28378
# Poissons Ratio (z) = 0.28237 0.12963
#
# Static dielectric constant tensor:
#      x y z
#    x 1.598130 0.000000 0.002710 
#    y 0.000000 1.628360 0.000000 
#    z 0.002710 0.000000 1.620730 
# 
# From -- ./inp_files/67217.got.cif
#   From: 2010.05.17/outbox.cif.g08.bks.cpg/sg11_34_cif.got.tgz:67217.got - 2010.06.03 12:22:45.
