data_PCOD9163518
_publ_section_title
;
Structure prediction by ZEFSAII (Michael W. Deem and Ramdas Pophale) SiO2 
 PCOD9163518
Probable space group: P 21/M
;
_chemical_formula_sum "Si O2"
_cell_formula_units_Z 32
_cell_length_a 26.252434
_cell_length_b 8.069923
_cell_length_c 21.179879
_cell_angle_alpha 90.000000
_cell_angle_beta 22.341745
_cell_angle_gamma 90.000000
_cell_volume 1705.669029
_symmetry_space_group_name_H-M "P 21/M"
_symmetry_group_IT_number 11
_symmetry_cell_setting 'monoclinic'
loop_
_space_group_symop_operation_xyz
x,y,z
-x,1/2+y,-z
-x,-y,-z
x,1/2-y,z
loop_
_atom_site_type_symbol
_atom_site_label
_atom_site_fract_x
_atom_site_fract_y
_atom_site_fract_z
Si Si1 0.097476 0.449828 0.537491
Si Si2 0.694677 0.945017 0.448544
Si Si3 0.116195 0.452240 0.655725
Si Si4 0.846927 0.949760 0.660716
Si Si5 0.147183 0.554786 0.853308
Si Si6 0.180399 0.548960 0.956657
Si Si7 0.791316 0.549097 0.859509
Si Si8 0.394321 0.053505 0.814274
O O1 0.106650 0.250000 0.527403
O O2 0.144208 0.510811 0.552351
O O3 0.175342 0.510449 0.385394
O O4 0.940289 0.493225 0.709187
O O5 0.721844 0.750000 0.413883
O O6 0.781630 0.011748 0.407834
O O7 0.747573 0.016838 0.322166
O O8 0.538749 0.974690 0.638510
O O9 0.121662 0.250000 0.648717
O O10 0.964871 0.497155 0.848652
O O11 0.837987 0.750000 0.669740
O O12 0.767742 0.006572 0.813941
O O13 0.000000 0.000000 0.500000
O O14 0.139085 0.750000 0.870912
O O15 0.185144 0.487459 0.878921
O O16 0.000000 0.500000 0.000000
O O17 0.189476 0.750000 0.947811
O O18 0.297268 0.480428 0.866543
O O19 0.791634 0.750000 0.860087
O O20 0.683135 0.490600 0.034405
O O21 0.413384 0.250000 0.799032
#
# Coordination Sequence:
#
# PCOD9163518 Si02
#       8
#     4   4   4   4   4   4   4   4
#     4   9  15  26  49  76 101 130 172 216 255 304
#     4  11  23  40  58  78 106 142 178 222 269 315
#     4   9  17  32  54  80 105 132 175 220 260 307
#     4   8  14  24  41  69 101 134 166 206 256 303
#     4  11  22  38  60  84 110 139 174 217 265 317
#     4  10  20  37  59  81 106 138 175 217 261 312
#     4   9  17  29  45  70 107 139 168 208 259 310
#     4  11  23  37  53  79 110 143 180 219 263 319
#
# _framework density 18.760967999999998
#
# number of rings (size 3 to 8) (size 9 to 14) (size 15 to 20)
#    0.000    2.250    2.500    1.125    0.000    2.000 
#    0.000    1.250    0.000    0.750    0.000    0.000 
#    0.000    0.000    0.000    0.000    0.000    0.250 
#
# Total GULP energy -178424.880306 kJ/mol
# GULP energy per Si atom -5575.777510 kJ/mol
# Density = 1.871827 g / cm^3
# Si number density = 18.760968 Si / 1000 Ang^3
#
#
#
# Elastic Constant Matrix: (Units=GPa)
#
#
# Indices 1 2 3 4 5 6 
#
# 1 130.8424 -6.5985 44.8089 0.0000 35.2570 0.0000
# 2 -6.5985 11.1369 -12.2260 0.0000 3.7535 0.0000
# 3 44.8089 -12.2260 64.8107 0.0000 18.5422 0.0000
# 4 0.0000 0.0000 0.0000 14.9661 0.0000 1.3310
# 5 35.2570 3.7535 18.5422 0.0000 38.8068 0.0000
# 6 0.0000 0.0000 0.0000 1.3310 0.0000 14.7544
#
#
#
# Elastic Compliance Matrix: (Units=1/GPa)
#
#
# Indices 1 2 3 4 5 6 
#
# 1 0.011963 0.004946 -0.004739 0.000000 -0.009082 0.000000
# 2 0.004946 0.139766 0.032549 0.000000 -0.033564 0.000000
# 3 -0.004739 0.032549 0.028397 0.000000 -0.012411 0.000000
# 4 0.000000 0.000000 0.000000 0.067358 0.000000 -0.006077
# 5 -0.009082 -0.033564 -0.012411 0.000000 0.043196 0.000000
# 6 0.000000 0.000000 0.000000 -0.006077 0.000000 0.068325
#
#
# Mechanical properties :
#
#
# Convention : Reuss Voigt Hill
#
# Bulk Modulus (GPa) = 4.07107 28.75098 16.41102
# Shear Modulus (GPa) = 13.32011 25.75915 19.53963
#
# Velocity S-wave (km/s) = 2.66746 3.70945 3.23074
# Velocity P-wave (km/s) = 3.41493 5.80558 4.76270
#
# Compressibility (1/GPa) = 0.24563547
#
# Stress axis : x y z
#
# Youngs Moduli (GPa) = 83.59422 7.15483 35.21517
#
# Poissons Ratio (x) = -0.03539 0.16689
# Poissons Ratio (y) = -0.41345 -1.14620
# Poissons Ratio (z) = 0.39618 -0.23288
#
# Static dielectric constant tensor:
#      x y z
#    x 1.709400 0.000000 0.051430 
#    y 0.000000 1.662340 0.000000 
#    z 0.051430 0.000000 1.622090 
# 
# From -- ./inp_files/67096.got.cif
#   From: 2010.05.17/outbox.cif.g08.bks.cpg/sg11_34_cif.got.tgz:67096.got - 2010.06.03 12:22:45.
