data_PCOD9163764
_publ_section_title
;
Structure prediction by ZEFSAII (Michael W. Deem and Ramdas Pophale) SiO2 
 PCOD9163764
Probable space group: P 21/M
;
_chemical_formula_sum "Si O2"
_cell_formula_units_Z 24
_cell_length_a 15.333518
_cell_length_b 14.666650
_cell_length_c 9.135796
_cell_angle_alpha 90.000000
_cell_angle_beta 36.168131
_cell_angle_gamma 90.000000
_cell_volume 1212.513249
_symmetry_space_group_name_H-M "P 21/M"
_symmetry_group_IT_number 11
_symmetry_cell_setting 'monoclinic'
loop_
_space_group_symop_operation_xyz
x,y,z
-x,1/2+y,-z
-x,-y,-z
x,1/2-y,z
loop_
_atom_site_type_symbol
_atom_site_label
_atom_site_fract_x
_atom_site_fract_y
_atom_site_fract_z
Si Si1 0.786072 0.354200 0.959325
Si Si2 0.036475 0.458576 0.791649
Si Si3 0.320108 0.354362 0.488871
Si Si4 0.517520 0.646723 0.451069
Si Si5 0.740998 0.438198 0.709712
Si Si6 0.503752 0.037348 0.812673
O O1 0.833402 0.250000 0.916819
O O2 0.778795 0.375516 0.796318
O O3 0.895424 0.420230 0.898175
O O4 0.623957 0.363592 0.250972
O O5 0.156739 0.378921 0.657738
O O6 0.119608 0.530827 0.574142
O O7 0.000000 0.500000 0.000000
O O8 0.362602 0.250000 0.393386
O O9 0.340568 0.362757 0.636731
O O10 0.423661 0.436141 0.290731
O O11 0.514639 0.750000 0.396481
O O12 0.507572 0.577211 0.332704
O O13 0.616630 0.405694 0.761422
O O14 0.657304 0.524298 0.899763
#
# Coordination Sequence:
#
# PCOD9163764 Si02
#       6
#     4   4   4   4   4   4
#     4  11  22  39  61  89 124 157 198 252 309 364
#     4  11  24  41  62  85 119 167 207 251 302 369
#     4  10  20  37  62  90 118 156 202 247 302 362
#     4  10  21  37  63  92 120 159 202 250 304 364
#     4  10  22  37  60  89 117 158 205 246 307 360
#     4  10  20  37  62  92 120 156 201 254 302 362
#
# _framework density 19.793597999999999
#
# number of rings (size 3 to 8) (size 9 to 14) (size 15 to 20)
#    0.000    1.667    1.667    3.500    2.333    0.667 
#    0.000    9.167    0.000    0.000    0.000    0.000 
#    0.000    0.000    0.000    0.000    0.000    0.000 
#
# Total GULP energy -133895.808150 kJ/mol
# GULP energy per Si atom -5578.992006 kJ/mol
# Density = 1.974855 g / cm^3
# Si number density = 19.793598 Si / 1000 Ang^3
#
#
#
# Elastic Constant Matrix: (Units=GPa)
#
#
# Indices 1 2 3 4 5 6 
#
# 1 67.4940 9.2199 -0.6685 0.0000 10.4657 0.0000
# 2 9.2199 53.3223 14.7700 0.0000 15.5331 0.0000
# 3 -0.6685 14.7700 62.3729 0.0000 23.6557 0.0000
# 4 0.0000 0.0000 0.0000 10.5321 0.0000 -2.9170
# 5 10.4657 15.5331 23.6557 0.0000 36.4072 0.0000
# 6 0.0000 0.0000 0.0000 -2.9170 0.0000 30.6050
#
#
#
# Elastic Compliance Matrix: (Units=1/GPa)
#
#
# Indices 1 2 3 4 5 6 
#
# 1 0.015963 -0.001898 0.002725 0.000000 -0.005550 0.000000
# 2 -0.001898 0.021857 -0.002477 0.000000 -0.007170 0.000000
# 3 0.002725 -0.002477 0.021955 0.000000 -0.013992 0.000000
# 4 0.000000 0.000000 0.000000 0.097522 0.000000 0.009295
# 5 -0.005550 -0.007170 -0.013992 0.000000 0.041213 0.000000
# 6 0.000000 0.000000 0.000000 0.009295 0.000000 0.033560
#
#
# Mechanical properties :
#
#
# Convention : Reuss Voigt Hill
#
# Bulk Modulus (GPa) = 17.70679 25.53689 21.62184
# Shear Modulus (GPa) = 19.66998 26.16673 22.91835
#
# Velocity S-wave (km/s) = 3.15581 3.63985 3.40644
# Velocity P-wave (km/s) = 4.71635 5.53121 5.13995
#
# Compressibility (1/GPa) = 0.05647550
#
# Stress axis : x y z
#
# Youngs Moduli (GPa) = 62.64490 45.75219 45.54774
#
# Poissons Ratio (x) = 0.08686 -0.12414
# Poissons Ratio (y) = 0.11893 0.11281
# Poissons Ratio (z) = -0.17073 0.11331
#
# Static dielectric constant tensor:
#      x y z
#    x 1.719980 0.000000 -0.006840 
#    y 0.000000 1.717290 0.000000 
#    z -0.006840 0.000000 1.694660 
# 
# From -- ./inp_files/22019.got.cif
#   From: 2010.05.17/outbox.cif.g08.bks.cpg/sg11_12_cif.got.tgz:22019.got - 2010.06.03 12:22:45.
