data_PCOD9163748
_publ_section_title
;
Structure prediction by ZEFSAII (Michael W. Deem and Ramdas Pophale) SiO2 
 PCOD9163748
Probable space group: P 21/M
;
_chemical_formula_sum "Si O2"
_cell_formula_units_Z 30
_cell_length_a 12.719284
_cell_length_b 14.159170
_cell_length_c 7.590356
_cell_angle_alpha 90.000000
_cell_angle_beta 107.162404
_cell_angle_gamma 90.000000
_cell_volume 1306.112717
_symmetry_space_group_name_H-M "P 21/M"
_symmetry_group_IT_number 11
_symmetry_cell_setting 'monoclinic'
loop_
_space_group_symop_operation_xyz
x,y,z
-x,1/2+y,-z
-x,-y,-z
x,1/2-y,z
loop_
_atom_site_type_symbol
_atom_site_label
_atom_site_fract_x
_atom_site_fract_y
_atom_site_fract_z
Si Si1 0.816317 0.650067 0.118556
Si Si2 0.423120 0.383280 0.145729
Si Si3 0.056439 0.082273 0.140861
Si Si4 0.248415 0.526704 0.443731
Si Si5 0.382057 0.599500 0.182733
Si Si6 0.390460 0.149018 0.546149
Si Si7 0.390753 0.750000 0.930556
Si Si8 0.899455 0.456786 0.337730
O O1 0.842660 0.750000 0.224597
O O2 0.846194 0.550885 0.224407
O O3 0.687579 0.649041 0.007527
O O4 0.886017 0.648971 0.971310
O O5 0.416267 0.496305 0.133414
O O6 0.413240 0.359681 0.348705
O O7 0.529851 0.332366 0.122686
O O8 0.155790 0.034694 0.298156
O O9 0.959548 0.110815 0.227275
O O10 0.000000 0.000000 0.000000
O O11 0.311327 0.585034 0.325523
O O12 0.328077 0.446787 0.563440
O O13 0.189076 0.584206 0.569169
O O14 0.495410 0.649724 0.293780
O O15 0.327324 0.665907 0.011961
O O16 0.333293 0.250000 0.549577
O O17 0.000000 0.500000 0.500000
#
# Coordination Sequence:
#
# PCOD9163748 Si02
#       8
#     4   4   4   4   4   4   2   4
#     4  11  20  36  66  99 125 155 205 269 330 371
#     4  11  22  40  61  97 130 165 213 275 320 377
#     4   9  18  37  63  89 122 156 201 257 322 383
#     4  10  20  37  62  88 123 170 212 249 326 383
#     4  11  24  41  62  92 128 185 211 267 326 385
#     4  11  21  39  62  93 131 172 220 270 318 378
#     4  12  24  40  62  92 132 160 230 266 310 384
#     4   9  21  38  61  91 122 162 205 259 314 392
#
# _framework density 22.968921000000002
#
# number of rings (size 3 to 8) (size 9 to 14) (size 15 to 20)
#    0.000    1.600    4.667    2.000    1.867    0.533 
#    2.400    2.000   14.667    0.000    1.733    0.000 
#    0.000    0.000    0.000    0.000    0.000    0.000 
#
# Total GULP energy -167013.816090 kJ/mol
# GULP energy per Si atom -5567.127203 kJ/mol
# Density = 2.291664 g / cm^3
# Si number density = 22.968921 Si / 1000 Ang^3
#
#
#
# Elastic Constant Matrix: (Units=GPa)
#
#
# Indices 1 2 3 4 5 6 
#
# 1 110.7529 3.1933 16.1565 0.0000 -43.0538 0.0000
# 2 3.1933 88.7993 -3.2539 0.0000 -12.7964 0.0000
# 3 16.1565 -3.2539 37.0432 0.0000 -6.6920 0.0000
# 4 0.0000 0.0000 0.0000 -10.7323 0.0000 9.0500
# 5 -43.0538 -12.7964 -6.6920 0.0000 51.8994 0.0000
# 6 0.0000 0.0000 0.0000 9.0500 0.0000 -19.1102
#
#
#
# Elastic Compliance Matrix: (Units=1/GPa)
#
#
# Indices 1 2 3 4 5 6 
#
# 1 0.013985 0.000985 -0.003966 0.000000 0.011333 0.000000
# 2 0.000985 0.011837 0.001316 0.000000 0.003905 0.000000
# 3 -0.003966 0.001316 0.028980 0.000000 0.000771 0.000000
# 4 0.000000 0.000000 0.000000 -0.155122 0.000000 -0.073461
# 5 0.011333 0.003905 0.000771 0.000000 0.029731 0.000000
# 6 0.000000 0.000000 0.000000 -0.073461 0.000000 -0.087117
#
#
# Mechanical properties :
#
#
# Convention : Reuss Voigt Hill
#
# Bulk Modulus (GPa) = 19.42827 29.86524 24.64675
# Shear Modulus (GPa) = -36.43819 19.11134 -8.66343
#
# Velocity S-wave (km/s) = -3.98730 2.88766 -1.94422
# Velocity P-wave (km/s) = 3.56668 4.91414 2.39035
#
# Compressibility (1/GPa) = 0.05147138
#
# Stress axis : x y z
#
# Youngs Moduli (GPa) = 71.50712 84.48158 34.50651
#
# Poissons Ratio (x) = -0.08320 0.13684
# Poissons Ratio (y) = -0.07043 -0.04540
# Poissons Ratio (z) = 0.28357 -0.11115
#
# Static dielectric constant tensor:
#      x y z
#    x 1.873650 0.000000 -0.047960 
#    y 0.000000 1.848780 0.000000 
#    z -0.047960 0.000000 1.920360 
# 
# From -- ./inp_files/18113.got.cif
#   From: 2010.05.17/outbox.cif.g08.bks.cpg/sg11_10_cif.got.tgz:18113.got - 2010.06.03 12:22:45.
