data_PCOD9163998
_publ_section_title
;
Structure prediction by ZEFSAII (Michael W. Deem and Ramdas Pophale) SiO2 
 PCOD9163998
Probable space group: P 21/M
;
_chemical_formula_sum "Si O2"
_cell_formula_units_Z 20
_cell_length_a 7.728623
_cell_length_b 9.808029
_cell_length_c 19.370932
_cell_angle_alpha 90.000000
_cell_angle_beta 35.440859
_cell_angle_gamma 90.000000
_cell_volume 851.450224
_symmetry_space_group_name_H-M "P 21/M"
_symmetry_group_IT_number 11
_symmetry_cell_setting 'monoclinic'
loop_
_space_group_symop_operation_xyz
x,y,z
-x,1/2+y,-z
-x,-y,-z
x,1/2-y,z
loop_
_atom_site_type_symbol
_atom_site_label
_atom_site_fract_x
_atom_site_fract_y
_atom_site_fract_z
Si Si1 0.356768 0.958856 0.759015
Si Si2 0.025673 0.511824 0.248207
Si Si3 0.481225 0.750000 0.067398
Si Si4 0.807578 0.750000 0.563103
Si Si5 0.376730 0.250000 0.137148
Si Si6 0.837641 0.750000 0.397997
Si Si7 0.407148 0.750000 0.299001
Si Si8 0.071040 0.750000 0.953749
O O1 0.669589 0.881815 0.644379
O O2 0.187549 0.881666 0.874243
O O3 0.403890 0.115244 0.760003
O O4 0.168564 0.951537 0.750403
O O5 0.272831 0.616850 0.138932
O O6 0.207291 0.384473 0.220702
O O7 0.812283 0.609276 0.364207
O O8 0.638197 0.750000 0.941352
O O9 0.720891 0.750000 0.051756
O O10 0.690993 0.750000 0.521016
O O11 0.164283 0.750000 0.440870
O O12 0.728242 0.250000 0.042745
O O13 0.186456 0.750000 0.306166
#
# Coordination Sequence:
#
# PCOD9163998 Si02
#       8
#     4   4   2   2   2   2   2   2
#     4  11  21  42  65  92 128 176 210 265 331 375
#     4  11  23  43  65  90 136 164 215 273 319 379
#     4  11  24  47  61  98 130 171 218 263 328 378
#     4   9  22  39  64  93 130 164 226 259 317 396
#     4  12  23  42  66  96 125 176 211 271 316 379
#     4   9  22  39  59  94 124 168 206 277 305 380
#     4  10  20  38  62  93 126 166 220 260 316 385
#     4  11  25  41  68  94 131 171 219 264 320 392
#
# _framework density 23.489336999999999
#
# number of rings (size 3 to 8) (size 9 to 14) (size 15 to 20)
#    0.600    0.800    2.000    4.200    0.000    1.600 
#    7.200    0.000    0.000    0.000    0.000    0.000 
#    0.000    0.000    0.000    0.000    0.000    0.000 
#
# Total GULP energy -111822.962899 kJ/mol
# GULP energy per Si atom -5591.148145 kJ/mol
# Density = 2.343587 g / cm^3
# Si number density = 23.489337 Si / 1000 Ang^3
#
#
#
# Elastic Constant Matrix: (Units=GPa)
#
#
# Indices 1 2 3 4 5 6 
#
# 1 83.5928 -3.7114 -1.4647 0.0000 -9.1034 0.0000
# 2 -3.7114 154.5542 40.7197 0.0000 0.5433 0.0000
# 3 -1.4647 40.7197 44.0192 0.0000 -3.3211 0.0000
# 4 0.0000 0.0000 0.0000 16.3258 0.0000 4.7892
# 5 -9.1034 0.5433 -3.3211 0.0000 34.4094 0.0000
# 6 0.0000 0.0000 0.0000 4.7892 0.0000 24.5168
#
#
#
# Elastic Compliance Matrix: (Units=1/GPa)
#
#
# Indices 1 2 3 4 5 6 
#
# 1 0.012339 0.000146 0.000525 0.000000 0.003313 0.000000
# 2 0.000146 0.008585 -0.008002 0.000000 -0.000869 0.000000
# 3 0.000525 -0.008002 0.030379 0.000000 0.003197 0.000000
# 4 0.000000 0.000000 0.000000 0.064976 0.000000 -0.012693
# 5 0.003313 -0.000869 0.003197 0.000000 0.030261 0.000000
# 6 0.000000 0.000000 0.000000 -0.012693 0.000000 0.043268
#
#
# Mechanical properties :
#
#
# Convention : Reuss Voigt Hill
#
# Bulk Modulus (GPa) = 27.29165 39.25037 33.27101
# Shear Modulus (GPa) = 23.07518 31.49189 27.28354
#
# Velocity S-wave (km/s) = 3.13768 3.66551 3.41182
# Velocity P-wave (km/s) = 4.97701 5.88734 5.45121
#
# Compressibility (1/GPa) = 0.03664124
#
# Stress axis : x y z
#
# Youngs Moduli (GPa) = 81.04234 116.48035 32.91788
#
# Poissons Ratio (x) = -0.01704 -0.01729
# Poissons Ratio (y) = -0.01186 0.26342
# Poissons Ratio (z) = -0.04256 0.93212
#
# Static dielectric constant tensor:
#      x y z
#    x 1.879770 0.000000 0.039010 
#    y 0.000000 1.865090 0.000000 
#    z 0.039010 0.000000 1.892960 
# 
# From -- ./inp_files/46446.got.cif
#   From: 2010.05.17/outbox.cif.g08.bks.cpg/sg11_24_cif.got.tgz:46446.got - 2010.06.03 12:22:45.
