data_PCOD9163865
_publ_section_title
;
Structure prediction by ZEFSAII (Michael W. Deem and Ramdas Pophale) SiO2 
 PCOD9163865
Probable space group: P 21/M
;
_chemical_formula_sum "Si O2"
_cell_formula_units_Z 28
_cell_length_a 5.975626
_cell_length_b 13.465331
_cell_length_c 19.541734
_cell_angle_alpha 90.000000
_cell_angle_beta 116.720694
_cell_angle_gamma 90.000000
_cell_volume 1404.483534
_symmetry_space_group_name_H-M "P 21/M"
_symmetry_group_IT_number 11
_symmetry_cell_setting 'monoclinic'
loop_
_space_group_symop_operation_xyz
x,y,z
-x,1/2+y,-z
-x,-y,-z
x,1/2-y,z
loop_
_atom_site_type_symbol
_atom_site_label
_atom_site_fract_x
_atom_site_fract_y
_atom_site_fract_z
Si Si1 0.106282 0.474541 0.941420
Si Si2 0.147857 0.364425 0.343605
Si Si3 0.250787 0.053798 0.502336
Si Si4 0.332712 0.974357 0.781885
Si Si5 0.551391 0.048594 0.670394
Si Si6 0.003132 0.135760 0.804443
Si Si7 0.551249 0.367611 0.073596
O O1 0.927397 0.413117 0.866515
O O2 0.199570 0.574887 0.917277
O O3 0.342111 0.403272 0.991010
O O4 0.000000 0.500000 0.000000
O O5 0.199174 0.250000 0.334715
O O6 0.146201 0.380208 0.425599
O O7 0.352480 0.441792 0.343630
O O8 0.892791 0.401450 0.272676
O O9 0.376397 0.096187 0.588553
O O10 0.500000 0.000000 0.500000
O O11 0.000000 0.000000 0.500000
O O12 0.502630 0.911186 0.857649
O O13 0.428315 0.021738 0.725243
O O14 0.230996 0.067418 0.811386
O O15 0.787115 0.117519 0.719409
O O16 0.064093 0.250000 0.819884
O O17 0.575481 0.250000 0.078365
#
# Coordination Sequence:
#
# PCOD9163865 Si02
#       7
#     4   4   4   4   4   4   4
#     4  10  21  39  58  82 116 154 196 250 307 367
#     4  10  21  36  58  89 119 157 202 248 306 370
#     4  10  20  39  62  87 123 168 209 260 318 368
#     4  10  20  38  58  83 119 155 191 251 307 368
#     4  10  21  38  61  82 121 157 199 251 305 367
#     4  10  22  38  58  85 116 155 202 250 306 372
#     4  10  21  35  56  86 116 150 196 247 304 369
#
# _framework density 19.936153999999998
#
# number of rings (size 3 to 8) (size 9 to 14) (size 15 to 20)
#    0.000    2.000    1.429    1.714    0.000    3.429 
#    0.000    0.000    0.000    0.000    0.000    0.000 
#    0.000    0.000    0.000    0.000    0.000    0.000 
#
# Total GULP energy -155921.585002 kJ/mol
# GULP energy per Si atom -5568.628036 kJ/mol
# Density = 1.989078 g / cm^3
# Si number density = 19.936154 Si / 1000 Ang^3
#
#
#
# Elastic Constant Matrix: (Units=GPa)
#
#
# Indices 1 2 3 4 5 6 
#
# 1 44.0504 13.1222 5.6503 0.0000 -15.0202 0.0000
# 2 13.1222 125.7739 33.9633 0.0000 -6.5870 0.0000
# 3 5.6503 33.9633 121.3164 0.0000 -4.2413 0.0000
# 4 0.0000 0.0000 0.0000 19.0838 0.0000 -6.0478
# 5 -15.0202 -6.5870 -4.2413 0.0000 40.3613 0.0000
# 6 0.0000 0.0000 0.0000 -6.0478 0.0000 4.7068
#
#
#
# Elastic Compliance Matrix: (Units=1/GPa)
#
#
# Indices 1 2 3 4 5 6 
#
# 1 0.026642 -0.002202 -0.000291 0.000000 0.009525 0.000000
# 2 -0.002202 0.008837 -0.002358 0.000000 0.000375 0.000000
# 3 -0.000291 -0.002358 0.008932 0.000000 0.000445 0.000000
# 4 0.000000 0.000000 0.000000 0.088394 0.000000 0.113577
# 5 0.009525 0.000375 0.000445 0.000000 0.028429 0.000000
# 6 0.000000 0.000000 0.000000 0.113577 0.000000 0.358394
#
#
# Mechanical properties :
#
#
# Convention : Reuss Voigt Hill
#
# Bulk Modulus (GPa) = 28.81178 44.06803 36.43990
# Shear Modulus (GPa) = 9.24384 28.72404 18.98394
#
# Velocity S-wave (km/s) = 2.15564 3.79991 3.08918
# Velocity P-wave (km/s) = 4.54743 6.43467 5.57154
#
# Compressibility (1/GPa) = 0.03470803
#
# Stress axis : x y z
#
# Youngs Moduli (GPa) = 37.53418 113.16078 111.95365
#
# Poissons Ratio (x) = 0.24919 0.03262
# Poissons Ratio (y) = 0.08265 0.26402
# Poissons Ratio (z) = 0.01094 0.26687
#
# Static dielectric constant tensor:
#      x y z
#    x 1.778360 0.000000 0.010080 
#    y 0.000000 1.655400 0.000000 
#    z 0.010080 0.000000 1.749750 
# 
# From -- ./inp_files/62722.got.cif
#   From: 2010.05.17/outbox.cif.g08.bks.cpg/sg11_32_cif.got.tgz:62722.got - 2010.06.03 12:22:45.
