data_PCOD9163287
_publ_section_title
;
Structure prediction by ZEFSAII (Michael W. Deem and Ramdas Pophale) SiO2 
 PCOD9163287
Probable space group: P 21/M
;
_chemical_formula_sum "Si O2"
_cell_formula_units_Z 32
_cell_length_a 11.806876
_cell_length_b 7.959427
_cell_length_c 26.879225
_cell_angle_alpha 90.000000
_cell_angle_beta 35.296633
_cell_angle_gamma 90.000000
_cell_volume 1459.547889
_symmetry_space_group_name_H-M "P 21/M"
_symmetry_group_IT_number 11
_symmetry_cell_setting 'monoclinic'
loop_
_space_group_symop_operation_xyz
x,y,z
-x,1/2+y,-z
-x,-y,-z
x,1/2-y,z
loop_
_atom_site_type_symbol
_atom_site_label
_atom_site_fract_x
_atom_site_fract_y
_atom_site_fract_z
Si Si1 0.323508 0.546505 0.625747
Si Si2 0.931278 0.546814 0.080074
Si Si3 0.506567 0.445629 0.765053
Si Si4 0.087841 0.455301 0.194677
Si Si5 0.084351 0.551100 0.416686
Si Si6 0.250788 0.948088 0.538936
Si Si7 0.612930 0.944336 0.834378
Si Si8 0.721992 0.946474 0.973726
O O1 0.329956 0.750000 0.623045
O O2 0.539592 0.484719 0.562011
O O3 0.275080 0.485639 0.586706
O O4 0.138934 0.493228 0.725347
O O5 0.939181 0.750000 0.081908
O O6 0.709097 0.483933 0.167715
O O7 0.081648 0.465304 0.064313
O O8 0.000000 0.500000 0.000000
O O9 0.494190 0.250000 0.755265
O O10 0.699169 0.523225 0.670793
O O11 0.546046 0.456709 0.810014
O O12 0.092280 0.250000 0.191775
O O13 0.188437 0.504943 0.210529
O O14 0.220284 0.513280 0.101308
O O15 0.106813 0.750000 0.408623
O O16 0.000000 0.500000 0.500000
O O17 0.931230 0.510555 0.427812
O O18 0.225518 0.750000 0.552590
O O19 0.636896 0.750000 0.811089
O O20 0.447212 0.958033 0.936138
O O21 0.666806 0.750000 0.990267
#
# Coordination Sequence:
#
# PCOD9163287 Si02
#       8
#     4   4   4   4   4   4   4   4
#     4   9  18  36  60  85 115 153 196 242 290 348
#     4  11  22  39  61  85 114 149 193 244 293 345
#     4  10  23  41  62  87 117 151 192 243 297 347
#     4   9  20  36  55  83 117 153 194 240 288 343
#     4  11  24  42  62  87 120 157 195 243 298 354
#     4  10  20  36  60  88 118 152 193 242 294 349
#     4  11  21  36  60  86 115 152 196 239 287 347
#     4  11  22  37  56  81 117 155 193 239 290 343
#
# _framework density 21.924596999999999
#
# number of rings (size 3 to 8) (size 9 to 14) (size 15 to 20)
#    0.000    1.750    1.250    3.000    0.000    4.000 
#    0.000    6.875    0.000    0.000    0.000    0.000 
#    0.000    0.000    0.000    0.000    0.000    0.000 
#
# Total GULP energy -178827.606890 kJ/mol
# GULP energy per Si atom -5588.362715 kJ/mol
# Density = 2.187470 g / cm^3
# Si number density = 21.924597 Si / 1000 Ang^3
#
#
#
# Elastic Constant Matrix: (Units=GPa)
#
#
# Indices 1 2 3 4 5 6 
#
# 1 46.5349 -7.7861 8.9057 0.0000 -15.4400 0.0000
# 2 -7.7861 34.7207 -5.2028 0.0000 -2.4342 0.0000
# 3 8.9057 -5.2028 122.7648 0.0000 -17.6341 0.0000
# 4 0.0000 0.0000 0.0000 21.5263 0.0000 -2.6385
# 5 -15.4400 -2.4342 -17.6341 0.0000 33.8989 0.0000
# 6 0.0000 0.0000 0.0000 -2.6385 0.0000 20.9557
#
#
#
# Elastic Compliance Matrix: (Units=1/GPa)
#
#
# Indices 1 2 3 4 5 6 
#
# 1 0.026877 0.006956 0.000189 0.000000 0.012840 0.000000
# 2 0.006956 0.031059 0.001715 0.000000 0.006291 0.000000
# 3 0.000189 0.001715 0.008900 0.000000 0.004839 0.000000
# 4 0.000000 0.000000 0.000000 0.047183 0.000000 0.005941
# 5 0.012840 0.006291 0.004839 0.000000 0.038316 0.000000
# 6 0.000000 0.000000 0.000000 0.005941 0.000000 0.048468
#
#
# Mechanical properties :
#
#
# Convention : Reuss Voigt Hill
#
# Bulk Modulus (GPa) = 11.82644 21.76157 16.79400
# Shear Modulus (GPa) = 23.66666 29.14976 26.40821
#
# Velocity S-wave (km/s) = 3.28907 3.65025 3.47436
# Velocity P-wave (km/s) = 4.45307 5.26431 4.87559
#
# Compressibility (1/GPa) = 0.08455633
#
# Stress axis : x y z
#
# Youngs Moduli (GPa) = 37.20668 32.19663 112.36341
#
# Poissons Ratio (x) = -0.22395 -0.02128
# Poissons Ratio (y) = -0.25880 -0.19274
# Poissons Ratio (z) = -0.00705 -0.05523
#
# Static dielectric constant tensor:
#      x y z
#    x 1.758180 0.000000 -0.038720 
#    y 0.000000 1.792480 0.000000 
#    z -0.038720 0.000000 1.771930 
# 
# From -- ./inp_files/73111.got.cif
#   From: 2010.05.17/outbox.cif.g08.bks.cpg/sg11_37_cif.got.tgz:73111.got - 2010.06.03 12:22:45.
