data_PCOD9163408
_publ_section_title
;
Structure prediction by ZEFSAII (Michael W. Deem and Ramdas Pophale) SiO2 
 PCOD9163408
Probable space group: P 21/M
;
_chemical_formula_sum "Si O2"
_cell_formula_units_Z 28
_cell_length_a 21.884359
_cell_length_b 14.405199
_cell_length_c 9.449865
_cell_angle_alpha 90.000000
_cell_angle_beta 149.788042
_cell_angle_gamma 90.000000
_cell_volume 1499.062022
_symmetry_space_group_name_H-M "P 21/M"
_symmetry_group_IT_number 11
_symmetry_cell_setting 'monoclinic'
loop_
_space_group_symop_operation_xyz
x,y,z
-x,1/2+y,-z
-x,-y,-z
x,1/2-y,z
loop_
_atom_site_type_symbol
_atom_site_label
_atom_site_fract_x
_atom_site_fract_y
_atom_site_fract_z
Si Si1 0.856985 0.513557 0.205056
Si Si2 0.769496 0.141361 0.819115
Si Si3 0.492882 0.860152 0.352269
Si Si4 0.512801 0.641457 0.722390
Si Si5 0.240591 0.140222 0.229616
Si Si6 0.140108 0.987411 0.238874
Si Si7 0.298310 0.995739 0.831655
O O1 0.796570 0.523620 0.236375
O O2 0.000000 0.500000 0.500000
O O3 0.801428 0.422793 0.016776
O O4 0.824815 0.600909 0.041717
O O5 0.793778 0.250000 0.891460
O O6 0.625462 0.130407 0.503569
O O7 0.842571 0.097812 0.834898
O O8 0.469889 0.750000 0.308969
O O9 0.514155 0.888236 0.559026
O O10 0.616448 0.877684 0.512670
O O11 0.381577 0.913093 0.058915
O O12 0.544639 0.750000 0.791683
O O13 0.607305 0.580219 0.997460
O O14 0.222628 0.250000 0.212274
O O15 0.189055 0.078246 0.253586
O O16 0.224141 0.972434 0.543383
O O17 0.000000 0.000000 0.000000
#
# Coordination Sequence:
#
# PCOD9163408 Si02
#       7
#     4   4   4   4   4   4   4
#     4  11  22  37  60  90 118 155 210 252 286 351
#     4  10  22  42  63  85 121 161 197 247 305 354
#     4  10  20  36  62  96 124 148 191 251 311 363
#     4  10  20  36  62  96 124 148 191 251 311 363
#     4  10  22  42  63  85 121 161 197 247 305 354
#     4  11  26  44  58  85 125 167 207 243 288 356
#     4  12  21  36  64  89 121 160 197 247 308 347
#
# _framework density 18.678346999999999
#
# number of rings (size 3 to 8) (size 9 to 14) (size 15 to 20)
#    0.000    1.429    2.857    3.857    0.000    4.571 
#    0.000    5.714    0.000    0.000    0.000    0.000 
#    0.000    0.000    0.000    0.000    0.000    0.000 
#
# Total GULP energy -156461.449912 kJ/mol
# GULP energy per Si atom -5587.908925 kJ/mol
# Density = 1.863583 g / cm^3
# Si number density = 18.678347 Si / 1000 Ang^3
#
#
#
# Elastic Constant Matrix: (Units=GPa)
#
#
# Indices 1 2 3 4 5 6 
#
# 1 62.8959 -5.7576 -3.4694 0.0000 12.3494 0.0000
# 2 -5.7576 52.9122 5.3570 0.0000 9.6519 0.0000
# 3 -3.4694 5.3570 46.3151 0.0000 14.3443 0.0000
# 4 0.0000 0.0000 0.0000 2.6049 0.0000 6.6105
# 5 12.3494 9.6519 14.3443 0.0000 34.1384 0.0000
# 6 0.0000 0.0000 0.0000 6.6105 0.0000 21.3840
#
#
#
# Elastic Compliance Matrix: (Units=1/GPa)
#
#
# Indices 1 2 3 4 5 6 
#
# 1 0.018194 0.003255 0.003805 0.000000 -0.009101 0.000000
# 2 0.003255 0.020526 0.000036 0.000000 -0.006996 0.000000
# 3 0.003805 0.000036 0.025638 0.000000 -0.012159 0.000000
# 4 0.000000 0.000000 0.000000 1.781374 0.000000 -0.550680
# 5 -0.009101 -0.006996 -0.012159 0.000000 0.039672 0.000000
# 6 0.000000 0.000000 0.000000 -0.550680 0.000000 0.216997
#
#
# Mechanical properties :
#
#
# Convention : Reuss Voigt Hill
#
# Bulk Modulus (GPa) = 12.73080 17.15368 14.94224
# Shear Modulus (GPa) = 2.36475 22.69167 12.52821
#
# Velocity S-wave (km/s) = 1.12640 3.48927 2.59266
# Velocity P-wave (km/s) = 2.91930 5.04351 4.12064
#
# Compressibility (1/GPa) = 0.07854963
#
# Stress axis : x y z
#
# Youngs Moduli (GPa) = 54.96322 48.71907 39.00472
#
# Poissons Ratio (x) = -0.15856 -0.14841
# Poissons Ratio (y) = -0.17888 -0.00142
# Poissons Ratio (z) = -0.20913 -0.00177
#
# Static dielectric constant tensor:
#      x y z
#    x 1.647150 0.000000 0.003350 
#    y 0.000000 1.649470 0.000000 
#    z 0.003350 0.000000 1.615220 
# 
# From -- ./inp_files/17897.got.cif
#   From: 2010.05.17/outbox.cif.g08.bks.cpg/sg11_9_cif.got.tgz:17897.got - 2010.06.03 12:22:45.
