data_PCOD9163756
_publ_section_title
;
Structure prediction by ZEFSAII (Michael W. Deem and Ramdas Pophale) SiO2 
 PCOD9163756
Probable space group: P 21/M
;
_chemical_formula_sum "Si O2"
_cell_formula_units_Z 28
_cell_length_a 16.121789
_cell_length_b 19.607992
_cell_length_c 9.692666
_cell_angle_alpha 90.000000
_cell_angle_beta 150.039878
_cell_angle_gamma 90.000000
_cell_volume 1530.155747
_symmetry_space_group_name_H-M "P 21/M"
_symmetry_group_IT_number 11
_symmetry_cell_setting 'monoclinic'
loop_
_space_group_symop_operation_xyz
x,y,z
-x,1/2+y,-z
-x,-y,-z
x,1/2-y,z
loop_
_atom_site_type_symbol
_atom_site_label
_atom_site_fract_x
_atom_site_fract_y
_atom_site_fract_z
Si Si1 0.597886 0.899112 0.557127
Si Si2 0.265172 0.912355 0.605629
Si Si3 0.038869 0.172936 0.512781
Si Si4 0.838987 0.970593 0.348059
Si Si5 0.501313 0.043550 0.302474
Si Si6 0.936520 0.670533 0.120226
Si Si7 0.346603 0.829192 0.989987
O O1 0.525146 0.906531 0.606625
O O2 0.591228 0.975354 0.486049
O O3 0.780717 0.868093 0.831266
O O4 0.480819 0.853494 0.292843
O O5 0.392451 0.924696 0.666971
O O6 0.350838 0.874046 0.857945
O O7 0.108623 0.866882 0.334851
O O8 0.197247 0.983178 0.571472
O O9 0.081211 0.250000 0.528005
O O10 0.128321 0.108862 0.572488
O O11 0.077821 0.167861 0.732976
O O12 0.839891 0.163305 0.217697
O O13 0.679780 0.975647 0.018518
O O14 0.000000 0.000000 0.500000
O O15 0.940040 0.750000 0.086338
O O16 0.367081 0.750000 0.983792
#
# Coordination Sequence:
#
# PCOD9163756 Si02
#       7
#     4   4   4   4   4   4   4
#     4  11  21  39  61  88 120 159 205 247 305 369
#     4  11  22  39  63  88 120 157 204 258 301 362
#     4   9  18  34  57  85 115 154 206 244 293 367
#     4  12  18  36  62  90 115 158 207 254 297 358
#     4  11  24  37  60  92 123 156 205 258 309 363
#     4  10  20  38  60  85 119 162 202 242 305 375
#     4  10  20  37  62  89 118 157 199 250 308 360
#
# _framework density 18.298791000000001
#
# number of rings (size 3 to 8) (size 9 to 14) (size 15 to 20)
#    0.000    1.429    5.714    2.143    0.000    1.714 
#    0.000    4.286    0.000    1.714    0.000    0.000 
#    0.000    0.000    0.000    0.000    0.000    0.000 
#
# Total GULP energy -156378.594937 kJ/mol
# GULP energy per Si atom -5584.949819 kJ/mol
# Density = 1.825714 g / cm^3
# Si number density = 18.298791 Si / 1000 Ang^3
#
#
#
# Elastic Constant Matrix: (Units=GPa)
#
#
# Indices 1 2 3 4 5 6 
#
# 1 93.1644 54.0996 48.5369 0.0000 7.6103 0.0000
# 2 54.0996 109.9149 47.9874 0.0000 9.7370 0.0000
# 3 48.5369 47.9874 149.4885 0.0000 10.1747 0.0000
# 4 0.0000 0.0000 0.0000 32.6619 0.0000 2.3057
# 5 7.6103 9.7370 10.1747 0.0000 8.2595 0.0000
# 6 0.0000 0.0000 0.0000 2.3057 0.0000 10.2533
#
#
#
# Elastic Compliance Matrix: (Units=1/GPa)
#
#
# Indices 1 2 3 4 5 6 
#
# 1 0.016309 -0.006385 -0.002985 0.000000 -0.003822 0.000000
# 2 -0.006385 0.013739 -0.001785 0.000000 -0.008114 0.000000
# 3 -0.002985 -0.001785 0.008624 0.000000 -0.005769 0.000000
# 4 0.000000 0.000000 0.000000 0.031111 0.000000 -0.006996
# 5 -0.003822 -0.008114 -0.005769 0.000000 0.141267 0.000000
# 6 0.000000 0.000000 0.000000 -0.006996 0.000000 0.099102
#
#
# Mechanical properties :
#
#
# Convention : Reuss Voigt Hill
#
# Bulk Modulus (GPa) = 61.11994 72.64620 66.88307
# Shear Modulus (GPa) = 14.79650 23.69787 19.24719
#
# Velocity S-wave (km/s) = 2.84668 3.60259 3.24671
# Velocity P-wave (km/s) = 6.65420 7.55586 7.11932
#
# Compressibility (1/GPa) = 0.01636127
#
# Stress axis : x y z
#
# Youngs Moduli (GPa) = 61.31516 72.78650 115.94959
#
# Poissons Ratio (x) = 0.46476 0.34617
# Poissons Ratio (y) = 0.39152 0.20695
# Poissons Ratio (z) = 0.18306 0.12991
#
# Static dielectric constant tensor:
#      x y z
#    x 1.592870 0.000000 -0.001430 
#    y 0.000000 1.650740 0.000000 
#    z -0.001430 0.000000 1.616200 
# 
# From -- ./inp_files/23191.got.cif
#   From: 2010.05.17/outbox.cif.g08.bks.cpg/sg11_12_cif.got.tgz:23191.got - 2010.06.03 12:22:45.
