data_PCOD9163126
_publ_section_title
;
Structure prediction by ZEFSAII (Michael W. Deem and Ramdas Pophale) SiO2 
 PCOD9163126
Probable space group: P 21/M
;
_chemical_formula_sum "Si O2"
_cell_formula_units_Z 32
_cell_length_a 28.473638
_cell_length_b 8.776322
_cell_length_c 22.007118
_cell_angle_alpha 90.000000
_cell_angle_beta 161.049888
_cell_angle_gamma 90.000000
_cell_volume 1785.915189
_symmetry_space_group_name_H-M "P 21/M"
_symmetry_group_IT_number 11
_symmetry_cell_setting 'monoclinic'
loop_
_space_group_symop_operation_xyz
x,y,z
-x,1/2+y,-z
-x,-y,-z
x,1/2-y,z
loop_
_atom_site_type_symbol
_atom_site_label
_atom_site_fract_x
_atom_site_fract_y
_atom_site_fract_z
Si Si1 0.097612 0.431494 0.795005
Si Si2 0.131555 0.068386 0.284965
Si Si3 0.326354 0.433925 0.409809
Si Si4 0.643823 0.933902 0.803541
Si Si5 0.342619 0.566393 0.793343
Si Si6 0.188728 0.434008 0.113302
Si Si7 0.938763 0.568557 0.487396
Si Si8 0.191582 0.569981 0.483288
O O1 0.099700 0.250000 0.783574
O O2 0.048534 0.521736 0.675692
O O3 0.971095 0.452966 0.690179
O O4 0.248465 0.477057 0.009893
O O5 0.118415 0.250000 0.267140
O O6 0.221773 0.017532 0.336564
O O7 0.208283 0.019025 0.441331
O O8 0.972770 0.996278 0.089109
O O9 0.331991 0.250000 0.416505
O O10 0.485719 0.497697 0.614830
O O11 0.262856 0.483166 0.266968
O O12 0.635822 0.750000 0.793494
O O13 0.717660 0.982137 0.830415
O O14 0.342335 0.750000 0.797687
O O15 0.216587 0.501034 0.682756
O O16 0.294823 0.526526 0.665747
O O17 0.500000 0.500000 0.000000
O O18 0.181834 0.250000 0.104240
O O19 0.073697 0.250000 0.532343
O O20 0.000000 0.500000 0.500000
O O21 0.209418 0.750000 0.493525
#
# Coordination Sequence:
#
# PCOD9163126 Si02
#       8
#     4   4   4   4   4   4   4   4
#     4   9  18  36  59  84 112 145 190 237 277 334
#     4  11  22  35  54  83 113 145 188 234 278 330
#     4  10  23  38  52  79 117 148 181 233 287 335
#     4  10  20  36  59  83 108 144 188 232 282 339
#     4  10  21  39  62  89 119 152 192 237 286 341
#     4  10  20  38  60  79 106 146 189 233 283 338
#     4  11  22  38  61  89 119 154 192 235 286 340
#     4   9  18  36  60  82 111 150 187 227 276 332
#
# _framework density 17.917984000000001
#
# number of rings (size 3 to 8) (size 9 to 14) (size 15 to 20)
#    0.000    2.000    1.250    3.375    0.000    5.000 
#    2.250    0.000    0.000    0.000    0.000    0.000 
#    0.000    0.000    0.000    0.000    0.000    0.000 
#
# Total GULP energy -178682.894635 kJ/mol
# GULP energy per Si atom -5583.840457 kJ/mol
# Density = 1.787720 g / cm^3
# Si number density = 17.917984 Si / 1000 Ang^3
#
#
#
# Elastic Constant Matrix: (Units=GPa)
#
#
# Indices 1 2 3 4 5 6 
#
# 1 64.1249 19.6216 22.1965 0.0000 -6.3998 0.0000
# 2 19.6216 33.9510 18.3066 0.0000 -7.1319 0.0000
# 3 22.1965 18.3066 101.3826 0.0000 -7.6704 0.0000
# 4 0.0000 0.0000 0.0000 30.6501 0.0000 3.9914
# 5 -6.3998 -7.1319 -7.6704 0.0000 22.6815 0.0000
# 6 0.0000 0.0000 0.0000 3.9914 0.0000 24.9841
#
#
#
# Elastic Compliance Matrix: (Units=1/GPa)
#
#
# Indices 1 2 3 4 5 6 
#
# 1 0.019547 -0.009647 -0.002412 0.000000 0.001667 0.000000
# 2 -0.009647 0.039065 -0.004329 0.000000 0.008097 0.000000
# 3 -0.002412 -0.004329 0.011308 0.000000 0.001782 0.000000
# 4 0.000000 0.000000 0.000000 0.033319 0.000000 -0.005323
# 5 0.001667 0.008097 0.001782 0.000000 0.047708 0.000000
# 6 0.000000 0.000000 0.000000 -0.005323 0.000000 0.040876
#
#
# Mechanical properties :
#
#
# Convention : Reuss Voigt Hill
#
# Bulk Modulus (GPa) = 26.92137 35.52310 31.22224
# Shear Modulus (GPa) = 21.09876 24.95208 23.02542
#
# Velocity S-wave (km/s) = 3.43522 3.73577 3.58864
# Velocity P-wave (km/s) = 5.54903 6.20293 5.88507
#
# Compressibility (1/GPa) = 0.03714521
#
# Stress axis : x y z
#
# Youngs Moduli (GPa) = 51.15747 25.59851 88.43129
#
# Poissons Ratio (x) = 0.24694 0.21327
# Poissons Ratio (y) = 0.49350 0.38284
# Poissons Ratio (z) = 0.12338 0.11082
#
# Static dielectric constant tensor:
#      x y z
#    x 1.601570 0.000000 -0.016580 
#    y 0.000000 1.597420 0.000000 
#    z -0.016580 0.000000 1.588590 
# 
# From -- ./inp_files/67162.got.cif
#   From: 2010.05.17/outbox.cif.g08.bks.cpg/sg11_34_cif.got.tgz:67162.got - 2010.06.03 12:22:45.
