data_PCOD9163237
_publ_section_title
;
Structure prediction by ZEFSAII (Michael W. Deem and Ramdas Pophale) SiO2 
 PCOD9163237
Probable space group: P 21/M
;
_chemical_formula_sum "Si O2"
_cell_formula_units_Z 32
_cell_length_a 21.413800
_cell_length_b 7.724468
_cell_length_c 27.422761
_cell_angle_alpha 90.000000
_cell_angle_beta 19.105679
_cell_angle_gamma 90.000000
_cell_volume 1484.686777
_symmetry_space_group_name_H-M "P 21/M"
_symmetry_group_IT_number 11
_symmetry_cell_setting 'monoclinic'
loop_
_space_group_symop_operation_xyz
x,y,z
-x,1/2+y,-z
-x,-y,-z
x,1/2-y,z
loop_
_atom_site_type_symbol
_atom_site_label
_atom_site_fract_x
_atom_site_fract_y
_atom_site_fract_z
Si Si1 0.575146 0.446282 0.997380
Si Si2 0.991332 0.045061 0.926412
Si Si3 0.734922 0.039308 0.457535
Si Si4 0.697865 0.540269 0.224830
Si Si5 0.062829 0.048275 0.143588
Si Si6 0.521214 0.552043 0.141970
Si Si7 0.890156 0.458787 0.531527
Si Si8 0.987139 0.959203 0.663752
O O1 0.515981 0.250000 0.050178
O O2 0.802760 0.464219 0.825961
O O3 0.500000 0.500000 0.000000
O O4 0.503060 0.552593 0.096749
O O5 0.014197 0.250000 0.902392
O O6 0.166288 0.980948 0.831055
O O7 0.981076 0.961743 0.881084
O O8 0.801809 0.013192 0.098197
O O9 0.726000 0.250000 0.460623
O O10 0.518805 0.977406 0.611267
O O11 0.825810 0.998455 0.442968
O O12 0.887477 0.976551 0.304725
O O13 0.697942 0.750000 0.225681
O O14 0.078130 0.250000 0.147770
O O15 0.273155 0.970207 0.997806
O O16 0.528757 0.750000 0.154851
O O17 0.327030 0.473372 0.306034
O O18 0.880133 0.250000 0.535794
O O19 0.994640 0.518583 0.405371
O O20 0.000000 0.500000 0.500000
O O21 0.963484 0.750000 0.681935
#
# Coordination Sequence:
#
# PCOD9163237 Si02
#       8
#     4   4   4   4   4   4   4   4
#     4  12  24  38  59  84 113 151 190 231 282 336
#     4  10  21  36  55  86 122 152 187 235 282 332
#     4   9  18  35  61  86 109 144 194 239 277 334
#     4   9  19  37  61  85 113 152 195 233 279 336
#     4  10  20  36  60  85 112 150 192 233 281 339
#     4  10  21  39  60  85 113 146 191 238 281 336
#     4  10  22  37  58  84 111 143 184 232 286 337
#     4  10  20  38  60  84 111 144 189 238 283 335
#
# _framework density 21.553369
#
# number of rings (size 3 to 8) (size 9 to 14) (size 15 to 20)
#    0.000    2.000    1.250    2.250    1.750    4.500 
#    0.000    1.250    0.000    0.000    0.000    0.000 
#    0.000    0.000    0.000    0.000    0.000    0.000 
#
# Total GULP energy -178755.565249 kJ/mol
# GULP energy per Si atom -5586.111414 kJ/mol
# Density = 2.150431 g / cm^3
# Si number density = 21.553369 Si / 1000 Ang^3
#
#
#
# Elastic Constant Matrix: (Units=GPa)
#
#
# Indices 1 2 3 4 5 6 
#
# 1 74.4419 -9.6044 8.4052 0.0000 5.7622 0.0000
# 2 -9.6044 41.4161 -3.7168 0.0000 -3.7812 0.0000
# 3 8.4052 -3.7168 83.1271 0.0000 -11.3187 0.0000
# 4 0.0000 0.0000 0.0000 7.3095 0.0000 1.3864
# 5 5.7622 -3.7812 -11.3187 0.0000 34.2933 0.0000
# 6 0.0000 0.0000 0.0000 1.3864 0.0000 21.3377
#
#
#
# Elastic Compliance Matrix: (Units=1/GPa)
#
#
# Indices 1 2 3 4 5 6 
#
# 1 0.014198 0.002905 -0.001662 0.000000 -0.002614 0.000000
# 2 0.002905 0.025171 0.001197 0.000000 0.002682 0.000000
# 3 -0.001662 0.001197 0.012886 0.000000 0.004664 0.000000
# 4 0.000000 0.000000 0.000000 0.138516 0.000000 -0.009000
# 5 -0.002614 0.002682 0.004664 0.000000 0.031435 0.000000
# 6 0.000000 0.000000 0.000000 -0.009000 0.000000 0.047450
#
#
# Mechanical properties :
#
#
# Convention : Reuss Voigt Hill
#
# Bulk Modulus (GPa) = 17.50217 21.01701 19.25959
# Shear Modulus (GPa) = 17.61669 26.18148 21.89908
#
# Velocity S-wave (km/s) = 2.86204 3.48908 3.19100
# Velocity P-wave (km/s) = 4.36574 5.09940 4.74676
#
# Compressibility (1/GPa) = 0.05713578
#
# Stress axis : x y z
#
# Youngs Moduli (GPa) = 70.43247 39.72808 77.60108
#
# Poissons Ratio (x) = -0.11540 0.12894
# Poissons Ratio (y) = -0.20459 -0.09289
# Poissons Ratio (z) = 0.11703 -0.04755
#
# Static dielectric constant tensor:
#      x y z
#    x 1.753410 0.000000 -0.022280 
#    y 0.000000 1.841220 0.000000 
#    z -0.022280 0.000000 1.781420 
# 
# From -- ./inp_files/67166.got.cif
#   From: 2010.05.17/outbox.cif.g08.bks.cpg/sg11_34_cif.got.tgz:67166.got - 2010.06.03 12:22:45.
