data_PCOD9163729
_publ_section_title
;
Structure prediction by ZEFSAII (Michael W. Deem and Ramdas Pophale) SiO2 
 PCOD9163729
Probable space group: P 21/M
;
_chemical_formula_sum "Si O2"
_cell_formula_units_Z 28
_cell_length_a 14.446787
_cell_length_b 19.024061
_cell_length_c 5.568583
_cell_angle_alpha 90.000000
_cell_angle_beta 112.668750
_cell_angle_gamma 90.000000
_cell_volume 1412.220503
_symmetry_space_group_name_H-M "P 21/M"
_symmetry_group_IT_number 11
_symmetry_cell_setting 'monoclinic'
loop_
_space_group_symop_operation_xyz
x,y,z
-x,1/2+y,-z
-x,-y,-z
x,1/2-y,z
loop_
_atom_site_type_symbol
_atom_site_label
_atom_site_fract_x
_atom_site_fract_y
_atom_site_fract_z
Si Si1 0.435908 0.172263 0.806146
Si Si2 0.314496 0.060698 0.426779
Si Si3 0.750425 0.825827 0.018612
Si Si4 0.659220 0.167741 0.176841
Si Si5 0.723973 0.405581 0.738964
Si Si6 0.122775 0.079260 0.577118
Si Si7 0.065237 0.544298 0.880774
O O1 0.443565 0.250000 0.687852
O O2 0.410337 0.103406 0.623909
O O3 0.341114 0.177352 0.886730
O O4 0.538120 0.162952 0.054202
O O5 0.274557 0.111405 0.181303
O O6 0.221289 0.060084 0.519921
O O7 0.328367 0.982003 0.346320
O O8 0.760549 0.750000 0.908609
O O9 0.849192 0.850111 0.255216
O O10 0.686891 0.250000 0.193943
O O11 0.701276 0.135010 0.466775
O O12 0.690339 0.131161 0.955126
O O13 0.842750 0.418761 0.895379
O O14 0.019099 0.090611 0.333551
O O15 0.107907 0.012059 0.733692
O O16 0.000000 0.500000 0.000000
#
# Coordination Sequence:
#
# PCOD9163729 Si02
#       7
#     4   4   4   4   4   4   4
#     4   9  22  41  64  90 133 182 217 259 329 402
#     4  11  21  37  64 102 129 161 217 276 332 390
#     4  10  20  37  62  93 130 170 212 269 328 396
#     4  11  27  49  67  93 133 182 224 269 332 396
#     4  12  25  42  72  99 130 171 223 285 323 388
#     4  10  20  37  61  93 130 164 215 265 324 405
#     4  11  21  38  67  94 121 172 213 268 332 401
#
# _framework density 19.826931999999999
#
# number of rings (size 3 to 8) (size 9 to 14) (size 15 to 20)
#    0.000    1.429    2.857    1.714    6.000    1.714 
#    0.000    1.429    0.000    0.000    0.000    0.000 
#    0.000    0.000    0.000    0.000    0.000    0.000 
#
# Total GULP energy -156164.790580 kJ/mol
# GULP energy per Si atom -5577.313949 kJ/mol
# Density = 1.978180 g / cm^3
# Si number density = 19.826932 Si / 1000 Ang^3
#
#
#
# Elastic Constant Matrix: (Units=GPa)
#
#
# Indices 1 2 3 4 5 6 
#
# 1 38.7001 34.7054 46.1666 0.0000 22.0815 0.0000
# 2 34.7054 148.3959 84.4103 0.0000 -0.6780 0.0000
# 3 46.1666 84.4103 149.8635 0.0000 19.6584 0.0000
# 4 0.0000 0.0000 0.0000 9.1067 0.0000 -10.4757
# 5 22.0815 -0.6780 19.6584 0.0000 37.8231 0.0000
# 6 0.0000 0.0000 0.0000 -10.4757 0.0000 9.1625
#
#
#
# Elastic Compliance Matrix: (Units=1/GPa)
#
#
# Indices 1 2 3 4 5 6 
#
# 1 0.065979 -0.009560 -0.010587 0.000000 -0.033188 0.000000
# 2 -0.009560 0.011701 -0.004728 0.000000 0.008248 0.000000
# 3 -0.010587 -0.004728 0.012661 0.000000 -0.000484 0.000000
# 4 0.000000 0.000000 0.000000 -0.348388 0.000000 -0.398319
# 5 -0.033188 0.008248 -0.000484 0.000000 0.046214 0.000000
# 6 0.000000 0.000000 0.000000 -0.398319 0.000000 -0.346266
#
#
# Mechanical properties :
#
#
# Convention : Reuss Voigt Hill
#
# Bulk Modulus (GPa) = 24.63587 74.16935 49.40261
# Shear Modulus (GPa) = -10.10471 22.66362 6.27945
#
# Velocity S-wave (km/s) = -2.25998 3.38460 1.78158
# Velocity P-wave (km/s) = 2.37538 7.26386 5.40398
#
# Compressibility (1/GPa) = 0.04059121
#
# Stress axis : x y z
#
# Youngs Moduli (GPa) = 15.15630 85.45962 78.98486
#
# Poissons Ratio (x) = 0.81699 0.83624
# Poissons Ratio (y) = 0.14489 0.37342
# Poissons Ratio (z) = 0.16046 0.40403
#
# Static dielectric constant tensor:
#      x y z
#    x 1.674440 0.000000 -0.003030 
#    y 0.000000 1.738150 0.000000 
#    z -0.003030 0.000000 1.766520 
# 
# From -- ./inp_files/6883.got.cif
#   From: 2010.05.17/outbox.cif.g08.bks.cpg/sg11_4_cif.got.tgz:6883.got - 2010.06.03 12:22:45.
