data_PCOD9163153
_publ_section_title
;
Structure prediction by ZEFSAII (Michael W. Deem and Ramdas Pophale) SiO2 
 PCOD9163153
Probable space group: P 21/M
;
_chemical_formula_sum "Si O2"
_cell_formula_units_Z 32
_cell_length_a 26.381685
_cell_length_b 8.613617
_cell_length_c 10.899857
_cell_angle_alpha 90.000000
_cell_angle_beta 141.638350
_cell_angle_gamma 90.000000
_cell_volume 1537.222797
_symmetry_space_group_name_H-M "P 21/M"
_symmetry_group_IT_number 11
_symmetry_cell_setting 'monoclinic'
loop_
_space_group_symop_operation_xyz
x,y,z
-x,1/2+y,-z
-x,-y,-z
x,1/2-y,z
loop_
_atom_site_type_symbol
_atom_site_label
_atom_site_fract_x
_atom_site_fract_y
_atom_site_fract_z
Si Si1 0.111724 0.069321 0.291447
Si Si2 0.277462 0.937144 0.207314
Si Si3 0.022411 0.932552 0.354075
Si Si4 0.279920 0.068616 0.730898
Si Si5 0.816714 0.437611 0.219840
Si Si6 0.878146 0.433977 0.948510
Si Si7 0.543253 0.065615 0.961188
Si Si8 0.540198 0.564179 0.451392
O O1 0.089630 0.250000 0.271672
O O2 0.209038 0.053330 0.495189
O O3 0.070289 0.964379 0.316654
O O4 0.092080 0.018738 0.117114
O O5 0.287826 0.750000 0.227723
O O6 0.214518 0.979732 0.195536
O O7 0.365411 0.014449 0.377455
O O8 0.228000 0.979189 0.990287
O O9 0.006296 0.750000 0.339021
O O10 0.088994 0.987972 0.580673
O O11 0.938413 0.023463 0.174733
O O12 0.299678 0.250000 0.782021
O O13 0.237765 0.006837 0.774579
O O14 0.361686 0.977606 0.856677
O O15 0.817361 0.250000 0.231264
O O16 0.880574 0.250000 0.934225
O O17 0.533346 0.250000 0.944071
O O18 0.505022 0.008596 0.759027
O O19 0.500000 0.000000 0.000000
O O20 0.500000 0.500000 0.500000
O O21 0.533901 0.750000 0.443808
#
# Coordination Sequence:
#
# PCOD9163153 Si02
#       8
#     4   4   4   4   4   4   4   4
#     4  10  21  37  58  83 116 154 195 243 291 351
#     4  10  23  41  61  87 119 156 197 245 297 353
#     4  10  20  36  59  85 114 153 197 242 294 351
#     4  10  21  37  60  89 117 150 193 243 297 355
#     4   9  19  38  61  85 115 152 198 244 290 350
#     4  11  23  37  55  83 119 156 195 242 296 352
#     4  11  25  42  62  91 126 162 202 253 310 368
#     4  11  25  44  67  94 125 163 208 255 306 371
#
# _framework density 20.816762000000001
#
# number of rings (size 3 to 8) (size 9 to 14) (size 15 to 20)
#    0.000    1.750    0.000    3.375    1.750    9.000 
#    0.000    0.000    0.000    0.000    0.000    0.000 
#    0.000    0.000    0.000    0.000    0.000    0.000 
#
# Total GULP energy -178855.139610 kJ/mol
# GULP energy per Si atom -5589.223113 kJ/mol
# Density = 2.076938 g / cm^3
# Si number density = 20.816762 Si / 1000 Ang^3
#
#
#
# Elastic Constant Matrix: (Units=GPa)
#
#
# Indices 1 2 3 4 5 6 
#
# 1 76.2193 2.7336 33.4072 0.0000 5.6047 0.0000
# 2 2.7336 21.1063 19.3163 0.0000 -0.0017 0.0000
# 3 33.4072 19.3163 88.8104 0.0000 4.9049 0.0000
# 4 0.0000 0.0000 0.0000 33.3242 0.0000 5.5965
# 5 5.6047 -0.0017 4.9049 0.0000 37.4817 0.0000
# 6 0.0000 0.0000 0.0000 5.5965 0.0000 24.2277
#
#
#
# Elastic Compliance Matrix: (Units=1/GPa)
#
#
# Indices 1 2 3 4 5 6 
#
# 1 0.016100 0.004221 -0.006891 0.000000 -0.001505 0.000000
# 2 0.004221 0.060368 -0.014790 0.000000 0.001307 0.000000
# 3 -0.006891 -0.014790 0.017136 0.000000 -0.001213 0.000000
# 4 0.000000 0.000000 0.000000 0.031219 0.000000 -0.007212
# 5 -0.001505 0.001307 -0.001213 0.000000 0.027064 0.000000
# 6 0.000000 0.000000 0.000000 -0.007212 0.000000 0.042941
#
#
# Mechanical properties :
#
#
# Convention : Reuss Voigt Hill
#
# Bulk Modulus (GPa) = 17.04040 33.00560 25.02300
# Shear Modulus (GPa) = 20.05542 27.71864 23.88703
#
# Velocity S-wave (km/s) = 3.10728 3.65301 3.39114
# Velocity P-wave (km/s) = 4.59100 5.80365 5.23257
#
# Compressibility (1/GPa) = 0.05868408
#
# Stress axis : x y z
#
# Youngs Moduli (GPa) = 62.11280 16.56498 58.35676
#
# Poissons Ratio (x) = -0.06993 0.40214
# Poissons Ratio (y) = -0.26220 0.86311
# Poissons Ratio (z) = 0.42803 0.24500
#
# Static dielectric constant tensor:
#      x y z
#    x 1.733360 0.000000 -0.009140 
#    y 0.000000 1.704060 0.000000 
#    z -0.009140 0.000000 1.760740 
# 
# From -- ./inp_files/45353.got.cif
#   From: 2010.05.17/outbox.cif.g08.bks.cpg/sg11_23_cif.got.tgz:45353.got - 2010.06.03 12:22:45.
