data_PCOD9163246
_publ_section_title
;
Structure prediction by ZEFSAII (Michael W. Deem and Ramdas Pophale) SiO2 
 PCOD9163246
Probable space group: P 21/M
;
_chemical_formula_sum "Si O2"
_cell_formula_units_Z 24
_cell_length_a 8.020381
_cell_length_b 9.404354
_cell_length_c 14.353809
_cell_angle_alpha 90.000000
_cell_angle_beta 99.097930
_cell_angle_gamma 90.000000
_cell_volume 1069.037253
_symmetry_space_group_name_H-M "P 21/M"
_symmetry_group_IT_number 11
_symmetry_cell_setting 'monoclinic'
loop_
_space_group_symop_operation_xyz
x,y,z
-x,1/2+y,-z
-x,-y,-z
x,1/2-y,z
loop_
_atom_site_type_symbol
_atom_site_label
_atom_site_fract_x
_atom_site_fract_y
_atom_site_fract_z
Si Si1 0.751426 0.585906 0.465486
Si Si2 0.640208 0.410091 0.125188
Si Si3 0.877461 0.084403 0.308224
Si Si4 0.359790 0.910090 0.374812
Si Si5 0.751427 0.585905 0.965486
Si Si6 0.877462 0.084403 0.808224
O O1 0.804759 0.750000 0.469895
O O2 0.861061 0.490595 0.405919
O O3 0.733223 0.522389 0.567051
O O4 0.559254 0.578476 0.408533
O O5 0.690301 0.250000 0.098835
O O6 0.699273 0.423325 0.236540
O O7 0.440745 0.421529 0.091467
O O8 0.733225 0.522388 0.067051
O O9 0.923500 0.250000 0.320484
O O10 1.000000 0.999999 0.250000
O O11 0.309693 0.750000 0.401164
O O12 0.300727 0.923325 0.263460
O O13 0.804754 0.750000 0.969894
O O14 0.861063 0.490597 0.905918
O O15 0.923500 0.250000 0.820485
#
# Coordination Sequence:
#
# PCOD9163246 Si02
#       6
#     4   4   4   4   4   4
#     4  10  20  36  60  86 110 140 181 228 276 325
#     4   9  20  38  59  83 110 143 183 226 272 323
#     4  11  23  38  56  80 113 149 184 224 271 325
#     4   9  20  38  59  83 110 143 183 226 272 323
#     4  10  20  36  60  86 110 140 181 228 276 325
#     4  11  23  38  56  80 113 149 184 224 271 325
#
# _framework density 22.450105000000001
#
# number of rings (size 3 to 8) (size 9 to 14) (size 15 to 20)
#    0.000    2.000    0.000    3.000    0.000    5.333 
#    0.000    0.000    0.000    0.000    0.000    0.000 
#    0.000    0.000    0.000    0.000    0.000    0.000 
#
# Total GULP energy -134264.458928 kJ/mol
# GULP energy per Si atom -5594.352455 kJ/mol
# Density = 2.239901 g / cm^3
# Si number density = 22.450105 Si / 1000 Ang^3
#
#
#
# Elastic Constant Matrix: (Units=GPa)
#
#
# Indices 1 2 3 4 5 6 
#
# 1 41.5002 19.3210 7.2332 0.0000 6.6412 0.0000
# 2 19.3210 194.3680 74.2372 0.0000 -34.3615 0.0000
# 3 7.2332 74.2372 103.4754 0.0000 -6.9214 0.0000
# 4 0.0000 0.0000 0.0000 41.5821 0.0000 -11.3161
# 5 6.6412 -34.3615 -6.9214 0.0000 42.4769 0.0000
# 6 0.0000 0.0000 0.0000 -11.3161 0.0000 26.5556
#
#
#
# Elastic Compliance Matrix: (Units=1/GPa)
#
#
# Indices 1 2 3 4 5 6 
#
# 1 0.027208 -0.004315 0.000683 0.000000 -0.007633 0.000000
# 2 -0.004315 0.008980 -0.005672 0.000000 0.007015 0.000000
# 3 0.000683 -0.005672 0.013519 0.000000 -0.002492 0.000000
# 4 0.000000 0.000000 0.000000 0.027204 0.000000 0.011592
# 5 -0.007633 0.007015 -0.002492 0.000000 0.030004 0.000000
# 6 0.000000 0.000000 0.000000 0.011592 0.000000 0.042597
#
#
# Mechanical properties :
#
#
# Convention : Reuss Voigt Hill
#
# Bulk Modulus (GPa) = 32.15481 60.10291 46.12886
# Shear Modulus (GPa) = 28.01353 38.02639 33.01996
#
# Velocity S-wave (km/s) = 3.53627 4.12007 3.83928
# Velocity P-wave (km/s) = 5.57023 7.03300 6.34392
#
# Compressibility (1/GPa) = 0.03109955
#
# Stress axis : x y z
#
# Youngs Moduli (GPa) = 36.75447 111.35461 73.97018
#
# Poissons Ratio (x) = 0.48049 -0.05054
# Poissons Ratio (y) = 0.15859 0.41956
# Poissons Ratio (z) = -0.02511 0.63160
#
# Static dielectric constant tensor:
#      x y z
#    x 1.884940 0.000000 0.062820 
#    y 0.000000 1.887310 0.000000 
#    z 0.062820 0.000000 1.770680 
# 
# From -- ./inp_files/20369.got.cif
#   From: 2010.05.17/outbox.cif.g08.bks.cpg/sg11_11_cif.got.tgz:20369.got - 2010.06.03 12:22:45.
