data_PCOD9163049
_publ_section_title
;
Structure prediction by ZEFSAII (Michael W. Deem and Ramdas Pophale) SiO2 
 PCOD9163049
Probable space group: P 21/M
;
_chemical_formula_sum "Si O2"
_cell_formula_units_Z 32
_cell_length_a 12.681424
_cell_length_b 8.801106
_cell_length_c 29.245723
_cell_angle_alpha 90.000000
_cell_angle_beta 30.038378
_cell_angle_gamma 90.000000
_cell_volume 1633.958817
_symmetry_space_group_name_H-M "P 21/M"
_symmetry_group_IT_number 11
_symmetry_cell_setting 'monoclinic'
loop_
_space_group_symop_operation_xyz
x,y,z
-x,1/2+y,-z
-x,-y,-z
x,1/2-y,z
loop_
_atom_site_type_symbol
_atom_site_label
_atom_site_fract_x
_atom_site_fract_y
_atom_site_fract_z
Si Si1 0.541789 0.432795 0.287212
Si Si2 0.449419 0.931250 0.968821
Si Si3 0.559586 0.574549 0.525385
Si Si4 0.915128 0.076060 0.278408
Si Si5 0.989667 0.567062 0.860437
Si Si6 0.796728 0.070055 0.515878
Si Si7 0.248162 0.433221 0.317715
Si Si8 0.778212 0.429388 0.773249
O O1 0.541311 0.250000 0.291509
O O2 0.781357 0.482690 0.206969
O O3 0.368477 0.493284 0.387965
O O4 0.453350 0.473306 0.270323
O O5 0.463767 0.750000 0.966267
O O6 0.611713 0.993539 0.870246
O O7 0.500000 0.000000 0.000000
O O8 0.214137 0.984078 0.043500
O O9 0.500000 0.500000 0.500000
O O10 0.628106 0.750000 0.495584
O O11 0.334481 0.573054 0.635530
O O12 0.720902 0.475612 0.493571
O O13 0.971633 0.250000 0.269227
O O14 0.014011 0.036304 0.192645
O O15 0.997236 0.970562 0.287998
O O16 0.971553 0.750000 0.873169
O O17 0.786367 0.250000 0.526472
O O18 0.041008 0.021270 0.424999
O O19 0.239608 0.250000 0.315892
O O20 0.240655 0.506226 0.270669
O O21 0.747953 0.250000 0.784270
#
# Coordination Sequence:
#
# PCOD9163049 Si02
#       8
#     4   4   4   4   4   4   4   4
#     4  10  21  41  66  89 120 163 207 251 301 353
#     4  12  24  40  64  93 124 157 195 242 299 364
#     4  11  22  36  53  80 118 161 202 245 301 359
#     4  10  20  36  58  82 118 158 194 242 299 355
#     4  10  20  38  63  91 119 152 196 246 297 352
#     4  11  22  36  58  89 123 160 205 253 298 353
#     4  10  23  42  62  87 122 164 206 251 303 354
#     4  12  25  40  62  91 122 158 201 249 302 361
#
# _framework density 19.584336
#
# number of rings (size 3 to 8) (size 9 to 14) (size 15 to 20)
#    0.000    1.250    2.500    4.125    0.000    6.000 
#    0.000    0.625    0.000    0.000    0.000    0.000 
#    0.000    0.000    0.000    0.000    0.000    0.000 
#
# Total GULP energy -178827.280564 kJ/mol
# GULP energy per Si atom -5588.352518 kJ/mol
# Density = 1.953976 g / cm^3
# Si number density = 19.584336 Si / 1000 Ang^3
#
#
#
# Elastic Constant Matrix: (Units=GPa)
#
#
# Indices 1 2 3 4 5 6 
#
# 1 105.1569 39.1328 40.2593 0.0000 -18.5720 0.0000
# 2 39.1328 47.7674 28.2416 0.0000 -6.3038 0.0000
# 3 40.2593 28.2416 90.9259 0.0000 -15.5126 0.0000
# 4 0.0000 0.0000 0.0000 31.3113 0.0000 3.7126
# 5 -18.5720 -6.3038 -15.5126 0.0000 29.5093 0.0000
# 6 0.0000 0.0000 0.0000 3.7126 0.0000 18.9586
#
#
#
# Elastic Compliance Matrix: (Units=1/GPa)
#
#
# Indices 1 2 3 4 5 6 
#
# 1 0.015412 -0.010290 -0.002579 0.000000 0.006145 0.000000
# 2 -0.010290 0.032568 -0.006017 0.000000 -0.002682 0.000000
# 3 -0.002579 -0.006017 0.014844 0.000000 0.004895 0.000000
# 4 0.000000 0.000000 0.000000 0.032697 0.000000 -0.006403
# 5 0.006145 -0.002682 0.004895 0.000000 0.039755 0.000000
# 6 0.000000 0.000000 0.000000 -0.006403 0.000000 0.054000
#
#
# Mechanical properties :
#
#
# Convention : Reuss Voigt Hill
#
# Bulk Modulus (GPa) = 39.91842 51.01308 45.46575
# Shear Modulus (GPa) = 21.24050 25.03695 23.13873
#
# Velocity S-wave (km/s) = 3.29685 3.57937 3.44101
# Velocity P-wave (km/s) = 5.90926 6.57168 6.24925
#
# Compressibility (1/GPa) = 0.02505109
#
# Stress axis : x y z
#
# Youngs Moduli (GPa) = 64.88592 30.70483 67.36721
#
# Poissons Ratio (x) = 0.31595 0.17376
# Poissons Ratio (y) = 0.66766 0.40537
# Poissons Ratio (z) = 0.16736 0.18476
#
# Static dielectric constant tensor:
#      x y z
#    x 1.699100 0.000000 -0.033380 
#    y 0.000000 1.661250 0.000000 
#    z -0.033380 0.000000 1.739500 
# 
# From -- ./inp_files/73119.got.cif
#   From: 2010.05.17/outbox.cif.g08.bks.cpg/sg11_37_cif.got.tgz:73119.got - 2010.06.03 12:22:45.
