data_PCOD9163203
_publ_section_title
;
Structure prediction by ZEFSAII (Michael W. Deem and Ramdas Pophale) SiO2 
 PCOD9163203
Probable space group: P 21/M
;
_chemical_formula_sum "Si O2"
_cell_formula_units_Z 28
_cell_length_a 27.345399
_cell_length_b 8.771234
_cell_length_c 12.294218
_cell_angle_alpha 90.000000
_cell_angle_beta 150.861309
_cell_angle_gamma 90.000000
_cell_volume 1435.847200
_symmetry_space_group_name_H-M "P 21/M"
_symmetry_group_IT_number 11
_symmetry_cell_setting 'monoclinic'
loop_
_space_group_symop_operation_xyz
x,y,z
-x,1/2+y,-z
-x,-y,-z
x,1/2-y,z
loop_
_atom_site_type_symbol
_atom_site_label
_atom_site_fract_x
_atom_site_fract_y
_atom_site_fract_z
Si Si1 0.730295 0.431617 0.359636
Si Si2 0.951717 0.568794 0.796865
Si Si3 0.325846 0.430686 0.524144
Si Si4 0.877503 0.568653 0.009052
Si Si5 0.744060 0.568045 0.949436
Si Si6 0.435502 0.930309 0.540691
Si Si7 0.650643 0.430549 0.965158
O O1 0.732425 0.250000 0.382357
O O2 0.843116 0.494770 0.571127
O O3 0.678078 0.512021 0.360567
O O4 0.676787 0.461504 0.141123
O O5 0.942304 0.750000 0.789377
O O6 0.000000 0.500000 0.000000
O O7 0.027323 0.523982 0.847098
O O8 0.345914 0.250000 0.556801
O O9 0.216019 0.457055 0.255676
O O10 0.404768 0.520087 0.603018
O O11 0.899161 0.750000 0.048375
O O12 0.835902 0.527582 0.047625
O O13 0.742897 0.750000 0.958846
O O14 0.644599 0.515150 0.691301
O O15 0.737367 0.488712 0.052881
O O16 0.425670 0.750000 0.507222
O O17 0.547800 0.984492 0.736111
O O18 0.637014 0.250000 0.924408
#
# Coordination Sequence:
#
# PCOD9163203 Si02
#       7
#     4   4   4   4   4   4   4
#     4  11  24  40  59  84 118 156 195 240 292 351
#     4  12  23  36  60  89 119 152 191 237 287 349
#     4  10  20  36  59  87 119 152 191 242 292 344
#     4   9  19  36  59  88 117 147 189 241 290 338
#     4  10  21  39  63  88 117 152 195 244 290 341
#     4  11  22  37  61  88 117 154 197 242 289 345
#     4  11  24  41  59  83 117 156 198 243 291 346
#
# _framework density 19.500682000000001
#
# number of rings (size 3 to 8) (size 9 to 14) (size 15 to 20)
#    0.000    1.429    1.429    5.571    0.000    5.714 
#    0.000    0.714    0.000    0.000    0.000    0.000 
#    0.000    0.000    0.000    0.000    0.000    0.000 
#
# Total GULP energy -156571.158244 kJ/mol
# GULP energy per Si atom -5591.827080 kJ/mol
# Density = 1.945630 g / cm^3
# Si number density = 19.500682 Si / 1000 Ang^3
#
#
#
# Elastic Constant Matrix: (Units=GPa)
#
#
# Indices 1 2 3 4 5 6 
#
# 1 107.0096 7.3323 -3.2553 0.0000 -7.3687 0.0000
# 2 7.3323 20.7723 -2.4278 0.0000 -5.6245 0.0000
# 3 -3.2553 -2.4278 8.5213 0.0000 4.2644 0.0000
# 4 0.0000 0.0000 0.0000 23.1126 0.0000 0.9837
# 5 -7.3687 -5.6245 4.2644 0.0000 22.5024 0.0000
# 6 0.0000 0.0000 0.0000 0.9837 0.0000 39.0543
#
#
#
# Elastic Compliance Matrix: (Units=1/GPa)
#
#
# Indices 1 2 3 4 5 6 
#
# 1 0.009732 -0.002627 0.001882 0.000000 0.002174 0.000000
# 2 -0.002627 0.052994 0.008724 0.000000 0.010732 0.000000
# 3 0.001882 0.008724 0.131642 0.000000 -0.022151 0.000000
# 4 0.000000 0.000000 0.000000 0.043313 0.000000 -0.001091
# 5 0.002174 0.010732 -0.022151 0.000000 0.052032 0.000000
# 6 0.000000 0.000000 0.000000 -0.001091 0.000000 0.025633
#
#
# Mechanical properties :
#
#
# Convention : Reuss Voigt Hill
#
# Bulk Modulus (GPa) = 4.75452 15.51129 10.13290
# Shear Modulus (GPa) = 13.53193 25.91078 19.72136
#
# Velocity S-wave (km/s) = 2.63710 3.64910 3.18357
# Velocity P-wave (km/s) = 3.42283 5.07209 4.32677
#
# Compressibility (1/GPa) = 0.21032631
#
# Stress axis : x y z
#
# Youngs Moduli (GPa) = 102.75527 18.87012 7.59634
#
# Poissons Ratio (x) = 0.04957 -0.01429
# Poissons Ratio (y) = 0.26991 -0.06627
# Poissons Ratio (z) = -0.19334 -0.16463
#
# Static dielectric constant tensor:
#      x y z
#    x 1.713580 0.000000 -0.008100 
#    y 0.000000 1.637380 0.000000 
#    z -0.008100 0.000000 1.661350 
# 
# From -- ./inp_files/44670.got.cif
#   From: 2010.05.17/outbox.cif.g08.bks.cpg/sg11_23_cif.got.tgz:44670.got - 2010.06.03 12:22:45.
