data_PCOD9163114
_publ_section_title
;
Structure prediction by ZEFSAII (Michael W. Deem and Ramdas Pophale) SiO2 
 PCOD9163114
Probable space group: P 21/M
;
_chemical_formula_sum "Si O2"
_cell_formula_units_Z 32
_cell_length_a 17.933340
_cell_length_b 17.077568
_cell_length_c 8.150202
_cell_angle_alpha 90.000000
_cell_angle_beta 41.903293
_cell_angle_gamma 90.000000
_cell_volume 1667.059044
_symmetry_space_group_name_H-M "P 21/M"
_symmetry_group_IT_number 11
_symmetry_cell_setting 'monoclinic'
loop_
_space_group_symop_operation_xyz
x,y,z
-x,1/2+y,-z
-x,-y,-z
x,1/2-y,z
loop_
_atom_site_type_symbol
_atom_site_label
_atom_site_fract_x
_atom_site_fract_y
_atom_site_fract_z
Si Si1 0.754919 0.336382 0.634606
Si Si2 0.013600 0.658702 0.581780
Si Si3 0.334089 0.162311 0.704681
Si Si4 0.884658 0.616986 0.120078
Si Si5 0.969652 0.340592 0.810119
Si Si6 0.202343 0.550420 0.729641
Si Si7 0.409160 0.662560 0.826524
Si Si8 0.632095 0.495400 0.277028
O O1 0.773931 0.250000 0.529176
O O2 0.770130 0.401148 0.474986
O O3 0.853105 0.345968 0.608177
O O4 0.634570 0.337643 0.916118
O O5 0.980448 0.750000 0.648544
O O6 0.986184 0.632164 0.441532
O O7 0.956676 0.619740 0.833615
O O8 0.325690 0.250000 0.793577
O O9 0.234225 0.153931 0.736868
O O10 0.457663 0.157202 0.420771
O O11 0.325155 0.083977 0.833943
O O12 0.944794 0.655959 0.176740
O O13 0.866880 0.526967 0.195802
O O14 0.935047 0.250000 0.844607
O O15 0.868421 0.395305 0.032099
O O16 0.313489 0.521593 0.637028
O O17 0.375933 0.750000 0.815206
O O18 0.350013 0.584935 0.851895
O O19 0.500000 0.500000 0.500000
#
# Coordination Sequence:
#
# PCOD9163114 Si02
#       8
#     4   4   4   4   4   4   4   4
#     4  10  20  36  58  87 121 152 193 249 303 355
#     4  10  21  36  58  84 114 153 191 238 300 354
#     4   9  18  35  61  81 111 163 202 241 302 359
#     4  11  22  39  56  84 122 158 198 245 296 361
#     4  11  22  37  59  87 117 155 200 245 300 357
#     4  11  22  36  57  86 116 156 198 241 303 360
#     4   9  18  35  60  86 115 154 197 246 308 363
#     4   9  19  36  55  84 115 149 196 245 295 353
#
# _framework density 19.19548
#
# number of rings (size 3 to 8) (size 9 to 14) (size 15 to 20)
#    0.000    2.000    1.250    2.625    0.000    2.500 
#    4.500    5.625    2.750    0.000    0.000    0.000 
#    0.000    0.000    0.000    0.000    0.000    0.000 
#
# Total GULP energy -178154.510313 kJ/mol
# GULP energy per Si atom -5567.328447 kJ/mol
# Density = 1.915179 g / cm^3
# Si number density = 19.195480 Si / 1000 Ang^3
#
#
#
# Elastic Constant Matrix: (Units=GPa)
#
#
# Indices 1 2 3 4 5 6 
#
# 1 68.4417 25.8913 16.9065 0.0000 -2.4948 0.0000
# 2 25.8913 146.7979 31.8193 0.0000 8.5193 0.0000
# 3 16.9065 31.8193 62.6679 0.0000 9.2150 0.0000
# 4 0.0000 0.0000 0.0000 7.5222 0.0000 -7.1776
# 5 -2.4948 8.5193 9.2150 0.0000 27.0857 0.0000
# 6 0.0000 0.0000 0.0000 -7.1776 0.0000 17.4782
#
#
#
# Elastic Compliance Matrix: (Units=1/GPa)
#
#
# Indices 1 2 3 4 5 6 
#
# 1 0.016553 -0.002297 -0.003821 0.000000 0.003547 0.000000
# 2 -0.002297 0.008007 -0.003205 0.000000 -0.001640 0.000000
# 3 -0.003821 -0.003205 0.019494 0.000000 -0.005976 0.000000
# 4 0.000000 0.000000 0.000000 0.218595 0.000000 0.089768
# 5 0.003547 -0.001640 -0.005976 0.000000 0.039795 0.000000
# 6 0.000000 0.000000 0.000000 0.089768 0.000000 0.094078
#
#
# Mechanical properties :
#
#
# Convention : Reuss Voigt Hill
#
# Bulk Modulus (GPa) = 39.35691 47.46019 43.40855
# Shear Modulus (GPa) = 11.80253 23.96991 17.88622
#
# Velocity S-wave (km/s) = 2.48233 3.53757 3.05584
# Velocity P-wave (km/s) = 5.36318 6.43927 5.92570
#
# Compressibility (1/GPa) = 0.02540850
#
# Stress axis : x y z
#
# Youngs Moduli (GPa) = 60.41147 124.88996 51.29824
#
# Poissons Ratio (x) = 0.28690 0.19600
# Poissons Ratio (y) = 0.13878 0.16439
# Poissons Ratio (z) = 0.23083 0.40023
#
# Static dielectric constant tensor:
#      x y z
#    x 1.665020 0.000000 -0.012530 
#    y 0.000000 1.749110 0.000000 
#    z -0.012530 0.000000 1.660240 
# 
# From -- ./inp_files/26814.got.cif
#   From: 2010.05.17/outbox.cif.g08.bks.cpg/sg11_14_cif.got.tgz:26814.got - 2010.06.03 12:22:45.
