data_PCOD9163539
_publ_section_title
;
Structure prediction by ZEFSAII (Michael W. Deem and Ramdas Pophale) SiO2 
 PCOD9163539
Probable space group: P 21/M
;
_chemical_formula_sum "Si O2"
_cell_formula_units_Z 24
_cell_length_a 33.208192
_cell_length_b 8.643660
_cell_length_c 9.814345
_cell_angle_alpha 90.000000
_cell_angle_beta 27.547084
_cell_angle_gamma 90.000000
_cell_volume 1302.850909
_symmetry_space_group_name_H-M "P 21/M"
_symmetry_group_IT_number 11
_symmetry_cell_setting 'monoclinic'
loop_
_space_group_symop_operation_xyz
x,y,z
-x,1/2+y,-z
-x,-y,-z
x,1/2-y,z
loop_
_atom_site_type_symbol
_atom_site_label
_atom_site_fract_x
_atom_site_fract_y
_atom_site_fract_z
Si Si1 0.347592 0.563882 0.605219
Si Si2 0.999991 0.434701 0.847412
Si Si3 0.853897 0.563940 0.087987
Si Si4 0.500008 0.062916 0.651754
Si Si5 0.853912 0.436061 0.788602
Si Si6 0.347607 0.436119 0.309202
O O1 0.350611 0.750000 0.589783
O O2 0.414841 0.512448 0.518830
O O3 0.372870 0.500000 0.381401
O O4 0.247150 0.519759 0.932969
O O5 0.999990 0.250000 0.850839
O O6 0.083376 0.495010 0.513329
O O7 0.916598 0.495015 0.013689
O O8 0.000000 0.500000 0.000000
O O9 0.860888 0.750000 0.066173
O O10 0.752832 0.519761 0.415923
O O11 0.877894 0.499996 0.866328
O O12 0.500008 0.250000 0.647316
O O13 0.500000 0.000000 0.500000
O O14 0.414865 0.012446 0.992077
O O15 0.860903 0.250000 0.768463
O O16 0.350628 0.250000 0.306521
#
# Coordination Sequence:
#
# PCOD9163539 Si02
#       6
#     4   4   4   4   4   4
#     4   9  19  35  57  82 109 140 180 224 267 315
#     4  12  25  40  57  80 110 146 182 224 275 328
#     4  10  20  37  59  84 111 143 182 226 271 322
#     4  10  21  36  52  78 112 146 181 220 266 320
#     4  10  20  37  59  84 111 143 182 226 271 322
#     4   9  19  35  57  82 109 140 180 224 267 315
#
# _framework density 18.421140999999999
#
# number of rings (size 3 to 8) (size 9 to 14) (size 15 to 20)
#    0.000    2.000    0.000    3.500    0.000    4.000 
#    0.000    3.333    0.000    0.000    0.000    0.000 
#    0.000    0.000    0.000    0.000    0.000    0.000 
#
# Total GULP energy -134074.996398 kJ/mol
# GULP energy per Si atom -5586.458183 kJ/mol
# Density = 1.837921 g / cm^3
# Si number density = 18.421141 Si / 1000 Ang^3
#
#
#
# Elastic Constant Matrix: (Units=GPa)
#
#
# Indices 1 2 3 4 5 6 
#
# 1 167.8524 51.9693 149.2750 0.0000 32.9285 0.0000
# 2 51.9693 59.9012 46.0040 0.0000 4.3635 0.0000
# 3 149.2750 46.0040 119.7050 0.0000 2.3991 0.0000
# 4 0.0000 0.0000 0.0000 16.1731 0.0000 12.3018
# 5 32.9285 4.3635 2.3991 0.0000 9.5436 0.0000
# 6 0.0000 0.0000 0.0000 12.3018 0.0000 32.7831
#
#
#
# Elastic Compliance Matrix: (Units=1/GPa)
#
#
# Indices 1 2 3 4 5 6 
#
# 1 -0.008395 -0.003329 0.011193 0.000000 0.027673 0.000000
# 2 -0.003329 0.023086 -0.004763 0.000000 0.002129 0.000000
# 3 0.011193 -0.004763 -0.003059 0.000000 -0.035673 0.000000
# 4 0.000000 0.000000 0.000000 0.086529 0.000000 -0.032470
# 5 0.027673 0.002129 -0.035673 0.000000 0.017297 0.000000
# 6 0.000000 0.000000 0.000000 -0.032470 0.000000 0.042688
#
#
# Mechanical properties :
#
#
# Convention : Reuss Voigt Hill
#
# Bulk Modulus (GPa) = 56.07347 93.55057 74.81202
# Shear Modulus (GPa) = 31.66778 18.38064 25.02421
#
# Velocity S-wave (km/s) = 4.15070 3.16223 3.68972
# Velocity P-wave (km/s) = 7.31279 8.01421 7.67152
#
# Compressibility (1/GPa) = 0.01783374
#
# Stress axis : x y z
#
# Youngs Moduli (GPa) = -119.12402 43.31723 -326.94077
#
# Poissons Ratio (x) = 0.14421 3.65948
# Poissons Ratio (y) = -0.39657 -1.55730
# Poissons Ratio (z) = 1.33337 0.20633
#
# Static dielectric constant tensor:
#      x y z
#    x 1.597760 0.000000 -0.027900 
#    y 0.000000 1.617240 0.000000 
#    z -0.027900 0.000000 1.635390 
# 
# From -- ./inp_files/20510.got.cif
#   From: 2010.05.17/outbox.cif.g08.bks.cpg/sg11_11_cif.got.tgz:20510.got - 2010.06.03 12:22:45.
