data_PCOD9163059
_publ_section_title
;
Structure prediction by ZEFSAII (Michael W. Deem and Ramdas Pophale) SiO2 
 PCOD9163059
Probable space group: P 21/M
;
_chemical_formula_sum "Si O2"
_cell_formula_units_Z 24
_cell_length_a 13.422685
_cell_length_b 10.384298
_cell_length_c 20.052838
_cell_angle_alpha 90.000000
_cell_angle_beta 152.240927
_cell_angle_gamma 90.000000
_cell_volume 1301.815958
_symmetry_space_group_name_H-M "P 21/M"
_symmetry_group_IT_number 11
_symmetry_cell_setting 'monoclinic'
loop_
_space_group_symop_operation_xyz
x,y,z
-x,1/2+y,-z
-x,-y,-z
x,1/2-y,z
loop_
_atom_site_type_symbol
_atom_site_label
_atom_site_fract_x
_atom_site_fract_y
_atom_site_fract_z
Si Si1 0.601682 0.900089 0.610940
Si Si2 0.492807 0.896367 0.202291
Si Si3 0.915405 0.095629 0.120008
Si Si4 0.102865 0.032775 0.633322
Si Si5 0.647531 0.392078 0.397871
Si Si6 0.303120 0.599099 0.872971
O O1 0.598880 0.750000 0.585826
O O2 0.469379 0.903690 0.600876
O O3 0.849735 0.940526 0.765072
O O4 0.500000 0.000000 0.500000
O O5 0.460801 0.750000 0.207749
O O6 0.682075 0.892740 0.259440
O O7 0.565855 0.993256 0.302840
O O8 0.279660 0.950202 0.041253
O O9 0.904250 0.250000 0.108495
O O10 0.863622 0.066338 0.166360
O O11 0.905203 0.098298 0.554236
O O12 0.189717 0.922383 0.734268
O O13 0.000000 0.000000 0.500000
O O14 0.596772 0.250000 0.339456
O O15 0.366330 0.750000 0.917247
O O16 0.500000 0.500000 0.000000
#
# Coordination Sequence:
#
# PCOD9163059 Si02
#       6
#     4   4   4   4   4   4
#     4  10  21  39  60  81 112 150 193 240 290 346
#     4  10  20  36  58  83 114 155 195 237 293 358
#     4   9  19  37  59  84 115 152 190 236 291 353
#     4  10  21  36  57  86 121 156 196 241 293 350
#     4  10  22  37  57  86 118 152 194 248 294 337
#     4  11  22  38  61  89 119 155 197 243 299 356
#
# _framework density 18.435784999999999
#
# number of rings (size 3 to 8) (size 9 to 14) (size 15 to 20)
#    0.000    2.000    1.667    1.500    0.000    7.333 
#    0.000    1.667    0.000    0.000    0.000    0.000 
#    0.000    0.000    0.000    0.000    0.000    0.000 
#
# Total GULP energy -133660.788058 kJ/mol
# GULP energy per Si atom -5569.199502 kJ/mol
# Density = 1.839382 g / cm^3
# Si number density = 18.435785 Si / 1000 Ang^3
#
#
#
# Elastic Constant Matrix: (Units=GPa)
#
#
# Indices 1 2 3 4 5 6 
#
# 1 92.8405 43.0461 46.8711 0.0000 22.3549 0.0000
# 2 43.0461 101.3675 47.0316 0.0000 -4.6753 0.0000
# 3 46.8711 47.0316 117.8932 0.0000 15.8947 0.0000
# 4 0.0000 0.0000 0.0000 28.4452 0.0000 -3.7301
# 5 22.3549 -4.6753 15.8947 0.0000 34.8259 0.0000
# 6 0.0000 0.0000 0.0000 -3.7301 0.0000 27.8830
#
#
#
# Elastic Compliance Matrix: (Units=1/GPa)
#
#
# Indices 1 2 3 4 5 6 
#
# 1 0.018143 -0.006842 -0.002972 0.000000 -0.011208 0.000000
# 2 -0.006842 0.015256 -0.004512 0.000000 0.008499 0.000000
# 3 -0.002972 -0.004512 0.012028 0.000000 -0.004187 0.000000
# 4 0.000000 0.000000 0.000000 0.035783 0.000000 0.004787
# 5 -0.011208 0.008499 -0.004187 0.000000 0.038961 0.000000
# 6 0.000000 0.000000 0.000000 0.004787 0.000000 0.036504
#
#
# Mechanical properties :
#
#
# Convention : Reuss Voigt Hill
#
# Bulk Modulus (GPa) = 59.61413 65.11097 62.36255
# Shear Modulus (GPa) = 26.18888 29.90766 28.04827
#
# Velocity S-wave (km/s) = 3.77310 4.03210 3.90475
# Velocity P-wave (km/s) = 7.16854 7.55457 7.36409
#
# Compressibility (1/GPa) = 0.01677455
#
# Stress axis : x y z
#
# Youngs Moduli (GPa) = 55.11737 65.54773 83.13603
#
# Poissons Ratio (x) = 0.44850 0.24712
# Poissons Ratio (y) = 0.37713 0.37509
# Poissons Ratio (z) = 0.16383 0.29573
#
# Static dielectric constant tensor:
#      x y z
#    x 1.645200 0.000000 0.008010 
#    y 0.000000 2.009290 0.000000 
#    z 0.008010 0.000000 1.665510 
# 
# From -- ./inp_files/34663.got.cif
#   From: 2010.05.17/outbox.cif.g08.bks.cpg/sg11_18_cif.got.tgz:34663.got - 2010.06.03 12:22:45.
