data_PCOD9163942
_publ_section_title
;
Structure prediction by ZEFSAII (Michael W. Deem and Ramdas Pophale) SiO2 
 PCOD9163942
Probable space group: P 21/M
;
_chemical_formula_sum "Si O2"
_cell_formula_units_Z 24
_cell_length_a 8.734475
_cell_length_b 17.163426
_cell_length_c 9.906456
_cell_angle_alpha 90.000000
_cell_angle_beta 110.403391
_cell_angle_gamma 90.000000
_cell_volume 1391.937755
_symmetry_space_group_name_H-M "P 21/M"
_symmetry_group_IT_number 11
_symmetry_cell_setting 'monoclinic'
loop_
_space_group_symop_operation_xyz
x,y,z
-x,1/2+y,-z
-x,-y,-z
x,1/2-y,z
loop_
_atom_site_type_symbol
_atom_site_label
_atom_site_fract_x
_atom_site_fract_y
_atom_site_fract_z
Si Si1 0.452478 0.438365 0.102067
Si Si2 0.766220 0.342299 0.161866
Si Si3 0.086088 0.066059 0.926291
Si Si4 0.360032 0.515648 0.349954
Si Si5 0.994293 0.969563 0.652388
Si Si6 0.221385 0.839899 0.155549
O O1 0.592075 0.373925 0.158247
O O2 0.433311 0.481504 0.236430
O O3 0.500000 0.500000 0.000000
O O4 0.267811 0.410746 0.020065
O O5 0.786201 0.250000 0.184430
O O6 0.911823 0.388945 0.282979
O O7 0.755671 0.359212 0.996745
O O8 0.968466 0.139670 0.885212
O O9 0.090423 0.028544 0.779923
O O10 0.000000 0.000000 0.000000
O O11 0.500000 0.500000 0.500000
O O12 0.192152 0.474920 0.349987
O O13 0.312438 0.603421 0.288975
O O14 0.000000 0.000000 0.500000
O O15 0.261336 0.750000 0.189014
#
# Coordination Sequence:
#
# PCOD9163942 Si02
#       6
#     4   4   4   4   4   4
#     4  12  19  35  61  86 118 152 202 243 280 358
#     4  11  22  37  60  92 121 152 196 252 302 341
#     4  11  18  37  60  86 112 153 207 235 286 359
#     4  11  22  37  60  90 115 160 206 236 293 358
#     4  11  21  38  59  87 117 160 198 241 292 357
#     4  10  20  38  61  87 120 152 193 252 301 343
#
# _framework density 17.242149999999999
#
# number of rings (size 3 to 8) (size 9 to 14) (size 15 to 20)
#    0.000    1.000    8.333    1.000    0.000    0.667 
#    0.000    9.167    0.000    0.000    0.000    0.000 
#    0.000    0.000    0.000    0.000    0.000    0.000 
#
# Total GULP energy -133676.000546 kJ/mol
# GULP energy per Si atom -5569.833356 kJ/mol
# Density = 1.720291 g / cm^3
# Si number density = 17.242150 Si / 1000 Ang^3
#
#
#
# Elastic Constant Matrix: (Units=GPa)
#
#
# Indices 1 2 3 4 5 6 
#
# 1 104.4860 65.1496 55.2787 0.0000 12.7390 0.0000
# 2 65.1496 92.1367 55.1849 0.0000 9.3364 0.0000
# 3 55.2787 55.1849 133.3134 0.0000 5.8525 0.0000
# 4 0.0000 0.0000 0.0000 21.0334 0.0000 2.8359
# 5 12.7390 9.3364 5.8525 0.0000 40.8169 0.0000
# 6 0.0000 0.0000 0.0000 2.8359 0.0000 23.8401
#
#
#
# Elastic Compliance Matrix: (Units=1/GPa)
#
#
# Indices 1 2 3 4 5 6 
#
# 1 0.018231 -0.010843 -0.002949 0.000000 -0.002787 0.000000
# 2 -0.010843 0.021129 -0.004214 0.000000 -0.000845 0.000000
# 3 -0.002949 -0.004214 0.010451 0.000000 0.000386 0.000000
# 4 0.000000 0.000000 0.000000 0.048318 0.000000 -0.005748
# 5 -0.002787 -0.000845 0.000386 0.000000 0.025507 0.000000
# 6 0.000000 0.000000 0.000000 -0.005748 0.000000 0.042630
#
#
# Mechanical properties :
#
#
# Convention : Reuss Voigt Hill
#
# Bulk Modulus (GPa) = 72.45476 75.68474 74.06975
# Shear Modulus (GPa) = 24.16879 27.42628 25.79753
#
# Velocity S-wave (km/s) = 3.74803 3.99263 3.87226
# Velocity P-wave (km/s) = 7.80022 8.07745 7.94004
#
# Compressibility (1/GPa) = 0.01380172
#
# Stress axis : x y z
#
# Youngs Moduli (GPa) = 54.85085 47.32721 95.68284
#
# Poissons Ratio (x) = 0.51315 0.28217
# Poissons Ratio (y) = 0.59472 0.40316
# Poissons Ratio (z) = 0.16176 0.19942
#
# Static dielectric constant tensor:
#      x y z
#    x 1.597340 0.000000 -0.044680 
#    y 0.000000 1.695820 0.000000 
#    z -0.044680 0.000000 1.568210 
# 
# From -- ./inp_files/13291.got.cif
#   From: 2010.05.17/outbox.cif.g08.bks.cpg/sg11_7_cif.got.tgz:13291.got - 2010.06.03 12:22:45.
