data_PCOD9163320
_publ_section_title
;
Structure prediction by ZEFSAII (Michael W. Deem and Ramdas Pophale) SiO2 
 PCOD9163320
Probable space group: P 21/M
;
_chemical_formula_sum "Si O2"
_cell_formula_units_Z 32
_cell_length_a 15.666469
_cell_length_b 8.758646
_cell_length_c 25.396588
_cell_angle_alpha 90.000000
_cell_angle_beta 27.581655
_cell_angle_gamma 90.000000
_cell_volume 1613.525999
_symmetry_space_group_name_H-M "P 21/M"
_symmetry_group_IT_number 11
_symmetry_cell_setting 'monoclinic'
loop_
_space_group_symop_operation_xyz
x,y,z
-x,1/2+y,-z
-x,-y,-z
x,1/2-y,z
loop_
_atom_site_type_symbol
_atom_site_label
_atom_site_fract_x
_atom_site_fract_y
_atom_site_fract_z
Si Si1 0.883930 0.430292 0.515750
Si Si2 0.491814 0.931346 0.752964
Si Si3 0.862487 0.067808 0.117998
Si Si4 0.023305 0.933843 0.827606
Si Si5 0.303316 0.432522 0.590380
Si Si6 0.638943 0.066727 0.881122
Si Si7 0.049236 0.434744 0.635582
Si Si8 0.609508 0.932855 0.080409
O O1 0.910916 0.250000 0.499395
O O2 0.673897 0.473729 0.642699
O O3 0.936483 0.501438 0.430835
O O4 0.000000 0.500000 0.500000
O O5 0.530940 0.750000 0.731144
O O6 0.342526 0.965549 0.789550
O O7 0.409610 0.979156 0.854409
O O8 0.886830 0.250000 0.104038
O O9 0.907548 0.017326 0.152251
O O10 0.000000 0.000000 0.000000
O O11 0.046458 0.750000 0.809738
O O12 0.146680 0.016108 0.717096
O O13 0.805093 0.967142 0.945721
O O14 0.500000 0.500000 0.500000
O O15 0.319703 0.250000 0.580903
O O16 0.221129 0.481283 0.578437
O O17 0.635011 0.250000 0.888275
O O18 0.555690 0.029243 0.869098
O O19 0.851828 0.016552 0.768137
O O20 0.500000 0.000000 0.000000
O O21 0.048275 0.250000 0.633632
O O22 0.607001 0.750000 0.092287
#
# Coordination Sequence:
#
# PCOD9163320 Si02
#       8
#     4   4   4   4   4   4   4   4
#     4  12  26  44  68  96 127 166 210 259 314 378
#     4  11  23  38  60  91 125 163 207 253 308 372
#     4  10  21  37  59  89 126 166 206 256 313 370
#     4  10  21  38  60  88 125 164 206 259 317 372
#     4  11  25  43  64  89 121 165 216 269 320 376
#     4  10  21  37  61  90 119 153 194 243 301 365
#     4  10  23  44  65  90 128 167 208 260 315 371
#     4  10  20  36  60  90 123 160 200 247 305 371
#
# _framework density 19.832342000000001
#
# number of rings (size 3 to 8) (size 9 to 14) (size 15 to 20)
#    0.000    1.500    1.250    3.375    1.750    4.500 
#    0.000    0.000    0.000    0.000    0.000    0.000 
#    0.000    0.000    0.000    0.000    0.000    0.000 
#
# Total GULP energy -178881.281574 kJ/mol
# GULP energy per Si atom -5590.040049 kJ/mol
# Density = 1.978720 g / cm^3
# Si number density = 19.832342 Si / 1000 Ang^3
#
#
#
# Elastic Constant Matrix: (Units=GPa)
#
#
# Indices 1 2 3 4 5 6 
#
# 1 134.3754 39.6454 45.0407 0.0000 -10.8122 0.0000
# 2 39.6454 28.3460 25.8555 0.0000 -9.6237 0.0000
# 3 45.0407 25.8555 94.9829 0.0000 -4.7349 0.0000
# 4 0.0000 0.0000 0.0000 40.4411 0.0000 4.2583
# 5 -10.8122 -9.6237 -4.7349 0.0000 32.7035 0.0000
# 6 0.0000 0.0000 0.0000 4.2583 0.0000 25.6269
#
#
#
# Elastic Compliance Matrix: (Units=1/GPa)
#
#
# Indices 1 2 3 4 5 6 
#
# 1 0.012876 -0.016918 -0.001548 0.000000 -0.000946 0.000000
# 2 -0.016918 0.074398 -0.011500 0.000000 0.014635 0.000000
# 3 -0.001548 -0.011500 0.014302 0.000000 -0.001825 0.000000
# 4 0.000000 0.000000 0.000000 0.025168 0.000000 -0.004182
# 5 -0.000946 0.014635 -0.001825 0.000000 0.034308 0.000000
# 6 0.000000 0.000000 0.000000 -0.004182 0.000000 0.039716
#
#
# Mechanical properties :
#
#
# Convention : Reuss Voigt Hill
#
# Bulk Modulus (GPa) = 24.01268 53.19858 38.60563
# Shear Modulus (GPa) = 18.20962 29.56516 23.88739
#
# Velocity S-wave (km/s) = 3.03343 3.86522 3.47431
# Velocity P-wave (km/s) = 4.93995 6.84122 5.96680
#
# Compressibility (1/GPa) = 0.04164466
#
# Stress axis : x y z
#
# Youngs Moduli (GPa) = 77.66490 13.44114 69.92235
#
# Poissons Ratio (x) = 0.22739 0.10821
# Poissons Ratio (y) = 1.31392 0.80412
# Poissons Ratio (z) = 0.12019 0.15458
#
# Static dielectric constant tensor:
#      x y z
#    x 1.717920 0.000000 -0.012200 
#    y 0.000000 1.672180 0.000000 
#    z -0.012200 0.000000 1.672760 
# 
# From -- ./inp_files/68989.got.cif
#   From: 2010.05.17/outbox.cif.g08.bks.cpg/sg11_35_cif.got.tgz:68989.got - 2010.06.03 12:22:45.
