data_PCOD9163068
_publ_section_title
;
Structure prediction by ZEFSAII (Michael W. Deem and Ramdas Pophale) SiO2 
 PCOD9163068
Probable space group: P 21/M
;
_chemical_formula_sum "Si O2"
_cell_formula_units_Z 28
_cell_length_a 20.439823
_cell_length_b 8.514768
_cell_length_c 13.746689
_cell_angle_alpha 90.000000
_cell_angle_beta 144.255238
_cell_angle_gamma 90.000000
_cell_volume 1397.627294
_symmetry_space_group_name_H-M "P 21/M"
_symmetry_group_IT_number 11
_symmetry_cell_setting 'monoclinic'
loop_
_space_group_symop_operation_xyz
x,y,z
-x,1/2+y,-z
-x,-y,-z
x,1/2-y,z
loop_
_atom_site_type_symbol
_atom_site_label
_atom_site_fract_x
_atom_site_fract_y
_atom_site_fract_z
Si Si1 0.813114 0.437262 0.989138
Si Si2 0.718060 0.561348 0.076214
Si Si3 0.293444 0.941737 0.496599
Si Si4 0.518005 0.439710 0.130460
Si Si5 0.941938 0.437240 0.715211
Si Si6 0.098329 0.061588 0.549067
Si Si7 0.380625 0.559944 0.391907
O O1 0.814424 0.250000 0.988804
O O2 0.717976 0.493291 0.799595
O O3 0.778409 0.490986 0.055276
O O4 0.936986 0.495451 0.112857
O O5 0.721701 0.750000 0.070369
O O6 0.786675 0.521188 0.256638
O O7 0.589616 0.512292 0.934831
O O8 0.293113 0.750000 0.497152
O O9 0.368955 0.993041 0.679341
O O10 0.164827 0.993044 0.351313
O O11 0.350636 0.991169 0.465097
O O12 0.518914 0.250000 0.128252
O O13 0.500000 0.500000 0.000000
O O14 0.948408 0.250000 0.729642
O O15 0.914772 0.484589 0.571475
O O16 0.090546 0.250000 0.530319
O O17 0.000000 0.000000 0.500000
O O18 0.500000 0.500000 0.500000
O O19 0.382887 0.750000 0.393941
#
# Coordination Sequence:
#
# PCOD9163068 Si02
#       7
#     4   4   4   4   4   4   4
#     4  11  23  37  58  87 116 147 190 245 294 340
#     4  10  21  36  57  83 114 153 195 235 287 352
#     4   9  20  39  61  83 115 156 193 233 290 351
#     4  10  20  36  58  84 113 149 188 233 284 340
#     4  11  22  37  58  84 116 158 199 237 289 352
#     4  11  21  34  54  83 118 157 196 240 289 341
#     4  10  22  42  65  89 115 148 193 242 294 350
#
# _framework density 20.033954000000001
#
# number of rings (size 3 to 8) (size 9 to 14) (size 15 to 20)
#    0.000    1.714    1.429    3.000    0.000    4.000 
#    0.000    2.857    0.000    0.000    0.000    0.000 
#    0.000    0.000    0.000    0.000    0.000    0.000 
#
# Total GULP energy -156470.538971 kJ/mol
# GULP energy per Si atom -5588.233535 kJ/mol
# Density = 1.998836 g / cm^3
# Si number density = 20.033954 Si / 1000 Ang^3
#
#
#
# Elastic Constant Matrix: (Units=GPa)
#
#
# Indices 1 2 3 4 5 6 
#
# 1 130.3276 11.0039 70.3330 0.0000 19.2848 0.0000
# 2 11.0039 12.5188 26.1976 0.0000 4.8999 0.0000
# 3 70.3330 26.1976 168.5219 0.0000 17.1197 0.0000
# 4 0.0000 0.0000 0.0000 26.5738 0.0000 1.4755
# 5 19.2848 4.8999 17.1197 0.0000 38.9527 0.0000
# 6 0.0000 0.0000 0.0000 1.4755 0.0000 18.9518
#
#
#
# Elastic Compliance Matrix: (Units=1/GPa)
#
#
# Indices 1 2 3 4 5 6 
#
# 1 0.010313 0.000819 -0.004085 0.000000 -0.003414 0.000000
# 2 0.000819 0.120378 -0.018292 0.000000 -0.007509 0.000000
# 3 -0.004085 -0.018292 0.010513 0.000000 -0.000297 0.000000
# 4 0.000000 0.000000 0.000000 0.037794 0.000000 -0.002943
# 5 -0.003414 -0.007509 -0.000297 0.000000 0.028437 0.000000
# 6 0.000000 0.000000 0.000000 -0.002943 0.000000 0.052995
#
#
# Mechanical properties :
#
#
# Convention : Reuss Voigt Hill
#
# Bulk Modulus (GPa) = 10.19495 58.49305 34.34400
# Shear Modulus (GPa) = 14.87019 30.48459 22.67739
#
# Velocity S-wave (km/s) = 2.72738 3.90506 3.36809
# Velocity P-wave (km/s) = 3.87531 7.04223 5.68379
#
# Compressibility (1/GPa) = 0.09808776
#
# Stress axis : x y z
#
# Youngs Moduli (GPa) = 96.96127 8.30713 95.12417
#
# Poissons Ratio (x) = -0.00680 0.38857
# Poissons Ratio (y) = -0.07941 1.74005
# Poissons Ratio (z) = 0.39607 0.15196
#
# Static dielectric constant tensor:
#      x y z
#    x 1.673770 0.000000 0.005120 
#    y 0.000000 1.679010 0.000000 
#    z 0.005120 0.000000 1.711670 
# 
# From -- ./inp_files/38470.got.cif
#   From: 2010.05.17/outbox.cif.g08.bks.cpg/sg11_20_cif.got.tgz:38470.got - 2010.06.03 12:22:45.
