data_PCOD9163295
_publ_section_title
;
Structure prediction by ZEFSAII (Michael W. Deem and Ramdas Pophale) SiO2 
 PCOD9163295
Probable space group: P 21/M
;
_chemical_formula_sum "Si O2"
_cell_formula_units_Z 32
_cell_length_a 6.250656
_cell_length_b 11.533982
_cell_length_c 21.602011
_cell_angle_alpha 90.000000
_cell_angle_beta 112.572322
_cell_angle_gamma 90.000000
_cell_volume 1438.092836
_symmetry_space_group_name_H-M "P 21/M"
_symmetry_group_IT_number 11
_symmetry_cell_setting 'monoclinic'
loop_
_space_group_symop_operation_xyz
x,y,z
-x,1/2+y,-z
-x,-y,-z
x,1/2-y,z
loop_
_atom_site_type_symbol
_atom_site_label
_atom_site_fract_x
_atom_site_fract_y
_atom_site_fract_z
Si Si1 0.741690 0.117892 0.624005
Si Si2 0.100400 0.964987 0.606495
Si Si3 0.615798 0.053549 0.950903
Si Si4 0.047647 0.125761 0.071448
Si Si5 0.282021 0.120270 0.516923
Si Si6 0.547065 0.522278 0.718691
Si Si7 0.680760 0.614167 0.197857
Si Si8 0.032133 0.882807 0.797911
O O1 0.757732 0.250000 0.643817
O O2 0.560688 0.110111 0.545849
O O3 0.633701 0.047729 0.668279
O O4 0.987855 0.069342 0.632276
O O5 0.877963 0.889993 0.561426
O O6 0.202762 0.021603 0.555676
O O7 0.309600 0.915565 0.670079
O O8 0.439522 0.112583 0.883610
O O9 0.748010 0.958330 0.924619
O O10 0.837436 0.124684 0.999700
O O11 0.500000 0.000000 0.000000
O O12 0.161177 0.250000 0.087121
O O13 0.932061 0.104209 0.124730
O O14 0.238544 0.250000 0.538154
O O15 0.493818 0.430507 0.767584
O O16 0.755809 0.606887 0.758224
O O17 0.754234 0.750000 0.217028
O O18 0.857799 0.502741 0.216425
O O19 0.106680 0.750000 0.787779
#
# Coordination Sequence:
#
# PCOD9163295 Si02
#       8
#     4   4   4   4   4   4   4   4
#     4  10  20  37  62  90 125 165 211 265 328 389
#     4  10  20  36  60  88 124 162 211 261 318 382
#     4  11  22  42  65  99 130 167 215 272 333 392
#     4  10  22  41  65  92 128 168 213 265 325 392
#     4   9  19  35  58  89 122 160 205 262 321 379
#     4  11  24  42  61  92 129 174 218 271 326 389
#     4  12  26  44  69 102 134 170 221 279 336 395
#     4  11  25  46  67  91 128 177 223 268 326 396
#
# _framework density 22.251691999999998
#
# number of rings (size 3 to 8) (size 9 to 14) (size 15 to 20)
#    0.000    1.500    2.500    2.250    0.000    6.000 
#    0.000    1.875    0.000    0.000    0.000    0.000 
#    0.000    0.000    0.000    0.000    0.000    0.000 
#
# Total GULP energy -178330.389086 kJ/mol
# GULP energy per Si atom -5572.824659 kJ/mol
# Density = 2.220105 g / cm^3
# Si number density = 22.251692 Si / 1000 Ang^3
#
#
#
# Elastic Constant Matrix: (Units=GPa)
#
#
# Indices 1 2 3 4 5 6 
#
# 1 48.7810 22.3460 7.4853 0.0000 14.2749 0.0000
# 2 22.3460 113.8955 5.2612 0.0000 -3.8817 0.0000
# 3 7.4853 5.2612 90.4353 0.0000 16.1766 0.0000
# 4 0.0000 0.0000 0.0000 12.8984 0.0000 14.5399
# 5 14.2749 -3.8817 16.1766 0.0000 34.4128 0.0000
# 6 0.0000 0.0000 0.0000 14.5399 0.0000 42.8695
#
#
#
# Elastic Compliance Matrix: (Units=1/GPa)
#
#
# Indices 1 2 3 4 5 6 
#
# 1 0.026459 -0.005601 0.000232 0.000000 -0.011716 0.000000
# 2 -0.005601 0.010047 -0.000807 0.000000 0.003836 0.000000
# 3 0.000232 -0.000807 0.012140 0.000000 -0.005894 0.000000
# 4 0.000000 0.000000 0.000000 0.125519 0.000000 -0.042572
# 5 -0.011716 0.003836 -0.005894 0.000000 0.037122 0.000000
# 6 0.000000 0.000000 0.000000 -0.042572 0.000000 0.037766
#
#
# Mechanical properties :
#
#
# Convention : Reuss Voigt Hill
#
# Bulk Modulus (GPa) = 27.55431 35.92188 31.73810
# Shear Modulus (GPa) = 18.28141 32.57075 25.42608
#
# Velocity S-wave (km/s) = 2.86942 3.83004 3.38399
# Velocity P-wave (km/s) = 4.83611 5.97808 5.43716
#
# Compressibility (1/GPa) = 0.03629196
#
# Stress axis : x y z
#
# Youngs Moduli (GPa) = 37.79498 99.53299 82.37478
#
# Poissons Ratio (x) = 0.55749 -0.01908
# Poissons Ratio (y) = 0.21169 0.06648
# Poissons Ratio (z) = -0.00875 0.08033
#
# Static dielectric constant tensor:
#      x y z
#    x 1.893480 0.000000 0.005450 
#    y 0.000000 2.277450 0.000000 
#    z 0.005450 0.000000 1.907890 
# 
# From -- ./inp_files/67643.got.cif
#   From: 2010.05.17/outbox.cif.g08.bks.cpg/sg11_34_cif.got.tgz:67643.got - 2010.06.03 12:22:45.
