data_PCOD9163786
_publ_section_title
;
Structure prediction by ZEFSAII (Michael W. Deem and Ramdas Pophale) SiO2 
 PCOD9163786
Probable space group: P 21/M
;
_chemical_formula_sum "Si O2"
_cell_formula_units_Z 28
_cell_length_a 8.887137
_cell_length_b 17.424004
_cell_length_c 13.822468
_cell_angle_alpha 90.000000
_cell_angle_beta 31.056420
_cell_angle_gamma 90.000000
_cell_volume 1104.194839
_symmetry_space_group_name_H-M "P 21/M"
_symmetry_group_IT_number 11
_symmetry_cell_setting 'monoclinic'
loop_
_space_group_symop_operation_xyz
x,y,z
-x,1/2+y,-z
-x,-y,-z
x,1/2-y,z
loop_
_atom_site_type_symbol
_atom_site_label
_atom_site_fract_x
_atom_site_fract_y
_atom_site_fract_z
Si Si1 0.708306 0.658646 0.906984
Si Si2 0.652769 0.837164 0.710430
Si Si3 0.476898 0.337158 0.716688
Si Si4 0.217411 0.046099 0.615165
Si Si5 0.180437 0.593350 0.315093
Si Si6 0.924901 0.074298 0.979337
Si Si7 0.323915 0.836990 0.615595
O O1 0.702818 0.750000 0.927514
O O2 0.409851 0.623433 0.109839
O O3 0.733866 0.649413 0.778266
O O4 0.999718 0.627217 0.799809
O O5 0.543787 0.750000 0.762696
O O6 0.940075 0.848590 0.489241
O O7 0.402501 0.898194 0.826474
O O8 0.519647 0.250000 0.731948
O O9 0.137726 0.356420 0.893115
O O10 0.611389 0.407022 0.705329
O O11 0.608990 0.337562 0.536479
O O12 0.014123 0.029202 0.633589
O O13 0.006656 0.057833 0.822664
O O14 0.396433 0.123628 0.492489
O O15 0.500000 0.000000 0.500000
O O16 0.000000 0.000000 0.000000
O O17 0.307503 0.750000 0.658668
#
# Coordination Sequence:
#
# PCOD9163786 Si02
#       7
#     4   4   4   4   4   4   4
#     4  10  20  37  62  98 131 162 210 271 328 384
#     4  11  22  40  66  99 134 172 217 273 331 394
#     4  10  21  41  68 100 131 170 222 278 335 400
#     4  11  25  45  64  98 135 176 231 277 330 404
#     4  12  23  40  67 101 132 168 220 276 330 395
#     4  11  24  46  66  92 138 185 225 272 337 400
#     4   9  20  41  67  92 132 175 214 273 340 396
#
# _framework density 25.357844
#
# number of rings (size 3 to 8) (size 9 to 14) (size 15 to 20)
#    0.000    1.429    2.857    2.571    0.000    4.571 
#    2.571    5.000    0.000    0.000    0.000    0.000 
#    0.000    0.000    0.000    0.000    0.000    0.000 
#
# Total GULP energy -156502.737184 kJ/mol
# GULP energy per Si atom -5589.383471 kJ/mol
# Density = 2.530013 g / cm^3
# Si number density = 25.357844 Si / 1000 Ang^3
#
#
#
# Elastic Constant Matrix: (Units=GPa)
#
#
# Indices 1 2 3 4 5 6 
#
# 1 71.0559 -6.4907 19.3976 0.0000 14.5684 0.0000
# 2 -6.4907 59.7686 20.6188 0.0000 -2.4360 0.0000
# 3 19.3976 20.6188 139.5483 0.0000 -1.0657 0.0000
# 4 0.0000 0.0000 0.0000 34.4985 0.0000 -10.2392
# 5 14.5684 -2.4360 -1.0657 0.0000 35.0962 0.0000
# 6 0.0000 0.0000 0.0000 -10.2392 0.0000 27.9897
#
#
#
# Elastic Compliance Matrix: (Units=1/GPa)
#
#
# Indices 1 2 3 4 5 6 
#
# 1 0.016410 0.002437 -0.002692 0.000000 -0.006724 0.000000
# 2 0.002437 0.018038 -0.003003 0.000000 0.000149 0.000000
# 3 -0.002692 -0.003003 0.007993 0.000000 0.001152 0.000000
# 4 0.000000 0.000000 0.000000 0.032517 0.000000 0.011896
# 5 -0.006724 0.000149 0.001152 0.000000 0.031330 0.000000
# 6 0.000000 0.000000 0.000000 0.011896 0.000000 0.040079
#
#
# Mechanical properties :
#
#
# Convention : Reuss Voigt Hill
#
# Bulk Modulus (GPa) = 27.83691 37.49156 32.66424
# Shear Modulus (GPa) = 30.32923 35.30669 32.81796
#
# Velocity S-wave (km/s) = 3.46215 3.73545 3.60139
# Velocity P-wave (km/s) = 5.19456 5.78117 5.49569
#
# Compressibility (1/GPa) = 0.03592352
#
# Stress axis : x y z
#
# Youngs Moduli (GPa) = 60.93968 55.43917 125.11444
#
# Poissons Ratio (x) = -0.13509 0.33686
# Poissons Ratio (y) = -0.14850 0.37568
# Poissons Ratio (z) = 0.16407 0.16647
#
# Static dielectric constant tensor:
#      x y z
#    x 2.052320 0.000000 0.010050 
#    y 0.000000 2.076280 0.000000 
#    z 0.010050 0.000000 1.938410 
# 
# From -- ./inp_files/48320.got.cif
#   From: 2010.05.17/outbox.cif.g08.bks.cpg/sg11_25_cif.got.tgz:48320.got - 2010.06.03 12:22:45.
