data_PCOD9163992
_publ_section_title
;
Structure prediction by ZEFSAII (Michael W. Deem and Ramdas Pophale) SiO2 
 PCOD9163992
Probable space group: P 21/M
;
_chemical_formula_sum "Si O2"
_cell_formula_units_Z 28
_cell_length_a 7.062913
_cell_length_b 20.878071
_cell_length_c 7.196014
_cell_angle_alpha 90.000000
_cell_angle_beta 94.536519
_cell_angle_gamma 90.000000
_cell_volume 1057.799846
_symmetry_space_group_name_H-M "P 21/M"
_symmetry_group_IT_number 11
_symmetry_cell_setting 'monoclinic'
loop_
_space_group_symop_operation_xyz
x,y,z
-x,1/2+y,-z
-x,-y,-z
x,1/2-y,z
loop_
_atom_site_type_symbol
_atom_site_label
_atom_site_fract_x
_atom_site_fract_y
_atom_site_fract_z
Si Si1 0.507430 0.680888 0.746309
Si Si2 0.069415 0.319664 0.374334
Si Si3 0.809684 0.881525 0.269311
Si Si4 0.286810 0.025520 0.040731
Si Si5 0.391531 0.824932 0.319611
Si Si6 0.823979 0.449368 0.635358
Si Si7 0.766527 0.080006 0.225646
O O1 0.491424 0.750000 0.839372
O O2 0.722117 0.672976 0.696487
O O3 0.391751 0.682224 0.543592
O O4 0.416108 0.622173 0.846542
O O5 0.996446 0.250000 0.319266
O O6 0.090612 0.325348 0.600068
O O7 0.934421 0.371362 0.277105
O O8 0.592405 0.859638 0.291222
O O9 0.948213 0.938270 0.363788
O O10 0.783252 0.908322 0.057747
O O11 0.173118 0.970568 0.920387
O O12 0.246778 0.009698 0.251411
O O13 0.500000 0.000000 0.000000
O O14 0.374074 0.750000 0.250692
O O15 0.242501 0.882397 0.268249
O O16 0.726705 0.450229 0.425571
#
# Coordination Sequence:
#
# PCOD9163992 Si02
#       7
#     4   4   4   4   4   4   4
#     4   8  15  32  59  90 120 156 200 251 312 373
#     4   9  18  36  65  97 124 155 208 263 312 379
#     4  10  20  38  62  91 124 166 207 252 318 363
#     4  12  25  44  61  89 133 166 214 263 302 370
#     4   9  17  34  61  93 123 155 204 255 308 378
#     4  10  22  41  63  92 122 166 208 260 315 369
#     4  10  22  39  64  92 121 168 206 253 321 367
#
# _framework density 26.470033000000001
#
# number of rings (size 3 to 8) (size 9 to 14) (size 15 to 20)
#    0.000    2.286    1.429    2.143    0.000    6.857 
#    5.143    1.429    0.000    0.000    0.000    0.000 
#    0.000    0.000    0.000    0.000    0.000    0.000 
#
# Total GULP energy -156117.962581 kJ/mol
# GULP energy per Si atom -5575.641521 kJ/mol
# Density = 2.640979 g / cm^3
# Si number density = 26.470033 Si / 1000 Ang^3
#
#
#
# Elastic Constant Matrix: (Units=GPa)
#
#
# Indices 1 2 3 4 5 6 
#
# 1 91.5211 28.3635 8.5840 0.0000 -5.8687 0.0000
# 2 28.3635 102.7266 29.5425 0.0000 -15.5870 0.0000
# 3 8.5840 29.5425 86.5929 0.0000 -2.6363 0.0000
# 4 0.0000 0.0000 0.0000 20.7442 0.0000 -4.3209
# 5 -5.8687 -15.5870 -2.6363 0.0000 38.3572 0.0000
# 6 0.0000 0.0000 0.0000 -4.3209 0.0000 34.8003
#
#
#
# Elastic Compliance Matrix: (Units=1/GPa)
#
#
# Indices 1 2 3 4 5 6 
#
# 1 0.011959 -0.003200 -0.000078 0.000000 0.000524 0.000000
# 2 -0.003200 0.012349 -0.003766 0.000000 0.004270 0.000000
# 3 -0.000078 -0.003766 0.012821 0.000000 -0.000661 0.000000
# 4 0.000000 0.000000 0.000000 0.049486 0.000000 0.006144
# 5 0.000524 0.004270 -0.000661 0.000000 0.027841 0.000000
# 6 0.000000 0.000000 0.000000 0.006144 0.000000 0.029498
#
#
# Mechanical properties :
#
#
# Convention : Reuss Voigt Hill
#
# Bulk Modulus (GPa) = 43.40035 45.98006 44.69021
# Shear Modulus (GPa) = 30.17111 33.07038 31.62075
#
# Velocity S-wave (km/s) = 3.37979 3.53845 3.46003
# Velocity P-wave (km/s) = 5.62692 5.83974 5.73432
#
# Compressibility (1/GPa) = 0.02304129
#
# Stress axis : x y z
#
# Youngs Moduli (GPa) = 83.61835 80.97818 77.99916
#
# Poissons Ratio (x) = 0.25914 0.00607
# Poissons Ratio (y) = 0.26759 0.29373
# Poissons Ratio (z) = 0.00650 0.30495
#
# Static dielectric constant tensor:
#      x y z
#    x 2.190730 0.000000 0.018780 
#    y 0.000000 2.224700 0.000000 
#    z 0.018780 0.000000 2.090210 
# 
# From -- ./inp_files/13591.got.cif
#   From: 2010.05.17/outbox.cif.g08.bks.cpg/sg11_7_cif.got.tgz:13591.got - 2010.06.03 12:22:45.
