data_PCOD9163419
_publ_section_title
;
Structure prediction by ZEFSAII (Michael W. Deem and Ramdas Pophale) SiO2 
 PCOD9163419
Probable space group: P 21/M
;
_chemical_formula_sum "Si O2"
_cell_formula_units_Z 32
_cell_length_a 5.079603
_cell_length_b 23.238901
_cell_length_c 13.636309
_cell_angle_alpha 90.000000
_cell_angle_beta 112.942236
_cell_angle_gamma 90.000000
_cell_volume 1482.360611
_symmetry_space_group_name_H-M "P 21/M"
_symmetry_group_IT_number 11
_symmetry_cell_setting 'monoclinic'
loop_
_space_group_symop_operation_xyz
x,y,z
-x,1/2+y,-z
-x,-y,-z
x,1/2-y,z
loop_
_atom_site_type_symbol
_atom_site_label
_atom_site_fract_x
_atom_site_fract_y
_atom_site_fract_z
Si Si1 0.174313 0.819104 0.796091
Si Si2 0.985413 0.971498 0.275628
Si Si3 0.232001 0.684358 0.345831
Si Si4 0.411920 0.597813 0.220173
Si Si5 0.151882 0.410760 0.364555
Si Si6 0.325280 0.183592 0.875886
Si Si7 0.198506 0.908519 0.494883
Si Si8 0.190516 0.180558 0.076058
O O1 0.156269 0.750000 0.785521
O O2 0.970154 0.850258 0.689887
O O3 0.062463 0.836654 0.888173
O O4 0.504516 0.836290 0.832453
O O5 0.671576 0.946581 0.247572
O O6 0.132388 0.939013 0.205730
O O7 0.160748 0.951591 0.397977
O O8 0.013040 0.039571 0.277311
O O9 0.330472 0.750000 0.365428
O O10 0.442347 0.642421 0.315901
O O11 0.180928 0.654467 0.442382
O O12 0.940030 0.683107 0.239020
O O13 0.439165 0.640378 0.131966
O O14 0.491922 0.414926 0.411832
O O15 0.041033 0.419085 0.459135
O O16 0.431349 0.250000 0.897075
O O17 0.210442 0.164533 0.964961
O O18 0.181423 0.250000 0.072482
#
# Coordination Sequence:
#
# PCOD9163419 Si02
#       8
#     4   4   4   4   4   4   4   4
#     4  10  22  41  61  87 118 147 194 252 294 340
#     4  11  23  39  60  83 119 156 204 249 280 337
#     4  10  22  37  57  91 130 155 185 234 298 367
#     4  11  20  38  57  88 121 157 188 235 295 339
#     4  12  24  40  63  84 114 159 206 242 293 340
#     4  10  20  36  63  92 121 155 190 233 298 362
#     4  11  22  38  58  87 116 155 199 240 288 345
#     4   9  20  37  62  90 115 149 194 241 291 348
#
# _framework density 21.587192000000002
#
# number of rings (size 3 to 8) (size 9 to 14) (size 15 to 20)
#    0.000    1.500    2.500    4.125    1.750    1.000 
#    0.000    0.000    0.000    4.500    0.000    0.000 
#    0.000    0.000    0.000    0.000    0.000    0.000 
#
# Total GULP energy -178829.202231 kJ/mol
# GULP energy per Si atom -5588.412570 kJ/mol
# Density = 2.153806 g / cm^3
# Si number density = 21.587192 Si / 1000 Ang^3
#
#
#
# Elastic Constant Matrix: (Units=GPa)
#
#
# Indices 1 2 3 4 5 6 
#
# 1 79.5327 5.7681 -1.9323 0.0000 -4.1055 0.0000
# 2 5.7681 49.9429 -1.7859 0.0000 -3.1356 0.0000
# 3 -1.9323 -1.7859 26.4434 0.0000 0.2185 0.0000
# 4 0.0000 0.0000 0.0000 15.9743 0.0000 -5.5882
# 5 -4.1055 -3.1356 0.2185 0.0000 9.5067 0.0000
# 6 0.0000 0.0000 0.0000 -5.5882 0.0000 19.1165
#
#
#
# Elastic Compliance Matrix: (Units=1/GPa)
#
#
# Indices 1 2 3 4 5 6 
#
# 1 0.012944 -0.001139 0.000826 0.000000 0.005195 0.000000
# 2 -0.001139 0.020593 0.001256 0.000000 0.006271 0.000000
# 3 0.000826 0.001256 0.037963 0.000000 -0.000102 0.000000
# 4 0.000000 0.000000 0.000000 0.069731 0.000000 0.020384
# 5 0.005195 0.006271 -0.000102 0.000000 0.109503 0.000000
# 6 0.000000 0.000000 0.000000 0.020384 0.000000 0.058270
#
#
# Mechanical properties :
#
#
# Convention : Reuss Voigt Hill
#
# Bulk Modulus (GPa) = 13.62680 17.77989 15.70334
# Shear Modulus (GPa) = 15.07928 19.17744 17.12836
#
# Velocity S-wave (km/s) = 2.64584 2.98379 2.81988
# Velocity P-wave (km/s) = 3.95728 4.48607 4.22995
#
# Compressibility (1/GPa) = 0.07338483
#
# Stress axis : x y z
#
# Youngs Moduli (GPa) = 77.25396 48.56004 26.34172
#
# Poissons Ratio (x) = 0.05532 -0.02176
# Poissons Ratio (y) = 0.08801 -0.03308
# Poissons Ratio (z) = -0.06381 -0.06098
#
# Static dielectric constant tensor:
#      x y z
#    x 1.801840 0.000000 0.007440 
#    y 0.000000 1.800770 0.000000 
#    z 0.007440 0.000000 1.794650 
# 
# From -- ./inp_files/30262.got.cif
#   From: 2010.05.17/outbox.cif.g08.bks.cpg/sg11_16_cif.got.tgz:30262.got - 2010.06.03 12:22:45.
