data_PCOD9163638
_publ_section_title
;
Structure prediction by ZEFSAII (Michael W. Deem and Ramdas Pophale) SiO2 
 PCOD9163638
Probable space group: P 21/M
;
_chemical_formula_sum "Si O2"
_cell_formula_units_Z 32
_cell_length_a 25.085469
_cell_length_b 8.800018
_cell_length_c 15.537752
_cell_angle_alpha 90.000000
_cell_angle_beta 27.489053
_cell_angle_gamma 90.000000
_cell_volume 1583.215877
_symmetry_space_group_name_H-M "P 21/M"
_symmetry_group_IT_number 11
_symmetry_cell_setting 'monoclinic'
loop_
_space_group_symop_operation_xyz
x,y,z
-x,1/2+y,-z
-x,-y,-z
x,1/2-y,z
loop_
_atom_site_type_symbol
_atom_site_label
_atom_site_fract_x
_atom_site_fract_y
_atom_site_fract_z
Si Si1 0.912117 0.069038 0.696022
Si Si2 0.669185 0.933679 0.987196
Si Si3 0.995163 0.572520 0.100804
Si Si4 0.868072 0.931993 0.937853
Si Si5 0.378643 0.431226 0.643900
Si Si6 0.381439 0.068003 0.135189
Si Si7 0.414402 0.930218 0.412816
Si Si8 0.270852 0.426955 0.466436
O O1 0.922012 0.250000 0.680421
O O2 0.782778 0.014635 0.858512
O O3 0.929607 0.008038 0.767961
O O4 0.000000 0.000000 0.500000
O O5 0.685953 0.750000 0.967061
O O6 0.649631 0.981630 0.916085
O O7 0.550288 0.967818 0.207481
O O8 0.029421 0.750000 0.049184
O O9 0.072247 0.484539 0.059551
O O10 0.862370 0.562224 0.319669
O O11 0.000000 0.500000 0.000000
O O12 0.873014 0.750000 0.922020
O O13 0.732642 0.977296 0.140271
O O14 0.500000 0.500000 0.500000
O O15 0.386301 0.250000 0.637170
O O16 0.361498 0.483532 0.569997
O O17 0.392928 0.250000 0.114125
O O18 0.289489 0.029306 0.340542
O O19 0.500000 0.000000 0.000000
O O20 0.405151 0.750000 0.439671
O O21 0.348625 0.976058 0.419917
O O22 0.306938 0.250000 0.424288
#
# Coordination Sequence:
#
# PCOD9163638 Si02
#       8
#     4   4   4   4   4   4   4   4
#     4  12  27  46  69  96 126 168 217 267 322 385
#     4  10  22  40  62  91 129 167 209 264 320 374
#     4  11  24  42  65  95 129 172 219 268 324 384
#     4  11  25  46  68  95 130 169 215 271 324 382
#     4  11  24  41  64  92 125 161 204 257 315 377
#     4  10  20  37  60  89 126 165 205 258 314 372
#     4  11  22  37  61  93 127 164 205 255 312 375
#     4  10  22  38  59  88 123 163 207 253 311 377
#
# _framework density 20.212026000000002
#
# number of rings (size 3 to 8) (size 9 to 14) (size 15 to 20)
#    0.000    1.250    1.250    4.125    1.750   10.500 
#    0.000    0.000    0.000    0.000    0.000    0.000 
#    0.000    0.000    0.000    0.000    0.000    0.000 
#
# Total GULP energy -178979.952212 kJ/mol
# GULP energy per Si atom -5593.123507 kJ/mol
# Density = 2.016602 g / cm^3
# Si number density = 20.212026 Si / 1000 Ang^3
#
#
#
# Elastic Constant Matrix: (Units=GPa)
#
#
# Indices 1 2 3 4 5 6 
#
# 1 93.1424 24.5183 28.6098 0.0000 13.7978 0.0000
# 2 24.5183 64.3178 48.1024 0.0000 4.7048 0.0000
# 3 28.6098 48.1024 103.7563 0.0000 23.3058 0.0000
# 4 0.0000 0.0000 0.0000 28.8328 0.0000 -0.9029
# 5 13.7978 4.7048 23.3058 0.0000 39.3803 0.0000
# 6 0.0000 0.0000 0.0000 -0.9029 0.0000 38.1597
#
#
#
# Elastic Compliance Matrix: (Units=1/GPa)
#
#
# Indices 1 2 3 4 5 6 
#
# 1 0.012531 -0.003849 -0.000909 0.000000 -0.003393 0.000000
# 2 -0.003849 0.025616 -0.012029 0.000000 0.005407 0.000000
# 3 -0.000909 -0.012029 0.017382 0.000000 -0.008531 0.000000
# 4 0.000000 0.000000 0.000000 0.034708 0.000000 0.000821
# 5 -0.003393 0.005407 -0.008531 0.000000 0.030985 0.000000
# 6 0.000000 0.000000 0.000000 0.000821 0.000000 0.026225
#
#
# Mechanical properties :
#
#
# Convention : Reuss Voigt Hill
#
# Bulk Modulus (GPa) = 45.54781 51.51972 48.53376
# Shear Modulus (GPa) = 26.54784 31.94030 29.24407
#
# Velocity S-wave (km/s) = 3.62811 3.97956 3.80789
# Velocity P-wave (km/s) = 6.33521 6.83088 6.58771
#
# Compressibility (1/GPa) = 0.02195495
#
# Stress axis : x y z
#
# Youngs Moduli (GPa) = 79.80060 39.03829 57.53224
#
# Poissons Ratio (x) = 0.15026 0.05228
# Poissons Ratio (y) = 0.30716 0.69205
# Poissons Ratio (z) = 0.07252 0.46959
#
# Static dielectric constant tensor:
#      x y z
#    x 1.722620 0.000000 0.022530 
#    y 0.000000 1.681490 0.000000 
#    z 0.022530 0.000000 1.741350 
# 
# From -- ./inp_files/55635.got.cif
#   From: 2010.05.17/outbox.cif.g08.bks.cpg/sg11_28_cif.got.tgz:55635.got - 2010.06.03 12:22:45.
