data_PCOD9163692
_publ_section_title
;
Structure prediction by ZEFSAII (Michael W. Deem and Ramdas Pophale) SiO2 
 PCOD9163692
Probable space group: P 21/M
;
_chemical_formula_sum "Si O2"
_cell_formula_units_Z 28
_cell_length_a 21.592168
_cell_length_b 8.621487
_cell_length_c 16.269521
_cell_angle_alpha 90.000000
_cell_angle_beta 151.750943
_cell_angle_gamma 90.000000
_cell_volume 1433.489257
_symmetry_space_group_name_H-M "P 21/M"
_symmetry_group_IT_number 11
_symmetry_cell_setting 'monoclinic'
loop_
_space_group_symop_operation_xyz
x,y,z
-x,1/2+y,-z
-x,-y,-z
x,1/2-y,z
loop_
_atom_site_type_symbol
_atom_site_label
_atom_site_fract_x
_atom_site_fract_y
_atom_site_fract_z
Si Si1 0.600307 0.064261 0.049880
Si Si2 0.935609 0.066283 0.217863
Si Si3 0.884983 0.934341 0.422641
Si Si4 0.051464 0.431262 0.943820
Si Si5 0.214221 0.568231 0.273076
Si Si6 0.510554 0.932630 0.420194
Si Si7 0.356176 0.562326 0.080230
O O1 0.590795 0.250000 0.038579
O O2 0.747236 0.015069 0.245746
O O3 0.580047 0.008890 0.931258
O O4 0.500000 0.000000 0.000000
O O5 0.930561 0.250000 0.191277
O O6 0.059215 0.040435 0.420615
O O7 0.942916 0.967116 0.144739
O O8 0.798706 0.028704 0.102814
O O9 0.871880 0.750000 0.393968
O O10 0.000000 0.000000 0.500000
O O11 0.074911 0.250000 0.989298
O O12 0.907578 0.470707 0.810369
O O13 0.158339 0.531301 0.117260
O O14 0.245162 0.750000 0.316850
O O15 0.342502 0.468427 0.437662
O O16 0.486918 0.750000 0.400007
O O17 0.416320 0.994936 0.237136
O O18 0.500000 0.000000 0.500000
O O19 0.369903 0.750000 0.097642
#
# Coordination Sequence:
#
# PCOD9163692 Si02
#       7
#     4   4   4   4   4   4   4
#     4  11  23  43  65  91 127 166 210 260 316 379
#     4  10  20  37  61  87 117 155 198 244 304 365
#     4  11  22  39  64  92 121 160 203 252 307 364
#     4  10  21  36  57  86 114 149 198 250 297 349
#     4  10  21  38  56  78 117 157 192 241 301 358
#     4  11  22  37  60  87 116 155 201 245 296 359
#     4   9  20  39  60  83 117 159 199 245 302 365
#
# _framework density 19.532758000000001
#
# number of rings (size 3 to 8) (size 9 to 14) (size 15 to 20)
#    0.000    1.714    1.429    3.000    0.000    5.143 
#    0.000    7.857    0.000    0.000    0.000    0.000 
#    0.000    0.000    0.000    0.000    0.000    0.000 
#
# Total GULP energy -156344.236744 kJ/mol
# GULP energy per Si atom -5583.722741 kJ/mol
# Density = 1.948830 g / cm^3
# Si number density = 19.532758 Si / 1000 Ang^3
#
#
#
# Elastic Constant Matrix: (Units=GPa)
#
#
# Indices 1 2 3 4 5 6 
#
# 1 100.6117 25.2844 44.6922 0.0000 -12.9636 0.0000
# 2 25.2844 25.5546 20.1076 0.0000 -5.4284 0.0000
# 3 44.6922 20.1076 93.8943 0.0000 -3.7134 0.0000
# 4 0.0000 0.0000 0.0000 29.1202 0.0000 2.2505
# 5 -12.9636 -5.4284 -3.7134 0.0000 25.4644 0.0000
# 6 0.0000 0.0000 0.0000 2.2505 0.0000 34.5704
#
#
#
# Elastic Compliance Matrix: (Units=1/GPa)
#
#
# Indices 1 2 3 4 5 6 
#
# 1 0.015329 -0.010268 -0.004904 0.000000 0.004900 0.000000
# 2 -0.010268 0.055895 -0.006858 0.000000 0.005688 0.000000
# 3 -0.004904 -0.006858 0.014379 0.000000 -0.001861 0.000000
# 4 0.000000 0.000000 0.000000 0.034514 0.000000 -0.002247
# 5 0.004900 0.005688 -0.001861 0.000000 0.042706 0.000000
# 6 0.000000 0.000000 0.000000 -0.002247 0.000000 0.029073
#
#
# Mechanical properties :
#
#
# Convention : Reuss Voigt Hill
#
# Bulk Modulus (GPa) = 24.07010 44.46987 34.26999
# Shear Modulus (GPa) = 20.01568 26.49611 23.25589
#
# Velocity S-wave (km/s) = 3.20460 3.68706 3.45426
# Velocity P-wave (km/s) = 5.10317 6.39860 5.78725
#
# Compressibility (1/GPa) = 0.04154532
#
# Stress axis : x y z
#
# Youngs Moduli (GPa) = 65.23493 17.89056 69.54381
#
# Poissons Ratio (x) = 0.18369 0.34103
# Poissons Ratio (y) = 0.66981 0.47692
# Poissons Ratio (z) = 0.31990 0.12269
#
# Static dielectric constant tensor:
#      x y z
#    x 1.725790 0.000000 -0.037050 
#    y 0.000000 1.671210 0.000000 
#    z -0.037050 0.000000 1.690680 
# 
# From -- ./inp_files/54640.got.cif
#   From: 2010.05.17/outbox.cif.g08.bks.cpg/sg11_28_cif.got.tgz:54640.got - 2010.06.03 12:22:45.
