data_PCOD9163018
_publ_section_title
;
Structure prediction by ZEFSAII (Michael W. Deem and Ramdas Pophale) SiO2 
 PCOD9163018
Probable space group: P 21/M
;
_chemical_formula_sum "Si O2"
_cell_formula_units_Z 24
_cell_length_a 14.740552
_cell_length_b 13.987160
_cell_length_c 11.984133
_cell_angle_alpha 90.000000
_cell_angle_beta 151.438859
_cell_angle_gamma 90.000000
_cell_volume 1181.313804
_symmetry_space_group_name_H-M "P 21/M"
_symmetry_group_IT_number 11
_symmetry_cell_setting 'monoclinic'
loop_
_space_group_symop_operation_xyz
x,y,z
-x,1/2+y,-z
-x,-y,-z
x,1/2-y,z
loop_
_atom_site_type_symbol
_atom_site_label
_atom_site_fract_x
_atom_site_fract_y
_atom_site_fract_z
Si Si1 0.361776 0.362222 0.914820
Si Si2 0.076361 0.106201 0.065563
Si Si3 0.574603 0.542094 0.427371
Si Si4 0.721420 0.483426 0.350649
Si Si5 0.660759 0.144298 0.665821
Si Si6 0.080389 0.359823 0.811604
O O1 0.355019 0.250000 0.877299
O O2 0.575879 0.402530 0.149460
O O3 0.253795 0.433174 0.713337
O O4 0.260947 0.372421 0.926430
O O5 0.261417 0.109054 0.341361
O O6 0.124972 0.126367 0.990013
O O7 0.884362 0.157590 0.892238
O O8 0.000000 0.000000 0.000000
O O9 0.616334 0.529919 0.343581
O O10 0.385832 0.594233 0.266091
O O11 0.591275 0.436364 0.502082
O O12 0.914695 0.433162 0.598507
O O13 0.573286 0.250000 0.557889
O O14 0.012987 0.250000 0.724172
#
# Coordination Sequence:
#
# PCOD9163018 Si02
#       6
#     4   4   4   4   4   4
#     4  10  25  42  62  92 116 153 209 253 299 352
#     4  10  20  36  57  87 126 154 192 243 294 355
#     4  10  23  37  60  89 123 159 197 241 298 358
#     4  11  22  42  67  83 123 161 195 254 303 348
#     4  10  21  36  55  87 124 160 198 234 287 354
#     4  11  22  38  65  94 120 157 203 244 293 357
#
# _framework density 20.316364
#
# number of rings (size 3 to 8) (size 9 to 14) (size 15 to 20)
#    0.000    1.667    3.333    1.500    7.000    2.667 
#    0.000    0.000    0.000    4.000    0.000    0.000 
#    0.000    0.000    0.000    0.000    0.000    0.000 
#
# Total GULP energy -133900.283317 kJ/mol
# GULP energy per Si atom -5579.178472 kJ/mol
# Density = 2.027012 g / cm^3
# Si number density = 20.316364 Si / 1000 Ang^3
#
#
#
# Elastic Constant Matrix: (Units=GPa)
#
#
# Indices 1 2 3 4 5 6 
#
# 1 87.5331 58.4091 -0.7742 0.0000 1.3210 0.0000
# 2 58.4091 126.5533 25.2911 0.0000 2.2221 0.0000
# 3 -0.7742 25.2911 49.3839 0.0000 0.4345 0.0000
# 4 0.0000 0.0000 0.0000 11.6906 0.0000 11.4213
# 5 1.3210 2.2221 0.4345 0.0000 22.2330 0.0000
# 6 0.0000 0.0000 0.0000 11.4213 0.0000 5.3749
#
#
#
# Elastic Compliance Matrix: (Units=1/GPa)
#
#
# Indices 1 2 3 4 5 6 
#
# 1 0.017520 -0.009065 0.004919 0.000000 -0.000231 0.000000
# 2 -0.009065 0.013507 -0.007054 0.000000 -0.000673 0.000000
# 3 0.004919 -0.007054 0.023940 0.000000 -0.000055 0.000000
# 4 0.000000 0.000000 0.000000 -0.079497 0.000000 0.168926
# 5 -0.000231 -0.000673 -0.000055 0.000000 0.045060 0.000000
# 6 0.000000 0.000000 0.000000 0.168926 0.000000 -0.172909
#
#
# Mechanical properties :
#
#
# Convention : Reuss Voigt Hill
#
# Bulk Modulus (GPa) = 30.70514 47.70248 39.20381
# Shear Modulus (GPa) = -41.97348 19.89597 -11.03875
#
# Velocity S-wave (km/s) = -4.55025 3.13278 -2.33350
# Velocity P-wave (km/s) = 3.52988 6.05116 3.47538
#
# Compressibility (1/GPa) = 0.03256784
#
# Stress axis : x y z
#
# Youngs Moduli (GPa) = 57.07634 74.03406 41.77180
#
# Poissons Ratio (x) = 0.67115 -0.20549
# Poissons Ratio (y) = 0.51742 0.29465
# Poissons Ratio (z) = -0.28078 0.52222
#
# Static dielectric constant tensor:
#      x y z
#    x 1.764950 0.000000 0.059220 
#    y 0.000000 1.789880 0.000000 
#    z 0.059220 0.000000 1.768900 
# 
# From -- ./inp_files/39740.got.cif
#   From: 2010.05.17/outbox.cif.g08.bks.cpg/sg11_20_cif.got.tgz:39740.got - 2010.06.03 12:22:45.
