data_PCOD9163604
_publ_section_title
;
Structure prediction by ZEFSAII (Michael W. Deem and Ramdas Pophale) SiO2 
 PCOD9163604
Probable space group: P 21/M
;
_chemical_formula_sum "Si O2"
_cell_formula_units_Z 32
_cell_length_a 22.022891
_cell_length_b 8.651023
_cell_length_c 28.477621
_cell_angle_alpha 90.000000
_cell_angle_beta 18.928147
_cell_angle_gamma 90.000000
_cell_volume 1759.958596
_symmetry_space_group_name_H-M "P 21/M"
_symmetry_group_IT_number 11
_symmetry_cell_setting 'monoclinic'
loop_
_space_group_symop_operation_xyz
x,y,z
-x,1/2+y,-z
-x,-y,-z
x,1/2-y,z
loop_
_atom_site_type_symbol
_atom_site_label
_atom_site_fract_x
_atom_site_fract_y
_atom_site_fract_z
Si Si1 0.990812 0.566119 0.559117
Si Si2 0.300856 0.066185 0.399488
Si Si3 0.318464 0.064573 0.844700
Si Si4 0.708497 0.064164 0.842242
Si Si5 0.217167 0.934603 0.631062
Si Si6 0.613838 0.064489 0.308299
Si Si7 0.904451 0.062116 0.176326
Si Si8 0.981104 0.565813 0.309711
O O1 0.974598 0.750000 0.569632
O O2 0.819533 0.498697 0.715519
O O3 0.000000 0.500000 0.500000
O O4 0.178912 0.516473 0.448986
O O5 0.295032 0.250000 0.395938
O O6 0.192558 0.035760 0.527869
O O7 0.510690 0.006897 0.251107
O O8 0.329445 0.250000 0.839149
O O9 0.340836 0.011533 0.774633
O O10 0.115854 0.012586 0.011229
O O11 0.705994 0.250000 0.841445
O O12 0.835255 0.021154 0.794928
O O13 0.500000 0.000000 0.000000
O O14 0.243975 0.750000 0.611460
O O15 0.163709 0.986843 0.722493
O O16 0.408011 0.015322 0.475280
O O17 0.058242 0.978573 0.709635
O O18 0.621303 0.250000 0.297820
O O19 0.763105 0.014008 0.238584
O O20 0.904002 0.250000 0.176554
O O21 0.987418 0.750000 0.296464
#
# Coordination Sequence:
#
# PCOD9163604 Si02
#       8
#     4   4   4   4   4   4   4   4
#     4  11  22  39  63  91 122 157 198 242 291 346
#     4  10  20  37  60  86 117 152 192 237 287 343
#     4  11  21  37  59  83 112 148 193 238 286 344
#     4  10  21  39  62  89 122 157 198 242 292 348
#     4  11  21  36  58  83 111 147 193 237 283 343
#     4  11  21  37  59  81 111 148 189 238 289 344
#     4   9  22  39  54  80 116 149 185 238 293 341
#     4   9  19  36  58  83 115 150 188 234 283 337
#
# _framework density 18.182245000000002
#
# number of rings (size 3 to 8) (size 9 to 14) (size 15 to 20)
#    0.000    1.750    1.250    4.500    0.000    2.500 
#    2.250    6.250    0.000    0.000    0.000    0.000 
#    0.000    0.000    0.000    0.000    0.000    0.000 
#
# Total GULP energy -178765.683263 kJ/mol
# GULP energy per Si atom -5586.427602 kJ/mol
# Density = 1.814086 g / cm^3
# Si number density = 18.182245 Si / 1000 Ang^3
#
#
#
# Elastic Constant Matrix: (Units=GPa)
#
#
# Indices 1 2 3 4 5 6 
#
# 1 85.9609 20.7408 32.3441 0.0000 -9.4218 0.0000
# 2 20.7408 53.9717 12.6665 0.0000 -6.9752 0.0000
# 3 32.3441 12.6665 87.5654 0.0000 -16.4188 0.0000
# 4 0.0000 0.0000 0.0000 20.7158 0.0000 -8.7258
# 5 -9.4218 -6.9752 -16.4188 0.0000 27.8186 0.0000
# 6 0.0000 0.0000 0.0000 -8.7258 0.0000 25.4612
#
#
#
# Elastic Compliance Matrix: (Units=1/GPa)
#
#
# Indices 1 2 3 4 5 6 
#
# 1 0.014511 -0.004368 -0.004511 0.000000 0.001157 0.000000
# 2 -0.004368 0.020814 -0.000783 0.000000 0.003277 0.000000
# 3 -0.004511 -0.000783 0.014479 0.000000 0.006821 0.000000
# 4 0.000000 0.000000 0.000000 0.056416 0.000000 0.019334
# 5 0.001157 0.003277 0.006821 0.000000 0.041187 0.000000
# 6 0.000000 0.000000 0.000000 0.019334 0.000000 0.045902
#
#
# Mechanical properties :
#
#
# Convention : Reuss Voigt Hill
#
# Bulk Modulus (GPa) = 32.80891 39.88898 36.34895
# Shear Modulus (GPa) = 22.44230 25.58222 24.01226
#
# Velocity S-wave (km/s) = 3.51707 3.75505 3.63801
# Velocity P-wave (km/s) = 5.88019 6.38644 6.13854
#
# Compressibility (1/GPa) = 0.03047952
#
# Stress axis : x y z
#
# Youngs Moduli (GPa) = 68.91116 48.04408 69.06746
#
# Poissons Ratio (x) = 0.20987 0.31158
# Poissons Ratio (y) = 0.30103 0.05406
# Poissons Ratio (z) = 0.31088 0.03761
#
# Static dielectric constant tensor:
#      x y z
#    x 1.611960 0.000000 -0.010300 
#    y 0.000000 1.613590 0.000000 
#    z -0.010300 0.000000 1.601900 
# 
# From -- ./inp_files/72082.got.cif
#   From: 2010.05.17/outbox.cif.g08.bks.cpg/sg11_37_cif.got.tgz:72082.got - 2010.06.03 12:22:45.
