data_PCOD9163510
_publ_section_title
;
Structure prediction by ZEFSAII (Michael W. Deem and Ramdas Pophale) SiO2 
 PCOD9163510
Probable space group: P 21/M
;
_chemical_formula_sum "Si O2"
_cell_formula_units_Z 24
_cell_length_a 12.217336
_cell_length_b 18.032840
_cell_length_c 6.935270
_cell_angle_alpha 90.000000
_cell_angle_beta 54.918549
_cell_angle_gamma 90.000000
_cell_volume 1250.361481
_symmetry_space_group_name_H-M "P 21/M"
_symmetry_group_IT_number 11
_symmetry_cell_setting 'monoclinic'
loop_
_space_group_symop_operation_xyz
x,y,z
-x,1/2+y,-z
-x,-y,-z
x,1/2-y,z
loop_
_atom_site_type_symbol
_atom_site_label
_atom_site_fract_x
_atom_site_fract_y
_atom_site_fract_z
Si Si1 0.089955 0.611620 0.376991
Si Si2 0.415127 0.332840 0.511978
Si Si3 0.615732 0.098479 0.005205
Si Si4 0.192740 0.373757 0.447238
Si Si5 0.041704 0.993120 0.738212
Si Si6 0.610689 0.923121 0.075492
O O1 0.067467 0.587099 0.621317
O O2 0.958096 0.654998 0.438845
O O3 0.071303 0.534486 0.274716
O O4 0.240146 0.634695 0.183307
O O5 0.438328 0.250000 0.563808
O O6 0.535724 0.359121 0.252743
O O7 0.285117 0.332598 0.505173
O O8 0.394916 0.389565 0.706845
O O9 0.627034 0.011960 0.055227
O O10 0.524269 0.096421 0.906175
O O11 0.170045 0.455770 0.562931
O O12 0.270696 0.385564 0.169056
O O13 0.000000 0.000000 0.000000
#
# Coordination Sequence:
#
# PCOD9163510 Si02
#       6
#     4   4   4   4   4   4
#     4   9  18  32  54  92 116 141 178 234 297 336
#     4  11  25  39  56  79 114 162 200 234 289 351
#     4  10  20  37  59  87 116 144 196 243 291 342
#     4   9  20  34  58  85 115 145 188 231 290 344
#     4   9  17  28  54  90 125 138 168 224 294 343
#     4  10  20  37  58  86 118 152 192 240 288 351
#
# _framework density 19.194448999999999
#
# number of rings (size 3 to 8) (size 9 to 14) (size 15 to 20)
#    1.000    1.333    1.667    0.500    4.667    4.000 
#    0.000    0.833    0.000    0.000    0.000    0.000 
#    0.000    0.000    0.000    0.000    0.000    0.000 
#
# Total GULP energy -133624.942651 kJ/mol
# GULP energy per Si atom -5567.705944 kJ/mol
# Density = 1.915076 g / cm^3
# Si number density = 19.194449 Si / 1000 Ang^3
#
#
#
# Elastic Constant Matrix: (Units=GPa)
#
#
# Indices 1 2 3 4 5 6 
#
# 1 99.8184 25.0577 63.2379 0.0000 -30.6293 0.0000
# 2 25.0577 32.6080 9.4723 0.0000 1.8683 0.0000
# 3 63.2379 9.4723 122.1269 0.0000 1.2330 0.0000
# 4 0.0000 0.0000 0.0000 -0.2896 0.0000 1.9485
# 5 -30.6293 1.8683 1.2330 0.0000 35.2330 0.0000
# 6 0.0000 0.0000 0.0000 1.9485 0.0000 3.4465
#
#
#
# Elastic Compliance Matrix: (Units=1/GPa)
#
#
# Indices 1 2 3 4 5 6 
#
# 1 0.040878 -0.027943 -0.019380 0.000000 0.037697 0.000000
# 2 -0.027943 0.050563 0.010823 0.000000 -0.027352 0.000000
# 3 -0.019380 0.010823 0.017566 0.000000 -0.018036 0.000000
# 4 0.000000 0.000000 0.000000 -0.718808 0.000000 0.406372
# 5 0.037697 -0.027352 -0.018036 0.000000 0.063235 0.000000
# 6 0.000000 0.000000 0.000000 0.406372 0.000000 0.060410
#
#
# Mechanical properties :
#
#
# Convention : Reuss Voigt Hill
#
# Bulk Modulus (GPa) = 27.77178 50.00992 38.89085
# Shear Modulus (GPa) = -12.46401 18.13032 2.83316
#
# Velocity S-wave (km/s) = -2.55101 3.07670 1.21624
# Velocity P-wave (km/s) = 2.41313 6.22354 4.71994
#
# Compressibility (1/GPa) = 0.03600778
#
# Stress axis : x y z
#
# Youngs Moduli (GPa) = 24.46315 19.77727 56.92847
#
# Poissons Ratio (x) = 0.55263 1.10328
# Poissons Ratio (y) = 0.68357 -0.61615
# Poissons Ratio (z) = 0.47410 -0.21406
#
# Static dielectric constant tensor:
#      x y z
#    x 1.705790 0.000000 -0.019510 
#    y 0.000000 1.702140 0.000000 
#    z -0.019510 0.000000 1.652510 
# 
# From -- ./inp_files/4815.got.cif
#   From: 2010.05.17/outbox.cif.g08.bks.cpg/sg11_3_cif.got.tgz:4815.got - 2010.06.03 12:22:45.
