data_PCOD9163553
_publ_section_title
;
Structure prediction by ZEFSAII (Michael W. Deem and Ramdas Pophale) SiO2 
 PCOD9163553
Probable space group: P 21/M
;
_chemical_formula_sum "Si O2"
_cell_formula_units_Z 32
_cell_length_a 14.012780
_cell_length_b 7.732746
_cell_length_c 22.867497
_cell_angle_alpha 90.000000
_cell_angle_beta 143.341114
_cell_angle_gamma 90.000000
_cell_volume 1479.405177
_symmetry_space_group_name_H-M "P 21/M"
_symmetry_group_IT_number 11
_symmetry_cell_setting 'monoclinic'
loop_
_space_group_symop_operation_xyz
x,y,z
-x,1/2+y,-z
-x,-y,-z
x,1/2-y,z
loop_
_atom_site_type_symbol
_atom_site_label
_atom_site_fract_x
_atom_site_fract_y
_atom_site_fract_z
Si Si1 0.686694 0.958624 0.091230
Si Si2 0.782532 0.541053 0.502731
Si Si3 0.469417 0.543644 0.417663
Si Si4 0.815644 0.548129 0.802445
Si Si5 0.127401 0.043192 0.703750
Si Si6 0.176988 0.452168 0.963414
Si Si7 0.263062 0.045514 0.648627
Si Si8 0.635703 0.539456 0.830605
O O1 0.705012 0.750000 0.100680
O O2 0.774734 0.025268 0.192707
O O3 0.764661 0.026896 0.069609
O O4 0.500000 0.000000 0.000000
O O5 0.774787 0.750000 0.497105
O O6 0.618836 0.479253 0.452128
O O7 0.796687 0.474361 0.443022
O O8 0.939195 0.490363 0.615427
O O9 0.500000 0.500000 0.500000
O O10 0.462103 0.750000 0.408136
O O11 0.304712 0.472297 0.310838
O O12 0.847074 0.750000 0.827708
O O13 0.724064 0.479951 0.814951
O O14 0.987198 0.465013 0.876759
O O15 0.152873 0.250000 0.714826
O O16 0.188296 0.971482 0.671281
O O17 0.220756 0.250000 0.983763
O O18 0.267512 0.522808 0.064901
O O19 0.226893 0.250000 0.630266
O O20 0.453780 0.022118 0.743345
O O21 0.633251 0.750000 0.828137
#
# Coordination Sequence:
#
# PCOD9163553 Si02
#       8
#     4   4   4   4   4   4   4   4
#     4  10  22  40  60  87 118 153 195 237 290 348
#     4  10  22  39  59  86 116 152 195 240 293 352
#     4  11  24  42  63  88 121 158 196 241 294 354
#     4  11  23  39  60  90 119 152 201 248 297 355
#     4  10  22  37  58  87 118 153 196 244 291 348
#     4  10  22  39  59  85 120 159 199 245 297 353
#     4  10  20  37  59  85 118 154 196 244 298 352
#     4  10  21  37  59  87 118 155 200 247 298 353
#
# _framework density 21.630313999999998
#
# number of rings (size 3 to 8) (size 9 to 14) (size 15 to 20)
#    0.000    1.750    1.250    2.250    1.750    4.000 
#    0.000    0.000    0.000    0.000    0.000    0.000 
#    0.000    0.000    0.000    0.000    0.000    0.000 
#
# Total GULP energy -178898.152369 kJ/mol
# GULP energy per Si atom -5590.567262 kJ/mol
# Density = 2.158108 g / cm^3
# Si number density = 21.630314 Si / 1000 Ang^3
#
#
#
# Elastic Constant Matrix: (Units=GPa)
#
#
# Indices 1 2 3 4 5 6 
#
# 1 53.9394 -4.3958 17.3752 0.0000 -11.7545 0.0000
# 2 -4.3958 30.9225 -19.4649 0.0000 -10.9325 0.0000
# 3 17.3752 -19.4649 140.0292 0.0000 -14.9439 0.0000
# 4 0.0000 0.0000 0.0000 24.6676 0.0000 10.6299
# 5 -11.7545 -10.9325 -14.9439 0.0000 39.5331 0.0000
# 6 0.0000 0.0000 0.0000 10.6299 0.0000 13.5604
#
#
#
# Elastic Compliance Matrix: (Units=1/GPa)
#
#
# Indices 1 2 3 4 5 6 
#
# 1 0.020840 0.004716 -0.001177 0.000000 0.007056 0.000000
# 2 0.004716 0.043163 0.007126 0.000000 0.016032 0.000000
# 3 -0.001177 0.007126 0.008806 0.000000 0.004949 0.000000
# 4 0.000000 0.000000 0.000000 0.061219 0.000000 -0.047989
# 5 0.007056 0.016032 0.004949 0.000000 0.033697 0.000000
# 6 0.000000 0.000000 0.000000 -0.047989 0.000000 0.111363
#
#
# Mechanical properties :
#
#
# Convention : Reuss Voigt Hill
#
# Bulk Modulus (GPa) = 10.62276 23.54667 17.08471
# Shear Modulus (GPa) = 17.29271 30.97733 24.13502
#
# Velocity S-wave (km/s) = 2.83055 3.78845 3.34398
# Velocity P-wave (km/s) = 3.95024 5.48143 4.77758
#
# Compressibility (1/GPa) = 0.09413749
#
# Stress axis : x y z
#
# Youngs Moduli (GPa) = 47.98352 23.16818 113.55694
#
# Poissons Ratio (x) = -0.10926 0.13371
# Poissons Ratio (y) = -0.22628 -0.80917
# Poissons Ratio (z) = 0.05650 -0.16509
#
# Static dielectric constant tensor:
#      x y z
#    x 1.782610 0.000000 -0.031850 
#    y 0.000000 1.812110 0.000000 
#    z -0.031850 0.000000 1.742220 
# 
# From -- ./inp_files/69156.got.cif
#   From: 2010.05.17/outbox.cif.g08.bks.cpg/sg11_35_cif.got.tgz:69156.got - 2010.06.03 12:22:45.
