data_PCOD9163343
_publ_section_title
;
Structure prediction by ZEFSAII (Michael W. Deem and Ramdas Pophale) SiO2 
 PCOD9163343
Probable space group: P 21/M
;
_chemical_formula_sum "Si O2"
_cell_formula_units_Z 28
_cell_length_a 14.539349
_cell_length_b 11.471930
_cell_length_c 9.648940
_cell_angle_alpha 90.000000
_cell_angle_beta 121.801072
_cell_angle_gamma 90.000000
_cell_volume 1367.792168
_symmetry_space_group_name_H-M "P 21/M"
_symmetry_group_IT_number 11
_symmetry_cell_setting 'monoclinic'
loop_
_space_group_symop_operation_xyz
x,y,z
-x,1/2+y,-z
-x,-y,-z
x,1/2-y,z
loop_
_atom_site_type_symbol
_atom_site_label
_atom_site_fract_x
_atom_site_fract_y
_atom_site_fract_z
Si Si1 0.985280 0.617091 0.173706
Si Si2 0.834131 0.548509 0.805436
Si Si3 0.198104 0.113587 0.774443
Si Si4 0.647310 0.378053 0.747205
Si Si5 0.420988 0.619578 0.610198
Si Si6 0.710944 0.620752 0.448622
Si Si7 0.579402 0.515472 0.933289
O O1 0.019726 0.750000 0.226424
O O2 0.913285 0.572083 0.245190
O O3 0.086102 0.537582 0.214735
O O4 0.904589 0.611946 0.977407
O O5 0.741310 0.472115 0.804578
O O6 0.774034 0.623669 0.643039
O O7 0.206526 0.250000 0.820806
O O8 0.208379 0.107446 0.617413
O O9 0.303160 0.049704 0.918216
O O10 0.696447 0.250000 0.784689
O O11 0.570930 0.386134 0.550599
O O12 0.587954 0.401727 0.843743
O O13 0.373366 0.750000 0.601200
O O14 0.356422 0.501166 0.600390
O O15 0.530061 0.608753 0.785680
O O16 0.656816 0.750000 0.387033
O O17 0.500000 0.500000 0.000000
#
# Coordination Sequence:
#
# PCOD9163343 Si02
#       7
#     4   4   4   4   4   4   4
#     4  10  20  36  61  88 116 154 198 250 309 361
#     4  10  20  37  62  88 117 152 200 251 303 364
#     4  10  21  38  57  85 122 158 201 250 300 357
#     4  10  22  39  59  86 121 159 204 257 307 361
#     4  10  22  40  61  90 126 163 207 254 305 360
#     4  10  21  39  62  90 125 163 204 247 297 364
#     4  12  22  38  59  86 122 162 207 251 299 362
#
# _framework density 20.470946000000001
#
# number of rings (size 3 to 8) (size 9 to 14) (size 15 to 20)
#    0.000    1.714    2.857    1.714    0.000    2.857 
#    0.000    2.143    0.000    0.000    0.000    0.000 
#    0.000    0.000    0.000    0.000    0.000    0.000 
#
# Total GULP energy -156149.062096 kJ/mol
# GULP energy per Si atom -5576.752218 kJ/mol
# Density = 2.042435 g / cm^3
# Si number density = 20.470946 Si / 1000 Ang^3
#
#
#
# Elastic Constant Matrix: (Units=GPa)
#
#
# Indices 1 2 3 4 5 6 
#
# 1 82.1451 33.2161 13.8164 0.0000 -21.0863 0.0000
# 2 33.2161 103.7989 8.6237 0.0000 -4.6129 0.0000
# 3 13.8164 8.6237 47.0576 0.0000 -13.7018 0.0000
# 4 0.0000 0.0000 0.0000 -8.1781 0.0000 -12.1277
# 5 -21.0863 -4.6129 -13.7018 0.0000 29.0979 0.0000
# 6 0.0000 0.0000 0.0000 -12.1277 0.0000 18.3512
#
#
#
# Elastic Compliance Matrix: (Units=1/GPa)
#
#
# Indices 1 2 3 4 5 6 
#
# 1 0.017210 -0.004934 -0.000864 0.000000 0.011283 0.000000
# 2 -0.004934 0.011214 -0.001309 0.000000 -0.002414 0.000000
# 3 -0.000864 -0.001309 0.024918 0.000000 0.010900 0.000000
# 4 0.000000 0.000000 0.000000 -0.061756 0.000000 -0.040812
# 5 0.011283 -0.002414 0.010900 0.000000 0.047293 0.000000
# 6 0.000000 0.000000 0.000000 -0.040812 0.000000 0.027521
#
#
# Mechanical properties :
#
#
# Convention : Reuss Voigt Hill
#
# Bulk Modulus (GPa) = 25.55699 38.25709 31.90704
# Shear Modulus (GPa) = 53.38563 19.67723 36.53143
#
# Velocity S-wave (km/s) = 5.11227 3.10373 4.22898
# Velocity P-wave (km/s) = 6.88177 5.61901 6.28220
#
# Compressibility (1/GPa) = 0.03912824
#
# Stress axis : x y z
#
# Youngs Moduli (GPa) = 58.10483 89.17044 40.13182
#
# Poissons Ratio (x) = 0.43999 0.03466
# Poissons Ratio (y) = 0.28670 0.05255
# Poissons Ratio (z) = 0.05018 0.11676
#
# Static dielectric constant tensor:
#      x y z
#    x 1.739060 0.000000 -0.002320 
#    y 0.000000 1.738120 0.000000 
#    z -0.002320 0.000000 1.725090 
# 
# From -- ./inp_files/21630.got.cif
#   From: 2010.05.17/outbox.cif.g08.bks.cpg/sg11_11_cif.got.tgz:21630.got - 2010.06.03 12:22:45.
