data_PCOD9163427
_publ_section_title
;
Structure prediction by ZEFSAII (Michael W. Deem and Ramdas Pophale) SiO2 
 PCOD9163427
Probable space group: P 21/M
;
_chemical_formula_sum "Si O2"
_cell_formula_units_Z 32
_cell_length_a 11.735495
_cell_length_b 14.233955
_cell_length_c 9.633038
_cell_angle_alpha 90.000000
_cell_angle_beta 78.577499
_cell_angle_gamma 90.000000
_cell_volume 1577.255615
_symmetry_space_group_name_H-M "P 21/M"
_symmetry_group_IT_number 11
_symmetry_cell_setting 'monoclinic'
loop_
_space_group_symop_operation_xyz
x,y,z
-x,1/2+y,-z
-x,-y,-z
x,1/2-y,z
loop_
_atom_site_type_symbol
_atom_site_label
_atom_site_fract_x
_atom_site_fract_y
_atom_site_fract_z
Si Si1 0.825566 0.437823 0.330063
Si Si2 0.053425 0.142446 0.214233
Si Si3 0.083504 0.100169 0.895237
Si Si4 0.181233 0.859134 0.117598
Si Si5 0.607509 0.644638 0.793327
Si Si6 0.663723 0.649422 0.101013
Si Si7 0.356471 0.563833 0.841485
Si Si8 0.211381 0.007692 0.351950
O O1 0.882690 0.517927 0.218413
O O2 0.701985 0.414728 0.292176
O O3 0.815538 0.474627 0.487500
O O4 0.918851 0.356074 0.289440
O O5 0.093730 0.250000 0.186891
O O6 0.120228 0.084551 0.315605
O O7 0.068905 0.086788 0.064915
O O8 0.206420 0.154260 0.868649
O O9 0.957587 0.138947 0.881236
O O10 0.215862 0.750000 0.120020
O O11 0.205305 0.919444 0.249444
O O12 0.257218 0.908808 0.978115
O O13 0.624569 0.750000 0.733321
O O14 0.471944 0.621864 0.841924
O O15 0.667420 0.563408 0.689617
O O16 0.664049 0.641881 0.933392
O O17 0.604470 0.750000 0.148295
O O18 0.615986 0.547911 0.158766
#
# Coordination Sequence:
#
# PCOD9163427 Si02
#       8
#     4   4   4   4   4   4   4   4
#     4  11  25  42  64  93 135 175 206 264 324 387
#     4  12  22  39  67  95 126 170 214 263 325 386
#     4  11  21  40  65  96 131 165 212 263 316 376
#     4  12  24  39  65  98 132 169 216 268 322 382
#     4  11  23  42  68  93 124 170 220 270 320 376
#     4  10  20  36  63  97 127 161 207 264 323 375
#     4  11  23  42  67  95 126 165 221 278 320 368
#     4  12  25  44  62  91 138 173 218 257 321 389
#
# _framework density 20.288405999999998
#
# number of rings (size 3 to 8) (size 9 to 14) (size 15 to 20)
#    0.000    0.750    5.000    3.750    0.000    1.500 
#    0.000    6.875    0.000    0.000    0.000    0.000 
#    0.000    0.000    0.000    0.000    0.000    0.000 
#
# Total GULP energy -178551.211855 kJ/mol
# GULP energy per Si atom -5579.725370 kJ/mol
# Density = 2.024223 g / cm^3
# Si number density = 20.288406 Si / 1000 Ang^3
#
#
#
# Elastic Constant Matrix: (Units=GPa)
#
#
# Indices 1 2 3 4 5 6 
#
# 1 74.5710 33.1335 39.2858 0.0000 2.6683 0.0000
# 2 33.1335 110.5982 48.0143 0.0000 7.4282 0.0000
# 3 39.2858 48.0143 110.7316 0.0000 15.5441 0.0000
# 4 0.0000 0.0000 0.0000 -1.8439 0.0000 -8.1614
# 5 2.6683 7.4282 15.5441 0.0000 11.4029 0.0000
# 6 0.0000 0.0000 0.0000 -8.1614 0.0000 15.0207
#
#
#
# Elastic Compliance Matrix: (Units=1/GPa)
#
#
# Indices 1 2 3 4 5 6 
#
# 1 0.017609 -0.003201 -0.005656 0.000000 0.005675 0.000000
# 2 -0.003201 0.011727 -0.003688 0.000000 -0.001863 0.000000
# 3 -0.005656 -0.003688 0.014980 0.000000 -0.016695 0.000000
# 4 0.000000 0.000000 0.000000 -0.159278 0.000000 -0.086542
# 5 0.005675 -0.001863 -0.016695 0.000000 0.110341 0.000000
# 6 0.000000 0.000000 0.000000 -0.086542 0.000000 0.019553
#
#
# Mechanical properties :
#
#
# Convention : Reuss Voigt Hill
#
# Bulk Modulus (GPa) = 52.01157 59.64086 55.82622
# Shear Modulus (GPa) = 107.68983 16.61375 62.15179
#
# Velocity S-wave (km/s) = 7.29347 2.86471 5.54082
# Velocity P-wave (km/s) = 9.82945 6.35629 8.27709
#
# Compressibility (1/GPa) = 0.01922649
#
# Stress axis : x y z
#
# Youngs Moduli (GPa) = 56.78923 85.27494 66.75564
#
# Poissons Ratio (x) = 0.27297 0.37757
# Poissons Ratio (y) = 0.18179 0.24617
# Poissons Ratio (z) = 0.32120 0.31446
#
# Static dielectric constant tensor:
#      x y z
#    x 1.765800 0.000000 0.005110 
#    y 0.000000 1.756280 0.000000 
#    z 0.005110 0.000000 1.672910 
# 
# From -- ./inp_files/18045.got.cif
#   From: 2010.05.17/outbox.cif.g08.bks.cpg/sg11_10_cif.got.tgz:18045.got - 2010.06.03 12:22:45.
