data_PCOD9163418
_publ_section_title
;
Structure prediction by ZEFSAII (Michael W. Deem and Ramdas Pophale) SiO2 
 PCOD9163418
Probable space group: P 21/M
;
_chemical_formula_sum "Si O2"
_cell_formula_units_Z 30
_cell_length_a 13.334832
_cell_length_b 12.259273
_cell_length_c 9.710305
_cell_angle_alpha 90.000000
_cell_angle_beta 63.844610
_cell_angle_gamma 90.000000
_cell_volume 1424.849110
_symmetry_space_group_name_H-M "P 21/M"
_symmetry_group_IT_number 11
_symmetry_cell_setting 'monoclinic'
loop_
_space_group_symop_operation_xyz
x,y,z
-x,1/2+y,-z
-x,-y,-z
x,1/2-y,z
loop_
_atom_site_type_symbol
_atom_site_label
_atom_site_fract_x
_atom_site_fract_y
_atom_site_fract_z
Si Si1 0.548973 0.373176 0.749849
Si Si2 0.062813 0.066851 0.284952
Si Si3 0.633973 0.037961 0.123594
Si Si4 0.161141 0.123198 0.936053
Si Si5 0.158658 0.043265 0.641408
Si Si6 0.856765 0.750000 0.544166
Si Si7 0.354697 0.874272 0.588386
Si Si8 0.763931 0.371488 0.792545
O O1 0.513923 0.250000 0.811217
O O2 0.472919 0.467869 0.855918
O O3 0.548336 0.381670 0.584582
O O4 0.677046 0.385349 0.720364
O O5 0.101197 0.156042 0.370262
O O6 0.141028 0.961017 0.257540
O O7 0.082985 0.108004 0.116241
O O8 0.935773 0.029190 0.374346
O O9 0.728889 0.948218 0.100007
O O10 0.608847 0.104199 0.277485
O O11 0.685400 0.113082 0.974175
O O12 0.189922 0.250000 0.905065
O O13 0.113550 0.080909 0.819630
O O14 0.180800 0.152080 0.541375
O O15 0.264428 0.966297 0.605667
O O16 0.309576 0.750000 0.604827
O O17 0.812786 0.250000 0.758708
#
# Coordination Sequence:
#
# PCOD9163418 Si02
#       8
#     4   4   4   4   4   2   4   4
#     4  10  20  37  59  87 124 166 201 248 306 368
#     4  11  24  41  63  92 122 165 205 256 306 365
#     4  10  20  36  63  91 119 156 206 251 303 357
#     4  10  20  40  62  87 120 157 203 257 300 360
#     4  11  24  41  63  92 122 165 205 256 306 365
#     4  12  24  40  60  86 128 154 212 240 304 362
#     4  10  22  39  63  90 126 160 203 251 306 366
#     4  10  22  39  63  90 126 160 203 251 306 366
#
# _framework density 21.054860999999999
#
# number of rings (size 3 to 8) (size 9 to 14) (size 15 to 20)
#    0.000    1.600    1.333    3.200    1.867    0.000 
#    2.400    0.000   17.600    0.000    0.000    0.000 
#    0.000    0.000    0.000    0.000    0.000    0.000 
#
# Total GULP energy -167103.276687 kJ/mol
# GULP energy per Si atom -5570.109223 kJ/mol
# Density = 2.100694 g / cm^3
# Si number density = 21.054861 Si / 1000 Ang^3
#
#
#
# Elastic Constant Matrix: (Units=GPa)
#
#
# Indices 1 2 3 4 5 6 
#
# 1 22.1709 14.4053 -3.9143 0.0000 6.1459 0.0000
# 2 14.4053 122.5460 16.9566 0.0000 9.9426 0.0000
# 3 -3.9143 16.9566 71.6244 0.0000 25.3478 0.0000
# 4 0.0000 0.0000 0.0000 20.0116 0.0000 16.0935
# 5 6.1459 9.9426 25.3478 0.0000 22.5136 0.0000
# 6 0.0000 0.0000 0.0000 16.0935 0.0000 24.4753
#
#
#
# Elastic Compliance Matrix: (Units=1/GPa)
#
#
# Indices 1 2 3 4 5 6 
#
# 1 0.061357 -0.006868 0.016347 0.000000 -0.032121 0.000000
# 2 -0.006868 0.009288 -0.002969 0.000000 0.001116 0.000000
# 3 0.016347 -0.002969 0.027717 0.000000 -0.034358 0.000000
# 4 0.000000 0.000000 0.000000 0.106051 0.000000 -0.069732
# 5 -0.032121 0.001116 -0.034358 0.000000 0.091376 0.000000
# 6 0.000000 0.000000 0.000000 -0.069732 0.000000 0.086709
#
#
# Mechanical properties :
#
#
# Convention : Reuss Voigt Hill
#
# Bulk Modulus (GPa) = 8.97821 30.13739 19.55780
# Shear Modulus (GPa) = 12.29690 25.99299 19.14495
#
# Velocity S-wave (km/s) = 2.41932 3.51741 3.01871
# Velocity P-wave (km/s) = 3.47528 5.55347 4.63242
#
# Compressibility (1/GPa) = 0.11138075
#
# Stress axis : x y z
#
# Youngs Moduli (GPa) = 16.29803 107.66736 36.07871
#
# Poissons Ratio (x) = 0.73950 -0.58978
# Poissons Ratio (y) = 0.11194 0.10713
# Poissons Ratio (z) = -0.26642 0.31969
#
# Static dielectric constant tensor:
#      x y z
#    x 1.735600 0.000000 0.005740 
#    y 0.000000 1.719590 0.000000 
#    z 0.005740 0.000000 1.809560 
# 
# From -- ./inp_files/21478.got.cif
#   From: 2010.05.17/outbox.cif.g08.bks.cpg/sg11_11_cif.got.tgz:21478.got - 2010.06.03 12:22:45.
