data_PCOD9163672
_publ_section_title
;
Structure prediction by ZEFSAII (Michael W. Deem and Ramdas Pophale) SiO2 
 PCOD9163672
Probable space group: P 21/M
;
_chemical_formula_sum "Si O2"
_cell_formula_units_Z 32
_cell_length_a 23.875441
_cell_length_b 7.769071
_cell_length_c 16.587774
_cell_angle_alpha 90.000000
_cell_angle_beta 28.917845
_cell_angle_gamma 90.000000
_cell_volume 1487.834087
_symmetry_space_group_name_H-M "P 21/M"
_symmetry_group_IT_number 11
_symmetry_cell_setting 'monoclinic'
loop_
_space_group_symop_operation_xyz
x,y,z
-x,1/2+y,-z
-x,-y,-z
x,1/2-y,z
loop_
_atom_site_type_symbol
_atom_site_label
_atom_site_fract_x
_atom_site_fract_y
_atom_site_fract_z
Si Si1 0.219186 0.451588 0.515750
Si Si2 0.348630 0.958901 0.981188
Si Si3 0.243809 0.454402 0.825341
Si Si4 0.093083 0.956394 0.315294
Si Si5 0.546595 0.957445 0.853236
Si Si6 0.439003 0.046731 0.695177
Si Si7 0.034950 0.540973 0.207898
Si Si8 0.691084 0.450463 0.424572
O O1 0.211260 0.250000 0.504852
O O2 0.325270 0.524821 0.329209
O O3 0.256866 0.465899 0.561371
O O4 0.091453 0.523049 0.660704
O O5 0.351713 0.750000 0.975764
O O6 0.454364 0.020249 0.903113
O O7 0.365495 0.021897 0.869096
O O8 0.223389 0.015621 0.170967
O O9 0.256169 0.250000 0.800325
O O10 0.361245 0.524643 0.720337
O O11 0.230729 0.532270 0.753271
O O12 0.136358 0.487265 0.019509
O O13 0.097588 0.750000 0.304725
O O14 0.059578 0.018781 0.268119
O O15 0.000000 0.000000 0.500000
O O16 0.550391 0.750000 0.841286
O O17 0.500000 0.000000 0.000000
O O18 0.453906 0.250000 0.660975
O O19 0.565904 0.974094 0.555643
O O20 0.035595 0.750000 0.207084
O O21 0.674659 0.250000 0.465241
#
# Coordination Sequence:
#
# PCOD9163672 Si02
#       8
#     4   4   4   4   4   4   4   4
#     4  10  22  41  62  85 116 155 198 242 290 345
#     4  10  20  37  61  86 115 154 197 239 292 347
#     4  11  23  39  61  89 119 153 193 239 292 350
#     4  10  22  38  59  87 117 153 194 239 290 345
#     4  10  22  38  59  87 117 153 194 239 290 345
#     4  10  21  37  59  90 120 150 192 239 293 347
#     4  10  22  41  62  85 116 155 198 242 290 345
#     4  11  23  39  61  89 119 153 193 239 292 350
#
# _framework density 21.507774999999999
#
# number of rings (size 3 to 8) (size 9 to 14) (size 15 to 20)
#    0.000    1.750    2.500    1.125    1.750    4.000 
#    0.000    0.000    0.000    0.000    0.000    0.000 
#    0.000    0.000    0.000    0.000    0.000    0.000 
#
# Total GULP energy -178817.279389 kJ/mol
# GULP energy per Si atom -5588.039981 kJ/mol
# Density = 2.145882 g / cm^3
# Si number density = 21.507775 Si / 1000 Ang^3
#
#
#
# Elastic Constant Matrix: (Units=GPa)
#
#
# Indices 1 2 3 4 5 6 
#
# 1 61.9524 -2.0037 26.6993 0.0000 -15.2810 0.0000
# 2 -2.0037 33.2055 -5.5662 0.0000 -10.6208 0.0000
# 3 26.6993 -5.5662 117.3866 0.0000 -8.2435 0.0000
# 4 0.0000 0.0000 0.0000 27.4877 0.0000 6.4077
# 5 -15.2810 -10.6208 -8.2435 0.0000 42.0518 0.0000
# 6 0.0000 0.0000 0.0000 6.4077 0.0000 17.3003
#
#
#
# Elastic Compliance Matrix: (Units=1/GPa)
#
#
# Indices 1 2 3 4 5 6 
#
# 1 0.019634 0.002811 -0.003834 0.000000 0.007093 0.000000
# 2 0.002811 0.033716 0.001652 0.000000 0.009861 0.000000
# 3 -0.003834 0.001652 0.009532 0.000000 0.000892 0.000000
# 4 0.000000 0.000000 0.000000 0.039818 0.000000 -0.014748
# 5 0.007093 0.009861 0.000892 0.000000 0.029023 0.000000
# 6 0.000000 0.000000 0.000000 -0.014748 0.000000 0.063265
#
#
# Mechanical properties :
#
#
# Convention : Reuss Voigt Hill
#
# Bulk Modulus (GPa) = 15.59119 27.86704 21.72911
# Shear Modulus (GPa) = 23.24382 30.26230 26.75306
#
# Velocity S-wave (km/s) = 3.29099 3.75512 3.53069
# Velocity P-wave (km/s) = 4.65893 5.63792 5.17164
#
# Compressibility (1/GPa) = 0.06413877
#
# Stress axis : x y z
#
# Youngs Moduli (GPa) = 50.93107 29.65955 104.90995
#
# Poissons Ratio (x) = -0.08336 0.40227
# Poissons Ratio (y) = -0.14315 -0.17330
# Poissons Ratio (z) = 0.19529 -0.04899
#
# Static dielectric constant tensor:
#      x y z
#    x 1.767310 0.000000 -0.030910 
#    y 0.000000 1.796240 0.000000 
#    z -0.030910 0.000000 1.778020 
# 
# From -- ./inp_files/55517.got.cif
#   From: 2010.05.17/outbox.cif.g08.bks.cpg/sg11_28_cif.got.tgz:55517.got - 2010.06.03 12:22:45.
