data_PCOD9163259
_publ_section_title
;
Structure prediction by ZEFSAII (Michael W. Deem and Ramdas Pophale) SiO2 
 PCOD9163259
Probable space group: P 21/M
;
_chemical_formula_sum "Si O2"
_cell_formula_units_Z 24
_cell_length_a 13.488075
_cell_length_b 19.314245
_cell_length_c 5.015124
_cell_angle_alpha 90.000000
_cell_angle_beta 109.694701
_cell_angle_gamma 90.000000
_cell_volume 1230.071908
_symmetry_space_group_name_H-M "P 21/M"
_symmetry_group_IT_number 11
_symmetry_cell_setting 'monoclinic'
loop_
_space_group_symop_operation_xyz
x,y,z
-x,1/2+y,-z
-x,-y,-z
x,1/2-y,z
loop_
_atom_site_type_symbol
_atom_site_label
_atom_site_fract_x
_atom_site_fract_y
_atom_site_fract_z
Si Si1 0.948561 0.671119 0.259412
Si Si2 0.800623 0.828988 0.609258
Si Si3 0.359747 0.069887 0.288588
Si Si4 0.907840 0.049512 0.805739
Si Si5 0.565560 0.050020 0.254713
Si Si6 0.232401 0.971576 0.822200
O O1 0.985940 0.750000 0.339933
O O2 0.882495 0.648070 0.456997
O O3 0.039945 0.618698 0.262514
O O4 0.867201 0.672274 0.941375
O O5 0.768456 0.750000 0.512615
O O6 0.701899 0.877634 0.579244
O O7 0.472733 0.097634 0.287372
O O8 0.283372 0.042577 0.984007
O O9 0.388093 0.999665 0.473803
O O10 0.157019 0.982631 0.500159
O O11 0.831640 0.060268 0.989421
O O12 0.000000 0.000000 0.000000
O O13 0.500000 0.000000 0.000000
O O14 0.668294 0.074356 0.188337
#
# Coordination Sequence:
#
# PCOD9163259 Si02
#       6
#     4   4   4   4   4   4
#     4  10  23  41  57  82 119 161 199 236 296 358
#     4  10  22  38  60  84 113 155 196 239 289 355
#     4  10  20  36  60  86 121 149 189 240 304 354
#     4  12  24  35  58  88 119 154 200 249 289 336
#     4   9  20  35  57  87 116 153 180 232 306 358
#     4  11  22  37  54  88 121 151 191 240 296 348
#
# _framework density 19.511056
#
# number of rings (size 3 to 8) (size 9 to 14) (size 15 to 20)
#    0.000    1.667    1.667    2.500    7.000    0.000 
#    0.000    0.000    0.000    2.000    0.000    3.500 
#    0.000    0.000    0.000    0.000    0.000    0.000 
#
# Total GULP energy -133957.030284 kJ/mol
# GULP energy per Si atom -5581.542928 kJ/mol
# Density = 1.946665 g / cm^3
# Si number density = 19.511056 Si / 1000 Ang^3
#
#
#
# Elastic Constant Matrix: (Units=GPa)
#
#
# Indices 1 2 3 4 5 6 
#
# 1 179.0506 69.5507 47.5124 0.0000 -40.1937 0.0000
# 2 69.5507 67.6234 14.6394 0.0000 -12.4364 0.0000
# 3 47.5124 14.6394 111.1751 0.0000 -6.1688 0.0000
# 4 0.0000 0.0000 0.0000 10.9668 0.0000 -14.9342
# 5 -40.1937 -12.4364 -6.1688 0.0000 52.1557 0.0000
# 6 0.0000 0.0000 0.0000 -14.9342 0.0000 20.4581
#
#
#
# Elastic Compliance Matrix: (Units=1/GPa)
#
#
# Indices 1 2 3 4 5 6 
#
# 1 0.011933 -0.010378 -0.003382 0.000000 0.006321 0.000000
# 2 -0.010378 0.024877 0.001052 0.000000 -0.001942 0.000000
# 3 -0.003382 0.001052 0.010238 0.000000 -0.001145 0.000000
# 4 0.000000 0.000000 0.000000 15.399821 0.000000 11.241723
# 5 0.006321 -0.001942 -0.001145 0.000000 0.023446 0.000000
# 6 0.000000 0.000000 0.000000 11.241723 0.000000 8.255232
#
#
# Mechanical properties :
#
#
# Convention : Reuss Voigt Hill
#
# Bulk Modulus (GPa) = 46.23082 69.02823 57.62952
# Shear Modulus (GPa) = 0.21045 31.79257 16.00151
#
# Velocity S-wave (km/s) = 0.32878 4.04104 2.86689
# Velocity P-wave (km/s) = 4.88777 7.56500 6.36865
#
# Compressibility (1/GPa) = 0.02163059
#
# Stress axis : x y z
#
# Youngs Moduli (GPa) = 83.80177 40.19778 97.67243
#
# Poissons Ratio (x) = 0.41718 0.33036
# Poissons Ratio (y) = 0.86971 -0.10273
# Poissons Ratio (z) = 0.28345 -0.04228
#
# Static dielectric constant tensor:
#      x y z
#    x 1.752830 0.000000 -0.022280 
#    y 0.000000 1.696930 0.000000 
#    z -0.022280 0.000000 1.751800 
# 
# From -- ./inp_files/5158.got.cif
#   From: 2010.05.17/outbox.cif.g08.bks.cpg/sg11_3_cif.got.tgz:5158.got - 2010.06.03 12:22:45.
