data_PCOD9163234
_publ_section_title
;
Structure prediction by ZEFSAII (Michael W. Deem and Ramdas Pophale) SiO2 
 PCOD9163234
Probable space group: P 21/M
;
_chemical_formula_sum "Si O2"
_cell_formula_units_Z 32
_cell_length_a 22.746325
_cell_length_b 8.430764
_cell_length_c 29.810047
_cell_angle_alpha 90.000000
_cell_angle_beta 17.095668
_cell_angle_gamma 90.000000
_cell_volume 1680.509525
_symmetry_space_group_name_H-M "P 21/M"
_symmetry_group_IT_number 11
_symmetry_cell_setting 'monoclinic'
loop_
_space_group_symop_operation_xyz
x,y,z
-x,1/2+y,-z
-x,-y,-z
x,1/2-y,z
loop_
_atom_site_type_symbol
_atom_site_label
_atom_site_fract_x
_atom_site_fract_y
_atom_site_fract_z
Si Si1 0.041709 0.941367 0.871073
Si Si2 0.077214 0.559736 0.395995
Si Si3 0.607265 0.939699 0.218934
Si Si4 0.812957 0.558547 0.504250
Si Si5 0.820679 0.941691 0.325903
Si Si6 0.496757 0.059522 0.053603
Si Si7 0.069831 0.943347 0.230363
Si Si8 0.602359 0.058064 0.324310
O O1 0.040753 0.750000 0.872961
O O2 0.200092 0.995249 0.793258
O O3 0.115318 0.994568 0.768790
O O4 0.817887 0.997807 0.045145
O O5 0.077712 0.750000 0.395504
O O6 0.299298 0.501253 0.222293
O O7 0.000000 0.500000 0.500000
O O8 0.930062 0.505144 0.463198
O O9 0.605883 0.750000 0.218440
O O10 0.413873 0.002166 0.333889
O O11 0.593826 0.994099 0.280272
O O12 0.813917 0.750000 0.503186
O O13 0.934276 0.505357 0.371433
O O14 0.824588 0.750000 0.321632
O O15 0.596654 0.990052 0.503481
O O16 0.970357 0.994771 0.256386
O O17 0.494738 0.250000 0.054514
O O18 0.702240 0.006501 0.927667
O O19 0.500000 0.000000 0.000000
O O20 0.067422 0.750000 0.232209
O O21 0.602459 0.250000 0.321853
#
# Coordination Sequence:
#
# PCOD9163234 Si02
#       8
#     4   4   4   4   4   4   4   4
#     4  10  23  39  54  82 123 154 186 239 297 347
#     4  11  24  42  63  90 122 159 199 246 300 357
#     4  11  23  37  57  88 120 151 193 245 291 340
#     4  10  20  40  64  83 114 158 197 236 289 353
#     4  10  20  36  60  85 109 147 198 241 284 341
#     4  11  21  37  62  91 122 156 197 246 295 353
#     4   9  18  36  60  86 115 148 195 243 282 344
#     4  10  20  38  62  83 111 156 198 236 287 351
#
# _framework density 19.041843
#
# number of rings (size 3 to 8) (size 9 to 14) (size 15 to 20)
#    0.000    1.750    2.500    1.875    0.000    4.000 
#    0.000    5.000    0.000    0.000    0.000    0.000 
#    0.000    0.000    0.000    0.000    0.000    0.000 
#
# Total GULP energy -178794.518098 kJ/mol
# GULP energy per Si atom -5587.328691 kJ/mol
# Density = 1.899850 g / cm^3
# Si number density = 19.041843 Si / 1000 Ang^3
#
#
#
# Elastic Constant Matrix: (Units=GPa)
#
#
# Indices 1 2 3 4 5 6 
#
# 1 53.2822 11.3329 29.7091 0.0000 -21.1016 0.0000
# 2 11.3329 15.5046 20.4490 0.0000 -4.5667 0.0000
# 3 29.7091 20.4490 146.8943 0.0000 -18.2275 0.0000
# 4 0.0000 0.0000 0.0000 29.1752 0.0000 5.1800
# 5 -21.1016 -4.5667 -18.2275 0.0000 42.2472 0.0000
# 6 0.0000 0.0000 0.0000 5.1800 0.0000 3.0483
#
#
#
# Elastic Compliance Matrix: (Units=1/GPa)
#
#
# Indices 1 2 3 4 5 6 
#
# 1 0.027387 -0.013771 -0.002228 0.000000 0.011229 0.000000
# 2 -0.013771 0.086575 -0.009466 0.000000 -0.001604 0.000000
# 3 -0.002228 -0.009466 0.008781 0.000000 0.001652 0.000000
# 4 0.000000 0.000000 0.000000 0.049085 0.000000 -0.083410
# 5 0.011229 -0.001604 0.001652 0.000000 0.029818 0.000000
# 6 0.000000 0.000000 0.000000 -0.083410 0.000000 0.469788
#
#
# Mechanical properties :
#
#
# Convention : Reuss Voigt Hill
#
# Bulk Modulus (GPa) = 13.92540 37.62923 25.77732
# Shear Modulus (GPa) = 6.69970 25.17349 15.93660
#
# Velocity S-wave (km/s) = 1.87778 3.63989 2.89610
# Velocity P-wave (km/s) = 3.46848 6.12122 4.97492
#
# Compressibility (1/GPa) = 0.07181124
#
# Stress axis : x y z
#
# Youngs Moduli (GPa) = 36.51407 11.55072 113.88140
#
# Poissons Ratio (x) = 0.15907 0.25378
# Poissons Ratio (y) = 0.50285 1.07798
# Poissons Ratio (z) = 0.08137 0.10934
#
# Static dielectric constant tensor:
#      x y z
#    x 1.631830 0.000000 -0.023270 
#    y 0.000000 1.659970 0.000000 
#    z -0.023270 0.000000 1.642530 
# 
# From -- ./inp_files/72074.got.cif
#   From: 2010.05.17/outbox.cif.g08.bks.cpg/sg11_37_cif.got.tgz:72074.got - 2010.06.03 12:22:45.
