data_PCOD9163930
_publ_section_title
;
Structure prediction by ZEFSAII (Michael W. Deem and Ramdas Pophale) SiO2 
 PCOD9163930
Probable space group: P 21/M
;
_chemical_formula_sum "Si O2"
_cell_formula_units_Z 32
_cell_length_a 15.625245
_cell_length_b 14.722350
_cell_length_c 12.713043
_cell_angle_alpha 90.000000
_cell_angle_beta 37.687796
_cell_angle_gamma 90.000000
_cell_volume 1787.925595
_symmetry_space_group_name_H-M "P 21/M"
_symmetry_group_IT_number 11
_symmetry_cell_setting 'monoclinic'
loop_
_space_group_symop_operation_xyz
x,y,z
-x,1/2+y,-z
-x,-y,-z
x,1/2-y,z
loop_
_atom_site_type_symbol
_atom_site_label
_atom_site_fract_x
_atom_site_fract_y
_atom_site_fract_z
Si Si1 0.521859 0.642019 0.701227
Si Si2 0.913452 0.353524 0.307161
Si Si3 0.594015 0.356532 0.636877
Si Si4 0.092040 0.086639 0.934913
Si Si5 0.915032 0.509778 0.473564
Si Si6 0.590867 0.985211 0.810526
Si Si7 0.150952 0.146260 0.646044
Si Si8 0.400629 0.020352 0.694005
O O1 0.494592 0.750000 0.717045
O O2 0.530712 0.603675 0.810502
O O3 0.682711 0.621993 0.507821
O O4 0.415549 0.572972 0.746955
O O5 0.922996 0.250000 0.333377
O O6 0.749704 0.370610 0.436215
O O7 0.939677 0.419508 0.379851
O O8 0.016499 0.367048 0.108254
O O9 0.579497 0.250000 0.675306
O O10 0.582769 0.424993 0.745563
O O11 0.473449 0.393931 0.679473
O O12 0.096887 0.138323 0.818297
O O13 0.245653 0.050788 0.815781
O O14 0.000000 0.000000 0.000000
O O15 0.755841 0.524724 0.666636
O O16 0.925928 0.585729 0.368429
O O17 0.000000 0.500000 0.500000
O O18 0.500000 0.000000 0.000000
O O19 0.143860 0.250000 0.617774
O O20 0.500000 0.000000 0.500000
#
# Coordination Sequence:
#
# PCOD9163930 Si02
#       8
#     4   4   4   4   4   4   4   4
#     4   9  19  37  59  85 115 149 192 241 288 344
#     4  10  21  39  61  87 120 159 196 239 298 355
#     4   9  20  38  59  84 116 151 193 240 289 343
#     4  12  22  37  61  84 125 160 190 237 295 353
#     4  10  21  38  60  82 115 154 196 245 293 343
#     4   9  19  36  58  82 111 150 192 236 294 347
#     4  10  20  38  61  86 117 156 196 237 294 352
#     4  11  21  35  58  85 115 152 195 234 283 343
#
# _framework density 17.897836999999999
#
# number of rings (size 3 to 8) (size 9 to 14) (size 15 to 20)
#    0.000    2.000    2.500    1.875    0.000    4.500 
#    0.000    1.250    0.000    0.000    0.000    0.000 
#    0.000    0.000    0.000    0.000    0.000    0.000 
#
# Total GULP energy -178135.159999 kJ/mol
# GULP energy per Si atom -5566.723750 kJ/mol
# Density = 1.785710 g / cm^3
# Si number density = 17.897837 Si / 1000 Ang^3
#
#
#
# Elastic Constant Matrix: (Units=GPa)
#
#
# Indices 1 2 3 4 5 6 
#
# 1 121.7354 45.4041 34.2907 0.0000 -7.5289 0.0000
# 2 45.4041 107.4164 18.9266 0.0000 -4.7466 0.0000
# 3 34.2907 18.9266 100.9694 0.0000 10.2357 0.0000
# 4 0.0000 0.0000 0.0000 20.2482 0.0000 -2.6730
# 5 -7.5289 -4.7466 10.2357 0.0000 20.6000 0.0000
# 6 0.0000 0.0000 0.0000 -2.6730 0.0000 7.6027
#
#
#
# Elastic Compliance Matrix: (Units=1/GPa)
#
#
# Indices 1 2 3 4 5 6 
#
# 1 0.010907 -0.003782 -0.003487 0.000000 0.004847 0.000000
# 2 -0.003782 0.011154 -0.000976 0.000000 0.001673 0.000000
# 3 -0.003487 -0.000976 0.012029 0.000000 -0.007476 0.000000
# 4 0.000000 0.000000 0.000000 0.051791 0.000000 0.018209
# 5 0.004847 0.001673 -0.007476 0.000000 0.054415 0.000000
# 6 0.000000 0.000000 0.000000 0.018209 0.000000 0.137934
#
#
# Mechanical properties :
#
#
# Convention : Reuss Voigt Hill
#
# Bulk Modulus (GPa) = 56.81508 58.59598 57.70553
# Shear Modulus (GPa) = 16.63418 25.12350 20.87884
#
# Velocity S-wave (km/s) = 3.05191 3.75069 3.41919
# Velocity P-wave (km/s) = 6.65070 7.18102 6.92094
#
# Compressibility (1/GPa) = 0.01760096
#
# Stress axis : x y z
#
# Youngs Moduli (GPa) = 91.68474 89.65408 83.13278
#
# Poissons Ratio (x) = 0.33905 0.28986
# Poissons Ratio (y) = 0.34673 0.08114
# Poissons Ratio (z) = 0.31967 0.08751
#
# Static dielectric constant tensor:
#      x y z
#    x 1.664100 0.000000 0.035660 
#    y 0.000000 1.616330 0.000000 
#    z 0.035660 0.000000 1.656130 
# 
# From -- ./inp_files/39624.got.cif
#   From: 2010.05.17/outbox.cif.g08.bks.cpg/sg11_20_cif.got.tgz:39624.got - 2010.06.03 12:22:45.
