data_PCOD9163079
_publ_section_title
;
Structure prediction by ZEFSAII (Michael W. Deem and Ramdas Pophale) SiO2 
 PCOD9163079
Probable space group: P 21/M
;
_chemical_formula_sum "Si O2"
_cell_formula_units_Z 28
_cell_length_a 11.333380
_cell_length_b 8.476561
_cell_length_c 16.068530
_cell_angle_alpha 90.000000
_cell_angle_beta 61.671315
_cell_angle_gamma 90.000000
_cell_volume 1358.802499
_symmetry_space_group_name_H-M "P 21/M"
_symmetry_group_IT_number 11
_symmetry_cell_setting 'monoclinic'
loop_
_space_group_symop_operation_xyz
x,y,z
-x,1/2+y,-z
-x,-y,-z
x,1/2-y,z
loop_
_atom_site_type_symbol
_atom_site_label
_atom_site_fract_x
_atom_site_fract_y
_atom_site_fract_z
Si Si1 0.083056 0.064971 0.049890
Si Si2 0.662318 0.938066 0.604033
Si Si3 0.363941 0.563123 0.204355
Si Si4 0.641491 0.059281 0.311173
Si Si5 0.169257 0.561737 0.602035
Si Si6 0.916107 0.062708 0.771631
Si Si7 0.656182 0.437679 0.114484
O O1 0.059530 0.250000 0.066668
O O2 0.042855 0.981844 0.148853
O O3 0.237282 0.026638 0.977606
O O4 0.000000 0.000000 0.000000
O O5 0.662234 0.750000 0.619128
O O6 0.513640 0.982264 0.619968
O O7 0.676570 0.025740 0.686874
O O8 0.773207 0.984383 0.500286
O O9 0.386035 0.750000 0.186720
O O10 0.237705 0.512812 0.191280
O O11 0.503164 0.474380 0.141866
O O12 0.649862 0.250000 0.307800
O O13 0.740863 0.002938 0.349594
O O14 0.673232 0.010313 0.205670
O O15 0.183985 0.750000 0.590641
O O16 0.017141 0.518773 0.673948
O O17 0.922886 0.250000 0.757261
O O18 0.680677 0.250000 0.101244
#
# Coordination Sequence:
#
# PCOD9163079 Si02
#       7
#     4   4   4   4   4   4   4
#     4  12  25  42  65  93 124 156 193 237 291 352
#     4  10  20  36  58  84 117 155 196 243 297 358
#     4  10  22  41  62  86 116 153 201 250 296 350
#     4   8  17  33  55  85 117 149 187 235 288 345
#     4  11  21  35  57  85 118 155 197 245 300 357
#     4  11  25  43  61  84 117 156 200 248 296 352
#     4  10  20  38  64  91 121 156 195 242 297 353
#
# _framework density 20.606380000000001
#
# number of rings (size 3 to 8) (size 9 to 14) (size 15 to 20)
#    0.000    1.714    0.000    5.571    0.000    4.571 
#    0.000    7.143    0.000    0.000    0.000    0.000 
#    0.000    0.000    0.000    0.000    0.000    0.000 
#
# Total GULP energy -156559.482116 kJ/mol
# GULP energy per Si atom -5591.410076 kJ/mol
# Density = 2.055948 g / cm^3
# Si number density = 20.606380 Si / 1000 Ang^3
#
#
#
# Elastic Constant Matrix: (Units=GPa)
#
#
# Indices 1 2 3 4 5 6 
#
# 1 58.5619 -1.6547 -4.6395 0.0000 4.3733 0.0000
# 2 -1.6547 18.2221 -15.1881 0.0000 4.1119 0.0000
# 3 -4.6395 -15.1881 53.8386 0.0000 -18.7437 0.0000
# 4 0.0000 0.0000 0.0000 31.0272 0.0000 -4.5407
# 5 4.3733 4.1119 -18.7437 0.0000 19.4916 0.0000
# 6 0.0000 0.0000 0.0000 -4.5407 0.0000 27.3775
#
#
#
# Elastic Compliance Matrix: (Units=1/GPa)
#
#
# Indices 1 2 3 4 5 6 
#
# 1 0.017531 0.003439 0.001291 0.000000 -0.003417 0.000000
# 2 0.003439 0.072977 0.022933 0.000000 0.005886 0.000000
# 3 0.001291 0.022933 0.035131 0.000000 0.028655 0.000000
# 4 0.000000 0.000000 0.000000 0.033032 0.000000 0.005479
# 5 -0.003417 0.005886 0.028655 0.000000 0.078385 0.000000
# 6 0.000000 0.000000 0.000000 0.005479 0.000000 0.037435
#
#
# Mechanical properties :
#
#
# Convention : Reuss Voigt Hill
#
# Bulk Modulus (GPa) = 5.52595 9.73978 7.63287
# Shear Modulus (GPa) = 17.89003 25.71959 21.80481
#
# Velocity S-wave (km/s) = 2.94968 3.53673 3.25646
# Velocity P-wave (km/s) = 3.77999 4.62761 4.22511
#
# Compressibility (1/GPa) = 0.18096427
#
# Stress axis : x y z
#
# Youngs Moduli (GPa) = 57.04308 13.70302 28.46493
#
# Poissons Ratio (x) = -0.04713 -0.03676
# Poissons Ratio (y) = -0.19618 -0.65277
# Poissons Ratio (z) = -0.07366 -0.31424
#
# Static dielectric constant tensor:
#      x y z
#    x 1.751140 0.000000 0.000740 
#    y 0.000000 1.706990 0.000000 
#    z 0.000740 0.000000 1.704930 
# 
# From -- ./inp_files/49105.got.cif
#   From: 2010.05.17/outbox.cif.g08.bks.cpg/sg11_25_cif.got.tgz:49105.got - 2010.06.03 12:22:45.
