data_PCOD9163117
_publ_section_title
;
Structure prediction by ZEFSAII (Michael W. Deem and Ramdas Pophale) SiO2 
 PCOD9163117
Probable space group: P 21/M
;
_chemical_formula_sum "Si O2"
_cell_formula_units_Z 32
_cell_length_a 14.419807
_cell_length_b 8.623835
_cell_length_c 14.621471
_cell_angle_alpha 90.000000
_cell_angle_beta 119.679039
_cell_angle_gamma 90.000000
_cell_volume 1579.709105
_symmetry_space_group_name_H-M "P 21/M"
_symmetry_group_IT_number 11
_symmetry_cell_setting 'monoclinic'
loop_
_space_group_symop_operation_xyz
x,y,z
-x,1/2+y,-z
-x,-y,-z
x,1/2-y,z
loop_
_atom_site_type_symbol
_atom_site_label
_atom_site_fract_x
_atom_site_fract_y
_atom_site_fract_z
Si Si1 0.340047 0.565146 0.679261
Si Si2 0.608942 0.564426 0.094945
Si Si3 0.886725 0.929969 0.415930
Si Si4 0.954847 0.069061 0.272277
Si Si5 0.113720 0.435433 0.089146
Si Si6 0.187178 0.436244 0.324947
Si Si7 0.806664 0.564295 0.062021
Si Si8 0.404586 0.564664 0.514684
O O1 0.347603 0.750000 0.690763
O O2 0.372484 0.494178 0.792605
O O3 0.217253 0.518033 0.600268
O O4 0.406019 0.512918 0.622046
O O5 0.606143 0.750000 0.095559
O O6 0.704624 0.518678 0.072490
O O7 0.500000 0.500000 0.000000
O O8 0.879998 0.750000 0.436277
O O9 0.891103 0.957868 0.309185
O O10 0.000000 0.000000 0.500000
O O11 0.937743 0.250000 0.287615
O O12 0.080723 0.036825 0.333081
O O13 0.906367 0.031554 0.150174
O O14 0.101215 0.250000 0.091956
O O15 0.156821 0.492023 0.207885
O O16 0.197591 0.465734 0.048168
O O17 0.000000 0.500000 0.000000
O O18 0.203442 0.250000 0.330186
O O19 0.291966 0.513070 0.416602
O O20 0.824513 0.750000 0.081803
O O21 0.500000 0.500000 0.500000
O O22 0.410367 0.750000 0.517779
#
# Coordination Sequence:
#
# PCOD9163117 Si02
#       8
#     4   4   4   4   4   4   4   4
#     4  11  24  44  68  95 126 165 212 264 321 382
#     4  11  24  42  65  96 130 171 216 265 321 378
#     4  12  24  38  59  91 128 168 211 257 317 381
#     4  11  21  35  59  90 126 164 206 256 313 374
#     4  10  20  36  58  88 126 168 209 258 314 377
#     4  10  22  39  61  93 130 169 213 262 317 378
#     4  10  21  37  59  87 123 165 209 257 316 374
#     4  11  26  46  69  94 123 164 212 265 321 379
#
# _framework density 20.256893999999999
#
# number of rings (size 3 to 8) (size 9 to 14) (size 15 to 20)
#    0.000    1.250    2.500    3.375    0.000    7.000 
#    0.000    2.500    0.000    0.000    0.000    0.000 
#    0.000    0.000    0.000    0.000    0.000    0.000 
#
# Total GULP energy -178826.961707 kJ/mol
# GULP energy per Si atom -5588.342553 kJ/mol
# Density = 2.021079 g / cm^3
# Si number density = 20.256894 Si / 1000 Ang^3
#
#
#
# Elastic Constant Matrix: (Units=GPa)
#
#
# Indices 1 2 3 4 5 6 
#
# 1 134.7248 34.6359 55.3297 0.0000 -10.9218 0.0000
# 2 34.6359 32.8929 19.9424 0.0000 -2.6732 0.0000
# 3 55.3297 19.9424 100.7040 0.0000 -9.5593 0.0000
# 4 0.0000 0.0000 0.0000 35.0914 0.0000 4.1120
# 5 -10.9218 -2.6732 -9.5593 0.0000 38.2444 0.0000
# 6 0.0000 0.0000 0.0000 4.1120 0.0000 29.9268
#
#
#
# Elastic Compliance Matrix: (Units=1/GPa)
#
#
# Indices 1 2 3 4 5 6 
#
# 1 0.011866 -0.009664 -0.004454 0.000000 0.001600 0.000000
# 2 -0.009664 0.042441 -0.003150 0.000000 -0.000581 0.000000
# 3 -0.004454 -0.003150 0.013172 0.000000 0.001800 0.000000
# 4 0.000000 0.000000 0.000000 0.028963 0.000000 -0.003980
# 5 0.001600 -0.000581 0.001800 0.000000 0.027014 0.000000
# 6 0.000000 0.000000 0.000000 -0.003980 0.000000 0.033962
#
#
# Mechanical properties :
#
#
# Convention : Reuss Voigt Hill
#
# Bulk Modulus (GPa) = 30.35594 54.23752 42.29673
# Shear Modulus (GPa) = 24.63857 31.21345 27.92601
#
# Velocity S-wave (km/s) = 3.49134 3.92966 3.71697
# Velocity P-wave (km/s) = 5.59201 6.88641 6.27269
#
# Compressibility (1/GPa) = 0.03294248
#
# Stress axis : x y z
#
# Youngs Moduli (GPa) = 84.27484 23.56232 75.92007
#
# Poissons Ratio (x) = 0.22772 0.33813
# Poissons Ratio (y) = 0.81447 0.23913
# Poissons Ratio (z) = 0.37534 0.07421
#
# Static dielectric constant tensor:
#      x y z
#    x 1.733530 0.000000 -0.046790 
#    y 0.000000 1.678630 0.000000 
#    z -0.046790 0.000000 1.765660 
# 
# From -- ./inp_files/51743.got.cif
#   From: 2010.05.17/outbox.cif.g08.bks.cpg/sg11_26_cif.got.tgz:51743.got - 2010.06.03 12:22:45.
