data_PCOD9163493
_publ_section_title
;
Structure prediction by ZEFSAII (Michael W. Deem and Ramdas Pophale) SiO2 
 PCOD9163493
Probable space group: P 21/M
;
_chemical_formula_sum "Si O2"
_cell_formula_units_Z 28
_cell_length_a 9.256230
_cell_length_b 18.892575
_cell_length_c 14.583342
_cell_angle_alpha 90.000000
_cell_angle_beta 39.204038
_cell_angle_gamma 90.000000
_cell_volume 1611.970512
_symmetry_space_group_name_H-M "P 21/M"
_symmetry_group_IT_number 11
_symmetry_cell_setting 'monoclinic'
loop_
_space_group_symop_operation_xyz
x,y,z
-x,1/2+y,-z
-x,-y,-z
x,1/2-y,z
loop_
_atom_site_type_symbol
_atom_site_label
_atom_site_fract_x
_atom_site_fract_y
_atom_site_fract_z
Si Si1 0.177424 0.992861 0.250325
Si Si2 0.563904 0.942440 0.723341
Si Si3 0.147125 0.167187 0.765589
Si Si4 0.665756 0.941364 0.466604
Si Si5 0.193630 0.438754 0.910620
Si Si6 0.391396 0.401829 0.996882
Si Si7 0.383865 0.671327 0.956659
O O1 0.359179 0.928295 0.160776
O O2 0.918404 0.974043 0.357015
O O3 0.212278 0.036090 0.327877
O O4 0.275474 0.039236 0.118476
O O5 0.591236 0.918550 0.605554
O O6 0.435477 0.887027 0.853452
O O7 0.419106 0.014225 0.786711
O O8 0.206465 0.250000 0.746457
O O9 0.296426 0.126503 0.616570
O O10 0.170922 0.120372 0.845076
O O11 0.874939 0.163243 0.879768
O O12 0.500000 0.000000 0.500000
O O13 0.224482 0.398770 0.992310
O O14 0.000000 0.500000 0.000000
O O15 0.446791 0.339549 0.040588
O O16 0.407818 0.750000 0.906187
#
# Coordination Sequence:
#
# PCOD9163493 Si02
#       7
#     4   4   4   4   4   4   4
#     4   9  18  34  53  87 110 137 189 234 289 329
#     4  10  21  34  58  84 112 150 187 248 281 342
#     4  11  23  38  56  82 120 154 194 244 293 352
#     4  12  22  35  58  86 116 153 192 236 289 356
#     4  11  19  34  58  89 116 144 197 238 289 341
#     4   9  18  32  59  80 112 144 184 249 276 336
#     4  10  20  37  58  83 113 154 198 241 295 351
#
# _framework density 17.370045999999999
#
# number of rings (size 3 to 8) (size 9 to 14) (size 15 to 20)
#    0.000    1.714    4.286    2.143    0.000    1.143 
#    0.000    0.000    0.000    3.429    0.000    0.000 
#    0.000    0.000    0.000    0.000    0.000    0.000 
#
# Total GULP energy -155868.990339 kJ/mol
# GULP energy per Si atom -5566.749655 kJ/mol
# Density = 1.733051 g / cm^3
# Si number density = 17.370046 Si / 1000 Ang^3
#
#
#
# Elastic Constant Matrix: (Units=GPa)
#
#
# Indices 1 2 3 4 5 6 
#
# 1 113.5913 43.8193 33.3937 0.0000 17.7171 0.0000
# 2 43.8193 106.0289 30.9665 0.0000 10.4828 0.0000
# 3 33.3937 30.9665 60.6799 0.0000 12.4181 0.0000
# 4 0.0000 0.0000 0.0000 23.2847 0.0000 0.5335
# 5 17.7171 10.4828 12.4181 0.0000 37.7060 0.0000
# 6 0.0000 0.0000 0.0000 0.5335 0.0000 21.1688
#
#
#
# Elastic Compliance Matrix: (Units=1/GPa)
#
#
# Indices 1 2 3 4 5 6 
#
# 1 0.011820 -0.003358 -0.004123 0.000000 -0.003262 0.000000
# 2 -0.003358 0.012098 -0.004247 0.000000 -0.000387 0.000000
# 3 -0.004123 -0.004247 0.021744 0.000000 -0.004043 0.000000
# 4 0.000000 0.000000 0.000000 0.042972 0.000000 -0.001083
# 5 -0.003262 -0.000387 -0.004043 0.000000 0.029493 0.000000
# 6 0.000000 0.000000 0.000000 -0.001083 0.000000 0.047267
#
#
# Mechanical properties :
#
#
# Convention : Reuss Voigt Hill
#
# Bulk Modulus (GPa) = 45.03470 55.18436 50.10953
# Shear Modulus (GPa) = 25.47766 27.90659 26.69213
#
# Velocity S-wave (km/s) = 3.83398 4.01258 3.92430
# Velocity P-wave (km/s) = 6.75146 7.30113 7.03167
#
# Compressibility (1/GPa) = 0.02220510
#
# Stress axis : x y z
#
# Youngs Moduli (GPa) = 84.60253 82.66029 45.99039
#
# Poissons Ratio (x) = 0.27758 0.18964
# Poissons Ratio (y) = 0.28410 0.19530
# Poissons Ratio (z) = 0.34886 0.35102
#
# Static dielectric constant tensor:
#      x y z
#    x 1.638230 0.000000 0.004290 
#    y 0.000000 1.585190 0.000000 
#    z 0.004290 0.000000 1.612940 
# 
# From -- ./inp_files/19120.got.cif
#   From: 2010.05.17/outbox.cif.g08.bks.cpg/sg11_10_cif.got.tgz:19120.got - 2010.06.03 12:22:45.
