data_PCOD9163443
_publ_section_title
;
Structure prediction by ZEFSAII (Michael W. Deem and Ramdas Pophale) SiO2 
 PCOD9163443
Probable space group: P 21/M
;
_chemical_formula_sum "Si O2"
_cell_formula_units_Z 24
_cell_length_a 9.166379
_cell_length_b 27.120133
_cell_length_c 5.212418
_cell_angle_alpha 90.000000
_cell_angle_beta 50.687413
_cell_angle_gamma 90.000000
_cell_volume 1002.540776
_symmetry_space_group_name_H-M "P 21/M"
_symmetry_group_IT_number 11
_symmetry_cell_setting 'monoclinic'
loop_
_space_group_symop_operation_xyz
x,y,z
-x,1/2+y,-z
-x,-y,-z
x,1/2-y,z
loop_
_atom_site_type_symbol
_atom_site_label
_atom_site_fract_x
_atom_site_fract_y
_atom_site_fract_z
Si Si1 0.072508 0.801718 0.063591
Si Si2 0.106059 0.386835 0.422569
Si Si3 0.566395 0.146603 0.285396
Si Si4 0.870831 0.509516 0.396476
Si Si5 0.247743 0.194043 0.930433
Si Si6 0.710313 0.410709 0.624575
O O1 0.006670 0.750000 0.258573
O O2 0.003181 0.851341 0.265718
O O3 0.973131 0.801723 0.898697
O O4 0.293664 0.806723 0.842199
O O5 0.184325 0.433502 0.493388
O O6 0.937778 0.402471 0.411683
O O7 0.254070 0.350373 0.124710
O O8 0.364081 0.171340 0.562102
O O9 0.628867 0.113195 0.458480
O O10 0.612053 0.114939 0.980032
O O11 0.702443 0.469967 0.601244
O O12 0.000000 0.500000 0.500000
O O13 0.000000 0.500000 0.000000
O O14 0.312003 0.250000 0.922649
#
# Coordination Sequence:
#
# PCOD9163443 Si02
#       6
#     4   4   4   4   4   4
#     4  10  21  40  62  89 124 169 216 263 319 387
#     4  10  21  38  66  93 129 166 218 264 325 380
#     4  11  23  42  64  92 131 167 214 261 323 377
#     4  10  20  36  67  99 128 167 215 263 324 386
#     4  11  24  41  63  95 128 171 216 270 323 378
#     4  10  21  41  64  95 127 170 213 262 317 390
#
# _framework density 23.939174999999999
#
# number of rings (size 3 to 8) (size 9 to 14) (size 15 to 20)
#    0.000    1.667    1.667    4.000    4.667    0.000 
#    0.000    3.333    0.000    0.000    0.000    0.000 
#    0.000    0.000    0.000    0.000    0.000    0.000 
#
# Total GULP energy -133798.847403 kJ/mol
# GULP energy per Si atom -5574.951975 kJ/mol
# Density = 2.388469 g / cm^3
# Si number density = 23.939175 Si / 1000 Ang^3
#
#
#
# Elastic Constant Matrix: (Units=GPa)
#
#
# Indices 1 2 3 4 5 6 
#
# 1 61.8302 0.1232 23.9447 0.0000 9.1225 0.0000
# 2 0.1232 192.8295 54.6890 0.0000 6.6773 0.0000
# 3 23.9447 54.6890 126.5217 0.0000 19.7713 0.0000
# 4 0.0000 0.0000 0.0000 27.6939 0.0000 -7.8375
# 5 9.1225 6.6773 19.7713 0.0000 36.9988 0.0000
# 6 0.0000 0.0000 0.0000 -7.8375 0.0000 1.7870
#
#
#
# Elastic Compliance Matrix: (Units=1/GPa)
#
#
# Indices 1 2 3 4 5 6 
#
# 1 0.017901 0.001051 -0.003408 0.000000 -0.002783 0.000000
# 2 0.001051 0.005976 -0.002807 0.000000 0.000163 0.000000
# 3 -0.003408 -0.002807 0.010422 0.000000 -0.004222 0.000000
# 4 0.000000 0.000000 0.000000 -0.149717 0.000000 -0.656618
# 5 -0.002783 0.000163 -0.004222 0.000000 0.029941 0.000000
# 6 0.000000 0.000000 0.000000 -0.656618 0.000000 -2.320169
#
#
# Mechanical properties :
#
#
# Convention : Reuss Voigt Hill
#
# Bulk Modulus (GPa) = 41.71525 59.85502 50.78513
# Shear Modulus (GPa) = -2.09439 33.45758 15.68159
#
# Velocity S-wave (km/s) = -0.93637 3.74252 2.56219
# Velocity P-wave (km/s) = 4.03662 6.61305 5.47845
#
# Compressibility (1/GPa) = 0.02397205
#
# Stress axis : x y z
#
# Youngs Moduli (GPa) = 55.86159 167.34010 95.95075
#
# Poissons Ratio (x) = -0.17593 0.32695
# Poissons Ratio (y) = -0.05873 0.26937
# Poissons Ratio (z) = 0.19035 0.46980
#
# Static dielectric constant tensor:
#      x y z
#    x 1.973250 0.000000 -0.041880 
#    y 0.000000 2.022110 0.000000 
#    z -0.041880 0.000000 1.971440 
# 
# From -- ./inp_files/5187.got.cif
#   From: 2010.05.17/outbox.cif.g08.bks.cpg/sg11_3_cif.got.tgz:5187.got - 2010.06.03 12:22:45.
