data_PCOD9163116
_publ_section_title
;
Structure prediction by ZEFSAII (Michael W. Deem and Ramdas Pophale) SiO2 
 PCOD9163116
Probable space group: P 21/M
;
_chemical_formula_sum "Si O2"
_cell_formula_units_Z 28
_cell_length_a 6.538184
_cell_length_b 13.367240
_cell_length_c 18.697964
_cell_angle_alpha 90.000000
_cell_angle_beta 58.330123
_cell_angle_gamma 90.000000
_cell_volume 1390.808355
_symmetry_space_group_name_H-M "P 21/M"
_symmetry_group_IT_number 11
_symmetry_cell_setting 'monoclinic'
loop_
_space_group_symop_operation_xyz
x,y,z
-x,1/2+y,-z
-x,-y,-z
x,1/2-y,z
loop_
_atom_site_type_symbol
_atom_site_label
_atom_site_fract_x
_atom_site_fract_y
_atom_site_fract_z
Si Si1 0.850785 0.868866 0.595149
Si Si2 0.470777 0.865103 0.786898
Si Si3 0.234223 0.043772 0.545854
Si Si4 0.239578 0.495577 0.171580
Si Si5 0.971364 0.991993 0.089402
Si Si6 0.421353 0.138063 0.800832
Si Si7 0.193488 0.366048 0.704187
O O1 0.916028 0.750000 0.590212
O O2 0.609008 0.883964 0.686762
O O3 0.809964 0.898166 0.520122
O O4 0.047819 0.950158 0.585657
O O5 0.404443 0.750000 0.802925
O O6 0.232339 0.930402 0.844759
O O7 0.672450 0.892747 0.809582
O O8 0.221407 0.118377 0.615231
O O9 0.500000 0.000000 0.500000
O O10 0.426618 0.570560 0.174234
O O11 0.210249 0.491709 0.091888
O O12 0.989095 0.545114 0.241587
O O13 0.855080 0.883880 0.128028
O O14 0.000000 0.000000 0.000000
O O15 0.497057 0.250000 0.798520
O O16 0.423223 0.118524 0.714834
O O17 0.118410 0.250000 0.731739
#
# Coordination Sequence:
#
# PCOD9163116 Si02
#       7
#     4   4   4   4   4   4   4
#     4  10  23  42  61  91 128 165 211 257 305 363
#     4  10  22  40  64  90 121 163 207 250 305 370
#     4  11  24  37  63  91 127 166 209 259 303 360
#     4  10  20  38  63  84 118 154 201 248 305 363
#     4  10  23  40  61  90 123 156 199 253 309 370
#     4   9  20  36  60  88 118 154 197 247 302 362
#     4  10  20  36  58  88 119 159 204 248 303 358
#
# _framework density 20.132175
#
# number of rings (size 3 to 8) (size 9 to 14) (size 15 to 20)
#    0.000    2.000    1.429    0.857    6.000    5.143 
#    0.000    5.714    0.000    0.000    0.000    0.000 
#    0.000    0.000    0.000    0.000    0.000    0.000 
#
# Total GULP energy -155944.928953 kJ/mol
# GULP energy per Si atom -5569.461748 kJ/mol
# Density = 2.008635 g / cm^3
# Si number density = 20.132175 Si / 1000 Ang^3
#
#
#
# Elastic Constant Matrix: (Units=GPa)
#
#
# Indices 1 2 3 4 5 6 
#
# 1 89.0770 34.5205 44.0451 0.0000 23.9508 0.0000
# 2 34.5205 113.0410 34.2845 0.0000 2.9225 0.0000
# 3 44.0451 34.2845 104.9681 0.0000 31.6082 0.0000
# 4 0.0000 0.0000 0.0000 9.2979 0.0000 1.4386
# 5 23.9508 2.9225 31.6082 0.0000 39.1650 0.0000
# 6 0.0000 0.0000 0.0000 1.4386 0.0000 23.9419
#
#
#
# Elastic Compliance Matrix: (Units=1/GPa)
#
#
# Indices 1 2 3 4 5 6 
#
# 1 0.016249 -0.003705 -0.003565 0.000000 -0.006783 0.000000
# 2 -0.003705 0.010845 -0.003205 0.000000 0.004043 0.000000
# 3 -0.003565 -0.003205 0.014982 0.000000 -0.009672 0.000000
# 4 0.000000 0.000000 0.000000 0.108560 0.000000 -0.006523
# 5 -0.006783 0.004043 -0.009672 0.000000 0.037185 0.000000
# 6 0.000000 0.000000 0.000000 -0.006523 0.000000 0.042160
#
#
# Mechanical properties :
#
#
# Convention : Reuss Voigt Hill
#
# Bulk Modulus (GPa) = 47.33818 59.19850 53.26834
# Shear Modulus (GPa) = 19.38178 27.43003 23.40591
#
# Velocity S-wave (km/s) = 3.10615 3.69521 3.41341
# Velocity P-wave (km/s) = 6.03564 6.90470 6.48474
#
# Compressibility (1/GPa) = 0.02112460
#
# Stress axis : x y z
#
# Youngs Moduli (GPa) = 61.54253 92.20471 66.74693
#
# Poissons Ratio (x) = 0.34165 0.23798
# Poissons Ratio (y) = 0.22804 0.21393
# Poissons Ratio (z) = 0.21942 0.29552
#
# Static dielectric constant tensor:
#      x y z
#    x 1.750630 0.000000 0.069300 
#    y 0.000000 1.763420 0.000000 
#    z 0.069300 0.000000 1.722500 
# 
# From -- ./inp_files/56931.got.cif
#   From: 2010.05.17/outbox.cif.g08.bks.cpg/sg11_29_cif.got.tgz:56931.got - 2010.06.03 12:22:45.
