data_PCOD9163088
_publ_section_title
;
Structure prediction by ZEFSAII (Michael W. Deem and Ramdas Pophale) SiO2 
 PCOD9163088
Probable space group: P 21/M
;
_chemical_formula_sum "Si O2"
_cell_formula_units_Z 28
_cell_length_a 18.065141
_cell_length_b 10.946540
_cell_length_c 21.536798
_cell_angle_alpha 90.000000
_cell_angle_beta 159.770328
_cell_angle_gamma 90.000000
_cell_volume 1472.666715
_symmetry_space_group_name_H-M "P 21/M"
_symmetry_group_IT_number 11
_symmetry_cell_setting 'monoclinic'
loop_
_space_group_symop_operation_xyz
x,y,z
-x,1/2+y,-z
-x,-y,-z
x,1/2-y,z
loop_
_atom_site_type_symbol
_atom_site_label
_atom_site_fract_x
_atom_site_fract_y
_atom_site_fract_z
Si Si1 0.945082 0.991306 0.560171
Si Si2 0.204823 0.888393 0.271021
Si Si3 0.782549 0.606108 0.117876
Si Si4 0.702378 0.394039 0.256925
Si Si5 0.437534 0.383559 0.675931
Si Si6 0.254942 0.110171 0.055571
Si Si7 0.394730 0.386601 0.496167
O O1 0.773952 0.892347 0.448385
O O2 0.141388 0.946185 0.672500
O O3 0.808576 0.078622 0.407263
O O4 0.046611 0.048146 0.701791
O O5 0.238515 0.750000 0.324060
O O6 0.357569 0.895385 0.331266
O O7 0.277535 0.999809 0.371892
O O8 0.951043 0.898830 0.062061
O O9 0.779081 0.750000 0.128914
O O10 0.540351 0.556369 0.937246
O O11 0.828050 0.593891 0.080506
O O12 0.689935 0.250000 0.239104
O O13 0.541546 0.250000 0.768026
O O14 0.581564 0.501515 0.803359
O O15 0.377409 0.391869 0.556251
O O16 0.342684 0.250000 0.128522
O O17 0.319504 0.250000 0.416823
#
# Coordination Sequence:
#
# PCOD9163088 Si02
#       7
#     4   4   4   4   4   4   4
#     4  11  21  36  60  80 113 153 192 230 294 346
#     4   9  18  35  57  83 111 146 193 240 282 338
#     4  10  20  36  58  85 112 146 192 242 291 340
#     4  10  21  37  56  83 114 145 191 245 286 340
#     4  11  23  38  55  82 118 152 190 235 290 348
#     4  10  21  37  57  82 115 149 194 244 282 334
#     4   9  19  35  56  81 114 150 187 235 290 343
#
# _framework density 19.013126
#
# number of rings (size 3 to 8) (size 9 to 14) (size 15 to 20)
#    0.000    2.000    1.429    2.143    0.000    2.286 
#    0.000    1.429    0.000    0.000    0.000    0.000 
#    0.000    0.000    0.000    0.000    0.000    0.000 
#
# Total GULP energy -156049.146769 kJ/mol
# GULP energy per Si atom -5573.183813 kJ/mol
# Density = 1.896985 g / cm^3
# Si number density = 19.013126 Si / 1000 Ang^3
#
#
#
# Elastic Constant Matrix: (Units=GPa)
#
#
# Indices 1 2 3 4 5 6 
#
# 1 -0.3259 -44.5117 -24.7672 0.0000 17.2032 0.0000
# 2 -44.5117 14.8816 -2.9414 0.0000 8.0810 0.0000
# 3 -24.7672 -2.9414 38.9731 0.0000 10.2775 0.0000
# 4 0.0000 0.0000 0.0000 14.1247 0.0000 0.1474
# 5 17.2032 8.0810 10.2775 0.0000 31.6637 0.0000
# 6 0.0000 0.0000 0.0000 0.1474 0.0000 17.1921
#
#
#
# Elastic Compliance Matrix: (Units=1/GPa)
#
#
# Indices 1 2 3 4 5 6 
#
# 1 -0.003619 -0.016246 -0.005619 0.000000 0.007936 0.000000
# 2 -0.016246 0.010758 -0.012156 0.000000 0.010027 0.000000
# 3 -0.005619 -0.012156 0.021377 0.000000 -0.000783 0.000000
# 4 0.000000 0.000000 0.000000 0.070804 0.000000 -0.000607
# 5 0.007936 0.010027 -0.000783 0.000000 0.024965 0.000000
# 6 0.000000 0.000000 0.000000 -0.000607 0.000000 0.058172
#
#
# Mechanical properties :
#
#
# Convention : Reuss Voigt Hill
#
# Bulk Modulus (GPa) = -25.29976 -10.10132 -17.70054
# Shear Modulus (GPa) = 21.06830 20.97937 21.02383
#
# Velocity S-wave (km/s) = 3.33241 3.32537 3.32889
# Velocity P-wave (km/s) = 1.21296 3.06917 2.33357
#
# Compressibility (1/GPa) = -0.03952606
#
# Stress axis : x y z
#
# Youngs Moduli (GPa) = -276.29819 92.95400 46.77928
#
# Poissons Ratio (x) = 1.51010 0.26285
# Poissons Ratio (y) = -4.48865 0.56866
# Poissons Ratio (z) = -1.55253 1.12997
#
# Static dielectric constant tensor:
#      x y z
#    x 1.661000 0.000000 0.035440 
#    y 0.000000 1.666560 0.000000 
#    z 0.035440 0.000000 1.655680 
# 
# From -- ./inp_files/61459.got.cif
#   From: 2010.05.17/outbox.cif.g08.bks.cpg/sg11_31_cif.got.tgz:61459.got - 2010.06.03 12:22:45.
