data_PCOD9163021
_publ_section_title
;
Structure prediction by ZEFSAII (Michael W. Deem and Ramdas Pophale) SiO2 
 PCOD9163021
Probable space group: P 21/M
;
_chemical_formula_sum "Si O2"
_cell_formula_units_Z 28
_cell_length_a 23.247905
_cell_length_b 13.629348
_cell_length_c 18.973070
_cell_angle_alpha 90.000000
_cell_angle_beta 164.350602
_cell_angle_gamma 90.000000
_cell_volume 1621.653845
_symmetry_space_group_name_H-M "P 21/M"
_symmetry_group_IT_number 11
_symmetry_cell_setting 'monoclinic'
loop_
_space_group_symop_operation_xyz
x,y,z
-x,1/2+y,-z
-x,-y,-z
x,1/2-y,z
loop_
_atom_site_type_symbol
_atom_site_label
_atom_site_fract_x
_atom_site_fract_y
_atom_site_fract_z
Si Si1 0.597058 0.635341 0.175689
Si Si2 0.935697 0.364464 0.626216
Si Si3 0.784890 0.538029 0.937972
Si Si4 0.162395 0.525372 0.629945
Si Si5 0.052368 0.134458 0.012396
Si Si6 0.322432 0.018034 0.437394
Si Si7 0.772947 0.962910 0.517255
O O1 0.593849 0.750000 0.155824
O O2 0.742602 0.573276 0.293324
O O3 0.688932 0.614141 0.361960
O O4 0.362334 0.588442 0.893516
O O5 0.886827 0.250000 0.566711
O O6 0.942729 0.412199 0.557485
O O7 0.764198 0.429981 0.468155
O O8 0.151788 0.386591 0.924649
O O9 0.826285 0.591107 0.912781
O O10 0.550657 0.497517 0.671534
O O11 0.972593 0.456348 0.166915
O O12 0.000000 0.500000 0.500000
O O13 0.026093 0.250000 0.975466
O O14 0.189525 0.103207 0.242003
O O15 0.826185 0.078249 0.747464
O O16 0.342684 0.037286 0.544565
#
# Coordination Sequence:
#
# PCOD9163021 Si02
#       7
#     4   4   4   4   4   4   4
#     4  10  21  38  59  83 114 153 188 230 281 330
#     4   9  18  35  55  80 111 140 177 229 273 321
#     4   9  19  35  55  78 112 143 175 227 277 318
#     4  10  22  38  59  82 117 148 189 237 279 331
#     4  10  21  36  54  82 109 140 184 226 270 329
#     4  10  20  36  58  76 112 147 177 226 278 326
#     4   8  20  34  55  80 114 143 180 228 266 329
#
# _framework density 17.266323
#
# number of rings (size 3 to 8) (size 9 to 14) (size 15 to 20)
#    0.857    1.714    0.000    1.286    2.000    2.857 
#    0.000    0.714    0.000    0.000    0.000    0.000 
#    0.000    0.000    0.000    0.000    0.000    0.000 
#
# Total GULP energy -155945.049555 kJ/mol
# GULP energy per Si atom -5569.466056 kJ/mol
# Density = 1.722702 g / cm^3
# Si number density = 17.266323 Si / 1000 Ang^3
#
#
#
# Elastic Constant Matrix: (Units=GPa)
#
#
# Indices 1 2 3 4 5 6 
#
# 1 63.2878 7.3489 12.7434 0.0000 -18.1400 0.0000
# 2 7.3489 67.8942 19.0218 0.0000 -7.9104 0.0000
# 3 12.7434 19.0218 23.4596 0.0000 1.3270 0.0000
# 4 0.0000 0.0000 0.0000 8.3957 0.0000 -2.3060
# 5 -18.1400 -7.9104 1.3270 0.0000 22.6677 0.0000
# 6 0.0000 0.0000 0.0000 -2.3060 0.0000 5.2541
#
#
#
# Elastic Compliance Matrix: (Units=1/GPa)
#
#
# Indices 1 2 3 4 5 6 
#
# 1 0.026061 0.005589 -0.020045 0.000000 0.023980 0.000000
# 2 0.005589 0.021650 -0.021341 0.000000 0.013277 0.000000
# 3 -0.020045 -0.021341 0.072387 0.000000 -0.027726 0.000000
# 4 0.000000 0.000000 0.000000 0.135435 0.000000 0.059443
# 5 0.023980 0.013277 -0.027726 0.000000 0.069562 0.000000
# 6 0.000000 0.000000 0.000000 0.059443 0.000000 0.216419
#
#
# Mechanical properties :
#
#
# Convention : Reuss Voigt Hill
#
# Bulk Modulus (GPa) = 20.61674 25.87441 23.24558
# Shear Modulus (GPa) = 7.94563 14.96533 11.45548
#
# Velocity S-wave (km/s) = 2.14751 2.94723 2.57856
# Velocity P-wave (km/s) = 4.25622 5.15748 4.72837
#
# Compressibility (1/GPa) = 0.04850427
#
# Stress axis : x y z
#
# Youngs Moduli (GPa) = 38.37121 46.18947 13.81454
#
# Poissons Ratio (x) = -0.25815 0.27691
# Poissons Ratio (y) = -0.21445 0.29482
# Poissons Ratio (z) = 0.76914 0.98575
#
# Static dielectric constant tensor:
#      x y z
#    x 1.584570 0.000000 -0.025230 
#    y 0.000000 1.560620 0.000000 
#    z -0.025230 0.000000 1.591960 
# 
# From -- ./inp_files/61516.got.cif
#   From: 2010.05.17/outbox.cif.g08.bks.cpg/sg11_31_cif.got.tgz:61516.got - 2010.06.03 12:22:45.
