data_PCOD9163388
_publ_section_title
;
Structure prediction by ZEFSAII (Michael W. Deem and Ramdas Pophale) SiO2 
 PCOD9163388
Probable space group: P 21/M
;
_chemical_formula_sum "Si O2"
_cell_formula_units_Z 28
_cell_length_a 12.555093
_cell_length_b 13.952338
_cell_length_c 9.071655
_cell_angle_alpha 90.000000
_cell_angle_beta 119.035316
_cell_angle_gamma 90.000000
_cell_volume 1389.390150
_symmetry_space_group_name_H-M "P 21/M"
_symmetry_group_IT_number 11
_symmetry_cell_setting 'monoclinic'
loop_
_space_group_symop_operation_xyz
x,y,z
-x,1/2+y,-z
-x,-y,-z
x,1/2-y,z
loop_
_atom_site_type_symbol
_atom_site_label
_atom_site_fract_x
_atom_site_fract_y
_atom_site_fract_z
Si Si1 0.818501 0.974220 0.246429
Si Si2 0.033808 0.920184 0.189161
Si Si3 0.783829 0.142362 0.449120
Si Si4 0.149582 0.108109 0.162466
Si Si5 0.633092 0.864013 0.917212
Si Si6 0.431497 0.977648 0.606616
Si Si7 0.240701 0.143988 0.540839
O O1 0.849796 0.902380 0.401245
O O2 0.924889 0.978049 0.198261
O O3 0.794249 0.073333 0.314120
O O4 0.702597 0.921217 0.094017
O O5 0.100980 0.865362 0.364781
O O6 0.125576 0.995029 0.174908
O O7 0.964992 0.862009 0.015041
O O8 0.762203 0.250000 0.387973
O O9 0.673624 0.102090 0.474709
O O10 0.269274 0.132661 0.150582
O O11 0.171092 0.146820 0.339244
O O12 0.606717 0.750000 0.929156
O O13 0.521800 0.929874 0.786660
O O14 0.500000 0.000000 0.500000
O O15 0.356602 0.072978 0.603026
O O16 0.278671 0.250000 0.610060
#
# Coordination Sequence:
#
# PCOD9163388 Si02
#       7
#     4   4   4   4   4   4   4
#     4  10  23  41  61  89 124 164 203 253 297 359
#     4  10  20  40  61  86 126 165 198 253 311 355
#     4  11  23  38  60  91 124 163 204 247 309 370
#     4  10  20  36  62  90 121 155 208 254 296 352
#     4  11  22  40  66  92 120 163 209 246 302 366
#     4  11  22  40  62  88 120 156 196 257 306 356
#     4  11  22  37  59  93 123 156 208 253 300 357
#
# _framework density 20.152726999999999
#
# number of rings (size 3 to 8) (size 9 to 14) (size 15 to 20)
#    0.000    1.429    4.286    1.714    0.000    6.286 
#    0.000    2.857    0.000    8.571    0.000    0.000 
#    0.000    0.000    0.000    0.000    0.000    0.000 
#
# Total GULP energy -156105.786829 kJ/mol
# GULP energy per Si atom -5575.206672 kJ/mol
# Density = 2.010686 g / cm^3
# Si number density = 20.152727 Si / 1000 Ang^3
#
#
#
# Elastic Constant Matrix: (Units=GPa)
#
#
# Indices 1 2 3 4 5 6 
#
# 1 57.1360 28.6140 25.6803 0.0000 -6.1876 0.0000
# 2 28.6140 163.6399 41.6231 0.0000 0.1434 0.0000
# 3 25.6803 41.6231 115.0049 0.0000 -5.8439 0.0000
# 4 0.0000 0.0000 0.0000 3.1856 0.0000 -1.0167
# 5 -6.1876 0.1434 -5.8439 0.0000 35.0095 0.0000
# 6 0.0000 0.0000 0.0000 -1.0167 0.0000 4.4300
#
#
#
# Elastic Compliance Matrix: (Units=1/GPa)
#
#
# Indices 1 2 3 4 5 6 
#
# 1 0.020783 -0.002750 -0.003488 0.000000 0.003102 0.000000
# 2 -0.002750 0.007101 -0.001999 0.000000 -0.000849 0.000000
# 3 -0.003488 -0.001999 0.010254 0.000000 0.001103 0.000000
# 4 0.000000 0.000000 0.000000 0.338728 0.000000 0.077738
# 5 0.003102 -0.000849 0.001103 0.000000 0.029300 0.000000
# 6 0.000000 0.000000 0.000000 0.077738 0.000000 0.243574
#
#
# Mechanical properties :
#
#
# Convention : Reuss Voigt Hill
#
# Bulk Modulus (GPa) = 46.15940 58.62396 52.39168
# Shear Modulus (GPa) = 7.42463 24.51591 15.97027
#
# Velocity S-wave (km/s) = 1.92150 3.49163 2.81812
# Velocity P-wave (km/s) = 5.27991 6.73857 6.05333
#
# Compressibility (1/GPa) = 0.02166406
#
# Stress axis : x y z
#
# Youngs Moduli (GPa) = 48.11686 140.82467 97.52526
#
# Poissons Ratio (x) = 0.38721 0.34016
# Poissons Ratio (y) = 0.13230 0.19497
# Poissons Ratio (z) = 0.16783 0.28154
#
# Static dielectric constant tensor:
#      x y z
#    x 1.711520 0.000000 0.021310 
#    y 0.000000 1.713140 0.000000 
#    z 0.021310 0.000000 1.785270 
# 
# From -- ./inp_files/18148.got.cif
#   From: 2010.05.17/outbox.cif.g08.bks.cpg/sg11_10_cif.got.tgz:18148.got - 2010.06.03 12:22:45.
