data_PCOD9163560
_publ_section_title
;
Structure prediction by ZEFSAII (Michael W. Deem and Ramdas Pophale) SiO2 
 PCOD9163560
Probable space group: P 21/M
;
_chemical_formula_sum "Si O2"
_cell_formula_units_Z 32
_cell_length_a 13.603168
_cell_length_b 18.697111
_cell_length_c 11.399640
_cell_angle_alpha 90.000000
_cell_angle_beta 32.056389
_cell_angle_gamma 90.000000
_cell_volume 1538.858476
_symmetry_space_group_name_H-M "P 21/M"
_symmetry_group_IT_number 11
_symmetry_cell_setting 'monoclinic'
loop_
_space_group_symop_operation_xyz
x,y,z
-x,1/2+y,-z
-x,-y,-z
x,1/2-y,z
loop_
_atom_site_type_symbol
_atom_site_label
_atom_site_fract_x
_atom_site_fract_y
_atom_site_fract_z
Si Si1 0.113560 0.546228 0.483868
Si Si2 0.072538 0.921752 0.999872
Si Si3 0.317144 0.170755 0.265099
Si Si4 0.368869 0.563630 0.034621
Si Si5 0.769398 0.019338 0.374849
Si Si6 0.919256 0.330309 0.790441
Si Si7 0.833965 0.833585 0.840717
Si Si8 0.661016 0.538827 0.141250
O O1 0.315666 0.553204 0.222602
O O2 0.146693 0.514942 0.579336
O O3 0.000000 0.500000 0.500000
O O4 0.012016 0.621141 0.614936
O O5 0.086351 0.853612 0.068496
O O6 0.141608 0.918278 0.796502
O O7 0.860588 0.949192 0.223022
O O8 0.204696 0.983460 0.925582
O O9 0.394113 0.250000 0.215168
O O10 0.290169 0.167621 0.152094
O O11 0.122324 0.164797 0.528572
O O12 0.443055 0.105305 0.175666
O O13 0.210211 0.616381 0.148416
O O14 0.345975 0.492906 0.982991
O O15 0.548897 0.030341 0.599106
O O16 0.853727 0.250000 0.842014
O O17 0.870156 0.750000 0.834308
O O18 0.740529 0.881422 0.038645
#
# Coordination Sequence:
#
# PCOD9163560 Si02
#       8
#     4   4   4   4   4   4   4   4
#     4  12  22  39  62  93 122 159 202 247 308 369
#     4  10  22  41  62  90 119 160 210 256 299 355
#     4  10  21  34  54  89 125 158 197 247 310 362
#     4  11  21  33  63  92 120 154 201 246 301 372
#     4  11  23  39  65  90 121 156 208 258 300 355
#     4  10  20  37  59  86 124 158 196 256 305 351
#     4  11  23  39  58  87 130 164 195 250 309 366
#     4  11  22  39  64  91 119 161 202 251 306 361
#
# _framework density 20.794635
#
# number of rings (size 3 to 8) (size 9 to 14) (size 15 to 20)
#    0.000    1.250    3.750    3.000    1.750    1.500 
#    0.000    1.875    0.000    0.000    0.000    0.000 
#    0.000    0.000    0.000    0.000    0.000    0.000 
#
# Total GULP energy -178590.023222 kJ/mol
# GULP energy per Si atom -5580.938226 kJ/mol
# Density = 2.074731 g / cm^3
# Si number density = 20.794635 Si / 1000 Ang^3
#
#
#
# Elastic Constant Matrix: (Units=GPa)
#
#
# Indices 1 2 3 4 5 6 
#
# 1 53.3501 11.1713 17.6880 0.0000 9.2055 0.0000
# 2 11.1713 109.0830 27.1709 0.0000 -6.1265 0.0000
# 3 17.6880 27.1709 111.0914 0.0000 9.6413 0.0000
# 4 0.0000 0.0000 0.0000 21.3612 0.0000 -2.3007
# 5 9.2055 -6.1265 9.6413 0.0000 29.5269 0.0000
# 6 0.0000 0.0000 0.0000 -2.3007 0.0000 13.8217
#
#
#
# Elastic Compliance Matrix: (Units=1/GPa)
#
#
# Indices 1 2 3 4 5 6 
#
# 1 0.020985 -0.001914 -0.002337 0.000000 -0.006177 0.000000
# 2 -0.001914 0.010182 -0.002491 0.000000 0.003523 0.000000
# 3 -0.002337 -0.002491 0.010255 0.000000 -0.003137 0.000000
# 4 0.000000 0.000000 0.000000 0.047669 0.000000 0.007935
# 5 -0.006177 0.003523 -0.003137 0.000000 0.037548 0.000000
# 6 0.000000 0.000000 0.000000 0.007935 0.000000 0.073671
#
#
# Mechanical properties :
#
#
# Convention : Reuss Voigt Hill
#
# Bulk Modulus (GPa) = 35.79372 42.84276 39.31824
# Shear Modulus (GPa) = 22.41074 27.44158 24.92616
#
# Velocity S-wave (km/s) = 3.28642 3.63664 3.46596
# Velocity P-wave (km/s) = 5.62593 6.18717 5.91321
#
# Compressibility (1/GPa) = 0.02793786
#
# Stress axis : x y z
#
# Youngs Moduli (GPa) = 47.65197 98.21528 97.51081
#
# Poissons Ratio (x) = 0.18797 0.22790
# Poissons Ratio (y) = 0.09120 0.24292
# Poissons Ratio (z) = 0.11137 0.24468
#
# Static dielectric constant tensor:
#      x y z
#    x 1.811950 0.000000 0.014050 
#    y 0.000000 1.749230 0.000000 
#    z 0.014050 0.000000 1.796060 
# 
# From -- ./inp_files/39995.got.cif
#   From: 2010.05.17/outbox.cif.g08.bks.cpg/sg11_20_cif.got.tgz:39995.got - 2010.06.03 12:22:45.
