data_PCOD9163476
_publ_section_title
;
Structure prediction by ZEFSAII (Michael W. Deem and Ramdas Pophale) SiO2 
 PCOD9163476
Probable space group: P 21/M
;
_chemical_formula_sum "Si O2"
_cell_formula_units_Z 32
_cell_length_a 9.888036
_cell_length_b 19.934497
_cell_length_c 12.345483
_cell_angle_alpha 90.000000
_cell_angle_beta 44.042968
_cell_angle_gamma 90.000000
_cell_volume 1691.732491
_symmetry_space_group_name_H-M "P 21/M"
_symmetry_group_IT_number 11
_symmetry_cell_setting 'monoclinic'
loop_
_space_group_symop_operation_xyz
x,y,z
-x,1/2+y,-z
-x,-y,-z
x,1/2-y,z
loop_
_atom_site_type_symbol
_atom_site_label
_atom_site_fract_x
_atom_site_fract_y
_atom_site_fract_z
Si Si1 0.639745 0.060485 0.954457
Si Si2 0.034230 0.929435 0.421547
Si Si3 0.700094 0.326151 0.624851
Si Si4 0.963184 0.065121 0.946310
Si Si5 0.738916 0.943394 0.422321
Si Si6 0.004054 0.669241 0.881588
Si Si7 0.597464 0.673967 0.002475
Si Si8 0.657829 0.402516 0.444519
O O1 0.803325 0.063141 0.766066
O O2 0.759951 0.056552 0.997346
O O3 0.500472 0.125290 0.028061
O O4 0.500000 0.000000 0.000000
O O5 0.114298 0.872011 0.453958
O O6 0.839049 0.911970 0.469428
O O7 0.000000 0.000000 0.500000
O O8 0.754976 0.250000 0.567270
O O9 0.555825 0.325409 0.809860
O O10 0.593439 0.361522 0.586723
O O11 0.130516 0.069963 0.758910
O O12 0.976163 0.129694 0.016532
O O13 0.000000 0.000000 0.000000
O O14 0.523079 0.917188 0.528544
O O15 0.734195 0.024226 0.435941
O O16 0.010146 0.750000 0.890571
O O17 0.177425 0.640587 0.708436
O O18 0.802451 0.651561 0.935798
O O19 0.620271 0.750000 0.949286
#
# Coordination Sequence:
#
# PCOD9163476 Si02
#       8
#     4   4   4   4   4   4   4   4
#     4  10  22  34  57  86 112 148 190 238 292 337
#     4  10  20  37  57  85 116 147 192 240 285 348
#     4  10  20  37  60  85 114 154 192 236 293 354
#     4  11  21  38  59  86 120 154 198 242 286 350
#     4  10  22  37  58  87 117 154 194 242 293 337
#     4  11  23  39  60  86 118 157 194 244 296 345
#     4   9  20  38  58  81 113 151 194 235 288 353
#     4  11  21  36  58  87 117 151 196 241 288 353
#
# _framework density 18.915520000000001
#
# number of rings (size 3 to 8) (size 9 to 14) (size 15 to 20)
#    0.000    1.750    2.500    1.875    1.750    2.500 
#    0.000    3.750    0.000    0.000    0.000    0.000 
#    0.000    0.000    0.000    0.000    0.000    0.000 
#
# Total GULP energy -178612.902905 kJ/mol
# GULP energy per Si atom -5581.653216 kJ/mol
# Density = 1.887247 g / cm^3
# Si number density = 18.915520 Si / 1000 Ang^3
#
#
#
# Elastic Constant Matrix: (Units=GPa)
#
#
# Indices 1 2 3 4 5 6 
#
# 1 146.5552 66.9284 21.1429 0.0000 -11.5006 0.0000
# 2 66.9284 100.5703 14.3586 0.0000 -4.6210 0.0000
# 3 21.1429 14.3586 12.3099 0.0000 -7.7504 0.0000
# 4 0.0000 0.0000 0.0000 29.5233 0.0000 1.1771
# 5 -11.5006 -4.6210 -7.7504 0.0000 24.5628 0.0000
# 6 0.0000 0.0000 0.0000 1.1771 0.0000 31.6228
#
#
#
# Elastic Compliance Matrix: (Units=1/GPa)
#
#
# Indices 1 2 3 4 5 6 
#
# 1 0.011246 -0.005684 -0.012534 0.000000 0.000241 0.000000
# 2 -0.005684 0.014945 -0.009454 0.000000 -0.002833 0.000000
# 3 -0.012534 -0.009454 0.135993 0.000000 0.035263 0.000000
# 4 0.000000 0.000000 0.000000 0.033922 0.000000 -0.001263
# 5 0.000241 -0.002833 0.035263 0.000000 0.051419 0.000000
# 6 0.000000 0.000000 0.000000 -0.001263 0.000000 0.031670
#
#
# Mechanical properties :
#
#
# Convention : Reuss Voigt Hill
#
# Bulk Modulus (GPa) = 9.35977 51.58835 30.47406
# Shear Modulus (GPa) = 13.50794 27.60883 20.55838
#
# Velocity S-wave (km/s) = 2.67520 3.82460 3.30032
# Velocity P-wave (km/s) = 3.80804 6.84366 5.53791
#
# Compressibility (1/GPa) = 0.10684022
#
# Stress axis : x y z
#
# Youngs Moduli (GPa) = 88.91959 66.91086 7.35331
#
# Poissons Ratio (x) = 0.38029 0.09217
# Poissons Ratio (y) = 0.50538 0.06952
# Poissons Ratio (z) = 1.11455 0.63259
#
# Static dielectric constant tensor:
#      x y z
#    x 1.657160 0.000000 -0.002410 
#    y 0.000000 1.651410 0.000000 
#    z -0.002410 0.000000 1.659690 
# 
# From -- ./inp_files/32829.got.cif
#   From: 2010.05.17/outbox.cif.g08.bks.cpg/sg11_17_cif.got.tgz:32829.got - 2010.06.03 12:22:45.
