data_PCOD9163831
_publ_section_title
;
Structure prediction by ZEFSAII (Michael W. Deem and Ramdas Pophale) SiO2 
 PCOD9163831
Probable space group: P 21/M
;
_chemical_formula_sum "Si O2"
_cell_formula_units_Z 28
_cell_length_a 5.137422
_cell_length_b 34.581658
_cell_length_c 6.931732
_cell_angle_alpha 90.000000
_cell_angle_beta 63.970538
_cell_angle_gamma 90.000000
_cell_volume 1106.583047
_symmetry_space_group_name_H-M "P 21/M"
_symmetry_group_IT_number 11
_symmetry_cell_setting 'monoclinic'
loop_
_space_group_symop_operation_xyz
x,y,z
-x,1/2+y,-z
-x,-y,-z
x,1/2-y,z
loop_
_atom_site_type_symbol
_atom_site_label
_atom_site_fract_x
_atom_site_fract_y
_atom_site_fract_z
Si Si1 0.098479 0.961093 0.360408
Si Si2 0.770111 0.965322 0.093941
Si Si3 0.002117 0.387325 0.056847
Si Si4 0.160482 0.250000 0.049073
Si Si5 0.528095 0.335064 0.344467
Si Si6 0.941827 0.377102 0.635301
Si Si7 0.495996 0.250000 0.331035
Si Si8 0.514043 0.673815 0.101300
O O1 0.426581 0.970147 0.177255
O O2 0.833470 0.954561 0.296073
O O3 0.127171 0.918164 0.442996
O O4 0.000000 0.000000 0.500000
O O5 0.896669 0.930265 0.925902
O O6 0.000000 0.000000 0.000000
O O7 0.866776 0.388259 0.885460
O O8 0.286073 0.362780 0.927457
O O9 0.815155 0.361627 0.264666
O O10 0.307895 0.212191 0.914795
O O11 0.242500 0.250000 0.251484
O O12 0.818213 0.250000 0.131164
O O13 0.265461 0.363095 0.485680
O O14 0.492291 0.291653 0.438767
O O15 0.534447 0.325308 0.112790
O O16 0.761628 0.336968 0.681183
#
# Coordination Sequence:
#
# PCOD9163831 Si02
#       8
#     4   4   4   2   4   4   2   4
#     4  11  24  43  62  93 128 161 205 260 312 368
#     4  11  24  42  65  92 126 161 210 255 309 378
#     4  10  21  40  62  89 124 161 207 256 308 368
#     4  10  20  37  65  86 125 164 202 256 314 361
#     4  10  22  38  64  87 124 166 204 253 315 362
#     4  10  23  40  61  92 125 159 210 258 303 375
#     4  10  20  39  59  94 123 158 212 256 298 377
#     4  10  20  40  61  87 121 163 204 253 308 366
#
# _framework density 25.303117
#
# number of rings (size 3 to 8) (size 9 to 14) (size 15 to 20)
#    0.000    1.714    2.857    0.857    2.000    2.857 
#    0.000    1.429    0.000    0.000    0.000    0.000 
#    0.000    0.000    0.000    0.000    0.000    0.000 
#
# Total GULP energy -156182.456968 kJ/mol
# GULP energy per Si atom -5577.944892 kJ/mol
# Density = 2.524553 g / cm^3
# Si number density = 25.303117 Si / 1000 Ang^3
#
#
#
# Elastic Constant Matrix: (Units=GPa)
#
#
# Indices 1 2 3 4 5 6 
#
# 1 84.6317 10.8672 21.2012 0.0000 -24.8074 0.0000
# 2 10.8672 178.3275 25.3049 0.0000 -12.1705 0.0000
# 3 21.2012 25.3049 86.8774 0.0000 -11.9530 0.0000
# 4 0.0000 0.0000 0.0000 96.3951 0.0000 -24.2566
# 5 -24.8074 -12.1705 -11.9530 0.0000 41.8428 0.0000
# 6 0.0000 0.0000 0.0000 -24.2566 0.0000 44.7325
#
#
#
# Elastic Compliance Matrix: (Units=1/GPa)
#
#
# Indices 1 2 3 4 5 6 
#
# 1 0.014807 0.000003 -0.002505 0.000000 0.008064 0.000000
# 2 0.000003 0.005914 -0.001547 0.000000 0.001280 0.000000
# 3 -0.002505 -0.001547 0.012810 0.000000 0.001724 0.000000
# 4 0.000000 0.000000 0.000000 0.012013 0.000000 0.006514
# 5 0.008064 0.001280 0.001724 0.000000 0.029545 0.000000
# 6 0.000000 0.000000 0.000000 0.006514 0.000000 0.025888
#
#
# Mechanical properties :
#
#
# Convention : Reuss Voigt Hill
#
# Bulk Modulus (GPa) = 39.31884 51.62037 45.46960
# Shear Modulus (GPa) = 42.53452 56.09163 49.31308
#
# Velocity S-wave (km/s) = 4.10445 4.71338 4.41942
# Velocity P-wave (km/s) = 6.16724 7.07576 6.63706
#
# Compressibility (1/GPa) = 0.02543310
#
# Stress axis : x y z
#
# Youngs Moduli (GPa) = 67.53715 169.07872 78.06599
#
# Poissons Ratio (x) = -0.00059 0.19555
# Poissons Ratio (y) = -0.00024 0.12080
# Poissons Ratio (z) = 0.16917 0.26163
#
# Static dielectric constant tensor:
#      x y z
#    x 2.080490 0.000000 0.177540 
#    y 0.000000 2.085150 0.000000 
#    z 0.177540 0.000000 2.089740 
# 
# From -- ./inp_files/10824.got.cif
#   From: 2010.05.17/outbox.cif.g08.bks.cpg/sg11_6_cif.got.tgz:10824.got - 2010.06.03 12:22:45.
