data_PCOD9163379
_publ_section_title
;
Structure prediction by ZEFSAII (Michael W. Deem and Ramdas Pophale) SiO2 
 PCOD9163379
Probable space group: P 21/M
;
_chemical_formula_sum "Si O2"
_cell_formula_units_Z 20
_cell_length_a 12.002443
_cell_length_b 14.419252
_cell_length_c 6.289313
_cell_angle_alpha 90.000000
_cell_angle_beta 62.397253
_cell_angle_gamma 90.000000
_cell_volume 964.579897
_symmetry_space_group_name_H-M "P 21/M"
_symmetry_group_IT_number 11
_symmetry_cell_setting 'monoclinic'
loop_
_space_group_symop_operation_xyz
x,y,z
-x,1/2+y,-z
-x,-y,-z
x,1/2-y,z
loop_
_atom_site_type_symbol
_atom_site_label
_atom_site_fract_x
_atom_site_fract_y
_atom_site_fract_z
Si Si1 0.741761 0.990546 0.260388
Si Si2 0.864085 0.902084 0.777823
Si Si3 0.134100 0.593334 0.468052
Si Si4 0.632401 0.646281 0.685080
Si Si5 0.352048 0.646851 0.979944
O O1 0.648648 0.932988 0.494188
O O2 0.830708 0.049411 0.336931
O O3 0.678207 0.063639 0.156210
O O4 0.821388 0.914663 0.057653
O O5 0.748688 0.862621 0.744112
O O6 0.999583 0.857728 0.612672
O O7 0.880809 0.007807 0.682167
O O8 0.254465 0.643778 0.261548
O O9 0.635338 0.750000 0.588524
O O10 0.497497 0.635477 0.917528
O O11 0.339673 0.750000 0.891450
#
# Coordination Sequence:
#
# PCOD9163379 Si02
#       5
#     4   4   4   4   4
#     4  10  20  36  62  86 112 150 194 240 286 338
#     4   9  19  36  57  81 110 144 184 233 287 341
#     4   9  19  36  57  81 110 144 184 233 287 341
#     4  10  22  38  56  83 118 154 194 239 287 341
#     4  10  22  38  56  83 118 154 194 239 287 341
#
# _framework density 20.734413
#
# number of rings (size 3 to 8) (size 9 to 14) (size 15 to 20)
#    0.000    2.400    0.000    1.200    0.000   12.800 
#    0.000    4.000    0.000    0.000    0.000    0.000 
#    0.000    0.000    0.000    0.000    0.000    0.000 
#
# Total GULP energy -111448.503675 kJ/mol
# GULP energy per Si atom -5572.425184 kJ/mol
# Density = 2.068722 g / cm^3
# Si number density = 20.734413 Si / 1000 Ang^3
#
#
#
# Elastic Constant Matrix: (Units=GPa)
#
#
# Indices 1 2 3 4 5 6 
#
# 1 126.0878 30.0494 76.6529 0.0000 -47.8742 0.0000
# 2 30.0494 82.3828 28.9120 0.0000 -16.9316 0.0000
# 3 76.6529 28.9120 90.2080 0.0000 -19.8271 0.0000
# 4 0.0000 0.0000 0.0000 10.3962 0.0000 -3.4479
# 5 -47.8742 -16.9316 -19.8271 0.0000 35.8168 0.0000
# 6 0.0000 0.0000 0.0000 -3.4479 0.0000 39.4414
#
#
#
# Elastic Compliance Matrix: (Units=1/GPa)
#
#
# Indices 1 2 3 4 5 6 
#
# 1 0.033332 0.002372 -0.021683 0.000000 0.033671 0.000000
# 2 0.002372 0.014545 -0.005088 0.000000 0.007229 0.000000
# 3 -0.021683 -0.005088 0.027600 0.000000 -0.016109 0.000000
# 4 0.000000 0.000000 0.000000 0.099061 0.000000 0.008660
# 5 0.033671 0.007229 -0.016109 0.000000 0.067426 0.000000
# 6 0.000000 0.000000 0.000000 0.008660 0.000000 0.026111
#
#
# Mechanical properties :
#
#
# Convention : Reuss Voigt Hill
#
# Bulk Modulus (GPa) = 37.48300 63.32303 50.40301
# Shear Modulus (GPa) = 15.34843 28.00183 21.67513
#
# Velocity S-wave (km/s) = 2.72369 3.67890 3.23673
# Velocity P-wave (km/s) = 5.29228 6.97511 6.19114
#
# Compressibility (1/GPa) = 0.02667876
#
# Stress axis : x y z
#
# Youngs Moduli (GPa) = 30.00129 68.75317 36.23155
#
# Poissons Ratio (x) = -0.16306 0.78560
# Poissons Ratio (y) = -0.07116 0.18435
# Poissons Ratio (z) = 0.65051 0.34982
#
# Static dielectric constant tensor:
#      x y z
#    x 1.757380 0.000000 -0.046010 
#    y 0.000000 1.876260 0.000000 
#    z -0.046010 0.000000 1.754430 
# 
# From -- ./inp_files/4241.got.cif
#   From: 2010.05.17/outbox.cif.g08.bks.cpg/sg11_3_cif.got.tgz:4241.got - 2010.06.03 12:22:45.
