data_PCOD9163516
_publ_section_title
;
Structure prediction by ZEFSAII (Michael W. Deem and Ramdas Pophale) SiO2 
 PCOD9163516
Probable space group: P 21/M
;
_chemical_formula_sum "Si O2"
_cell_formula_units_Z 32
_cell_length_a 19.926639
_cell_length_b 9.580553
_cell_length_c 26.168256
_cell_angle_alpha 90.000000
_cell_angle_beta 17.964937
_cell_angle_gamma 90.000000
_cell_volume 1540.859204
_symmetry_space_group_name_H-M "P 21/M"
_symmetry_group_IT_number 11
_symmetry_cell_setting 'monoclinic'
loop_
_space_group_symop_operation_xyz
x,y,z
-x,1/2+y,-z
-x,-y,-z
x,1/2-y,z
loop_
_atom_site_type_symbol
_atom_site_label
_atom_site_fract_x
_atom_site_fract_y
_atom_site_fract_z
Si Si1 0.577615 0.414923 0.656700
Si Si2 0.073523 0.092544 0.167113
Si Si3 0.669018 0.913849 0.803029
Si Si4 0.706570 0.589495 0.467650
Si Si5 0.727403 0.592237 0.868550
Si Si6 0.569553 0.416657 0.779308
Si Si7 0.069710 0.415697 0.999577
Si Si8 0.350354 0.590221 0.644289
O O1 0.623790 0.250000 0.614317
O O2 0.689332 0.511068 0.533824
O O3 0.632787 0.447981 0.675472
O O4 0.317512 0.434930 0.837171
O O5 0.024232 0.250000 0.184741
O O6 0.111045 0.098802 0.201254
O O7 0.310097 0.051914 0.973715
O O8 0.874941 0.986903 0.307505
O O9 0.659658 0.750000 0.797766
O O10 0.818219 0.932390 0.745711
O O11 0.443620 0.974466 0.990100
O O12 0.698459 0.001220 0.730061
O O13 0.771382 0.750000 0.427165
O O14 0.469697 0.584237 0.612920
O O15 0.625431 0.750000 0.940474
O O16 0.590731 0.250000 0.772532
O O17 0.039321 0.250000 0.012068
O O18 0.897861 0.454883 0.168250
O O19 0.000000 0.500000 0.000000
O O20 0.500000 0.500000 0.500000
O O21 0.357038 0.750000 0.622060
#
# Coordination Sequence:
#
# PCOD9163516 Si02
#       8
#     4   4   4   4   4   4   4   4
#     4  10  21  37  58  78 100 140 182 212 254 314
#     4   9  18  33  54  77 105 141 176 211 254 310
#     4   9  15  25  46  75 105 135 169 212 262 308
#     4  11  23  38  53  77 110 138 169 217 266 308
#     4   8  15  28  46  71 103 138 174 212 254 304
#     4   9  19  34  52  78 107 136 175 219 257 303
#     4  10  20  37  59  80 103 134 175 217 257 306
#     4  10  23  39  56  80 108 136 170 214 261 308
#
# _framework density 20.767634000000001
#
# number of rings (size 3 to 8) (size 9 to 14) (size 15 to 20)
#    0.000    2.500    1.250    1.500    1.750    4.500 
#    0.000    0.000    0.000    0.750    0.000    0.000 
#    0.000    0.000    0.000    0.000    0.000    0.000 
#
# Total GULP energy -178457.667062 kJ/mol
# GULP energy per Si atom -5576.802096 kJ/mol
# Density = 2.072037 g / cm^3
# Si number density = 20.767634 Si / 1000 Ang^3
#
#
#
# Elastic Constant Matrix: (Units=GPa)
#
#
# Indices 1 2 3 4 5 6 
#
# 1 88.3989 19.3894 -4.0100 0.0000 22.5636 0.0000
# 2 19.3894 50.3349 26.8856 0.0000 18.7984 0.0000
# 3 -4.0100 26.8856 61.4014 0.0000 19.6909 0.0000
# 4 0.0000 0.0000 0.0000 19.1545 0.0000 4.7668
# 5 22.5636 18.7984 19.6909 0.0000 25.7078 0.0000
# 6 0.0000 0.0000 0.0000 4.7668 0.0000 31.0457
#
#
#
# Elastic Compliance Matrix: (Units=1/GPa)
#
#
# Indices 1 2 3 4 5 6 
#
# 1 0.017679 -0.004592 0.009365 0.000000 -0.019331 0.000000
# 2 -0.004592 0.031293 -0.010547 0.000000 -0.010773 0.000000
# 3 0.009365 -0.010547 0.028738 0.000000 -0.022519 0.000000
# 4 0.000000 0.000000 0.000000 0.054281 0.000000 -0.008334
# 5 -0.019331 -0.010773 -0.022519 0.000000 0.080992 0.000000
# 6 0.000000 0.000000 0.000000 -0.008334 0.000000 0.033490
#
#
# Mechanical properties :
#
#
# Convention : Reuss Voigt Hill
#
# Bulk Modulus (GPa) = 15.11491 31.62946 23.37219
# Shear Modulus (GPa) = 17.85236 25.70630 21.77933
#
# Velocity S-wave (km/s) = 2.93512 3.52206 3.24190
# Velocity P-wave (km/s) = 4.33364 5.63943 5.02909
#
# Compressibility (1/GPa) = 0.06615984
#
# Stress axis : x y z
#
# Youngs Moduli (GPa) = 56.56498 31.95607 34.79756
#
# Poissons Ratio (x) = 0.14676 -0.32587
# Poissons Ratio (y) = 0.25977 0.36702
# Poissons Ratio (z) = -0.52972 0.33705
#
# Static dielectric constant tensor:
#      x y z
#    x 1.815330 0.000000 -0.017890 
#    y 0.000000 1.717890 0.000000 
#    z -0.017890 0.000000 1.749700 
# 
# From -- ./inp_files/72002.got.cif
#   From: 2010.05.17/outbox.cif.g08.bks.cpg/sg11_37_cif.got.tgz:72002.got - 2010.06.03 12:22:45.
