data_PCOD9163442
_publ_section_title
;
Structure prediction by ZEFSAII (Michael W. Deem and Ramdas Pophale) SiO2 
 PCOD9163442
Probable space group: P 21/M
;
_chemical_formula_sum "Si O2"
_cell_formula_units_Z 30
_cell_length_a 9.410220
_cell_length_b 9.156584
_cell_length_c 28.108542
_cell_angle_alpha 90.000000
_cell_angle_beta 31.645411
_cell_angle_gamma 90.000000
_cell_volume 1270.720960
_symmetry_space_group_name_H-M "P 21/M"
_symmetry_group_IT_number 11
_symmetry_cell_setting 'monoclinic'
loop_
_space_group_symop_operation_xyz
x,y,z
-x,1/2+y,-z
-x,-y,-z
x,1/2-y,z
loop_
_atom_site_type_symbol
_atom_site_label
_atom_site_fract_x
_atom_site_fract_y
_atom_site_fract_z
Si Si1 0.224563 0.077612 0.064133
Si Si2 0.998447 0.406182 0.289865
Si Si3 0.373639 0.473147 0.472065
Si Si4 0.893548 0.925633 0.078322
Si Si5 0.288699 0.580498 0.397526
Si Si6 0.061504 0.088840 0.777197
Si Si7 0.607679 0.750000 0.459351
Si Si8 0.629463 0.920331 0.725998
O O1 0.244787 0.250000 0.048711
O O2 0.020268 0.041969 0.165212
O O3 0.112959 0.981922 0.053099
O O4 0.500000 0.000000 0.000000
O O5 0.099466 0.250000 0.240985
O O6 0.057218 0.545624 0.240383
O O7 0.129470 0.416244 0.304139
O O8 0.672154 0.398828 0.382369
O O9 0.216121 0.490247 0.466965
O O10 0.450613 0.626381 0.472488
O O11 0.245471 0.375053 0.549349
O O12 0.877383 0.750000 0.079520
O O13 0.613048 0.992572 0.178664
O O14 0.000000 0.000000 0.000000
O O15 0.191983 0.750000 0.423742
O O16 0.292377 0.496620 0.345945
O O17 0.615248 0.594459 0.315576
O O18 0.964221 0.250000 0.820035
O O19 0.550812 0.750000 0.739602
#
# Coordination Sequence:
#
# PCOD9163442 Si02
#       8
#     4   4   4   4   4   4   2   4
#     4  12  25  42  64  90 122 162 204 264 318 375
#     4  10  22  39  59  90 127 163 207 258 306 365
#     4  10  20  38  64  96 122 166 200 256 300 368
#     4  12  26  46  66  90 125 168 217 264 322 384
#     4  10  20  37  60  90 123 158 206 254 304 361
#     4  10  21  37  61  88 119 154 208 259 310 363
#     4  10  20  36  66  96 126 156 206 246 310 364
#     4  11  24  40  63  90 125 170 212 258 312 375
#
# _framework density 23.608644999999999
#
# number of rings (size 3 to 8) (size 9 to 14) (size 15 to 20)
#    0.000    1.333    2.667    3.200    3.733    1.600 
#    0.000    0.000    0.000    4.800    0.000    0.000 
#    0.000    0.000    0.000    0.000    0.000    0.000 
#
# Total GULP energy -167145.754357 kJ/mol
# GULP energy per Si atom -5571.525145 kJ/mol
# Density = 2.355491 g / cm^3
# Si number density = 23.608645 Si / 1000 Ang^3
#
#
#
# Elastic Constant Matrix: (Units=GPa)
#
#
# Indices 1 2 3 4 5 6 
#
# 1 124.5678 36.5358 1.2904 0.0000 40.0435 0.0000
# 2 36.5358 222.7513 34.6264 0.0000 25.2904 0.0000
# 3 1.2904 34.6264 80.7250 0.0000 18.0005 0.0000
# 4 0.0000 0.0000 0.0000 131.1411 0.0000 18.0765
# 5 40.0435 25.2904 18.0005 0.0000 32.9405 0.0000
# 6 0.0000 0.0000 0.0000 18.0765 0.0000 32.6123
#
#
#
# Elastic Compliance Matrix: (Units=1/GPa)
#
#
# Indices 1 2 3 4 5 6 
#
# 1 0.014451 -0.000867 0.004452 0.000000 -0.019335 0.000000
# 2 -0.000867 0.005122 -0.001755 0.000000 -0.001919 0.000000
# 3 0.004452 -0.001755 0.015915 0.000000 -0.012762 0.000000
# 4 0.000000 0.000000 0.000000 0.008256 0.000000 -0.004576
# 5 -0.019335 -0.001919 -0.012762 0.000000 0.062309 0.000000
# 6 0.000000 0.000000 0.000000 -0.004576 0.000000 0.033200
#
#
# Mechanical properties :
#
#
# Convention : Reuss Voigt Hill
#
# Bulk Modulus (GPa) = 25.54395 63.66102 44.60249
# Shear Modulus (GPa) = 33.63755 63.04487 48.34121
#
# Velocity S-wave (km/s) = 3.77874 5.17321 4.52996
# Velocity P-wave (km/s) = 5.46642 7.91874 6.80398
#
# Compressibility (1/GPa) = 0.03914821
#
# Stress axis : x y z
#
# Youngs Moduli (GPa) = 69.19805 195.22365 62.83315
#
# Poissons Ratio (x) = 0.16931 -0.27975
# Poissons Ratio (y) = 0.06001 0.11029
# Poissons Ratio (z) = -0.30809 0.34269
#
# Static dielectric constant tensor:
#      x y z
#    x 0.885810 0.000000 0.055160 
#    y 0.000000 1.868610 0.000000 
#    z 0.055160 0.000000 2.167690 
# 
# From -- ./inp_files/70688.got.cif
#   From: 2010.05.17/outbox.cif.g08.bks.cpg/sg11_36_cif.got.tgz:70688.got - 2010.06.03 12:22:45.
