data_PCOD9163147
_publ_section_title
;
Structure prediction by ZEFSAII (Michael W. Deem and Ramdas Pophale) SiO2 
 PCOD9163147
Probable space group: P 21/M
;
_chemical_formula_sum "Si O2"
_cell_formula_units_Z 32
_cell_length_a 11.503605
_cell_length_b 8.734790
_cell_length_c 22.984737
_cell_angle_alpha 90.000000
_cell_angle_beta 48.067377
_cell_angle_gamma 90.000000
_cell_volume 1718.140705
_symmetry_space_group_name_H-M "P 21/M"
_symmetry_group_IT_number 11
_symmetry_cell_setting 'monoclinic'
loop_
_space_group_symop_operation_xyz
x,y,z
-x,1/2+y,-z
-x,-y,-z
x,1/2-y,z
loop_
_atom_site_type_symbol
_atom_site_label
_atom_site_fract_x
_atom_site_fract_y
_atom_site_fract_z
Si Si1 0.413304 0.433914 0.857691
Si Si2 0.028665 0.066383 0.676930
Si Si3 0.391289 0.066976 0.379702
Si Si4 0.032935 0.064760 0.175915
Si Si5 0.743074 0.433994 0.689817
Si Si6 0.653568 0.432224 0.478824
Si Si7 0.639413 0.564921 0.992462
Si Si8 0.721207 0.434124 0.212053
O O1 0.400043 0.250000 0.860840
O O2 0.590772 0.473191 0.779658
O O3 0.303081 0.500839 0.844343
O O4 0.377047 0.486499 0.935047
O O5 0.040434 0.250000 0.673995
O O6 0.898627 0.023758 0.672432
O O7 0.976069 0.006895 0.757344
O O8 0.193782 0.994881 0.604561
O O9 0.386923 0.250000 0.388476
O O10 0.567625 0.021899 0.300929
O O11 0.280522 0.016008 0.363796
O O12 0.346043 0.987078 0.454621
O O13 0.028966 0.250000 0.182245
O O14 0.880429 0.016995 0.190023
O O15 0.193151 0.021396 0.090225
O O16 0.742031 0.250000 0.681376
O O17 0.500000 0.500000 0.500000
O O18 0.649968 0.250000 0.476618
O O19 0.629470 0.750000 0.995334
O O20 0.500000 0.500000 0.000000
O O21 0.721390 0.250000 0.208514
#
# Coordination Sequence:
#
# PCOD9163147 Si02
#       8
#     4   4   4   4   4   4   4   4
#     4   9  18  34  55  80 111 146 185 229 276 327
#     4  11  23  39  60  85 113 148 191 235 282 335
#     4  10  20  36  59  85 113 147 188 232 281 336
#     4  10  21  37  56  80 113 149 186 233 288 340
#     4   9  19  36  57  81 112 149 188 232 281 334
#     4  12  25  41  61  85 115 149 187 232 282 335
#     4  10  21  36  55  80 111 148 188 233 284 335
#     4   9  19  35  55  80 110 144 182 226 277 334
#
# _framework density 18.624783000000001
#
# number of rings (size 3 to 8) (size 9 to 14) (size 15 to 20)
#    0.000    2.000    0.000    3.375    0.000    6.000 
#    0.000    2.500    0.000    0.000    0.000    0.000 
#    0.000    0.000    0.000    0.000    0.000    0.000 
#
# Total GULP energy -178788.234127 kJ/mol
# GULP energy per Si atom -5587.132316 kJ/mol
# Density = 1.858239 g / cm^3
# Si number density = 18.624783 Si / 1000 Ang^3
#
#
#
# Elastic Constant Matrix: (Units=GPa)
#
#
# Indices 1 2 3 4 5 6 
#
# 1 79.3091 26.4591 10.0559 0.0000 -7.0453 0.0000
# 2 26.4591 34.1611 26.2621 0.0000 -0.6095 0.0000
# 3 10.0559 26.2621 80.9869 0.0000 12.6930 0.0000
# 4 0.0000 0.0000 0.0000 27.4507 0.0000 7.2308
# 5 -7.0453 -0.6095 12.6930 0.0000 26.3294 0.0000
# 6 0.0000 0.0000 0.0000 7.2308 0.0000 33.6061
#
#
#
# Elastic Compliance Matrix: (Units=1/GPa)
#
#
# Indices 1 2 3 4 5 6 
#
# 1 0.017771 -0.015469 0.002294 0.000000 0.003291 0.000000
# 2 -0.015469 0.053906 -0.016341 0.000000 0.004986 0.000000
# 3 0.002294 -0.016341 0.018741 0.000000 -0.008799 0.000000
# 4 0.000000 0.000000 0.000000 0.038618 0.000000 -0.008309
# 5 0.003291 0.004986 -0.008799 0.000000 0.043219 0.000000
# 6 0.000000 0.000000 0.000000 -0.008309 0.000000 0.031544
#
#
# Mechanical properties :
#
#
# Convention : Reuss Voigt Hill
#
# Bulk Modulus (GPa) = 31.86210 35.55679 33.70945
# Shear Modulus (GPa) = 18.29531 26.25590 22.27560
#
# Velocity S-wave (km/s) = 3.13758 3.75871 3.46210
# Velocity P-wave (km/s) = 5.50185 6.16196 5.84124
#
# Compressibility (1/GPa) = 0.03138525
#
# Stress axis : x y z
#
# Youngs Moduli (GPa) = 56.27051 18.55073 53.35885
#
# Poissons Ratio (x) = 0.28697 -0.12240
# Poissons Ratio (y) = 0.87046 0.87195
# Poissons Ratio (z) = -0.12908 0.30314
#
# Static dielectric constant tensor:
#      x y z
#    x 1.619070 0.000000 -0.007280 
#    y 0.000000 1.626980 0.000000 
#    z -0.007280 0.000000 1.622070 
# 
# From -- ./inp_files/64352.got.cif
#   From: 2010.05.17/outbox.cif.g08.bks.cpg/sg11_33_cif.got.tgz:64352.got - 2010.06.03 12:22:45.
