data_PCOD9163807
_publ_section_title
;
Structure prediction by ZEFSAII (Michael W. Deem and Ramdas Pophale) SiO2 
 PCOD9163807
Probable space group: P 21/M
;
_chemical_formula_sum "Si O2"
_cell_formula_units_Z 24
_cell_length_a 9.735182
_cell_length_b 18.831656
_cell_length_c 11.127781
_cell_angle_alpha 90.000000
_cell_angle_beta 149.468410
_cell_angle_gamma 90.000000
_cell_volume 1036.373448
_symmetry_space_group_name_H-M "P 21/M"
_symmetry_group_IT_number 11
_symmetry_cell_setting 'monoclinic'
loop_
_space_group_symop_operation_xyz
x,y,z
-x,1/2+y,-z
-x,-y,-z
x,1/2-y,z
loop_
_atom_site_type_symbol
_atom_site_label
_atom_site_fract_x
_atom_site_fract_y
_atom_site_fract_z
Si Si1 0.460487 0.330293 0.708439
Si Si2 0.094535 0.428257 0.001416
Si Si3 0.068406 0.827311 0.520671
Si Si4 0.705082 0.400033 0.098602
Si Si5 0.155233 0.454001 0.777775
Si Si6 0.498135 0.086662 0.504221
O O1 0.524008 0.250000 0.717664
O O2 0.212153 0.325033 0.615067
O O3 0.381725 0.379678 0.538064
O O4 0.706882 0.365335 0.969260
O O5 0.223494 0.446292 0.969889
O O6 0.812708 0.390921 0.752717
O O7 0.312920 0.391452 0.252068
O O8 0.000000 0.500000 0.000000
O O9 0.107244 0.750000 0.492821
O O10 0.057292 0.894670 0.424073
O O11 0.281752 0.841900 0.787222
O O12 0.915163 0.463086 0.287284
O O13 0.416036 0.437958 0.893933
O O14 0.500000 0.000000 0.500000
#
# Coordination Sequence:
#
# PCOD9163807 Si02
#       6
#     4   4   4   4   4   4
#     4  10  22  39  61  92 124 161 213 268 322 384
#     4  10  22  39  62  91 123 166 209 259 310 369
#     4  10  22  38  61  90 124 164 204 265 330 385
#     4  10  20  37  63  93 121 159 206 264 329 376
#     4  10  22  37  61  93 123 158 213 264 314 387
#     4  10  22  38  62  91 124 168 213 262 313 375
#
# _framework density 23.157675999999999
#
# number of rings (size 3 to 8) (size 9 to 14) (size 15 to 20)
#    0.000    2.000    0.000    3.000    9.333    0.667 
#    0.000    1.667    0.000    0.000    0.000    0.000 
#    0.000    0.000    0.000    0.000    0.000    0.000 
#
# Total GULP energy -133845.944540 kJ/mol
# GULP energy per Si atom -5576.914356 kJ/mol
# Density = 2.310497 g / cm^3
# Si number density = 23.157676 Si / 1000 Ang^3
#
#
#
# Elastic Constant Matrix: (Units=GPa)
#
#
# Indices 1 2 3 4 5 6 
#
# 1 59.3752 26.0900 22.4156 0.0000 -21.5328 0.0000
# 2 26.0900 123.2915 31.1676 0.0000 -14.2464 0.0000
# 3 22.4156 31.1676 129.9869 0.0000 -14.9860 0.0000
# 4 0.0000 0.0000 0.0000 17.9720 0.0000 -5.9847
# 5 -21.5328 -14.2464 -14.9860 0.0000 43.3576 0.0000
# 6 0.0000 0.0000 0.0000 -5.9847 0.0000 13.1223
#
#
#
# Elastic Compliance Matrix: (Units=1/GPa)
#
#
# Indices 1 2 3 4 5 6 
#
# 1 0.022392 -0.003141 -0.002026 0.000000 0.009388 0.000000
# 2 -0.003141 0.009283 -0.001575 0.000000 0.000946 0.000000
# 3 -0.002026 -0.001575 0.008587 0.000000 0.001444 0.000000
# 4 0.000000 0.000000 0.000000 0.065606 0.000000 0.029921
# 5 0.009388 0.000946 0.001444 0.000000 0.028536 0.000000
# 6 0.000000 0.000000 0.000000 0.029921 0.000000 0.089852
#
#
# Mechanical properties :
#
#
# Convention : Reuss Voigt Hill
#
# Bulk Modulus (GPa) = 37.34567 52.44443 44.89505
# Shear Modulus (GPa) = 20.27030 30.42242 25.34636
#
# Velocity S-wave (km/s) = 2.96178 3.62844 3.31193
# Velocity P-wave (km/s) = 5.27806 6.34429 5.83558
#
# Compressibility (1/GPa) = 0.02677686
#
# Stress axis : x y z
#
# Youngs Moduli (GPa) = 44.65905 107.72278 116.46064
#
# Poissons Ratio (x) = 0.33841 0.23592
# Poissons Ratio (y) = 0.14030 0.18344
# Poissons Ratio (z) = 0.09047 0.16967
#
# Static dielectric constant tensor:
#      x y z
#    x 1.892820 0.000000 0.046860 
#    y 0.000000 1.906600 0.000000 
#    z 0.046860 0.000000 1.962720 
# 
# From -- ./inp_files/36174.got.cif
#   From: 2010.05.17/outbox.cif.g08.bks.cpg/sg11_19_cif.got.tgz:36174.got - 2010.06.03 12:22:45.
