data_PCOD9163060
_publ_section_title
;
Structure prediction by ZEFSAII (Michael W. Deem and Ramdas Pophale) SiO2 
 PCOD9163060
Probable space group: P 21/M
;
_chemical_formula_sum "Si O2"
_cell_formula_units_Z 28
_cell_length_a 12.162161
_cell_length_b 13.738469
_cell_length_c 11.590020
_cell_angle_alpha 90.000000
_cell_angle_beta 144.125013
_cell_angle_gamma 90.000000
_cell_volume 1134.866363
_symmetry_space_group_name_H-M "P 21/M"
_symmetry_group_IT_number 11
_symmetry_cell_setting 'monoclinic'
loop_
_space_group_symop_operation_xyz
x,y,z
-x,1/2+y,-z
-x,-y,-z
x,1/2-y,z
loop_
_atom_site_type_symbol
_atom_site_label
_atom_site_fract_x
_atom_site_fract_y
_atom_site_fract_z
Si Si1 0.250617 0.938272 0.711829
Si Si2 0.304328 0.634541 0.260468
Si Si3 0.036103 0.000530 0.332204
Si Si4 0.404934 0.353300 0.873094
Si Si5 0.883110 0.635352 0.802054
Si Si6 0.466781 0.059999 0.342007
Si Si7 0.766917 0.646046 0.029667
O O1 0.091976 0.951912 0.675987
O O2 0.394962 0.866071 0.894682
O O3 0.158470 0.923376 0.509171
O O4 0.354269 0.042789 0.777080
O O5 0.349219 0.750000 0.287272
O O6 0.089542 0.621820 0.036069
O O7 0.356378 0.598427 0.434813
O O8 0.434148 0.556076 0.301679
O O9 0.910162 0.940227 0.135961
O O10 0.125085 0.083072 0.329044
O O11 0.397282 0.250000 0.801928
O O12 0.261201 0.347715 0.857720
O O13 0.855802 0.750000 0.764724
O O14 0.283958 0.405605 0.260926
O O15 0.430367 0.115550 0.192843
O O16 0.829018 0.750000 0.035577
#
# Coordination Sequence:
#
# PCOD9163060 Si02
#       7
#     4   4   4   4   4   4   4
#     4   9  20  38  60  82 115 150 187 245 300 351
#     4  10  22  38  60  87 117 161 208 245 290 354
#     4  10  21  38  57  85 115 150 195 241 297 350
#     4   9  19  37  59  85 112 145 192 240 292 357
#     4  11  23  40  60  89 125 160 204 245 294 360
#     4  11  22  41  61  85 128 164 195 250 301 346
#     4  10  20  36  58  83 115 153 194 240 295 352
#
# _framework density 24.672508000000001
#
# number of rings (size 3 to 8) (size 9 to 14) (size 15 to 20)
#    0.000    2.000    1.429    1.714    0.000    4.000 
#    2.571    2.857    0.000    0.000    0.000    0.000 
#    0.000    0.000    0.000    0.000    0.000    0.000 
#
# Total GULP energy -156356.200024 kJ/mol
# GULP energy per Si atom -5584.150001 kJ/mol
# Density = 2.461635 g / cm^3
# Si number density = 24.672508 Si / 1000 Ang^3
#
#
#
# Elastic Constant Matrix: (Units=GPa)
#
#
# Indices 1 2 3 4 5 6 
#
# 1 78.7575 24.8585 21.3434 0.0000 5.2682 0.0000
# 2 24.8585 122.0770 0.1603 0.0000 8.6807 0.0000
# 3 21.3434 0.1603 96.2079 0.0000 8.1990 0.0000
# 4 0.0000 0.0000 0.0000 22.2963 0.0000 -1.4865
# 5 5.2682 8.6807 8.1990 0.0000 33.4133 0.0000
# 6 0.0000 0.0000 0.0000 -1.4865 0.0000 17.6675
#
#
#
# Elastic Compliance Matrix: (Units=1/GPa)
#
#
# Indices 1 2 3 4 5 6 
#
# 1 0.014517 -0.002898 -0.003151 0.000000 -0.000763 0.000000
# 2 -0.002898 0.008927 0.000803 0.000000 -0.002060 0.000000
# 3 -0.003151 0.000803 0.011304 0.000000 -0.002486 0.000000
# 4 0.000000 0.000000 0.000000 0.045103 0.000000 0.003795
# 5 -0.000763 -0.002060 -0.002486 0.000000 0.031193 0.000000
# 6 0.000000 0.000000 0.000000 0.003795 0.000000 0.056920
#
#
# Mechanical properties :
#
#
# Convention : Reuss Voigt Hill
#
# Bulk Modulus (GPa) = 41.22406 43.30741 42.26573
# Shear Modulus (GPa) = 26.80392 31.38746 29.09569
#
# Velocity S-wave (km/s) = 3.29962 3.57061 3.43778
# Velocity P-wave (km/s) = 5.59119 5.88133 5.73809
#
# Compressibility (1/GPa) = 0.02425768
#
# Stress axis : x y z
#
# Youngs Moduli (GPa) = 68.88641 112.01977 88.46732
#
# Poissons Ratio (x) = 0.32459 0.27873
# Poissons Ratio (y) = 0.19961 -0.07108
# Poissons Ratio (z) = 0.21704 -0.09001
#
# Static dielectric constant tensor:
#      x y z
#    x 2.027890 0.000000 0.021300 
#    y 0.000000 1.970720 0.000000 
#    z 0.021300 0.000000 2.022700 
# 
# From -- ./inp_files/21729.got.cif
#   From: 2010.05.17/outbox.cif.g08.bks.cpg/sg11_11_cif.got.tgz:21729.got - 2010.06.03 12:22:45.
