data_PCOD9163085
_publ_section_title
;
Structure prediction by ZEFSAII (Michael W. Deem and Ramdas Pophale) SiO2 
 PCOD9163085
Probable space group: P 21/M
;
_chemical_formula_sum "Si O2"
_cell_formula_units_Z 24
_cell_length_a 5.147401
_cell_length_b 16.352529
_cell_length_c 20.604871
_cell_angle_alpha 90.000000
_cell_angle_beta 138.229917
_cell_angle_gamma 90.000000
_cell_volume 1155.341526
_symmetry_space_group_name_H-M "P 21/M"
_symmetry_group_IT_number 11
_symmetry_cell_setting 'monoclinic'
loop_
_space_group_symop_operation_xyz
x,y,z
-x,1/2+y,-z
-x,-y,-z
x,1/2-y,z
loop_
_atom_site_type_symbol
_atom_site_label
_atom_site_fract_x
_atom_site_fract_y
_atom_site_fract_z
Si Si1 0.577065 0.339429 0.908395
Si Si2 0.511755 0.838983 0.955044
Si Si3 0.601677 0.441956 0.287420
Si Si4 0.869904 0.047467 0.539946
Si Si5 0.658278 0.653823 0.632869
Si Si6 0.406064 0.012719 0.113668
O O1 0.396383 0.250000 0.860576
O O2 0.605508 0.346200 0.991874
O O3 0.386262 0.424229 0.849778
O O4 0.014775 0.337524 0.960767
O O5 0.372421 0.750000 0.904885
O O6 0.391599 0.914406 0.888108
O O7 0.423726 0.394528 0.315433
O O8 0.349511 0.459801 0.176763
O O9 0.781648 0.528799 0.345383
O O10 0.957270 0.385376 0.327716
O O11 0.702817 0.133259 0.483481
O O12 0.500000 0.000000 0.500000
O O13 0.000000 0.000000 0.500000
O O14 0.695939 0.750000 0.649947
O O15 0.000000 0.000000 0.000000
#
# Coordination Sequence:
#
# PCOD9163085 Si02
#       6
#     4   4   4   4   4   4
#     4   9  18  33  50  68  92 130 181 228 261 300
#     4   9  18  31  48  69  95 131 177 223 264 304
#     4  10  21  35  54  82 114 146 182 225 272 331
#     4   8  16  33  54  75 104 138 170 213 272 328
#     4  10  20  36  58  85 111 138 177 230 287 339
#     4  10  21  36  54  77 110 153 190 223 269 324
#
# _framework density 20.773078999999999
#
# number of rings (size 3 to 8) (size 9 to 14) (size 15 to 20)
#    0.000    2.667    0.000    1.000    0.000    6.667 
#    0.000    4.167    0.000    0.000    0.000   11.667 
#    0.000    0.000    0.000    0.000    0.000    0.000 
#
# Total GULP energy -133739.851754 kJ/mol
# GULP energy per Si atom -5572.493823 kJ/mol
# Density = 2.072580 g / cm^3
# Si number density = 20.773079 Si / 1000 Ang^3
#
#
#
# Elastic Constant Matrix: (Units=GPa)
#
#
# Indices 1 2 3 4 5 6 
#
# 1 98.4119 8.0828 13.9654 0.0000 -6.8747 0.0000
# 2 8.0828 152.1227 16.6231 0.0000 -10.9177 0.0000
# 3 13.9654 16.6231 84.1097 0.0000 -9.9663 0.0000
# 4 0.0000 0.0000 0.0000 3.1998 0.0000 -11.8690
# 5 -6.8747 -10.9177 -9.9663 0.0000 18.2512 0.0000
# 6 0.0000 0.0000 0.0000 -11.8690 0.0000 19.3794
#
#
#
# Elastic Compliance Matrix: (Units=1/GPa)
#
#
# Indices 1 2 3 4 5 6 
#
# 1 0.010588 -0.000190 -0.001349 0.000000 0.003138 0.000000
# 2 -0.000190 0.006941 -0.000916 0.000000 0.003580 0.000000
# 3 -0.001349 -0.000916 0.013011 0.000000 0.006049 0.000000
# 4 0.000000 0.000000 0.000000 -0.245737 0.000000 -0.150503
# 5 0.003138 0.003580 0.006049 0.000000 0.061418 0.000000
# 6 0.000000 0.000000 0.000000 -0.150503 0.000000 -0.040575
#
#
# Mechanical properties :
#
#
# Convention : Reuss Voigt Hill
#
# Bulk Modulus (GPa) = 39.01642 45.77630 42.39636
# Shear Modulus (GPa) = -27.63925 27.89761 0.12918
#
# Velocity S-wave (km/s) = -3.65160 3.66863 0.24965
# Velocity P-wave (km/s) = 1.02178 6.32687 4.53174
#
# Compressibility (1/GPa) = 0.02563023
#
# Stress axis : x y z
#
# Youngs Moduli (GPa) = 94.45051 144.07614 76.85847
#
# Poissons Ratio (x) = 0.02737 0.10365
# Poissons Ratio (y) = 0.01794 0.07040
# Poissons Ratio (z) = 0.12737 0.13197
#
# Static dielectric constant tensor:
#      x y z
#    x 1.739970 0.000000 0.042120 
#    y 0.000000 1.822240 0.000000 
#    z 0.042120 0.000000 1.786780 
# 
# From -- ./inp_files/62916.got.cif
#   From: 2010.05.17/outbox.cif.g08.bks.cpg/sg11_32_cif.got.tgz:62916.got - 2010.06.03 12:22:45.
