data_PCOD9163725
_publ_section_title
;
Structure prediction by ZEFSAII (Michael W. Deem and Ramdas Pophale) SiO2 
 PCOD9163725
Probable space group: P 21/M
;
_chemical_formula_sum "Si O2"
_cell_formula_units_Z 28
_cell_length_a 14.440809
_cell_length_b 19.418291
_cell_length_c 7.232875
_cell_angle_alpha 90.000000
_cell_angle_beta 35.360696
_cell_angle_gamma 90.000000
_cell_volume 1173.771024
_symmetry_space_group_name_H-M "P 21/M"
_symmetry_group_IT_number 11
_symmetry_cell_setting 'monoclinic'
loop_
_space_group_symop_operation_xyz
x,y,z
-x,1/2+y,-z
-x,-y,-z
x,1/2-y,z
loop_
_atom_site_type_symbol
_atom_site_label
_atom_site_fract_x
_atom_site_fract_y
_atom_site_fract_z
Si Si1 0.980396 0.543132 0.349785
Si Si2 0.040023 0.673219 0.488634
Si Si3 0.893811 0.168204 0.209102
Si Si4 0.671653 0.823745 0.065280
Si Si5 0.711106 0.442192 0.285326
Si Si6 0.527560 0.921678 0.596537
Si Si7 0.755175 0.626498 0.529590
O O1 0.031859 0.619963 0.334518
O O2 0.000000 0.500000 0.500000
O O3 0.811072 0.553308 0.529589
O O4 0.119216 0.517720 0.990689
O O5 0.095135 0.750000 0.343462
O O6 0.119780 0.651272 0.550255
O O7 0.852393 0.678537 0.845746
O O8 0.872304 0.250000 0.221147
O O9 0.754965 0.124298 0.333672
O O10 0.077049 0.151261 0.839899
O O11 0.592321 0.750000 0.235482
O O12 0.694553 0.832188 0.807946
O O13 0.593216 0.887165 0.298820
O O14 0.657116 0.424306 0.161534
O O15 0.585510 0.500889 0.543903
O O16 0.610252 0.878055 0.622346
#
# Coordination Sequence:
#
# PCOD9163725 Si02
#       7
#     4   4   4   4   4   4   4
#     4  10  21  36  60  92 119 153 206 258 303 357
#     4   9  18  34  58  87 119 151 195 253 309 358
#     4  10  20  37  62  90 118 157 202 256 313 360
#     4  10  20  37  61  91 121 154 203 256 301 362
#     4  10  24  40  58  86 127 165 207 251 308 369
#     4  11  23  43  59  88 126 168 205 249 306 369
#     4  10  21  36  65  89 116 157 205 252 304 366
#
# _framework density 23.854738999999999
#
# number of rings (size 3 to 8) (size 9 to 14) (size 15 to 20)
#    0.000    2.000    1.429    2.143    2.000    5.714 
#    2.571    2.143    0.000    0.000    0.000    0.000 
#    0.000    0.000    0.000    0.000    0.000    0.000 
#
# Total GULP energy -156008.932658 kJ/mol
# GULP energy per Si atom -5571.747595 kJ/mol
# Density = 2.380044 g / cm^3
# Si number density = 23.854739 Si / 1000 Ang^3
#
#
#
# Elastic Constant Matrix: (Units=GPa)
#
#
# Indices 1 2 3 4 5 6 
#
# 1 161.9833 49.2459 4.7670 0.0000 10.2672 0.0000
# 2 49.2459 72.3712 7.1225 0.0000 2.6613 0.0000
# 3 4.7670 7.1225 18.8976 0.0000 1.3476 0.0000
# 4 0.0000 0.0000 0.0000 18.8374 0.0000 -4.6667
# 5 10.2672 2.6613 1.3476 0.0000 27.8319 0.0000
# 6 0.0000 0.0000 0.0000 -4.6667 0.0000 26.3560
#
#
#
# Elastic Compliance Matrix: (Units=1/GPa)
#
#
# Indices 1 2 3 4 5 6 
#
# 1 0.007944 -0.005334 0.000180 0.000000 -0.002429 0.000000
# 2 -0.005334 0.017966 -0.005463 0.000000 0.000514 0.000000
# 3 0.000180 -0.005463 0.055088 0.000000 -0.002211 0.000000
# 4 0.000000 0.000000 0.000000 0.055522 0.000000 0.009831
# 5 -0.002429 0.000514 -0.002211 0.000000 0.036884 0.000000
# 6 0.000000 0.000000 0.000000 0.009831 0.000000 0.039683
#
#
# Mechanical properties :
#
#
# Convention : Reuss Voigt Hill
#
# Bulk Modulus (GPa) = 16.73244 41.72479 29.22862
# Shear Modulus (GPa) = 19.66644 27.41283 23.53963
#
# Velocity S-wave (km/s) = 2.87439 3.39360 3.14473
# Velocity P-wave (km/s) = 4.24803 5.73450 5.04630
#
# Compressibility (1/GPa) = 0.05976413
#
# Stress axis : x y z
#
# Youngs Moduli (GPa) = 125.88557 55.66133 18.15283
#
# Poissons Ratio (x) = 0.29688 -0.00326
# Poissons Ratio (y) = 0.67145 0.09916
# Poissons Ratio (z) = -0.02262 0.30405
#
# Static dielectric constant tensor:
#      x y z
#    x 1.960480 0.000000 -0.019780 
#    y 0.000000 2.012000 0.000000 
#    z -0.019780 0.000000 1.964110 
# 
# From -- ./inp_files/22704.got.cif
#   From: 2010.05.17/outbox.cif.g08.bks.cpg/sg11_12_cif.got.tgz:22704.got - 2010.06.03 12:22:45.
