data_PCOD9163243
_publ_section_title
;
Structure prediction by ZEFSAII (Michael W. Deem and Ramdas Pophale) SiO2 
 PCOD9163243
Probable space group: P 21/M
;
_chemical_formula_sum "Si O2"
_cell_formula_units_Z 32
_cell_length_a 10.235342
_cell_length_b 18.094733
_cell_length_c 16.270928
_cell_angle_alpha 90.000000
_cell_angle_beta 143.000442
_cell_angle_gamma 90.000000
_cell_volume 1813.532905
_symmetry_space_group_name_H-M "P 21/M"
_symmetry_group_IT_number 11
_symmetry_cell_setting 'monoclinic'
loop_
_space_group_symop_operation_xyz
x,y,z
-x,1/2+y,-z
-x,-y,-z
x,1/2-y,z
loop_
_atom_site_type_symbol
_atom_site_label
_atom_site_fract_x
_atom_site_fract_y
_atom_site_fract_z
Si Si1 0.957813 0.162220 0.206987
Si Si2 0.455645 0.415900 0.200925
Si Si3 0.511949 0.415261 0.033983
Si Si4 0.583445 0.411202 0.784203
Si Si5 0.288915 0.338265 0.778188
Si Si6 0.892396 0.163009 0.466916
Si Si7 0.973654 0.662245 0.951593
Si Si8 0.248168 0.337120 0.502719
O O1 0.912550 0.250000 0.194612
O O2 0.746902 0.117736 0.129286
O O3 0.007536 0.148574 0.136865
O O4 0.158794 0.144650 0.367826
O O5 0.474091 0.409573 0.111748
O O6 0.421200 0.501181 0.207261
O O7 0.679166 0.385583 0.351655
O O8 0.253558 0.368158 0.130364
O O9 0.500000 0.500000 0.000000
O O10 0.339220 0.369856 0.892807
O O11 0.459568 0.374733 0.800413
O O12 0.445444 0.384840 0.636329
O O13 0.825754 0.379729 0.905587
O O14 0.318928 0.250000 0.790556
O O15 0.049670 0.354833 0.622583
O O16 0.834790 0.250000 0.441566
O O17 0.046366 0.152675 0.464394
O O18 0.992938 0.750000 0.974780
O O19 0.306248 0.250000 0.535806
#
# Coordination Sequence:
#
# PCOD9163243 Si02
#       8
#     4   4   4   4   4   4   4   4
#     4  10  20  37  60  83 110 149 203 245 279 342
#     4  12  24  37  58  88 127 154 186 242 309 352
#     4  12  22  36  56  89 121 151 192 245 294 347
#     4  11  21  37  58  86 118 152 196 240 293 347
#     4  10  20  36  60  85 116 154 198 242 285 342
#     4   9  19  35  55  85 117 149 190 239 293 349
#     4  11  23  40  60  82 114 158 199 239 290 352
#     4   9  18  34  60  86 109 145 199 249 280 338
#
# _framework density 17.645116999999999
#
# number of rings (size 3 to 8) (size 9 to 14) (size 15 to 20)
#    0.000    1.500    3.750    3.000    0.000    4.500 
#    0.000    1.875    0.000    1.500    0.000    0.000 
#    0.000    0.000    0.000    0.000    0.000    0.000 
#
# Total GULP energy -178752.909842 kJ/mol
# GULP energy per Si atom -5586.028433 kJ/mol
# Density = 1.760496 g / cm^3
# Si number density = 17.645117 Si / 1000 Ang^3
#
#
#
# Elastic Constant Matrix: (Units=GPa)
#
#
# Indices 1 2 3 4 5 6 
#
# 1 30.9348 -2.6808 1.4621 0.0000 -1.3446 0.0000
# 2 -2.6808 30.8641 11.4036 0.0000 -2.3018 0.0000
# 3 1.4621 11.4036 83.9615 0.0000 -4.7471 0.0000
# 4 0.0000 0.0000 0.0000 769.4508 0.0000 304.0796
# 5 -1.3446 -2.3018 -4.7471 0.0000 19.9656 0.0000
# 6 0.0000 0.0000 0.0000 304.0796 0.0000 146.1104
#
#
#
# Elastic Compliance Matrix: (Units=1/GPa)
#
#
# Indices 1 2 3 4 5 6 
#
# 1 0.032762 0.003353 -0.000891 0.000000 0.002381 0.000000
# 2 0.003353 0.034618 -0.004583 0.000000 0.003127 0.000000
# 3 -0.000891 -0.004583 0.012686 0.000000 0.002428 0.000000
# 4 0.000000 0.000000 0.000000 0.007320 0.000000 -0.015234
# 5 0.002381 0.003127 0.002428 0.000000 0.051184 0.000000
# 6 0.000000 0.000000 0.000000 -0.015234 0.000000 0.038549
#
#
# Mechanical properties :
#
#
# Convention : Reuss Voigt Hill
#
# Bulk Modulus (GPa) = 13.18886 18.45891 15.82389
# Shear Modulus (GPa) = 24.19703 196.14373 110.17038
#
# Velocity S-wave (km/s) = 3.70715 10.55470 7.91027
# Velocity P-wave (km/s) = 5.08081 12.61029 9.61338
#
# Compressibility (1/GPa) = 0.07582156
#
# Stress axis : x y z
#
# Youngs Moduli (GPa) = 30.52297 28.88670 78.83011
#
# Poissons Ratio (x) = -0.09684 0.07026
# Poissons Ratio (y) = -0.10233 0.36131
# Poissons Ratio (z) = 0.02720 0.13240
#
# Static dielectric constant tensor:
#      x y z
#    x 1.571950 0.000000 -0.015500 
#    y 0.000000 1.585310 0.000000 
#    z -0.015500 0.000000 1.607720 
# 
# From -- ./inp_files/59644.got.cif
#   From: 2010.05.17/outbox.cif.g08.bks.cpg/sg11_30_cif.got.tgz:59644.got - 2010.06.03 12:22:45.
