data_PCOD9163670
_publ_section_title
;
Structure prediction by ZEFSAII (Michael W. Deem and Ramdas Pophale) SiO2 
 PCOD9163670
Probable space group: P 21/M
;
_chemical_formula_sum "Si O2"
_cell_formula_units_Z 28
_cell_length_a 29.051247
_cell_length_b 8.826892
_cell_length_c 8.020920
_cell_angle_alpha 90.000000
_cell_angle_beta 135.502269
_cell_angle_gamma 90.000000
_cell_volume 1441.587721
_symmetry_space_group_name_H-M "P 21/M"
_symmetry_group_IT_number 11
_symmetry_cell_setting 'monoclinic'
loop_
_space_group_symop_operation_xyz
x,y,z
-x,1/2+y,-z
-x,-y,-z
x,1/2-y,z
loop_
_atom_site_type_symbol
_atom_site_label
_atom_site_fract_x
_atom_site_fract_y
_atom_site_fract_z
Si Si1 0.067165 0.921459 0.623696
Si Si2 0.650721 0.066396 0.538039
Si Si3 0.796246 0.569454 0.424371
Si Si4 0.791691 0.065359 0.040663
Si Si5 0.664086 0.066931 0.206474
Si Si6 0.428262 0.566547 0.342321
Si Si7 0.068019 0.577214 0.223587
O O1 0.063506 0.750000 0.677209
O O2 0.138742 0.985309 0.858977
O O3 0.070403 0.920377 0.431053
O O4 0.000000 0.000000 0.500000
O O5 0.648770 0.250000 0.538085
O O6 0.633828 0.020718 0.306346
O O7 0.603926 0.013781 0.566481
O O8 0.726048 0.023805 0.772764
O O9 0.795271 0.750000 0.417773
O O10 0.786748 0.503057 0.212920
O O11 0.735942 0.504034 0.373368
O O12 0.867257 0.510805 0.667987
O O13 0.794206 0.250000 0.061695
O O14 0.670648 0.250000 0.220615
O O15 0.619435 0.023032 0.933908
O O16 0.500000 0.500000 0.500000
O O17 0.431593 0.750000 0.352934
O O18 0.070040 0.750000 0.168540
O O19 0.000000 0.500000 0.000000
#
# Coordination Sequence:
#
# PCOD9163670 Si02
#       7
#     4   4   4   4   4   4   4
#     4   9  19  32  50  75 107 144 184 232 283 338
#     4   9  18  35  61  87 110 147 198 240 283 345
#     4  11  21  34  55  83 113 148 190 239 294 348
#     4   9  17  35  57  77 105 147 194 236 283 345
#     4  10  20  37  61  86 114 153 197 239 286 342
#     4  10  21  38  60  86 119 155 192 237 290 350
#     4  10  21  37  55  78 110 150 194 240 290 344
#
# _framework density 19.423030000000001
#
# number of rings (size 3 to 8) (size 9 to 14) (size 15 to 20)
#    0.000    2.286    1.429    2.571    0.000    5.143 
#    0.000    2.857    0.000    0.000    0.000    0.000 
#    0.000    0.000    0.000    0.000    0.000    0.000 
#
# Total GULP energy -156228.803823 kJ/mol
# GULP energy per Si atom -5579.600137 kJ/mol
# Density = 1.937882 g / cm^3
# Si number density = 19.423030 Si / 1000 Ang^3
#
#
#
# Elastic Constant Matrix: (Units=GPa)
#
#
# Indices 1 2 3 4 5 6 
#
# 1 154.1695 29.0823 65.9474 0.0000 16.7389 0.0000
# 2 29.0823 38.4301 27.1749 0.0000 4.7886 0.0000
# 3 65.9474 27.1749 78.9813 0.0000 15.2323 0.0000
# 4 0.0000 0.0000 0.0000 20.8345 0.0000 11.9669
# 5 16.7389 4.7886 15.2323 0.0000 33.2667 0.0000
# 6 0.0000 0.0000 0.0000 11.9669 0.0000 26.4054
#
#
#
# Elastic Compliance Matrix: (Units=1/GPa)
#
#
# Indices 1 2 3 4 5 6 
#
# 1 0.010294 -0.002285 -0.007540 0.000000 -0.001399 0.000000
# 2 -0.002285 0.034903 -0.010260 0.000000 0.000823 0.000000
# 3 -0.007540 -0.010260 0.023550 0.000000 -0.005512 0.000000
# 4 0.000000 0.000000 0.000000 0.064888 0.000000 -0.029407
# 5 -0.001399 0.000823 -0.005512 0.000000 0.033169 0.000000
# 6 0.000000 0.000000 0.000000 -0.029407 0.000000 0.051198
#
#
# Mechanical properties :
#
#
# Convention : Reuss Voigt Hill
#
# Bulk Modulus (GPa) = 34.99166 57.33225 46.16195
# Shear Modulus (GPa) = 18.67776 26.05974 22.36875
#
# Velocity S-wave (km/s) = 3.10438 3.66689 3.39730
# Velocity P-wave (km/s) = 5.55916 6.89274 6.26155
#
# Compressibility (1/GPa) = 0.02857824
#
# Stress axis : x y z
#
# Youngs Moduli (GPa) = 97.14039 28.65110 42.46279
#
# Poissons Ratio (x) = 0.06545 0.32016
# Poissons Ratio (y) = 0.22192 0.43567
# Poissons Ratio (z) = 0.73242 0.29396
#
# Static dielectric constant tensor:
#      x y z
#    x 1.691820 0.000000 -0.016950 
#    y 0.000000 1.661490 0.000000 
#    z -0.016950 0.000000 1.692250 
# 
# From -- ./inp_files/29113.got.cif
#   From: 2010.05.17/outbox.cif.g08.bks.cpg/sg11_15_cif.got.tgz:29113.got - 2010.06.03 12:22:45.
