data_PCOD9163256
_publ_section_title
;
Structure prediction by ZEFSAII (Michael W. Deem and Ramdas Pophale) SiO2 
 PCOD9163256
Probable space group: P 21/M
;
_chemical_formula_sum "Si O2"
_cell_formula_units_Z 28
_cell_length_a 21.555201
_cell_length_b 10.750789
_cell_length_c 18.538070
_cell_angle_alpha 90.000000
_cell_angle_beta 19.296208
_cell_angle_gamma 90.000000
_cell_volume 1419.597493
_symmetry_space_group_name_H-M "P 21/M"
_symmetry_group_IT_number 11
_symmetry_cell_setting 'monoclinic'
loop_
_space_group_symop_operation_xyz
x,y,z
-x,1/2+y,-z
-x,-y,-z
x,1/2-y,z
loop_
_atom_site_type_symbol
_atom_site_label
_atom_site_fract_x
_atom_site_fract_y
_atom_site_fract_z
Si Si1 0.318604 0.891919 0.267807
Si Si2 0.865178 0.387405 0.671066
Si Si3 0.402188 0.895370 0.655839
Si Si4 0.939250 0.006602 0.734779
Si Si5 0.593808 0.893311 0.602634
Si Si6 0.576550 0.887353 0.113061
Si Si7 0.969467 0.102615 0.862384
O O1 0.258643 0.750000 0.349531
O O2 0.313560 0.900085 0.186411
O O3 0.505992 0.907465 0.108550
O O4 0.154694 0.979911 0.478229
O O5 0.945192 0.250000 0.567725
O O6 0.852328 0.398249 0.771298
O O7 0.000000 0.500000 0.500000
O O8 0.412846 0.750000 0.618160
O O9 0.498501 0.897070 0.629006
O O10 0.500000 0.000000 0.500000
O O11 0.185504 0.932437 0.908498
O O12 0.929331 0.044510 0.828431
O O13 0.800241 0.891975 0.874264
O O14 0.572748 0.750000 0.653463
O O15 0.815600 0.920480 0.352730
O O16 0.505218 0.999614 0.750113
O O17 0.509374 0.750000 0.210054
O O18 0.946560 0.250000 0.877952
#
# Coordination Sequence:
#
# PCOD9163256 Si02
#       7
#     4   4   4   4   4   4   4
#     4   9  19  36  51  76 118 153 187 243 296 337
#     4   9  19  34  55  80 113 153 196 243 295 345
#     4  10  22  41  62  88 121 151 184 231 281 340
#     4  11  19  33  58  83 112 152 198 238 287 341
#     4  10  21  39  61  87 117 151 189 235 284 338
#     4  11  22  35  56  85 117 154 194 242 292 342
#     4  10  20  36  60  86 116 151 190 235 285 333
#
# _framework density 19.7239
#
# number of rings (size 3 to 8) (size 9 to 14) (size 15 to 20)
#    0.000    2.000    2.857    0.857    0.000    2.857 
#    0.000    0.714    0.000    0.000    0.000    0.000 
#    0.000    0.000    0.000    0.000    0.000    0.000 
#
# Total GULP energy -155980.001022 kJ/mol
# GULP energy per Si atom -5570.714322 kJ/mol
# Density = 1.967901 g / cm^3
# Si number density = 19.723900 Si / 1000 Ang^3
#
#
#
# Elastic Constant Matrix: (Units=GPa)
#
#
# Indices 1 2 3 4 5 6 
#
# 1 29.4952 16.2188 0.5227 0.0000 -7.7772 0.0000
# 2 16.2188 107.0336 28.0762 0.0000 17.5445 0.0000
# 3 0.5227 28.0762 55.2584 0.0000 -3.4298 0.0000
# 4 0.0000 0.0000 0.0000 27.2249 0.0000 2.9845
# 5 -7.7772 17.5445 -3.4298 0.0000 30.6193 0.0000
# 6 0.0000 0.0000 0.0000 2.9845 0.0000 27.3892
#
#
#
# Elastic Compliance Matrix: (Units=1/GPa)
#
#
# Indices 1 2 3 4 5 6 
#
# 1 0.045225 -0.011717 0.006702 0.000000 0.018952 0.000000
# 2 -0.011717 0.015453 -0.008534 0.000000 -0.012786 0.000000
# 3 0.006702 -0.008534 0.022938 0.000000 0.009162 0.000000
# 4 0.000000 0.000000 0.000000 0.037175 0.000000 -0.004051
# 5 0.018952 -0.012786 0.009162 0.000000 0.045825 0.000000
# 6 0.000000 0.000000 0.000000 -0.004051 0.000000 0.036952
#
#
# Mechanical properties :
#
#
# Convention : Reuss Voigt Hill
#
# Bulk Modulus (GPa) = 17.69380 31.26917 24.48148
# Shear Modulus (GPa) = 20.03947 26.84467 23.44207
#
# Velocity S-wave (km/s) = 3.19093 3.69321 3.45122
# Velocity P-wave (km/s) = 4.75040 5.83731 5.32168
#
# Compressibility (1/GPa) = 0.05651699
#
# Stress axis : x y z
#
# Youngs Moduli (GPa) = 22.11149 64.71260 43.59545
#
# Poissons Ratio (x) = 0.75827 -0.29218
# Poissons Ratio (y) = 0.25909 0.37205
# Poissons Ratio (z) = -0.14819 0.55227
#
# Static dielectric constant tensor:
#      x y z
#    x 1.695370 0.000000 -0.004430 
#    y 0.000000 1.713460 0.000000 
#    z -0.004430 0.000000 1.740180 
# 
# From -- ./inp_files/61458.got.cif
#   From: 2010.05.17/outbox.cif.g08.bks.cpg/sg11_31_cif.got.tgz:61458.got - 2010.06.03 12:22:45.
