data_PCOD9163022
_publ_section_title
;
Structure prediction by ZEFSAII (Michael W. Deem and Ramdas Pophale) SiO2 
 PCOD9163022
Probable space group: P 21/M
;
_chemical_formula_sum "Si O2"
_cell_formula_units_Z 32
_cell_length_a 21.173943
_cell_length_b 7.695537
_cell_length_c 26.218764
_cell_angle_alpha 90.000000
_cell_angle_beta 157.662870
_cell_angle_gamma 90.000000
_cell_volume 1623.678656
_symmetry_space_group_name_H-M "P 21/M"
_symmetry_group_IT_number 11
_symmetry_cell_setting 'monoclinic'
loop_
_space_group_symop_operation_xyz
x,y,z
-x,1/2+y,-z
-x,-y,-z
x,1/2-y,z
loop_
_atom_site_type_symbol
_atom_site_label
_atom_site_fract_x
_atom_site_fract_y
_atom_site_fract_z
Si Si1 0.162713 0.541833 0.154952
Si Si2 0.660455 0.541195 0.154754
Si Si3 0.924722 0.452270 0.799279
Si Si4 0.304734 0.951812 0.081854
Si Si5 0.818137 0.036549 0.609135
Si Si6 0.462456 0.544753 0.098696
Si Si7 0.539751 0.546587 0.695879
Si Si8 0.857283 0.961067 0.209018
O O1 0.175040 0.750000 0.166180
O O2 0.138318 0.472231 0.194180
O O3 0.324605 0.473678 0.247223
O O4 0.000000 0.500000 0.000000
O O5 0.674677 0.750000 0.169463
O O6 0.610047 0.472121 0.172983
O O7 0.813384 0.480164 0.233886
O O8 0.500000 0.500000 0.000000
O O9 0.875795 0.250000 0.763107
O O10 0.856265 0.525468 0.695067
O O11 0.124665 0.460624 0.948190
O O12 0.271755 0.750000 0.045117
O O13 0.422210 0.025313 0.124761
O O14 0.389488 0.962733 0.200022
O O15 0.819329 0.250000 0.610947
O O16 0.638908 0.979430 0.455471
O O17 0.968038 0.982710 0.683938
O O18 0.496425 0.750000 0.129571
O O19 0.291889 0.521801 0.939274
O O20 0.521786 0.750000 0.694055
O O21 0.853360 0.750000 0.205522
#
# Coordination Sequence:
#
# PCOD9163022 Si02
#       8
#     4   4   4   4   4   4   4   4
#     4  11  22  36  57  82 107 135 170 211 258 312
#     4   8  14  24  41  69 102 132 164 204 254 303
#     4  10  20  36  58  79 102 133 170 213 258 305
#     4  11  21  33  52  77 105 137 176 216 257 311
#     4   9  19  35  54  78 105 135 176 216 256 304
#     4   9  17  28  44  73 107 133 164 212 261 304
#     4  11  23  38  55  75 104 140 174 217 261 303
#     4   9  15  27  50  74  99 135 172 208 251 306
#
# _framework density 19.708333
#
# number of rings (size 3 to 8) (size 9 to 14) (size 15 to 20)
#    0.000    2.250    2.500    1.125    0.000    1.500 
#    0.000    2.500    0.000    0.750    0.000    0.000 
#    0.000    0.000    0.000    0.000    0.000    0.250 
#
# Total GULP energy -178442.161366 kJ/mol
# GULP energy per Si atom -5576.317543 kJ/mol
# Density = 1.966348 g / cm^3
# Si number density = 19.708333 Si / 1000 Ang^3
#
#
#
# Elastic Constant Matrix: (Units=GPa)
#
#
# Indices 1 2 3 4 5 6 
#
# 1 175.0143 -10.3128 39.0663 0.0000 18.0399 0.0000
# 2 -10.3128 33.8535 -14.2886 0.0000 -1.0748 0.0000
# 3 39.0663 -14.2886 74.1804 0.0000 2.9121 0.0000
# 4 0.0000 0.0000 0.0000 -7.4733 0.0000 -3.1486
# 5 18.0399 -1.0748 2.9121 0.0000 21.5693 0.0000
# 6 0.0000 0.0000 0.0000 -3.1486 0.0000 10.3031
#
#
#
# Elastic Compliance Matrix: (Units=1/GPa)
#
#
# Indices 1 2 3 4 5 6 
#
# 1 0.007064 0.000544 -0.003403 0.000000 -0.005422 0.000000
# 2 0.000544 0.032208 0.005904 0.000000 0.000353 0.000000
# 3 -0.003403 0.005904 0.016373 0.000000 0.000930 0.000000
# 4 0.000000 0.000000 0.000000 -0.118546 0.000000 -0.036227
# 5 -0.005422 0.000353 0.000930 0.000000 0.050789 0.000000
# 6 0.000000 0.000000 0.000000 -0.036227 0.000000 0.085987
#
#
# Mechanical properties :
#
#
# Convention : Reuss Voigt Hill
#
# Bulk Modulus (GPa) = 16.19846 34.66423 25.43134
# Shear Modulus (GPa) = 56.58370 22.78536 39.68453
#
# Velocity S-wave (km/s) = 5.36404 3.40388 4.49217
# Velocity P-wave (km/s) = 6.82648 5.75111 6.31174
#
# Compressibility (1/GPa) = 0.06173425
#
# Stress axis : x y z
#
# Youngs Moduli (GPa) = 141.55723 31.04858 61.07485
#
# Poissons Ratio (x) = -0.01688 0.20782
# Poissons Ratio (y) = -0.07696 -0.36056
# Poissons Ratio (z) = 0.48169 -0.18330
#
# Static dielectric constant tensor:
#      x y z
#    x 1.746130 0.000000 0.016460 
#    y 0.000000 1.734590 0.000000 
#    z 0.016460 0.000000 1.633030 
# 
# From -- ./inp_files/66396.got.cif
#   From: 2010.05.17/outbox.cif.g08.bks.cpg/sg11_34_cif.got.tgz:66396.got - 2010.06.03 12:22:45.
