data_PCOD9163422
_publ_section_title
;
Structure prediction by ZEFSAII (Michael W. Deem and Ramdas Pophale) SiO2 
 PCOD9163422
Probable space group: P 21/M
;
_chemical_formula_sum "Si O2"
_cell_formula_units_Z 20
_cell_length_a 15.407337
_cell_length_b 11.014066
_cell_length_c 12.164488
_cell_angle_alpha 90.000000
_cell_angle_beta 26.409846
_cell_angle_gamma 90.000000
_cell_volume 918.170263
_symmetry_space_group_name_H-M "P 21/M"
_symmetry_group_IT_number 11
_symmetry_cell_setting 'monoclinic'
loop_
_space_group_symop_operation_xyz
x,y,z
-x,1/2+y,-z
-x,-y,-z
x,1/2-y,z
loop_
_atom_site_type_symbol
_atom_site_label
_atom_site_fract_x
_atom_site_fract_y
_atom_site_fract_z
Si Si1 0.335976 0.973982 0.327265
Si Si2 0.712543 0.112394 0.854474
Si Si3 0.273316 0.118814 0.028093
Si Si4 0.720456 0.535734 0.224784
Si Si5 0.079326 0.383601 0.783268
O O1 0.496734 0.887358 0.200600
O O2 0.477689 0.087662 0.133393
O O3 0.176205 0.018159 0.593504
O O4 0.250181 0.914350 0.315546
O O5 0.761203 0.250000 0.830650
O O6 0.802962 0.003893 0.825519
O O7 0.193509 0.250000 0.154361
O O8 0.261503 0.104525 0.911038
O O9 0.500000 0.500000 0.500000
O O10 0.809166 0.607028 0.227198
O O11 0.855734 0.417146 0.058047
O O12 0.100562 0.250000 0.711899
#
# Coordination Sequence:
#
# PCOD9163422 Si02
#       5
#     4   4   4   4   4
#     4   9  19  34  62  93 129 164 213 259 320 382
#     4   9  18  34  63  95 128 170 214 261 321 387
#     4  10  20  36  63  93 126 169 213 261 321 384
#     4  11  23  44  62  94 127 171 218 271 327 389
#     4  11  24  41  64  95 130 171 218 273 327 389
#
# _framework density 21.782451999999999
#
# number of rings (size 3 to 8) (size 9 to 14) (size 15 to 20)
#    1.200    0.800    2.000    1.800    0.000    3.200 
#    0.000    4.000    0.000    0.000    0.000    0.000 
#    0.000    0.000    0.000    0.000    0.000    0.000 
#
# Total GULP energy -111585.842389 kJ/mol
# GULP energy per Si atom -5579.292119 kJ/mol
# Density = 2.173287 g / cm^3
# Si number density = 21.782452 Si / 1000 Ang^3
#
#
#
# Elastic Constant Matrix: (Units=GPa)
#
#
# Indices 1 2 3 4 5 6 
#
# 1 99.8297 44.9063 48.8969 0.0000 14.6729 0.0000
# 2 44.9063 158.0940 21.1530 0.0000 8.1956 0.0000
# 3 48.8969 21.1530 70.7281 0.0000 -5.9280 0.0000
# 4 0.0000 0.0000 0.0000 9.7943 0.0000 10.0625
# 5 14.6729 8.1956 -5.9280 0.0000 31.9467 0.0000
# 6 0.0000 0.0000 0.0000 10.0625 0.0000 2.7040
#
#
#
# Elastic Compliance Matrix: (Units=1/GPa)
#
#
# Indices 1 2 3 4 5 6 
#
# 1 0.019670 -0.003221 -0.013534 0.000000 -0.010720 0.000000
# 2 -0.003221 0.007256 0.000025 0.000000 -0.000378 0.000000
# 3 -0.013534 0.000025 0.024388 0.000000 0.010735 0.000000
# 4 0.000000 0.000000 0.000000 -0.036165 0.000000 0.134580
# 5 -0.010720 -0.000378 0.010735 0.000000 0.038314 0.000000
# 6 0.000000 0.000000 0.000000 0.134580 0.000000 -0.130993
#
#
# Mechanical properties :
#
#
# Convention : Reuss Voigt Hill
#
# Bulk Modulus (GPa) = 56.00896 62.06272 59.03584
# Shear Modulus (GPa) = -131.17497 23.13538 -54.01979
#
# Velocity S-wave (km/s) = -7.76860 3.26254 -4.98533
# Velocity P-wave (km/s) = 7.39592 6.53805 2.44473
#
# Compressibility (1/GPa) = 0.01785429
#
# Stress axis : x y z
#
# Youngs Moduli (GPa) = 50.83756 137.80791 41.00436
#
# Poissons Ratio (x) = 0.44385 0.55496
# Poissons Ratio (y) = 0.16374 -0.00102
# Poissons Ratio (z) = 0.68804 -0.00341
#
# Static dielectric constant tensor:
#      x y z
#    x 1.778350 0.000000 -0.002680 
#    y 0.000000 1.800710 0.000000 
#    z -0.002680 0.000000 1.775410 
# 
# From -- ./inp_files/39130.got.cif
#   From: 2010.05.17/outbox.cif.g08.bks.cpg/sg11_20_cif.got.tgz:39130.got - 2010.06.03 12:22:45.
