data_PCOD9163401
_publ_section_title
;
Structure prediction by ZEFSAII (Michael W. Deem and Ramdas Pophale) SiO2 
 PCOD9163401
Probable space group: P 21/M
;
_chemical_formula_sum "Si O2"
_cell_formula_units_Z 24
_cell_length_a 10.746796
_cell_length_b 9.332557
_cell_length_c 20.665053
_cell_angle_alpha 90.000000
_cell_angle_beta 34.140023
_cell_angle_gamma 90.000000
_cell_volume 1163.180782
_symmetry_space_group_name_H-M "P 21/M"
_symmetry_group_IT_number 11
_symmetry_cell_setting 'monoclinic'
loop_
_space_group_symop_operation_xyz
x,y,z
-x,1/2+y,-z
-x,-y,-z
x,1/2-y,z
loop_
_atom_site_type_symbol
_atom_site_label
_atom_site_fract_x
_atom_site_fract_y
_atom_site_fract_z
Si Si1 0.633948 0.083393 0.187955
Si Si2 0.156659 0.584919 0.247373
Si Si3 0.798929 0.087524 0.616064
Si Si4 0.600351 0.416726 0.046825
Si Si5 0.030016 0.584109 0.851185
Si Si6 0.724732 0.081736 0.385150
O O1 0.589571 0.250000 0.223000
O O2 0.637605 0.072616 0.108835
O O3 0.858655 0.044744 0.128453
O O4 0.433830 0.986702 0.299033
O O5 0.141335 0.750000 0.231516
O O6 0.177902 0.587669 0.316186
O O7 0.380148 0.507219 0.126633
O O8 0.937577 0.495073 0.325239
O O9 0.803522 0.250000 0.590443
O O10 0.000000 0.000000 0.500000
O O11 0.570536 0.250000 0.043050
O O12 0.823853 0.484557 0.922530
O O13 0.953455 0.750000 0.886949
O O14 0.219736 0.574579 0.715200
O O15 0.712786 0.250000 0.408226
O O16 0.500000 0.000000 0.500000
#
# Coordination Sequence:
#
# PCOD9163401 Si02
#       6
#     4   4   4   4   4   4
#     4   9  19  36  57  86 122 154 189 237 293 352
#     4  10  22  41  62  84 117 157 197 244 296 349
#     4  10  21  35  56  85 115 152 195 241 294 350
#     4  10  20  36  62  93 121 151 193 244 294 350
#     4  10  22  39  60  86 120 160 195 237 295 353
#     4  11  25  43  62  86 118 157 202 248 294 347
#
# _framework density 20.633078999999999
#
# number of rings (size 3 to 8) (size 9 to 14) (size 15 to 20)
#    0.000    2.000    0.000    2.500    2.333    5.333 
#    0.000    0.000    0.000    0.000    0.000    0.000 
#    0.000    0.000    0.000    0.000    0.000    0.000 
#
# Total GULP energy -134156.036599 kJ/mol
# GULP energy per Si atom -5589.834858 kJ/mol
# Density = 2.058612 g / cm^3
# Si number density = 20.633079 Si / 1000 Ang^3
#
#
#
# Elastic Constant Matrix: (Units=GPa)
#
#
# Indices 1 2 3 4 5 6 
#
# 1 79.0703 53.5107 21.0324 0.0000 -25.2941 0.0000
# 2 53.5107 152.8486 90.0721 0.0000 -31.1842 0.0000
# 3 21.0324 90.0721 125.8505 0.0000 -26.1505 0.0000
# 4 0.0000 0.0000 0.0000 42.2953 0.0000 -7.8100
# 5 -25.2941 -31.1842 -26.1505 0.0000 29.5952 0.0000
# 6 0.0000 0.0000 0.0000 -7.8100 0.0000 28.4523
#
#
#
# Elastic Compliance Matrix: (Units=1/GPa)
#
#
# Indices 1 2 3 4 5 6 
#
# 1 0.020790 -0.007017 0.004537 0.000000 0.014383 0.000000
# 2 -0.007017 0.014571 -0.008956 0.000000 0.001442 0.000000
# 3 0.004537 -0.008956 0.015241 0.000000 0.007907 0.000000
# 4 0.000000 0.000000 0.000000 0.024906 0.000000 0.006837
# 5 0.014383 0.001442 0.007907 0.000000 0.054589 0.000000
# 6 0.000000 0.000000 0.000000 0.006837 0.000000 0.037023
#
#
# Mechanical properties :
#
#
# Convention : Reuss Voigt Hill
#
# Bulk Modulus (GPa) = 36.06428 76.33331 56.19880
# Shear Modulus (GPa) = 25.09577 32.94550 29.02063
#
# Velocity S-wave (km/s) = 3.49132 4.00025 3.75442
# Velocity P-wave (km/s) = 5.81113 7.64277 6.78900
#
# Compressibility (1/GPa) = 0.02772827
#
# Stress axis : x y z
#
# Youngs Moduli (GPa) = 48.09910 68.62850 65.61318
#
# Poissons Ratio (x) = 0.48159 -0.29766
# Poissons Ratio (y) = 0.33753 0.58765
# Poissons Ratio (z) = -0.21820 0.61466
#
# Static dielectric constant tensor:
#      x y z
#    x 1.765200 0.000000 0.045910 
#    y 0.000000 1.704300 0.000000 
#    z 0.045910 0.000000 1.702380 
# 
# From -- ./inp_files/33739.got.cif
#   From: 2010.05.17/outbox.cif.g08.bks.cpg/sg11_17_cif.got.tgz:33739.got - 2010.06.03 12:22:45.
