data_PCOD9163250
_publ_section_title
;
Structure prediction by ZEFSAII (Michael W. Deem and Ramdas Pophale) SiO2 
 PCOD9163250
Probable space group: P 21/M
;
_chemical_formula_sum "Si O2"
_cell_formula_units_Z 32
_cell_length_a 23.826566
_cell_length_b 8.580186
_cell_length_c 14.673585
_cell_angle_alpha 90.000000
_cell_angle_beta 36.001731
_cell_angle_gamma 90.000000
_cell_volume 1763.319997
_symmetry_space_group_name_H-M "P 21/M"
_symmetry_group_IT_number 11
_symmetry_cell_setting 'monoclinic'
loop_
_space_group_symop_operation_xyz
x,y,z
-x,1/2+y,-z
-x,-y,-z
x,1/2-y,z
loop_
_atom_site_type_symbol
_atom_site_label
_atom_site_fract_x
_atom_site_fract_y
_atom_site_fract_z
Si Si1 0.308797 0.065272 0.402445
Si Si2 0.558911 0.066681 0.626100
Si Si3 0.650404 0.937385 0.039333
Si Si4 0.768532 0.435110 0.040909
Si Si5 0.395501 0.432909 0.615899
Si Si6 0.923216 0.061222 0.979500
Si Si7 0.602347 0.937008 0.899573
Si Si8 0.131965 0.935755 0.746009
O O1 0.325423 0.250000 0.392402
O O2 0.319459 0.030213 0.281372
O O3 0.392208 0.969224 0.342490
O O4 0.211320 0.018219 0.580281
O O5 0.565375 0.250000 0.595933
O O6 0.447963 0.021311 0.778760
O O7 0.615087 0.969225 0.476874
O O8 0.654990 0.750000 0.031507
O O9 0.739125 0.997479 0.981579
O O10 0.635895 0.994604 0.954868
O O11 0.772918 0.250000 0.027488
O O12 0.683625 0.481877 0.221036
O O13 0.864098 0.487916 0.967972
O O14 0.500000 0.500000 0.500000
O O15 0.392125 0.250000 0.639665
O O16 0.933885 0.250000 0.964899
O O17 0.867022 0.021912 0.147399
O O18 0.026543 0.983470 0.851007
O O19 0.592115 0.750000 0.920188
O O20 0.500000 0.000000 0.000000
O O21 0.145857 0.750000 0.721568
#
# Coordination Sequence:
#
# PCOD9163250 Si02
#       8
#     4   4   4   4   4   4   4   4
#     4  11  22  35  56  83 112 145 184 231 282 336
#     4  11  21  34  52  75 108 146 183 227 273 323
#     4  10  21  36  53  75 108 147 186 229 274 322
#     4  11  22  36  56  80 110 148 186 226 276 334
#     4  12  23  34  49  72 106 146 185 223 264 320
#     4   9  20  38  58  83 114 145 180 224 274 331
#     4  10  21  37  56  79 108 146 189 234 282 328
#     4  10  20  36  60  86 113 145 181 226 279 333
#
# _framework density 18.147584999999999
#
# number of rings (size 3 to 8) (size 9 to 14) (size 15 to 20)
#    0.000    1.500    2.500    3.375    0.000    4.000 
#    0.000    0.000    0.000    0.750    0.000    0.000 
#    0.000    0.000    0.000    0.000    0.000    0.000 
#
# Total GULP energy -178675.042040 kJ/mol
# GULP energy per Si atom -5583.595064 kJ/mol
# Density = 1.810628 g / cm^3
# Si number density = 18.147585 Si / 1000 Ang^3
#
#
#
# Elastic Constant Matrix: (Units=GPa)
#
#
# Indices 1 2 3 4 5 6 
#
# 1 137.7694 17.1733 28.7419 0.0000 8.0114 0.0000
# 2 17.1733 9.9724 14.0937 0.0000 1.9044 0.0000
# 3 28.7419 14.0937 54.8779 0.0000 4.7621 0.0000
# 4 0.0000 0.0000 0.0000 22.4021 0.0000 -1.4905
# 5 8.0114 1.9044 4.7621 0.0000 26.1316 0.0000
# 6 0.0000 0.0000 0.0000 -1.4905 0.0000 29.8013
#
#
#
# Elastic Compliance Matrix: (Units=1/GPa)
#
#
# Indices 1 2 3 4 5 6 
#
# 1 0.009359 -0.014251 -0.001101 0.000000 -0.001630 0.000000
# 2 -0.014251 0.179556 -0.038502 0.000000 -0.001701 0.000000
# 3 -0.001101 -0.038502 0.028871 0.000000 -0.002118 0.000000
# 4 0.000000 0.000000 0.000000 0.044788 0.000000 0.002240
# 5 -0.001630 -0.001701 -0.002118 0.000000 0.039277 0.000000
# 6 0.000000 0.000000 0.000000 0.002240 0.000000 0.033668
#
#
# Mechanical properties :
#
#
# Convention : Reuss Voigt Hill
#
# Bulk Modulus (GPa) = 9.08436 35.84858 22.46647
# Shear Modulus (GPa) = 10.41842 25.17441 17.79642
#
# Velocity S-wave (km/s) = 2.39863 3.72856 3.13493
# Velocity P-wave (km/s) = 3.56201 6.19137 5.05079
#
# Compressibility (1/GPa) = 0.11007935
#
# Stress axis : x y z
#
# Youngs Moduli (GPa) = 106.84569 5.56928 34.63740
#
# Poissons Ratio (x) = 0.07937 0.03812
# Poissons Ratio (y) = 1.52263 1.33362
# Poissons Ratio (z) = 0.11759 0.21443
#
# Static dielectric constant tensor:
#      x y z
#    x 1.646480 0.000000 0.019570 
#    y 0.000000 1.623000 0.000000 
#    z 0.019570 0.000000 1.606110 
# 
# From -- ./inp_files/55615.got.cif
#   From: 2010.05.17/outbox.cif.g08.bks.cpg/sg11_28_cif.got.tgz:55615.got - 2010.06.03 12:22:45.
