data_PCOD9163533
_publ_section_title
;
Structure prediction by ZEFSAII (Michael W. Deem and Ramdas Pophale) SiO2 
 PCOD9163533
Probable space group: P 21/M
;
_chemical_formula_sum "Si O2"
_cell_formula_units_Z 28
_cell_length_a 14.043833
_cell_length_b 8.405731
_cell_length_c 14.036364
_cell_angle_alpha 90.000000
_cell_angle_beta 119.909159
_cell_angle_gamma 90.000000
_cell_volume 1436.293558
_symmetry_space_group_name_H-M "P 21/M"
_symmetry_group_IT_number 11
_symmetry_cell_setting 'monoclinic'
loop_
_space_group_symop_operation_xyz
x,y,z
-x,1/2+y,-z
-x,-y,-z
x,1/2-y,z
loop_
_atom_site_type_symbol
_atom_site_label
_atom_site_fract_x
_atom_site_fract_y
_atom_site_fract_z
Si Si1 0.094466 0.442421 0.617912
Si Si2 0.807890 0.057458 0.762524
Si Si3 0.952421 0.944191 0.189432
Si Si4 0.382499 0.940724 0.477782
Si Si5 0.240564 0.440785 0.049263
Si Si6 0.665891 0.557557 0.334012
Si Si7 0.524408 0.440732 0.906116
O O1 0.094326 0.250000 0.618133
O O2 0.071113 0.495908 0.714316
O O3 0.214239 0.495802 0.641832
O O4 0.000000 0.500000 0.500000
O O5 0.807671 0.250000 0.763551
O O6 0.713568 0.004667 0.641992
O O7 0.927930 0.004209 0.787062
O O8 0.782671 0.998513 0.855688
O O9 0.952384 0.750000 0.189620
O O10 0.856482 0.996016 0.069913
O O11 0.382748 0.750000 0.477777
O O12 0.500000 0.000000 0.500000
O O13 0.358660 0.999710 0.572152
O O14 0.241482 0.250000 0.048482
O O15 0.357695 0.501012 0.071039
O O16 0.665582 0.750000 0.334181
O O17 0.571017 0.504151 0.213893
O O18 0.523585 0.250000 0.905868
O O19 0.500000 0.500000 0.000000
#
# Coordination Sequence:
#
# PCOD9163533 Si02
#       7
#     4   4   4   4   4   4   4
#     4  10  20  37  59  83 112 147 186 230 278 332
#     4  10  21  38  58  82 113 151 191 233 280 333
#     4   9  19  37  59  81 112 151 188 227 278 335
#     4  11  23  38  59  84 113 149 190 234 283 336
#     4  11  22  37  59  86 114 148 188 233 284 336
#     4  10  22  39  59  83 115 152 189 230 280 334
#     4  11  23  40  61  85 114 150 189 231 279 334
#
# _framework density 19.494620000000001
#
# number of rings (size 3 to 8) (size 9 to 14) (size 15 to 20)
#    0.000    1.714    0.000    4.286    0.000    9.714 
#    0.000    4.286    0.000    0.000    0.000    0.000 
#    0.000    0.000    0.000    0.000    0.000    0.000 
#
# Total GULP energy -156546.987839 kJ/mol
# GULP energy per Si atom -5590.963851 kJ/mol
# Density = 1.945025 g / cm^3
# Si number density = 19.494620 Si / 1000 Ang^3
#
#
#
# Elastic Constant Matrix: (Units=GPa)
#
#
# Indices 1 2 3 4 5 6 
#
# 1 248.6677 30.7764 152.9710 0.0000 0.3843 0.0000
# 2 30.7764 18.3610 30.7422 0.0000 2.4280 0.0000
# 3 152.9710 30.7422 246.9327 0.0000 1.2685 0.0000
# 4 0.0000 0.0000 0.0000 34.6454 0.0000 -4.2516
# 5 0.3843 2.4280 1.2685 0.0000 47.1099 0.0000
# 6 0.0000 0.0000 0.0000 -4.2516 0.0000 29.6026
#
#
#
# Elastic Compliance Matrix: (Units=1/GPa)
#
#
# Indices 1 2 3 4 5 6 
#
# 1 0.006929 -0.005645 -0.003591 0.000000 0.000331 0.000000
# 2 -0.005645 0.073926 -0.005688 0.000000 -0.003611 0.000000
# 3 -0.003591 -0.005688 0.006982 0.000000 0.000134 0.000000
# 4 0.000000 0.000000 0.000000 0.029382 0.000000 0.004220
# 5 0.000331 -0.003611 0.000134 0.000000 0.021407 0.000000
# 6 0.000000 0.000000 0.000000 0.004220 0.000000 0.034387
#
#
# Mechanical properties :
#
#
# Convention : Reuss Voigt Hill
#
# Bulk Modulus (GPa) = 17.24476 104.77115 61.00796
# Shear Modulus (GPa) = 22.50328 42.23638 32.36983
#
# Velocity S-wave (km/s) = 3.40123 4.65969 4.07928
# Velocity P-wave (km/s) = 4.92845 9.10003 7.31779
#
# Compressibility (1/GPa) = 0.05798862
#
# Stress axis : x y z
#
# Youngs Moduli (GPa) = 144.32730 13.52699 143.22908
#
# Poissons Ratio (x) = 0.07636 0.51436
# Poissons Ratio (y) = 0.81469 0.81471
# Poissons Ratio (z) = 0.51830 0.07694
#
# Static dielectric constant tensor:
#      x y z
#    x 1.642950 0.000000 0.016770 
#    y 0.000000 1.681470 0.000000 
#    z 0.016770 0.000000 1.649560 
# 
# From -- ./inp_files/38477.got.cif
#   From: 2010.05.17/outbox.cif.g08.bks.cpg/sg11_20_cif.got.tgz:38477.got - 2010.06.03 12:22:45.
