data_PCOD9163738
_publ_section_title
;
Structure prediction by ZEFSAII (Michael W. Deem and Ramdas Pophale) SiO2 
 PCOD9163738
Probable space group: P 21/M
;
_chemical_formula_sum "Si O2"
_cell_formula_units_Z 24
_cell_length_a 12.344977
_cell_length_b 8.850640
_cell_length_c 24.820530
_cell_angle_alpha 90.000000
_cell_angle_beta 151.256736
_cell_angle_gamma 90.000000
_cell_volume 1304.120940
_symmetry_space_group_name_H-M "P 21/M"
_symmetry_group_IT_number 11
_symmetry_cell_setting 'monoclinic'
loop_
_space_group_symop_operation_xyz
x,y,z
-x,1/2+y,-z
-x,-y,-z
x,1/2-y,z
loop_
_atom_site_type_symbol
_atom_site_label
_atom_site_fract_x
_atom_site_fract_y
_atom_site_fract_z
Si Si1 0.321716 0.070446 0.177165
Si Si2 0.350245 0.069377 0.508943
Si Si3 0.125932 0.429304 0.973195
Si Si4 0.724376 0.430080 0.072266
Si Si5 0.843446 0.429848 0.682003
Si Si6 0.231993 0.068947 0.580306
O O1 0.322234 0.250000 0.187011
O O2 0.559191 0.999266 0.295901
O O3 0.258677 0.045298 0.087030
O O4 0.124033 0.993880 0.125855
O O5 0.324388 0.250000 0.489090
O O6 0.615142 0.034623 0.615909
O O7 0.271439 0.032264 0.534527
O O8 0.212439 0.982521 0.402946
O O9 0.113479 0.250000 0.957659
O O10 0.241389 0.510510 0.973501
O O11 0.711369 0.250000 0.067451
O O12 0.942278 0.486081 0.200412
O O13 0.500000 0.500000 0.000000
O O14 0.879924 0.250000 0.700130
O O15 0.229832 0.250000 0.584626
O O16 0.000000 0.000000 0.500000
#
# Coordination Sequence:
#
# PCOD9163738 Si02
#       6
#     4   4   4   4   4   4
#     4  10  21  38  62  89 116 150 193 239 287 340
#     4   9  20  38  59  84 114 149 188 233 284 337
#     4  10  21  39  62  88 118 151 191 238 285 338
#     4  12  25  40  59  84 117 155 194 237 288 345
#     4  10  20  37  62  88 113 145 188 237 287 340
#     4  11  23  38  57  82 117 156 193 237 287 341
#
# _framework density 18.403199999999998
#
# number of rings (size 3 to 8) (size 9 to 14) (size 15 to 20)
#    0.000    1.667    0.000    4.500    0.000    6.667 
#    0.000    1.667    0.000    0.000    0.000    0.000 
#    0.000    0.000    0.000    0.000    0.000    0.000 
#
# Total GULP energy -134185.102660 kJ/mol
# GULP energy per Si atom -5591.045944 kJ/mol
# Density = 1.836131 g / cm^3
# Si number density = 18.403200 Si / 1000 Ang^3
#
#
#
# Elastic Constant Matrix: (Units=GPa)
#
#
# Indices 1 2 3 4 5 6 
#
# 1 134.4775 99.3911 130.0014 0.0000 24.5789 0.0000
# 2 99.3911 115.7945 65.6112 0.0000 0.9128 0.0000
# 3 130.0014 65.6112 36.7134 0.0000 -4.0251 0.0000
# 4 0.0000 0.0000 0.0000 39.1791 0.0000 -0.0255
# 5 24.5789 0.9128 -4.0251 0.0000 11.1019 0.0000
# 6 0.0000 0.0000 0.0000 -0.0255 0.0000 35.1640
#
#
#
# Elastic Compliance Matrix: (Units=1/GPa)
#
#
# Indices 1 2 3 4 5 6 
#
# 1 0.000334 -0.007116 0.011994 0.000000 0.004194 0.000000
# 2 -0.007116 0.020467 -0.010245 0.000000 0.010356 0.000000
# 3 0.011994 -0.010245 0.000269 0.000000 -0.025614 0.000000
# 4 0.000000 0.000000 0.000000 0.025524 0.000000 0.000019
# 5 0.004194 0.010356 -0.025614 0.000000 0.070650 0.000000
# 6 0.000000 0.000000 0.000000 0.000019 0.000000 0.028438
#
#
# Mechanical properties :
#
#
# Convention : Reuss Voigt Hill
#
# Bulk Modulus (GPa) = 96.75028 97.44366 97.09697
# Shear Modulus (GPa) = 31.27706 16.55446 23.91576
#
# Velocity S-wave (km/s) = 4.12703 3.00249 3.60883
# Velocity P-wave (km/s) = 8.68311 8.06748 8.38095
#
# Compressibility (1/GPa) = 0.01033589
#
# Stress axis : x y z
#
# Youngs Moduli (GPa) = 2994.47578 48.85857 3721.98378
#
# Poissons Ratio (x) = 0.34767 -44.64166
# Poissons Ratio (y) = 21.30793 38.13280
# Poissons Ratio (z) = -35.91589 0.50057
#
# Static dielectric constant tensor:
#      x y z
#    x 1.609010 0.000000 -0.011700 
#    y 0.000000 1.612460 0.000000 
#    z -0.011700 0.000000 1.603740 
# 
# From -- ./inp_files/44018.got.cif
#   From: 2010.05.17/outbox.cif.g08.bks.cpg/sg11_23_cif.got.tgz:44018.got - 2010.06.03 12:22:45.
