data_PCOD9163429
_publ_section_title
;
Structure prediction by ZEFSAII (Michael W. Deem and Ramdas Pophale) SiO2 
 PCOD9163429
Probable space group: P 21/M
;
_chemical_formula_sum "Si O2"
_cell_formula_units_Z 30
_cell_length_a 8.580910
_cell_length_b 26.393208
_cell_length_c 12.119340
_cell_angle_alpha 90.000000
_cell_angle_beta 146.770990
_cell_angle_gamma 90.000000
_cell_volume 1504.092733
_symmetry_space_group_name_H-M "P 21/M"
_symmetry_group_IT_number 11
_symmetry_cell_setting 'monoclinic'
loop_
_space_group_symop_operation_xyz
x,y,z
-x,1/2+y,-z
-x,-y,-z
x,1/2-y,z
loop_
_atom_site_type_symbol
_atom_site_label
_atom_site_fract_x
_atom_site_fract_y
_atom_site_fract_z
Si Si1 0.577645 0.410992 0.828307
Si Si2 0.712200 0.001122 0.226688
Si Si3 0.779838 0.431541 0.456619
Si Si4 0.194809 0.250000 0.563761
Si Si5 0.428628 0.337571 0.546241
Si Si6 0.778695 0.614192 0.800936
Si Si7 0.907448 0.809038 0.074092
Si Si8 0.793045 0.840949 0.251802
O O1 0.430340 0.463961 0.767098
O O2 0.463704 0.385394 0.649159
O O3 0.479231 0.372926 0.868042
O O4 0.916057 0.412375 0.025239
O O5 0.011917 0.975298 0.373934
O O6 0.751776 0.054476 0.310614
O O7 0.500000 0.000000 0.000000
O O8 0.472205 0.425606 0.326570
O O9 0.944160 0.379327 0.575479
O O10 0.252568 0.294565 0.504708
O O11 0.171652 0.293880 0.646578
O O12 0.290441 0.355035 0.350735
O O13 0.750585 0.316963 0.718949
O O14 0.792524 0.653917 0.910883
O O15 0.847655 0.750000 0.014581
O O16 0.781713 0.824137 0.118339
#
# Coordination Sequence:
#
# PCOD9163429 Si02
#       8
#     4   4   4   2   4   4   4   4
#     4   9  23  41  63  93 127 167 211 264 331 375
#     4  10  23  43  70  95 129 165 211 275 330 392
#     4  10  23  41  65  97 126 166 216 260 332 381
#     4  10  20  36  64  86 126 176 204 258 324 356
#     4  10  21  41  62  88 137 170 208 265 315 382
#     4  11  24  40  66  95 129 173 214 263 319 388
#     4  11  22  39  66  92 132 174 219 260 318 376
#     4  10  20  42  63  91 130 169 215 266 316 380
#
# _framework density 19.945578999999999
#
# number of rings (size 3 to 8) (size 9 to 14) (size 15 to 20)
#    0.000    1.867    2.667    0.000    4.667    4.800 
#    1.200    1.333    0.000    0.000    0.000    0.000 
#    0.000    0.000    0.000    0.000    0.000    0.000 
#
# Total GULP energy -167008.403468 kJ/mol
# GULP energy per Si atom -5566.946782 kJ/mol
# Density = 1.990018 g / cm^3
# Si number density = 19.945579 Si / 1000 Ang^3
#
#
#
# Elastic Constant Matrix: (Units=GPa)
#
#
# Indices 1 2 3 4 5 6 
#
# 1 83.4590 24.6979 21.0024 0.0000 -9.9464 0.0000
# 2 24.6979 59.5982 20.6484 0.0000 4.2464 0.0000
# 3 21.0024 20.6484 79.6595 0.0000 -13.2335 0.0000
# 4 0.0000 0.0000 0.0000 6.3334 0.0000 -2.4446
# 5 -9.9464 4.2464 -13.2335 0.0000 39.6242 0.0000
# 6 0.0000 0.0000 0.0000 -2.4446 0.0000 27.6125
#
#
#
# Elastic Compliance Matrix: (Units=1/GPa)
#
#
# Indices 1 2 3 4 5 6 
#
# 1 0.014542 -0.005681 -0.001751 0.000000 0.003674 0.000000
# 2 -0.005681 0.021205 -0.004884 0.000000 -0.005330 0.000000
# 3 -0.001751 -0.004884 0.015135 0.000000 0.005139 0.000000
# 4 0.000000 0.000000 0.000000 0.163480 0.000000 0.014473
# 5 0.003674 -0.005330 0.005139 0.000000 0.028447 0.000000
# 6 0.000000 0.000000 0.000000 0.014473 0.000000 0.037497
#
#
# Mechanical properties :
#
#
# Convention : Reuss Voigt Hill
#
# Bulk Modulus (GPa) = 38.09669 39.49045 38.79357
# Shear Modulus (GPa) = 15.93941 25.13856 20.53899
#
# Velocity S-wave (km/s) = 2.82998 3.55400 3.21246
# Velocity P-wave (km/s) = 5.46079 6.05668 5.76643
#
# Compressibility (1/GPa) = 0.02624900
#
# Stress axis : x y z
#
# Youngs Moduli (GPa) = 68.76765 47.15796 66.07332
#
# Poissons Ratio (x) = 0.26792 0.11569
# Poissons Ratio (y) = 0.39069 0.32271
# Poissons Ratio (z) = 0.12040 0.23032
#
# Static dielectric constant tensor:
#      x y z
#    x 1.709950 0.000000 0.019100 
#    y 0.000000 1.695190 0.000000 
#    z 0.019100 0.000000 1.704180 
# 
# From -- ./inp_files/33182.got.cif
#   From: 2010.05.17/outbox.cif.g08.bks.cpg/sg11_17_cif.got.tgz:33182.got - 2010.06.03 12:22:45.
