data_PCOD9163988
_publ_section_title
;
Structure prediction by ZEFSAII (Michael W. Deem and Ramdas Pophale) SiO2 
 PCOD9163988
Probable space group: P 21/M
;
_chemical_formula_sum "Si O2"
_cell_formula_units_Z 28
_cell_length_a 9.802061
_cell_length_b 8.561072
_cell_length_c 27.788221
_cell_angle_alpha 90.000000
_cell_angle_beta 40.887769
_cell_angle_gamma 90.000000
_cell_volume 1526.401059
_symmetry_space_group_name_H-M "P 21/M"
_symmetry_group_IT_number 11
_symmetry_cell_setting 'monoclinic'
loop_
_space_group_symop_operation_xyz
x,y,z
-x,1/2+y,-z
-x,-y,-z
x,1/2-y,z
loop_
_atom_site_type_symbol
_atom_site_label
_atom_site_fract_x
_atom_site_fract_y
_atom_site_fract_z
Si Si1 0.721697 0.073579 0.448823
Si Si2 0.351609 0.938687 0.081395
Si Si3 0.880675 0.066578 0.201600
Si Si4 0.469767 0.937230 0.263796
Si Si5 0.069833 0.060746 0.428977
Si Si6 0.040071 0.924723 0.714195
Si Si7 0.386368 0.570168 0.178453
O O1 0.687563 0.250000 0.475046
O O2 0.887506 0.002719 0.441486
O O3 0.827466 0.075508 0.368712
O O4 0.500000 0.000000 0.500000
O O5 0.346448 0.750000 0.083452
O O6 0.437072 0.993598 0.111379
O O7 0.116011 0.000280 0.135394
O O8 0.500000 0.000000 0.000000
O O9 0.882344 0.250000 0.188513
O O10 0.830618 0.051874 0.271872
O O11 0.699604 0.981047 0.220962
O O12 0.443513 0.750000 0.270150
O O13 0.448382 0.997679 0.214029
O O14 0.289563 0.004777 0.347107
O O15 0.076697 0.250000 0.427636
O O16 0.000000 0.000000 0.500000
O O17 0.940956 0.750000 0.745188
O O18 0.863359 0.053647 0.756317
O O19 0.455261 0.750000 0.160509
#
# Coordination Sequence:
#
# PCOD9163988 Si02
#       7
#     4   4   4   4   4   4   4
#     4  10  22  37  54  78 107 143 187 236 286 340
#     4  10  20  38  62  90 120 151 188 233 282 339
#     4  10  21  36  58  87 116 151 190 233 283 337
#     4  11  22  38  59  85 116 152 192 237 285 341
#     4  11  24  41  58  81 113 152 195 241 293 344
#     4   9  18  35  55  77 105 140 186 234 279 331
#     4   9  19  35  58  84 111 146 185 227 278 334
#
# _framework density 18.343800999999999
#
# number of rings (size 3 to 8) (size 9 to 14) (size 15 to 20)
#    0.000    2.000    1.429    1.714    2.000    3.429 
#    0.000    0.714    0.000    0.000    0.000    0.000 
#    0.000    0.000    0.000    0.000    0.000    0.000 
#
# Total GULP energy -155947.729061 kJ/mol
# GULP energy per Si atom -5569.561752 kJ/mol
# Density = 1.830205 g / cm^3
# Si number density = 18.343801 Si / 1000 Ang^3
#
#
#
# Elastic Constant Matrix: (Units=GPa)
#
#
# Indices 1 2 3 4 5 6 
#
# 1 134.5282 26.6417 73.7914 0.0000 13.3437 0.0000
# 2 26.6417 43.1782 26.8575 0.0000 7.2023 0.0000
# 3 73.7914 26.8575 107.1865 0.0000 20.9777 0.0000
# 4 0.0000 0.0000 0.0000 29.3306 0.0000 -4.9475
# 5 13.3437 7.2023 20.9777 0.0000 27.1170 0.0000
# 6 0.0000 0.0000 0.0000 -4.9475 0.0000 24.2581
#
#
#
# Elastic Compliance Matrix: (Units=1/GPa)
#
#
# Indices 1 2 3 4 5 6 
#
# 1 0.012225 -0.002778 -0.007880 0.000000 0.000818 0.000000
# 2 -0.002778 0.028192 -0.004659 0.000000 -0.002517 0.000000
# 3 -0.007880 -0.004659 0.017583 0.000000 -0.008487 0.000000
# 4 0.000000 0.000000 0.000000 0.035309 0.000000 0.007201
# 5 0.000818 -0.002517 -0.008487 0.000000 0.043709 0.000000
# 6 0.000000 0.000000 0.000000 0.007201 0.000000 0.042692
#
#
# Mechanical properties :
#
#
# Convention : Reuss Voigt Hill
#
# Bulk Modulus (GPa) = 36.54261 59.94156 48.24208
# Shear Modulus (GPa) = 22.78273 26.64795 24.71534
#
# Velocity S-wave (km/s) = 3.52800 3.81556 3.67460
# Velocity P-wave (km/s) = 6.04648 7.22212 6.66029
#
# Compressibility (1/GPa) = 0.02736532
#
# Stress axis : x y z
#
# Youngs Moduli (GPa) = 81.80137 35.47167 56.87324
#
# Poissons Ratio (x) = 0.09853 0.44817
# Poissons Ratio (y) = 0.22723 0.26497
# Poissons Ratio (z) = 0.64460 0.16526
#
# Static dielectric constant tensor:
#      x y z
#    x 1.646970 0.000000 0.035070 
#    y 0.000000 1.823060 0.000000 
#    z 0.035070 0.000000 1.609850 
# 
# From -- ./inp_files/28525.got.cif
#   From: 2010.05.17/outbox.cif.g08.bks.cpg/sg11_15_cif.got.tgz:28525.got - 2010.06.03 12:22:45.
