data_PCOD9163411
_publ_section_title
;
Structure prediction by ZEFSAII (Michael W. Deem and Ramdas Pophale) SiO2 
 PCOD9163411
Probable space group: P 21/M
;
_chemical_formula_sum "Si O2"
_cell_formula_units_Z 20
_cell_length_a 7.830791
_cell_length_b 17.628913
_cell_length_c 11.674237
_cell_angle_alpha 90.000000
_cell_angle_beta 138.971105
_cell_angle_gamma 90.000000
_cell_volume 1057.923869
_symmetry_space_group_name_H-M "P 21/M"
_symmetry_group_IT_number 11
_symmetry_cell_setting 'monoclinic'
loop_
_space_group_symop_operation_xyz
x,y,z
-x,1/2+y,-z
-x,-y,-z
x,1/2-y,z
loop_
_atom_site_type_symbol
_atom_site_label
_atom_site_fract_x
_atom_site_fract_y
_atom_site_fract_z
Si Si1 0.185592 0.555498 0.248607
Si Si2 0.405297 0.837217 0.546476
Si Si3 0.815516 0.064733 0.356376
Si Si4 0.933142 0.603765 0.732434
Si Si5 0.327180 0.981624 0.073492
O O1 0.261765 0.626331 0.363299
O O2 0.201859 0.479870 0.334396
O O3 0.352904 0.542442 0.219187
O O4 0.889253 0.548425 0.050952
O O5 0.334270 0.750000 0.526817
O O6 0.322494 0.887019 0.614311
O O7 0.714109 0.844220 0.676679
O O8 0.973481 0.117875 0.348637
O O9 0.599827 0.016936 0.175884
O O10 0.000000 0.000000 0.500000
O O11 0.189389 0.588491 0.939355
#
# Coordination Sequence:
#
# PCOD9163411 Si02
#       5
#     4   4   4   4   4
#     4   9  17  36  60  85 114 150 198 236 284 349
#     4  12  24  38  55  88 126 156 187 245 308 350
#     4  12  20  35  64  89 113 151 201 246 284 348
#     4  10  20  36  63  84 114 149 204 234 284 347
#     4   9  18  34  63  91 109 142 207 245 278 332
#
# _framework density 18.904952000000002
#
# number of rings (size 3 to 8) (size 9 to 14) (size 15 to 20)
#    1.200    0.400    4.000    2.400    0.000    0.800 
#    0.000    4.000    0.000    3.600    0.000    0.000 
#    0.000    0.000    0.000    0.000    0.000    0.000 
#
# Total GULP energy -111352.971294 kJ/mol
# GULP energy per Si atom -5567.648565 kJ/mol
# Density = 1.886192 g / cm^3
# Si number density = 18.904952 Si / 1000 Ang^3
#
#
#
# Elastic Constant Matrix: (Units=GPa)
#
#
# Indices 1 2 3 4 5 6 
#
# 1 103.3144 12.9680 26.3911 0.0000 -17.2100 0.0000
# 2 12.9680 75.0674 29.3028 0.0000 -3.3102 0.0000
# 3 26.3911 29.3028 77.3368 0.0000 -5.7685 0.0000
# 4 0.0000 0.0000 0.0000 12.8782 0.0000 -1.2103
# 5 -17.2100 -3.3102 -5.7685 0.0000 31.5576 0.0000
# 6 0.0000 0.0000 0.0000 -1.2103 0.0000 9.9363
#
#
#
# Elastic Compliance Matrix: (Units=1/GPa)
#
#
# Indices 1 2 3 4 5 6 
#
# 1 0.011527 -0.000436 -0.003349 0.000000 0.005628 0.000000
# 2 -0.000436 0.015660 -0.005759 0.000000 0.000352 0.000000
# 3 -0.003349 -0.005759 0.016296 0.000000 0.000549 0.000000
# 4 0.000000 0.000000 0.000000 0.078550 0.000000 0.009568
# 5 0.005628 0.000352 0.000549 0.000000 0.034895 0.000000
# 6 0.000000 0.000000 0.000000 0.009568 0.000000 0.101806
#
#
# Mechanical properties :
#
#
# Convention : Reuss Voigt Hill
#
# Bulk Modulus (GPa) = 40.98891 43.67136 42.33014
# Shear Modulus (GPa) = 17.48543 23.34486 20.41514
#
# Velocity S-wave (km/s) = 3.04454 3.51786 3.28972
# Velocity P-wave (km/s) = 5.83846 6.29691 6.07201
#
# Compressibility (1/GPa) = 0.02439684
#
# Stress axis : x y z
#
# Youngs Moduli (GPa) = 86.75397 63.85668 61.36494
#
# Poissons Ratio (x) = 0.02784 0.20548
# Poissons Ratio (y) = 0.03782 0.35337
# Poissons Ratio (z) = 0.29050 0.36772
#
# Static dielectric constant tensor:
#      x y z
#    x 1.738850 0.000000 0.016260 
#    y 0.000000 1.616480 0.000000 
#    z 0.016260 0.000000 1.706040 
# 
# From -- ./inp_files/32132.got.cif
#   From: 2010.05.17/outbox.cif.g08.bks.cpg/sg11_17_cif.got.tgz:32132.got - 2010.06.03 12:22:45.
