data_PCOD9163306
_publ_section_title
;
Structure prediction by ZEFSAII (Michael W. Deem and Ramdas Pophale) SiO2 
 PCOD9163306
Probable space group: P 21/M
;
_chemical_formula_sum "Si O2"
_cell_formula_units_Z 24
_cell_length_a 12.712410
_cell_length_b 8.828202
_cell_length_c 11.847695
_cell_angle_alpha 90.000000
_cell_angle_beta 90.744605
_cell_angle_gamma 90.000000
_cell_volume 1329.527557
_symmetry_space_group_name_H-M "P 21/M"
_symmetry_group_IT_number 11
_symmetry_cell_setting 'monoclinic'
loop_
_space_group_symop_operation_xyz
x,y,z
-x,1/2+y,-z
-x,-y,-z
x,1/2-y,z
loop_
_atom_site_type_symbol
_atom_site_label
_atom_site_fract_x
_atom_site_fract_y
_atom_site_fract_z
Si Si1 0.864733 0.431060 0.900351
Si Si2 0.106071 0.070615 0.857191
Si Si3 0.322994 0.569978 0.271266
Si Si4 0.383045 0.430102 0.503396
Si Si5 0.470811 0.069848 0.879078
Si Si6 0.288232 0.930143 0.727876
O O1 0.857273 0.250000 0.922689
O O2 0.773624 0.471460 0.811471
O O3 0.981185 0.461174 0.853244
O O4 0.855762 0.517520 0.018478
O O5 0.122023 0.250000 0.844838
O O6 0.173313 0.983163 0.765394
O O7 0.315461 0.750000 0.296429
O O8 0.326830 0.477855 0.386737
O O9 0.431157 0.546105 0.204248
O O10 0.500000 0.500000 0.500000
O O11 0.391059 0.250000 0.514188
O O12 0.323283 0.497214 0.610372
O O13 0.453289 0.250000 0.889148
O O14 0.369575 0.991271 0.823202
O O15 0.500000 0.000000 0.000000
O O16 0.294843 0.750000 0.721360
#
# Coordination Sequence:
#
# PCOD9163306 Si02
#       6
#     4   4   4   4   4   4
#     4   9  19  37  61  89 121 156 193 238 293 351
#     4  10  20  36  60  89 121 155 196 242 291 348
#     4  10  21  38  59  84 116 153 193 237 289 347
#     4  12  24  40  61  85 114 152 196 240 294 352
#     4  11  22  35  56  86 121 152 187 236 292 352
#     4  12  24  39  59  83 116 155 199 243 290 345
#
# _framework density 18.051525000000002
#
# number of rings (size 3 to 8) (size 9 to 14) (size 15 to 20)
#    0.000    1.333    1.667    5.000    0.000    3.333 
#    0.000    0.833    0.000    0.000    0.000    0.000 
#    0.000    0.000    0.000    0.000    0.000    0.000 
#
# Total GULP energy -134199.198855 kJ/mol
# GULP energy per Si atom -5591.633286 kJ/mol
# Density = 1.801044 g / cm^3
# Si number density = 18.051525 Si / 1000 Ang^3
#
#
#
# Elastic Constant Matrix: (Units=GPa)
#
#
# Indices 1 2 3 4 5 6 
#
# 1 63.7356 35.3859 12.1087 0.0000 -8.7595 0.0000
# 2 35.3859 103.1162 38.8378 0.0000 -18.7986 0.0000
# 3 12.1087 38.8378 55.6660 0.0000 -20.9630 0.0000
# 4 0.0000 0.0000 0.0000 36.7812 0.0000 -0.7506
# 5 -8.7595 -18.7986 -20.9630 0.0000 29.9284 0.0000
# 6 0.0000 0.0000 0.0000 -0.7506 0.0000 26.8582
#
#
#
# Elastic Compliance Matrix: (Units=1/GPa)
#
#
# Indices 1 2 3 4 5 6 
#
# 1 0.019525 -0.006785 0.001404 0.000000 0.002436 0.000000
# 2 -0.006785 0.015651 -0.008814 0.000000 0.001671 0.000000
# 3 0.001404 -0.008814 0.029717 0.000000 0.015690 0.000000
# 4 0.000000 0.000000 0.000000 0.027203 0.000000 0.000760
# 5 0.002436 0.001671 0.015690 0.000000 0.046165 0.000000
# 6 0.000000 0.000000 0.000000 0.000760 0.000000 0.037254
#
#
# Mechanical properties :
#
#
# Convention : Reuss Voigt Hill
#
# Bulk Modulus (GPa) = 27.39543 43.90918 35.65230
# Shear Modulus (GPa) = 23.14040 27.79257 25.46649
#
# Velocity S-wave (km/s) = 3.58426 3.92806 3.76009
# Velocity P-wave (km/s) = 5.68669 6.70448 6.21645
#
# Compressibility (1/GPa) = 0.03650243
#
# Stress axis : x y z
#
# Youngs Moduli (GPa) = 51.21659 63.89544 33.65080
#
# Poissons Ratio (x) = 0.43353 -0.04725
# Poissons Ratio (y) = 0.34751 0.29661
# Poissons Ratio (z) = -0.07192 0.56319
#
# Static dielectric constant tensor:
#      x y z
#    x 1.612110 0.000000 -0.002080 
#    y 0.000000 1.602550 0.000000 
#    z -0.002080 0.000000 1.587280 
# 
# From -- ./inp_files/33809.got.cif
#   From: 2010.05.17/outbox.cif.g08.bks.cpg/sg11_17_cif.got.tgz:33809.got - 2010.06.03 12:22:45.
