data_PCOD9163663
_publ_section_title
;
Structure prediction by ZEFSAII (Michael W. Deem and Ramdas Pophale) SiO2 
 PCOD9163663
Probable space group: P 21/M
;
_chemical_formula_sum "Si O2"
_cell_formula_units_Z 28
_cell_length_a 14.331401
_cell_length_b 13.665348
_cell_length_c 8.072174
_cell_angle_alpha 90.000000
_cell_angle_beta 65.617164
_cell_angle_gamma 90.000000
_cell_volume 1439.880321
_symmetry_space_group_name_H-M "P 21/M"
_symmetry_group_IT_number 11
_symmetry_cell_setting 'monoclinic'
loop_
_space_group_symop_operation_xyz
x,y,z
-x,1/2+y,-z
-x,-y,-z
x,1/2-y,z
loop_
_atom_site_type_symbol
_atom_site_label
_atom_site_fract_x
_atom_site_fract_y
_atom_site_fract_z
Si Si1 0.219915 0.135008 0.403289
Si Si2 0.587735 0.359423 0.277415
Si Si3 0.869116 0.469010 0.288571
Si Si4 0.924446 0.986305 0.709072
Si Si5 0.696120 0.357533 0.558188
Si Si6 0.427225 0.470840 0.205467
Si Si7 0.806647 0.365514 0.996501
O O1 0.205311 0.250000 0.445448
O O2 0.153243 0.096865 0.295375
O O3 0.338077 0.111647 0.268931
O O4 0.180056 0.068348 0.591371
O O5 0.544071 0.250000 0.289948
O O6 0.638910 0.363475 0.421339
O O7 0.503143 0.438875 0.297705
O O8 0.683695 0.369677 0.082451
O O9 0.813176 0.386611 0.440761
O O10 0.836750 0.436449 0.128472
O O11 0.137887 0.583595 0.197742
O O12 0.000000 0.000000 0.500000
O O13 0.008604 0.965228 0.788247
O O14 0.687474 0.250000 0.632658
O O15 0.639505 0.434470 0.710240
O O16 0.500000 0.500000 0.000000
O O17 0.833577 0.250000 0.001694
#
# Coordination Sequence:
#
# PCOD9163663 Si02
#       7
#     4   4   4   4   4   4   4
#     4  10  22  38  54  77 114 153 186 221 267 325
#     4   9  18  34  56  78 102 136 176 218 270 321
#     4   9  19  37  60  83 108 138 182 230 274 321
#     4  10  21  37  54  80 113 147 182 219 268 329
#     4   9  19  35  55  80 105 135 179 227 272 322
#     4  11  21  34  53  78 110 144 179 225 269 321
#     4  10  20  37  61  86 109 137 180 232 277 323
#
# _framework density 19.446059999999999
#
# number of rings (size 3 to 8) (size 9 to 14) (size 15 to 20)
#    0.000    2.286    0.000    3.429    0.000    4.571 
#    0.000   11.429    0.000    0.000    0.000    0.000 
#    0.000    0.000    0.000    0.000    0.000    0.000 
#
# Total GULP energy -155907.722735 kJ/mol
# GULP energy per Si atom -5568.132955 kJ/mol
# Density = 1.940180 g / cm^3
# Si number density = 19.446060 Si / 1000 Ang^3
#
#
#
# Elastic Constant Matrix: (Units=GPa)
#
#
# Indices 1 2 3 4 5 6 
#
# 1 67.0128 23.4499 3.1553 0.0000 -9.5220 0.0000
# 2 23.4499 113.3466 19.0815 0.0000 1.0516 0.0000
# 3 3.1553 19.0815 69.2824 0.0000 -8.1664 0.0000
# 4 0.0000 0.0000 0.0000 20.5610 0.0000 3.6329
# 5 -9.5220 1.0516 -8.1664 0.0000 21.8570 0.0000
# 6 0.0000 0.0000 0.0000 3.6329 0.0000 15.7098
#
#
#
# Elastic Compliance Matrix: (Units=1/GPa)
#
#
# Indices 1 2 3 4 5 6 
#
# 1 0.017393 -0.003885 0.001248 0.000000 0.008230 0.000000
# 2 -0.003885 0.010164 -0.003012 0.000000 -0.003307 0.000000
# 3 0.001248 -0.003012 0.015992 0.000000 0.006664 0.000000
# 4 0.000000 0.000000 0.000000 0.050708 0.000000 -0.011726
# 5 0.008230 -0.003307 0.006664 0.000000 0.051986 0.000000
# 6 0.000000 0.000000 0.000000 -0.011726 0.000000 0.066366
#
#
# Mechanical properties :
#
#
# Convention : Reuss Voigt Hill
#
# Bulk Modulus (GPa) = 31.00729 37.89056 34.44893
# Shear Modulus (GPa) = 21.30770 25.22256 23.26513
#
# Velocity S-wave (km/s) = 3.31378 3.60537 3.46264
# Velocity P-wave (km/s) = 5.53366 6.07115 5.80862
#
# Compressibility (1/GPa) = 0.03225048
#
# Stress axis : x y z
#
# Youngs Moduli (GPa) = 57.49568 98.38677 62.53170
#
# Poissons Ratio (x) = 0.38221 -0.07803
# Poissons Ratio (y) = 0.22336 0.18836
# Poissons Ratio (z) = -0.07175 0.29636
#
# Static dielectric constant tensor:
#      x y z
#    x 1.754170 0.000000 0.049310 
#    y 0.000000 1.681660 0.000000 
#    z 0.049310 0.000000 1.734540 
# 
# From -- ./inp_files/21412.got.cif
#   From: 2010.05.17/outbox.cif.g08.bks.cpg/sg11_11_cif.got.tgz:21412.got - 2010.06.03 12:22:45.
