data_PCOD9163620
_publ_section_title
;
Structure prediction by ZEFSAII (Michael W. Deem and Ramdas Pophale) SiO2 
 PCOD9163620
Probable space group: P 21/M
;
_chemical_formula_sum "Si O2"
_cell_formula_units_Z 32
_cell_length_a 16.775075
_cell_length_b 13.888886
_cell_length_c 7.121312
_cell_angle_alpha 90.000000
_cell_angle_beta 84.016128
_cell_angle_gamma 90.000000
_cell_volume 1650.133487
_symmetry_space_group_name_H-M "P 21/M"
_symmetry_group_IT_number 11
_symmetry_cell_setting 'monoclinic'
loop_
_space_group_symop_operation_xyz
x,y,z
-x,1/2+y,-z
-x,-y,-z
x,1/2-y,z
loop_
_atom_site_type_symbol
_atom_site_label
_atom_site_fract_x
_atom_site_fract_y
_atom_site_fract_z
Si Si1 0.786655 0.016545 0.396104
Si Si2 0.801489 0.865011 0.686113
Si Si3 0.019558 0.140124 0.374633
Si Si4 0.078261 0.937723 0.927214
Si Si5 0.884975 0.134212 0.674720
Si Si6 0.653711 0.638714 0.969078
Si Si7 0.612838 0.495710 0.311508
Si Si8 0.462732 0.138367 0.360904
O O1 0.852221 0.012783 0.214079
O O2 0.819258 0.085063 0.555930
O O3 0.777509 0.912617 0.495820
O O4 0.699533 0.045838 0.346116
O O5 0.796323 0.750000 0.677195
O O6 0.892861 0.899301 0.696392
O O7 0.739916 0.892524 0.864187
O O8 0.036120 0.250000 0.421943
O O9 0.960766 0.136436 0.211908
O O10 0.970456 0.100085 0.563757
O O11 0.114805 0.893476 0.107300
O O12 0.000000 0.000000 0.000000
O O13 0.879814 0.250000 0.657892
O O14 0.659352 0.750000 0.036875
O O15 0.592011 0.638345 0.811065
O O16 0.625096 0.562970 0.128272
O O17 0.579895 0.568544 0.478831
O O18 0.548343 0.411163 0.300437
O O19 0.469980 0.250000 0.422007
#
# Coordination Sequence:
#
# PCOD9163620 Si02
#       8
#     4   4   4   4   4   4   4   4
#     4  11  24  38  60  90 125 158 206 252 300 366
#     4  10  20  37  60  87 125 161 198 256 311 359
#     4   9  19  36  55  80 113 155 207 254 299 352
#     4  11  22  35  59  86 118 163 208 255 302 355
#     4  10  22  41  60  81 121 169 211 257 307 356
#     4  10  21  38  63  92 124 157 197 247 309 371
#     4  11  23  38  66  93 122 161 200 251 307 369
#     4  10  22  43  65  90 123 157 199 251 310 372
#
# _framework density 19.392368999999999
#
# number of rings (size 3 to 8) (size 9 to 14) (size 15 to 20)
#    0.000    1.750    1.250    2.625    3.500    3.500 
#    0.000    0.625    0.000    0.000    0.000    0.000 
#    0.000    0.000    0.000    0.000    0.000    0.000 
#
# Total GULP energy -178560.693619 kJ/mol
# GULP energy per Si atom -5580.021676 kJ/mol
# Density = 1.934823 g / cm^3
# Si number density = 19.392369 Si / 1000 Ang^3
#
#
#
# Elastic Constant Matrix: (Units=GPa)
#
#
# Indices 1 2 3 4 5 6 
#
# 1 106.3229 18.7708 20.7968 0.0000 -10.8992 0.0000
# 2 18.7708 56.7797 16.4485 0.0000 -3.2560 0.0000
# 3 20.7968 16.4485 87.2216 0.0000 -6.2071 0.0000
# 4 0.0000 0.0000 0.0000 21.6919 0.0000 -0.0033
# 5 -10.8992 -3.2560 -6.2071 0.0000 26.0627 0.0000
# 6 0.0000 0.0000 0.0000 -0.0033 0.0000 24.2069
#
#
#
# Elastic Compliance Matrix: (Units=1/GPa)
#
#
# Indices 1 2 3 4 5 6 
#
# 1 0.010616 -0.002794 -0.001743 0.000000 0.003676 0.000000
# 2 -0.002794 0.019424 -0.002957 0.000000 0.000554 0.000000
# 3 -0.001743 -0.002957 0.012573 0.000000 0.001896 0.000000
# 4 0.000000 0.000000 0.000000 0.046100 0.000000 0.000006
# 5 0.003676 0.000554 0.001896 0.000000 0.040427 0.000000
# 6 0.000000 0.000000 0.000000 0.000006 0.000000 0.041311
#
#
# Mechanical properties :
#
#
# Convention : Reuss Voigt Hill
#
# Bulk Modulus (GPa) = 36.19899 40.26183 38.23041
# Shear Modulus (GPa) = 25.68740 27.34618 26.51679
#
# Velocity S-wave (km/s) = 3.64347 3.75927 3.70183
# Velocity P-wave (km/s) = 6.03382 6.29679 6.16671
#
# Compressibility (1/GPa) = 0.02762508
#
# Stress axis : x y z
#
# Youngs Moduli (GPa) = 94.19521 51.48249 79.53383
#
# Poissons Ratio (x) = 0.14384 0.13861
# Poissons Ratio (y) = 0.26318 0.23522
# Poissons Ratio (z) = 0.16417 0.15226
#
# Static dielectric constant tensor:
#      x y z
#    x 1.697500 0.000000 -0.004870 
#    y 0.000000 1.699250 0.000000 
#    z -0.004870 0.000000 1.668810 
# 
# From -- ./inp_files/8100.got.cif
#   From: 2010.05.17/outbox.cif.g08.bks.cpg/sg11_5_cif.got.tgz:8100.got - 2010.06.03 12:22:45.
