data_PCOD9163660
_publ_section_title
;
Structure prediction by ZEFSAII (Michael W. Deem and Ramdas Pophale) SiO2 
 PCOD9163660
Probable space group: P 21/M
;
_chemical_formula_sum "Si O2"
_cell_formula_units_Z 28
_cell_length_a 9.601767
_cell_length_b 13.301285
_cell_length_c 15.403650
_cell_angle_alpha 90.000000
_cell_angle_beta 49.211236
_cell_angle_gamma 90.000000
_cell_volume 1489.480929
_symmetry_space_group_name_H-M "P 21/M"
_symmetry_group_IT_number 11
_symmetry_cell_setting 'monoclinic'
loop_
_space_group_symop_operation_xyz
x,y,z
-x,1/2+y,-z
-x,-y,-z
x,1/2-y,z
loop_
_atom_site_type_symbol
_atom_site_label
_atom_site_fract_x
_atom_site_fract_y
_atom_site_fract_z
Si Si1 0.257553 0.131688 0.588436
Si Si2 0.536376 0.868657 0.319227
Si Si3 0.821003 0.028039 0.129521
Si Si4 0.781543 0.514531 0.574298
Si Si5 0.684268 0.364189 0.025529
Si Si6 0.730048 0.633337 0.768844
Si Si7 0.957093 0.496783 0.801691
O O1 0.249015 0.250000 0.573767
O O2 0.412998 0.115523 0.599341
O O3 0.269599 0.070384 0.494469
O O4 0.072659 0.091457 0.709517
O O5 0.554771 0.750000 0.293871
O O6 0.683228 0.934843 0.204176
O O7 0.334970 0.911494 0.380008
O O8 0.904876 0.054019 0.188953
O O9 0.723250 0.111349 0.110981
O O10 0.000000 0.000000 0.000000
O O11 0.714651 0.581678 0.681772
O O12 0.000000 0.500000 0.500000
O O13 0.742388 0.250000 0.982405
O O14 0.466275 0.373306 0.103073
O O15 0.795958 0.443312 0.922308
O O16 0.778816 0.750000 0.739863
O O17 0.877106 0.571951 0.764141
#
# Coordination Sequence:
#
# PCOD9163660 Si02
#       7
#     4   4   4   4   4   4   4
#     4  10  21  39  63  90 120 158 202 251 306 360
#     4  10  22  41  64  91 122 161 210 257 304 364
#     4   9  19  36  63  90 121 151 193 251 303 360
#     4  12  23  41  62  87 124 165 206 258 304 359
#     4  10  20  37  61  85 115 156 198 245 304 364
#     4  11  23  39  58  84 123 161 199 249 307 366
#     4  10  20  38  60  88 119 155 198 250 300 364
#
# _framework density 18.798494000000002
#
# number of rings (size 3 to 8) (size 9 to 14) (size 15 to 20)
#    0.000    1.714    2.857    1.714    0.000    5.143 
#    0.000    2.143    0.000    0.000    0.000    0.000 
#    0.000    0.000    0.000    0.000    0.000    0.000 
#
# Total GULP energy -156169.388911 kJ/mol
# GULP energy per Si atom -5577.478175 kJ/mol
# Density = 1.875571 g / cm^3
# Si number density = 18.798494 Si / 1000 Ang^3
#
#
#
# Elastic Constant Matrix: (Units=GPa)
#
#
# Indices 1 2 3 4 5 6 
#
# 1 78.9702 38.2302 23.7858 0.0000 -13.6507 0.0000
# 2 38.2302 71.0973 14.5032 0.0000 2.6635 0.0000
# 3 23.7858 14.5032 55.2808 0.0000 10.2595 0.0000
# 4 0.0000 0.0000 0.0000 22.1902 0.0000 3.5643
# 5 -13.6507 2.6635 10.2595 0.0000 24.5629 0.0000
# 6 0.0000 0.0000 0.0000 3.5643 0.0000 24.4202
#
#
#
# Elastic Compliance Matrix: (Units=1/GPa)
#
#
# Indices 1 2 3 4 5 6 
#
# 1 0.025545 -0.012135 -0.011584 0.000000 0.020351 0.000000
# 2 -0.012135 0.020625 0.001601 0.000000 -0.009649 0.000000
# 3 -0.011584 0.001601 0.025888 0.000000 -0.017424 0.000000
# 4 0.000000 0.000000 0.000000 0.046147 0.000000 -0.006735
# 5 0.020351 -0.009649 -0.017424 0.000000 0.060346 0.000000
# 6 0.000000 0.000000 0.000000 -0.006735 0.000000 0.041933
#
#
# Mechanical properties :
#
#
# Convention : Reuss Voigt Hill
#
# Bulk Modulus (GPa) = 35.94431 39.82076 37.88253
# Shear Modulus (GPa) = 18.24858 22.82326 20.53592
#
# Velocity S-wave (km/s) = 3.11906 3.48817 3.30877
# Velocity P-wave (km/s) = 5.66866 6.11981 5.89855
#
# Compressibility (1/GPa) = 0.02782082
#
# Stress axis : x y z
#
# Youngs Moduli (GPa) = 39.14694 48.48389 38.62849
#
# Poissons Ratio (x) = 0.58836 0.44749
# Poissons Ratio (y) = 0.47505 -0.06185
# Poissons Ratio (z) = 0.45349 -0.07762
#
# Static dielectric constant tensor:
#      x y z
#    x 1.674390 0.000000 -0.005220 
#    y 0.000000 1.613960 0.000000 
#    z -0.005220 0.000000 1.664230 
# 
# From -- ./inp_files/47126.got.cif
#   From: 2010.05.17/outbox.cif.g08.bks.cpg/sg11_24_cif.got.tgz:47126.got - 2010.06.03 12:22:45.
