data_PCOD9163409
_publ_section_title
;
Structure prediction by ZEFSAII (Michael W. Deem and Ramdas Pophale) SiO2 
 PCOD9163409
Probable space group: P 21/M
;
_chemical_formula_sum "Si O2"
_cell_formula_units_Z 26
_cell_length_a 14.239322
_cell_length_b 9.235468
_cell_length_c 15.003991
_cell_angle_alpha 90.000000
_cell_angle_beta 140.326445
_cell_angle_gamma 90.000000
_cell_volume 1259.669126
_symmetry_space_group_name_H-M "P 21/M"
_symmetry_group_IT_number 11
_symmetry_cell_setting 'monoclinic'
loop_
_space_group_symop_operation_xyz
x,y,z
-x,1/2+y,-z
-x,-y,-z
x,1/2-y,z
loop_
_atom_site_type_symbol
_atom_site_label
_atom_site_fract_x
_atom_site_fract_y
_atom_site_fract_z
Si Si1 0.347769 0.078136 0.178812
Si Si2 0.653476 0.423035 0.638986
Si Si3 0.797222 0.081770 0.090879
Si Si4 0.370483 0.412732 0.669388
Si Si5 0.793783 0.990455 0.282004
Si Si6 0.148703 0.085958 0.352548
Si Si7 0.034215 0.750000 0.493339
O O1 0.334428 0.250000 0.180827
O O2 0.301474 0.991420 0.233487
O O3 0.516109 0.030723 0.282926
O O4 0.259000 0.018905 0.029366
O O5 0.500000 0.500000 0.500000
O O6 0.635974 0.250000 0.630573
O O7 0.772817 0.470369 0.652948
O O8 0.759012 0.250000 0.045579
O O9 0.738753 0.032872 0.144146
O O10 0.974397 0.072499 0.226980
O O11 0.428532 0.250000 0.694277
O O12 0.331800 0.430807 0.743941
O O13 0.219885 0.425017 0.502673
O O14 0.864483 0.126303 0.383740
O O15 0.923799 0.874159 0.371379
O O16 0.185099 0.250000 0.347003
#
# Coordination Sequence:
#
# PCOD9163409 Si02
#       7
#     4   4   4   4   4   4   2
#     4  12  28  46  69  98 135 178 227 276 339 406
#     4  12  24  45  71 102 135 173 220 282 335 397
#     4  11  25  46  67  98 140 184 218 276 342 399
#     4  11  23  42  68 100 134 181 225 276 333 398
#     4  11  22  39  64  98 141 179 228 274 333 396
#     4  10  22  41  72 102 131 171 228 277 335 397
#     4  10  20  36  62  96 132 178 218 282 324 384
#
# _framework density 20.640339000000001
#
# number of rings (size 3 to 8) (size 9 to 14) (size 15 to 20)
#    0.000    0.923    3.077    4.615    4.308    1.846 
#    2.769    0.000    0.000    0.000    0.000    0.000 
#    0.000    0.000    0.000    0.000    0.000    0.000 
#
# Total GULP energy -144872.224467 kJ/mol
# GULP energy per Si atom -5572.008633 kJ/mol
# Density = 2.059336 g / cm^3
# Si number density = 20.640339 Si / 1000 Ang^3
#
#
#
# Elastic Constant Matrix: (Units=GPa)
#
#
# Indices 1 2 3 4 5 6 
#
# 1 55.9621 24.5926 13.4922 0.0000 -29.5341 0.0000
# 2 24.5926 178.3097 28.0244 0.0000 -14.5670 0.0000
# 3 13.4922 28.0244 66.0782 0.0000 -10.2871 0.0000
# 4 0.0000 0.0000 0.0000 12.8237 0.0000 -25.3275
# 5 -29.5341 -14.5670 -10.2871 0.0000 25.2608 0.0000
# 6 0.0000 0.0000 0.0000 -25.3275 0.0000 -69.1916
#
#
#
# Elastic Compliance Matrix: (Units=1/GPa)
#
#
# Indices 1 2 3 4 5 6 
#
# 1 0.047413 -0.002060 -0.000387 0.000000 0.054088 0.000000
# 2 -0.002060 0.006261 -0.002186 0.000000 0.000312 0.000000
# 3 -0.000387 -0.002186 0.016948 0.000000 0.005188 0.000000
# 4 0.000000 0.000000 0.000000 0.045260 0.000000 -0.016567
# 5 0.054088 0.000312 0.005188 0.000000 0.105118 0.000000
# 6 0.000000 0.000000 0.000000 -0.016567 0.000000 -0.008388
#
#
# Mechanical properties :
#
#
# Convention : Reuss Voigt Hill
#
# Bulk Modulus (GPa) = 16.29837 48.06317 32.18077
# Shear Modulus (GPa) = 20.63307 9.39463 15.01385
#
# Velocity S-wave (km/s) = 3.16515 2.13576 2.69997
# Velocity P-wave (km/s) = 4.61206 5.42389 5.03436
#
# Compressibility (1/GPa) = 0.06135581
#
# Stress axis : x y z
#
# Youngs Moduli (GPa) = 21.09131 159.70798 59.00548
#
# Poissons Ratio (x) = 0.32894 0.02284
# Poissons Ratio (y) = 0.04344 0.12901
# Poissons Ratio (z) = 0.00816 0.34918
#
# Static dielectric constant tensor:
#      x y z
#    x 1.757730 0.000000 -0.004020 
#    y 0.000000 1.702040 0.000000 
#    z -0.004020 0.000000 1.721970 
# 
# From -- ./inp_files/51910.got.cif
#   From: 2010.05.17/outbox.cif.g08.bks.cpg/sg11_26_cif.got.tgz:51910.got - 2010.06.03 12:22:45.
