data_PCOD9163848
_publ_section_title
;
Structure prediction by ZEFSAII (Michael W. Deem and Ramdas Pophale) SiO2 
 PCOD9163848
Probable space group: P 21/M
;
_chemical_formula_sum "Si O2"
_cell_formula_units_Z 24
_cell_length_a 10.958663
_cell_length_b 15.406376
_cell_length_c 7.876826
_cell_angle_alpha 90.000000
_cell_angle_beta 122.403133
_cell_angle_gamma 90.000000
_cell_volume 1122.807741
_symmetry_space_group_name_H-M "P 21/M"
_symmetry_group_IT_number 11
_symmetry_cell_setting 'monoclinic'
loop_
_space_group_symop_operation_xyz
x,y,z
-x,1/2+y,-z
-x,-y,-z
x,1/2-y,z
loop_
_atom_site_type_symbol
_atom_site_label
_atom_site_fract_x
_atom_site_fract_y
_atom_site_fract_z
Si Si1 0.594875 0.591063 0.720818
Si Si2 0.224906 0.750000 0.063432
Si Si3 0.401412 0.586426 0.077017
Si Si4 0.925630 0.750000 0.674647
Si Si5 0.685567 0.150759 0.334680
Si Si6 0.786612 0.750000 0.951521
Si Si7 0.676608 0.850769 0.417498
Si Si8 0.083193 0.750000 0.329196
O O1 0.617461 0.501040 0.832565
O O2 0.427606 0.619070 0.609341
O O3 0.644175 0.594239 0.562288
O O4 0.687827 0.665439 0.882509
O O5 0.320266 0.664776 0.110751
O O6 0.152317 0.750000 0.193344
O O7 0.096273 0.750000 0.825508
O O8 0.572162 0.610414 0.198001
O O9 0.335589 0.588471 0.840145
O O10 0.848445 0.833390 0.529351
O O11 0.862771 0.750000 0.821389
O O12 0.640596 0.250000 0.249698
O O13 0.845776 0.167003 0.524282
O O14 0.912832 0.750000 0.183342
O O15 0.627232 0.750000 0.409809
#
# Coordination Sequence:
#
# PCOD9163848 Si02
#       8
#     4   2   4   2   4   2   4   2
#     4  11  20  36  61  82 109 145 183 225 274 324
#     4  11  18  37  52  82 110 143 184 217 284 316
#     4  12  22  33  57  88 114 137 178 236 273 322
#     4   7  17  31  58  70 110 147 172 223 264 328
#     4  10  20  38  54  77 109 146 182 221 273 319
#     4   9  17  39  56  80 104 145 194 215 264 332
#     4   9  17  36  56  81 109 141 185 221 269 318
#     4   9  20  35  64  70 106 161 178 221 270 328
#
# _framework density 21.374987000000001
#
# number of rings (size 3 to 8) (size 9 to 14) (size 15 to 20)
#    1.000    1.000    3.333    2.000    0.000    0.000 
#    0.000   13.333    0.000    0.000    0.000    0.000 
#    0.000    0.000    0.000    0.000    0.000    0.000 
#
# Total GULP energy -133868.473733 kJ/mol
# GULP energy per Si atom -5577.853072 kJ/mol
# Density = 2.132634 g / cm^3
# Si number density = 21.374987 Si / 1000 Ang^3
#
#
#
# Elastic Constant Matrix: (Units=GPa)
#
#
# Indices 1 2 3 4 5 6 
#
# 1 31.1971 25.0382 19.6511 0.0000 -0.9922 0.0000
# 2 25.0382 104.3984 24.6879 0.0000 23.7837 0.0000
# 3 19.6511 24.6879 129.5298 0.0000 33.2279 0.0000
# 4 0.0000 0.0000 0.0000 10.5508 0.0000 -4.3340
# 5 -0.9922 23.7837 33.2279 0.0000 33.9147 0.0000
# 6 0.0000 0.0000 0.0000 -4.3340 0.0000 8.8406
#
#
#
# Elastic Compliance Matrix: (Units=1/GPa)
#
#
# Indices 1 2 3 4 5 6 
#
# 1 0.051538 -0.014950 -0.010747 0.000000 0.022521 0.000000
# 2 -0.014950 0.015739 0.002954 0.000000 -0.014369 0.000000
# 3 -0.010747 0.002954 0.012555 0.000000 -0.014687 0.000000
# 4 0.000000 0.000000 0.000000 0.118679 0.000000 0.058182
# 5 0.022521 -0.014369 -0.014687 0.000000 0.054611 0.000000
# 6 0.000000 0.000000 0.000000 0.058182 0.000000 0.141638
#
#
# Mechanical properties :
#
#
# Convention : Reuss Voigt Hill
#
# Bulk Modulus (GPa) = 29.11363 44.87551 36.99457
# Shear Modulus (GPa) = 11.06942 23.71109 17.39025
#
# Velocity S-wave (km/s) = 2.27814 3.33422 2.85543
# Velocity P-wave (km/s) = 4.53540 5.98854 5.31190
#
# Compressibility (1/GPa) = 0.03434818
#
# Stress axis : x y z
#
# Youngs Moduli (GPa) = 19.40302 63.53595 79.64832
#
# Poissons Ratio (x) = 0.94985 0.85596
# Poissons Ratio (y) = 0.29007 -0.23531
# Poissons Ratio (z) = 0.20852 -0.18771
#
# Static dielectric constant tensor:
#      x y z
#    x 1.788140 0.000000 -0.027330 
#    y 0.000000 1.752070 0.000000 
#    z -0.027330 0.000000 1.838780 
# 
# From -- ./inp_files/18728.got.cif
#   From: 2010.05.17/outbox.cif.g08.bks.cpg/sg11_10_cif.got.tgz:18728.got - 2010.06.03 12:22:45.
