data_PCOD9163557
_publ_section_title
;
Structure prediction by ZEFSAII (Michael W. Deem and Ramdas Pophale) SiO2 
 PCOD9163557
Probable space group: P 21/M
;
_chemical_formula_sum "Si O2"
_cell_formula_units_Z 32
_cell_length_a 11.991453
_cell_length_b 7.856580
_cell_length_c 15.594926
_cell_angle_alpha 90.000000
_cell_angle_beta 93.522413
_cell_angle_gamma 90.000000
_cell_volume 1466.450600
_symmetry_space_group_name_H-M "P 21/M"
_symmetry_group_IT_number 11
_symmetry_cell_setting 'monoclinic'
loop_
_space_group_symop_operation_xyz
x,y,z
-x,1/2+y,-z
-x,-y,-z
x,1/2-y,z
loop_
_atom_site_type_symbol
_atom_site_label
_atom_site_fract_x
_atom_site_fract_y
_atom_site_fract_z
Si Si1 0.314277 0.450403 0.878552
Si Si2 0.826305 0.449437 0.549639
Si Si3 0.920911 0.545307 0.186845
Si Si4 0.490752 0.540991 0.230666
Si Si5 0.341994 0.944123 0.066435
Si Si6 0.930288 0.545060 0.383798
Si Si7 0.419957 0.955840 0.416629
Si Si8 0.904396 0.556391 0.929096
O O1 0.302969 0.250000 0.862032
O O2 0.188085 0.518322 0.869279
O O3 0.392924 0.516713 0.806530
O O4 0.365030 0.473118 0.975271
O O5 0.825182 0.250000 0.572649
O O6 0.845879 0.469011 0.448958
O O7 0.706868 0.520137 0.572997
O O8 0.942911 0.519381 0.593411
O O9 0.934894 0.750000 0.175886
O O10 0.899431 0.511127 0.285022
O O11 0.033399 0.461110 0.158379
O O12 0.490275 0.750000 0.233076
O O13 0.399899 0.486132 0.154898
O O14 0.465318 0.484266 0.326081
O O15 0.379591 0.750000 0.060059
O O16 0.208857 0.952106 0.073008
O O17 0.929855 0.750000 0.396511
O O18 0.415395 0.750000 0.413179
O O19 0.500000 0.000000 0.500000
O O20 0.872902 0.750000 0.947268
O O21 0.000000 0.500000 0.000000
#
# Coordination Sequence:
#
# PCOD9163557 Si02
#       8
#     4   4   4   4   4   4   4   4
#     4  10  20  37  59  86 119 153 196 245 287 338
#     4   9  19  36  57  83 117 150 188 238 290 340
#     4  10  21  35  58  87 116 152 193 235 287 347
#     4   9  21  39  62  87 114 156 200 238 290 352
#     4  11  22  38  62  88 117 156 196 239 291 349
#     4   9  19  35  59  87 113 150 191 232 285 351
#     4  10  22  40  61  85 115 153 196 243 291 346
#     4  12  24  39  58  84 118 153 190 235 287 343
#
# _framework density 21.821397000000001
#
# number of rings (size 3 to 8) (size 9 to 14) (size 15 to 20)
#    0.000    2.000    1.250    1.875    3.500    1.000 
#    0.000    2.500    0.000    0.000    0.000    0.000 
#    0.000    0.000    0.000    0.000    0.000    0.000 
#
# Total GULP energy -178678.623291 kJ/mol
# GULP energy per Si atom -5583.706978 kJ/mol
# Density = 2.177173 g / cm^3
# Si number density = 21.821397 Si / 1000 Ang^3
#
#
#
# Elastic Constant Matrix: (Units=GPa)
#
#
# Indices 1 2 3 4 5 6 
#
# 1 107.3505 -1.8703 47.3218 0.0000 -28.5604 0.0000
# 2 -1.8703 27.4417 -1.4403 0.0000 0.0609 0.0000
# 3 47.3218 -1.4403 120.7642 0.0000 -17.6922 0.0000
# 4 0.0000 0.0000 0.0000 27.6441 0.0000 -0.9764
# 5 -28.5604 0.0609 -17.6922 0.0000 30.9492 0.0000
# 6 0.0000 0.0000 0.0000 -0.9764 0.0000 16.5983
#
#
#
# Elastic Compliance Matrix: (Units=1/GPa)
#
#
# Indices 1 2 3 4 5 6 
#
# 1 0.013843 0.000717 -0.003869 0.000000 0.010562 0.000000
# 2 0.000717 0.036502 0.000263 0.000000 0.000740 0.000000
# 3 -0.003869 0.000263 0.010124 0.000000 0.002217 0.000000
# 4 0.000000 0.000000 0.000000 0.036249 0.000000 0.002132
# 5 0.010562 0.000740 0.002217 0.000000 0.043324 0.000000
# 6 0.000000 0.000000 0.000000 0.002132 0.000000 0.060373
#
#
# Mechanical properties :
#
#
# Convention : Reuss Voigt Hill
#
# Bulk Modulus (GPa) = 18.28423 38.17540 28.22982
# Shear Modulus (GPa) = 22.27933 29.14132 25.71033
#
# Velocity S-wave (km/s) = 3.19875 3.65834 3.43624
# Velocity P-wave (km/s) = 4.69467 5.94786 5.35803
#
# Compressibility (1/GPa) = 0.05469195
#
# Stress axis : x y z
#
# Youngs Moduli (GPa) = 72.23848 27.39579 98.77059
#
# Poissons Ratio (x) = -0.01964 0.38210
# Poissons Ratio (y) = -0.05180 -0.02596
# Poissons Ratio (z) = 0.27946 -0.00720
#
# Static dielectric constant tensor:
#      x y z
#    x 1.811840 0.000000 0.001350 
#    y 0.000000 1.828130 0.000000 
#    z 0.001350 0.000000 1.796130 
# 
# From -- ./inp_files/49329.got.cif
#   From: 2010.05.17/outbox.cif.g08.bks.cpg/sg11_25_cif.got.tgz:49329.got - 2010.06.03 12:22:45.
