data_PCOD9163184
_publ_section_title
;
Structure prediction by ZEFSAII (Michael W. Deem and Ramdas Pophale) SiO2 
 PCOD9163184
Probable space group: P 21/M
;
_chemical_formula_sum "Si O2"
_cell_formula_units_Z 32
_cell_length_a 28.910276
_cell_length_b 7.886874
_cell_length_c 11.904595
_cell_angle_alpha 90.000000
_cell_angle_beta 148.742542
_cell_angle_gamma 90.000000
_cell_volume 1408.453432
_symmetry_space_group_name_H-M "P 21/M"
_symmetry_group_IT_number 11
_symmetry_cell_setting 'monoclinic'
loop_
_space_group_symop_operation_xyz
x,y,z
-x,1/2+y,-z
-x,-y,-z
x,1/2-y,z
loop_
_atom_site_type_symbol
_atom_site_label
_atom_site_fract_x
_atom_site_fract_y
_atom_site_fract_z
Si Si1 0.645128 0.458262 0.085283
Si Si2 0.710355 0.445458 0.453739
Si Si3 0.129977 0.946778 0.813534
Si Si4 0.825677 0.454804 0.339672
Si Si5 0.518146 0.545791 0.408501
Si Si6 0.018687 0.546945 0.777073
Si Si7 0.293748 0.051456 0.299655
Si Si8 0.097179 0.442029 0.161078
O O1 0.645482 0.250000 0.088032
O O2 0.651576 0.513591 0.228443
O O3 0.735088 0.514672 0.208554
O O4 0.560141 0.514477 0.837214
O O5 0.687376 0.250000 0.424982
O O6 0.703106 0.533429 0.559128
O O7 0.813689 0.455272 0.627246
O O8 0.110540 0.750000 0.751109
O O9 0.160493 0.022411 0.758570
O O10 0.046072 0.015434 0.709771
O O11 0.211771 0.957969 0.070590
O O12 0.820693 0.250000 0.327433
O O13 0.916386 0.505728 0.590181
O O14 0.500000 0.500000 0.500000
O O15 0.518367 0.750000 0.401887
O O16 0.614190 0.487141 0.563854
O O17 0.031726 0.750000 0.812349
O O18 0.083348 0.456650 0.998550
O O19 0.283311 0.250000 0.251022
O O20 0.112273 0.250000 0.227840
O O21 0.000000 0.500000 0.000000
#
# Coordination Sequence:
#
# PCOD9163184 Si02
#       8
#     4   4   4   4   4   4   4   4
#     4   9  20  39  62  86 118 157 200 249 303 362
#     4  11  22  39  62  88 120 163 209 250 302 366
#     4  10  21  37  59  85 119 162 207 249 302 372
#     4  10  20  36  59  86 116 159 206 254 311 363
#     4  10  22  42  66  94 124 157 201 249 306 369
#     4  11  22  36  55  85 121 160 204 251 302 365
#     4  11  23  38  61  91 123 160 203 258 312 362
#     4  12  24  39  60  86 120 163 207 257 307 359
#
# _framework density 22.719956
#
# number of rings (size 3 to 8) (size 9 to 14) (size 15 to 20)
#    0.000    1.500    1.250    4.125    0.000    4.500 
#    0.000    2.500    0.000    0.000    0.000    0.000 
#    0.000    0.000    0.000    0.000    0.000    0.000 
#
# Total GULP energy -178904.324084 kJ/mol
# GULP energy per Si atom -5590.760128 kJ/mol
# Density = 2.266824 g / cm^3
# Si number density = 22.719956 Si / 1000 Ang^3
#
#
#
# Elastic Constant Matrix: (Units=GPa)
#
#
# Indices 1 2 3 4 5 6 
#
# 1 89.0419 -4.4257 17.6761 0.0000 2.4322 0.0000
# 2 -4.4257 38.5341 -11.4076 0.0000 2.3365 0.0000
# 3 17.6761 -11.4076 95.4173 0.0000 -4.3585 0.0000
# 4 0.0000 0.0000 0.0000 16.6608 0.0000 -2.1335
# 5 2.4322 2.3365 -4.3585 0.0000 42.6664 0.0000
# 6 0.0000 0.0000 0.0000 -2.1335 0.0000 24.6494
#
#
#
# Elastic Compliance Matrix: (Units=1/GPa)
#
#
# Indices 1 2 3 4 5 6 
#
# 1 0.011715 0.000774 -0.002120 0.000000 -0.000927 0.000000
# 2 0.000774 0.027011 0.003030 0.000000 -0.001214 0.000000
# 3 -0.002120 0.003030 0.011286 0.000000 0.001108 0.000000
# 4 0.000000 0.000000 0.000000 0.060694 0.000000 0.005253
# 5 -0.000927 -0.001214 0.001108 0.000000 0.023670 0.000000
# 6 0.000000 0.000000 0.000000 0.005253 0.000000 0.041024
#
#
# Mechanical properties :
#
#
# Convention : Reuss Voigt Hill
#
# Bulk Modulus (GPa) = 18.73334 25.18657 21.95996
# Shear Modulus (GPa) = 26.34017 31.53870 28.93943
#
# Velocity S-wave (km/s) = 3.40860 3.72983 3.57283
# Velocity P-wave (km/s) = 4.87387 5.44597 5.16784
#
# Compressibility (1/GPa) = 0.05338075
#
# Stress axis : x y z
#
# Youngs Moduli (GPa) = 85.35836 37.02245 88.60599
#
# Poissons Ratio (x) = -0.02866 0.18785
# Poissons Ratio (y) = -0.06607 -0.26851
# Poissons Ratio (z) = 0.18096 -0.11219
#
# Static dielectric constant tensor:
#      x y z
#    x 1.888990 0.000000 -0.025440 
#    y 0.000000 1.779630 0.000000 
#    z -0.025440 0.000000 1.840490 
# 
# From -- ./inp_files/45368.got.cif
#   From: 2010.05.17/outbox.cif.g08.bks.cpg/sg11_23_cif.got.tgz:45368.got - 2010.06.03 12:22:45.
