data_PCOD9163383
_publ_section_title
;
Structure prediction by ZEFSAII (Michael W. Deem and Ramdas Pophale) SiO2 
 PCOD9163383
Probable space group: P 21/M
;
_chemical_formula_sum "Si O2"
_cell_formula_units_Z 28
_cell_length_a 11.335069
_cell_length_b 14.086628
_cell_length_c 8.246047
_cell_angle_alpha 90.000000
_cell_angle_beta 70.664068
_cell_angle_gamma 90.000000
_cell_volume 1242.401468
_symmetry_space_group_name_H-M "P 21/M"
_symmetry_group_IT_number 11
_symmetry_cell_setting 'monoclinic'
loop_
_space_group_symop_operation_xyz
x,y,z
-x,1/2+y,-z
-x,-y,-z
x,1/2-y,z
loop_
_atom_site_type_symbol
_atom_site_label
_atom_site_fract_x
_atom_site_fract_y
_atom_site_fract_z
Si Si1 0.130176 0.039726 0.752259
Si Si2 0.479187 0.139308 0.365646
Si Si3 0.192387 0.639962 0.510217
Si Si4 0.517925 0.139315 0.713146
Si Si5 0.660935 0.497752 0.100745
Si Si6 0.134724 0.959579 0.224074
Si Si7 0.201322 0.140419 0.393196
O O1 0.223649 0.048987 0.859198
O O2 0.164427 0.112667 0.592970
O O3 0.155312 0.935156 0.663948
O O4 0.981951 0.050743 0.842669
O O5 0.512666 0.250000 0.347540
O O6 0.456419 0.115865 0.565330
O O7 0.351641 0.125497 0.324604
O O8 0.591272 0.078785 0.243385
O O9 0.178213 0.750000 0.561287
O O10 0.336594 0.622277 0.391533
O O11 0.118121 0.612516 0.381027
O O12 0.501938 0.250000 0.757357
O O13 0.447230 0.075599 0.876697
O O14 0.731582 0.447470 0.921660
O O15 0.139265 0.064474 0.301851
O O16 0.173659 0.250000 0.369359
#
# Coordination Sequence:
#
# PCOD9163383 Si02
#       7
#     4   4   4   4   4   4   4
#     4  11  22  39  61  83 112 158 202 229 268 339
#     4  10  20  36  62  90 111 143 193 240 286 340
#     4  10  21  40  64  86 111 148 195 243 284 330
#     4  10  20  36  62  90 111 143 193 240 286 340
#     4  12  22  38  60  85 122 153 180 237 294 337
#     4  11  26  38  53  88 123 154 190 227 285 347
#     4  10  21  40  64  86 111 148 195 243 284 330
#
# _framework density 22.536998000000001
#
# number of rings (size 3 to 8) (size 9 to 14) (size 15 to 20)
#    0.000    1.429    2.857    4.286    0.000    5.714 
#    0.000    2.857    0.000    5.143    0.000    0.000 
#    0.000    0.000    0.000    0.000    0.000    0.000 
#
# Total GULP energy -156557.889270 kJ/mol
# GULP energy per Si atom -5591.353188 kJ/mol
# Density = 2.248570 g / cm^3
# Si number density = 22.536998 Si / 1000 Ang^3
#
#
#
# Elastic Constant Matrix: (Units=GPa)
#
#
# Indices 1 2 3 4 5 6 
#
# 1 74.8133 0.5893 -10.5648 0.0000 -12.7283 0.0000
# 2 0.5893 61.8142 -1.7036 0.0000 -16.2657 0.0000
# 3 -10.5648 -1.7036 37.8271 0.0000 -23.6833 0.0000
# 4 0.0000 0.0000 0.0000 3.8363 0.0000 -1.3122
# 5 -12.7283 -16.2657 -23.6833 0.0000 35.2067 0.0000
# 6 0.0000 0.0000 0.0000 -1.3122 0.0000 14.2473
#
#
#
# Elastic Compliance Matrix: (Units=1/GPa)
#
#
# Indices 1 2 3 4 5 6 
#
# 1 0.020910 0.007269 0.022465 0.000000 0.026030 0.000000
# 2 0.007269 0.023805 0.020099 0.000000 0.027147 0.000000
# 3 0.022465 0.020099 0.076904 0.000000 0.069140 0.000000
# 4 0.000000 0.000000 0.000000 0.269150 0.000000 0.024790
# 5 0.026030 0.027147 0.069140 0.000000 0.096867 0.000000
# 6 0.000000 0.000000 0.000000 0.024790 0.000000 0.072472
#
#
# Mechanical properties :
#
#
# Convention : Reuss Voigt Hill
#
# Bulk Modulus (GPa) = 4.51905 16.78849 10.65377
# Shear Modulus (GPa) = 9.35972 23.06695 16.21334
#
# Velocity S-wave (km/s) = 2.04011 3.20271 2.68509
# Velocity P-wave (km/s) = 2.74935 4.59804 3.78820
#
# Compressibility (1/GPa) = 0.22128530
#
# Stress axis : x y z
#
# Youngs Moduli (GPa) = 47.82326 42.00713 13.00326
#
# Poissons Ratio (x) = -0.30536 -0.29212
# Poissons Ratio (y) = -0.34764 -0.26135
# Poissons Ratio (z) = -1.07434 -0.84429
#
# Static dielectric constant tensor:
#      x y z
#    x 1.883340 0.000000 0.002660 
#    y 0.000000 1.793090 0.000000 
#    z 0.002660 0.000000 1.840160 
# 
# From -- ./inp_files/17672.got.cif
#   From: 2010.05.17/outbox.cif.g08.bks.cpg/sg11_9_cif.got.tgz:17672.got - 2010.06.03 12:22:45.
