data_PCOD9163501
_publ_section_title
;
Structure prediction by ZEFSAII (Michael W. Deem and Ramdas Pophale) SiO2 
 PCOD9163501
Probable space group: P 21/M
;
_chemical_formula_sum "Si O2"
_cell_formula_units_Z 32
_cell_length_a 9.407256
_cell_length_b 13.457362
_cell_length_c 19.670255
_cell_angle_alpha 90.000000
_cell_angle_beta 43.053363
_cell_angle_gamma 90.000000
_cell_volume 1700.002539
_symmetry_space_group_name_H-M "P 21/M"
_symmetry_group_IT_number 11
_symmetry_cell_setting 'monoclinic'
loop_
_space_group_symop_operation_xyz
x,y,z
-x,1/2+y,-z
-x,-y,-z
x,1/2-y,z
loop_
_atom_site_type_symbol
_atom_site_label
_atom_site_fract_x
_atom_site_fract_y
_atom_site_fract_z
Si Si1 0.571833 0.527390 0.551354
Si Si2 0.643238 0.638380 0.291004
Si Si3 0.923783 0.637764 0.843264
Si Si4 0.991604 0.132836 0.618565
Si Si5 0.542568 0.046742 0.764917
Si Si6 0.500111 0.134715 0.924839
Si Si7 0.630563 0.136611 0.258181
Si Si8 0.936610 0.428125 0.791225
O O1 0.500000 0.500000 0.500000
O O2 0.524646 0.428460 0.610793
O O3 0.803239 0.571407 0.472869
O O4 0.436376 0.607590 0.641228
O O5 0.625978 0.750000 0.320204
O O6 0.596466 0.624708 0.228370
O O7 0.873435 0.599632 0.226815
O O8 0.934037 0.750000 0.811383
O O9 0.936696 0.547648 0.785648
O O10 0.118994 0.627550 0.826628
O O11 0.708149 0.625931 0.958937
O O12 0.998373 0.250000 0.597011
O O13 0.781659 0.078074 0.667635
O O14 0.979994 0.124418 0.704491
O O15 0.502855 0.062919 0.858453
O O16 0.476902 0.940844 0.755864
O O17 0.518452 0.250000 0.895563
O O18 0.709055 0.107905 0.893380
O O19 0.573527 0.250000 0.263307
#
# Coordination Sequence:
#
# PCOD9163501 Si02
#       8
#     4   4   4   4   4   4   4   4
#     4  11  21  36  57  86 113 144 193 226 280 338
#     4  11  21  35  57  84 119 147 186 241 283 330
#     4  10  20  37  58  84 114 153 195 232 284 347
#     4  11  22  38  62  85 115 152 190 235 287 343
#     4  10  21  39  58  84 114 149 195 235 282 338
#     4  10  21  36  60  84 114 153 191 236 291 342
#     4  10  21  38  57  80 117 157 189 234 291 342
#     4  11  19  37  56  87 114 148 188 240 291 334
#
# _framework density 18.823502000000001
#
# number of rings (size 3 to 8) (size 9 to 14) (size 15 to 20)
#    0.000    1.500    3.750    3.750    0.000    3.000 
#    0.000    5.000    0.000    1.500    0.000    0.000 
#    0.000    0.000    0.000    0.000    0.000    0.000 
#
# Total GULP energy -178404.144615 kJ/mol
# GULP energy per Si atom -5575.129519 kJ/mol
# Density = 1.878066 g / cm^3
# Si number density = 18.823502 Si / 1000 Ang^3
#
#
#
# Elastic Constant Matrix: (Units=GPa)
#
#
# Indices 1 2 3 4 5 6 
#
# 1 68.9867 17.5594 25.2676 0.0000 -26.3177 0.0000
# 2 17.5594 149.7408 29.1055 0.0000 -12.9591 0.0000
# 3 25.2676 29.1055 68.1888 0.0000 -35.2853 0.0000
# 4 0.0000 0.0000 0.0000 23.8688 0.0000 -1.0643
# 5 -26.3177 -12.9591 -35.2853 0.0000 34.4040 0.0000
# 6 0.0000 0.0000 0.0000 -1.0643 0.0000 30.8348
#
#
#
# Elastic Compliance Matrix: (Units=1/GPa)
#
#
# Indices 1 2 3 4 5 6 
#
# 1 0.020732 -0.001286 0.001752 0.000000 0.017172 0.000000
# 2 -0.001286 0.007377 -0.003715 0.000000 -0.002015 0.000000
# 3 0.001752 -0.003715 0.033181 0.000000 0.033972 0.000000
# 4 0.000000 0.000000 0.000000 0.041960 0.000000 0.001448
# 5 0.017172 -0.002015 0.033972 0.000000 0.076286 0.000000
# 6 0.000000 0.000000 0.000000 0.001448 0.000000 0.032481
#
#
# Mechanical properties :
#
#
# Convention : Reuss Voigt Hill
#
# Bulk Modulus (GPa) = 18.25040 47.86457 33.05749
# Shear Modulus (GPa) = 21.11694 32.15376 26.63535
#
# Velocity S-wave (km/s) = 3.35302 4.13749 3.76574
# Velocity P-wave (km/s) = 4.97060 6.95042 6.04215
#
# Compressibility (1/GPa) = 0.05479331
#
# Stress axis : x y z
#
# Youngs Moduli (GPa) = 48.23468 135.56275 30.13803
#
# Poissons Ratio (x) = 0.17428 -0.05282
# Poissons Ratio (y) = 0.06201 0.11196
# Poissons Ratio (z) = -0.08453 0.50360
#
# Static dielectric constant tensor:
#      x y z
#    x 1.662390 0.000000 -0.011530 
#    y 0.000000 1.683000 0.000000 
#    z -0.011530 0.000000 1.671740 
# 
# From -- ./inp_files/63807.got.cif
#   From: 2010.05.17/outbox.cif.g08.bks.cpg/sg11_32_cif.got.tgz:63807.got - 2010.06.03 12:22:45.
