data_PCOD9163578
_publ_section_title
;
Structure prediction by ZEFSAII (Michael W. Deem and Ramdas Pophale) SiO2 
 PCOD9163578
Probable space group: P 21/M
;
_chemical_formula_sum "Si O2"
_cell_formula_units_Z 32
_cell_length_a 12.428999
_cell_length_b 11.509503
_cell_length_c 25.882105
_cell_angle_alpha 90.000000
_cell_angle_beta 28.265975
_cell_angle_gamma 90.000000
_cell_volume 1753.364260
_symmetry_space_group_name_H-M "P 21/M"
_symmetry_group_IT_number 11
_symmetry_cell_setting 'monoclinic'
loop_
_space_group_symop_operation_xyz
x,y,z
-x,1/2+y,-z
-x,-y,-z
x,1/2-y,z
loop_
_atom_site_type_symbol
_atom_site_label
_atom_site_fract_x
_atom_site_fract_y
_atom_site_fract_z
Si Si1 0.912804 0.027634 0.750767
Si Si2 0.291457 0.112505 0.511627
Si Si3 0.629098 0.376749 0.956948
Si Si4 0.201206 0.611643 0.702980
Si Si5 0.578019 0.472259 0.085596
Si Si6 0.382092 0.887504 0.814758
Si Si7 0.011270 0.888359 0.892854
Si Si8 0.837384 0.889936 0.554225
O O1 0.840089 0.114141 0.828195
O O2 0.681817 0.999895 0.818167
O O3 0.101028 0.067525 0.630830
O O4 0.022554 0.920122 0.734641
O O5 0.302609 0.250000 0.515192
O O6 0.545188 0.064210 0.414025
O O7 0.225228 0.095604 0.479687
O O8 0.516401 0.250000 0.994514
O O9 0.500000 0.500000 0.000000
O O10 0.664942 0.385814 0.003411
O O11 0.218497 0.750000 0.699559
O O12 0.109400 0.567830 0.796863
O O13 0.594820 0.432382 0.137176
O O14 0.748962 0.579844 0.008166
O O15 0.349168 0.750000 0.832958
O O16 0.167453 0.935792 0.873269
O O17 0.610446 0.904475 0.684652
O O18 0.035507 0.750000 0.882439
O O19 0.909658 0.750000 0.530147
O O20 0.000000 0.000000 0.500000
#
# Coordination Sequence:
#
# PCOD9163578 Si02
#       8
#     4   4   4   4   4   4   4   4
#     4  11  22  36  56  88 119 153 190 249 308 351
#     4  10  20  37  60  83 116 158 206 247 293 361
#     4  10  22  37  54  80 118 155 191 232 291 351
#     4  10  20  37  60  85 113 157 208 247 289 356
#     4  11  22  36  56  88 119 153 190 249 308 351
#     4  10  20  37  60  83 116 158 206 247 293 361
#     4  10  20  37  60  85 113 157 208 247 289 356
#     4  10  20  37  62  92 121 159 204 254 303 355
#
# _framework density 18.250627000000001
#
# number of rings (size 3 to 8) (size 9 to 14) (size 15 to 20)
#    0.000    1.750    2.500    2.250    0.000    5.000 
#    0.000    1.250    0.000    4.500    0.000    0.000 
#    0.000    0.000    0.000    0.000    0.000    0.000 
#
# Total GULP energy -178163.281872 kJ/mol
# GULP energy per Si atom -5567.602559 kJ/mol
# Density = 1.820909 g / cm^3
# Si number density = 18.250627 Si / 1000 Ang^3
#
#
#
# Elastic Constant Matrix: (Units=GPa)
#
#
# Indices 1 2 3 4 5 6 
#
# 1 133.7401 29.2551 76.6188 0.0000 2.3111 0.0000
# 2 29.2551 60.3464 28.3638 0.0000 -1.7375 0.0000
# 3 76.6188 28.3638 140.6396 0.0000 9.6630 0.0000
# 4 0.0000 0.0000 0.0000 -2.0509 0.0000 -21.5619
# 5 2.3111 -1.7375 9.6630 0.0000 42.5350 0.0000
# 6 0.0000 0.0000 0.0000 -21.5619 0.0000 9.9920
#
#
#
# Elastic Compliance Matrix: (Units=1/GPa)
#
#
# Indices 1 2 3 4 5 6 
#
# 1 0.011311 -0.002821 -0.005631 0.000000 0.000549 0.000000
# 2 -0.002821 0.019119 -0.002421 0.000000 0.001484 0.000000
# 3 -0.005631 -0.002421 0.010821 0.000000 -0.002251 0.000000
# 4 0.000000 0.000000 0.000000 -0.020585 0.000000 -0.044420
# 5 0.000549 0.001484 -0.002251 0.000000 0.024052 0.000000
# 6 0.000000 0.000000 0.000000 -0.044420 0.000000 0.004225
#
#
# Mechanical properties :
#
#
# Convention : Reuss Voigt Hill
#
# Bulk Modulus (GPa) = 51.26815 67.02238 59.14526
# Shear Modulus (GPa) = 64.77506 23.46113 44.11810
#
# Velocity S-wave (km/s) = 5.96398 3.58927 4.92199
# Velocity P-wave (km/s) = 8.69353 7.34712 8.04853
#
# Compressibility (1/GPa) = 0.01950529
#
# Stress axis : x y z
#
# Youngs Moduli (GPa) = 88.41324 52.30341 92.41409
#
# Poissons Ratio (x) = 0.14754 0.52035
# Poissons Ratio (y) = 0.24940 0.22375
# Poissons Ratio (z) = 0.49783 0.12663
#
# Static dielectric constant tensor:
#      x y z
#    x 1.648230 0.000000 -0.003200 
#    y 0.000000 1.642050 0.000000 
#    z -0.003200 0.000000 1.646460 
# 
# From -- ./inp_files/34810.got.cif
#   From: 2010.05.17/outbox.cif.g08.bks.cpg/sg11_18_cif.got.tgz:34810.got - 2010.06.03 12:22:45.
