data_PCOD9163737
_publ_section_title
;
Structure prediction by ZEFSAII (Michael W. Deem and Ramdas Pophale) SiO2 
 PCOD9163737
Probable space group: P 21/M
;
_chemical_formula_sum "Si O2"
_cell_formula_units_Z 32
_cell_length_a 13.235813
_cell_length_b 8.628891
_cell_length_c 31.158465
_cell_angle_alpha 90.000000
_cell_angle_beta 152.352782
_cell_angle_gamma 90.000000
_cell_volume 1651.293109
_symmetry_space_group_name_H-M "P 21/M"
_symmetry_group_IT_number 11
_symmetry_cell_setting 'monoclinic'
loop_
_space_group_symop_operation_xyz
x,y,z
-x,1/2+y,-z
-x,-y,-z
x,1/2-y,z
loop_
_atom_site_type_symbol
_atom_site_label
_atom_site_fract_x
_atom_site_fract_y
_atom_site_fract_z
Si Si1 0.207937 0.063440 0.552391
Si Si2 0.910239 0.938991 0.106938
Si Si3 0.048821 0.934117 0.405051
Si Si4 0.488527 0.935458 0.894296
Si Si5 0.262234 0.433597 0.401206
Si Si6 0.538513 0.935145 0.210412
Si Si7 0.072381 0.064323 0.787808
Si Si8 0.639583 0.060960 0.766707
O O1 0.199648 0.250000 0.548919
O O2 0.431035 0.015024 0.659750
O O3 0.187491 0.999377 0.496656
O O4 0.000000 0.000000 0.500000
O O5 0.912228 0.750000 0.107650
O O6 0.900491 0.988361 0.152837
O O7 0.133806 0.990738 0.168617
O O8 0.698663 0.987527 0.000618
O O9 0.082555 0.750000 0.413270
O O10 0.792942 0.960657 0.317421
O O11 0.114120 0.016748 0.385755
O O12 0.472733 0.750000 0.890630
O O13 0.509743 0.985526 0.852908
O O14 0.272633 0.005991 0.834336
O O15 0.500000 0.500000 0.500000
O O16 0.271664 0.250000 0.401220
O O17 0.149748 0.503253 0.316723
O O18 0.510030 0.750000 0.194490
O O19 0.398075 0.988822 0.198318
O O20 0.069596 0.250000 0.785808
O O21 0.639972 0.250000 0.767294
#
# Coordination Sequence:
#
# PCOD9163737 Si02
#       8
#     4   4   4   4   4   4   4   4
#     4  11  21  35  59  87 119 162 207 251 303 364
#     4   9  21  39  61  88 120 158 203 256 313 369
#     4  11  22  39  60  89 124 160 204 251 303 368
#     4  11  22  38  62  91 119 155 206 259 309 367
#     4  12  26  43  63  92 126 163 201 248 306 365
#     4  10  20  37  62  87 120 162 202 248 306 369
#     4  11  22  40  65  91 122 162 205 252 307 368
#     4   9  19  38  59  85 120 161 202 246 306 370
#
# _framework density 19.378751999999999
#
# number of rings (size 3 to 8) (size 9 to 14) (size 15 to 20)
#    0.000    1.500    2.500    3.000    1.750    1.000 
#    0.000    1.875    0.000    5.250    0.000    0.000 
#    0.000    0.000    0.000    0.000    0.000    0.000 
#
# Total GULP energy -178868.074747 kJ/mol
# GULP energy per Si atom -5589.627336 kJ/mol
# Density = 1.933464 g / cm^3
# Si number density = 19.378752 Si / 1000 Ang^3
#
#
#
# Elastic Constant Matrix: (Units=GPa)
#
#
# Indices 1 2 3 4 5 6 
#
# 1 106.8150 27.1528 61.4035 0.0000 -26.9167 0.0000
# 2 27.1528 54.4701 40.2459 0.0000 -9.7655 0.0000
# 3 61.4035 40.2459 153.6256 0.0000 -19.2527 0.0000
# 4 0.0000 0.0000 0.0000 27.3874 0.0000 -4.3705
# 5 -26.9167 -9.7655 -19.2527 0.0000 34.1800 0.0000
# 6 0.0000 0.0000 0.0000 -4.3705 0.0000 21.8961
#
#
#
# Elastic Compliance Matrix: (Units=1/GPa)
#
#
# Indices 1 2 3 4 5 6 
#
# 1 0.014475 -0.002749 -0.004019 0.000000 0.008350 0.000000
# 2 -0.002749 0.023657 -0.004866 0.000000 0.001853 0.000000
# 3 -0.004019 -0.004866 0.009490 0.000000 0.000790 0.000000
# 4 0.000000 0.000000 0.000000 0.037714 0.000000 0.007528
# 5 0.008350 0.001853 0.000790 0.000000 0.036807 0.000000
# 6 0.000000 0.000000 0.000000 0.007528 0.000000 0.047173
#
#
# Mechanical properties :
#
#
# Convention : Reuss Voigt Hill
#
# Bulk Modulus (GPa) = 41.06374 63.61280 52.33827
# Shear Modulus (GPa) = 24.91244 29.09995 27.00619
#
# Velocity S-wave (km/s) = 3.58935 3.87931 3.73714
# Velocity P-wave (km/s) = 6.19790 7.27755 6.75932
#
# Compressibility (1/GPa) = 0.02435239
#
# Stress axis : x y z
#
# Youngs Moduli (GPa) = 69.08270 42.27084 105.37844
#
# Poissons Ratio (x) = 0.11621 0.42352
# Poissons Ratio (y) = 0.18993 0.51282
# Poissons Ratio (z) = 0.27765 0.20571
#
# Static dielectric constant tensor:
#      x y z
#    x 1.657570 0.000000 -0.001490 
#    y 0.000000 1.697920 0.000000 
#    z -0.001490 0.000000 1.663600 
# 
# From -- ./inp_files/73186.got.cif
#   From: 2010.05.17/outbox.cif.g08.bks.cpg/sg11_37_cif.got.tgz:73186.got - 2010.06.03 12:22:45.
