data_PCOD9163392
_publ_section_title
;
Structure prediction by ZEFSAII (Michael W. Deem and Ramdas Pophale) SiO2 
 PCOD9163392
Probable space group: P 21/M
;
_chemical_formula_sum "Si O2"
_cell_formula_units_Z 32
_cell_length_a 16.390343
_cell_length_b 14.684023
_cell_length_c 12.033924
_cell_angle_alpha 90.000000
_cell_angle_beta 142.149511
_cell_angle_gamma 90.000000
_cell_volume 1777.165638
_symmetry_space_group_name_H-M "P 21/M"
_symmetry_group_IT_number 11
_symmetry_cell_setting 'monoclinic'
loop_
_space_group_symop_operation_xyz
x,y,z
-x,1/2+y,-z
-x,-y,-z
x,1/2-y,z
loop_
_atom_site_type_symbol
_atom_site_label
_atom_site_fract_x
_atom_site_fract_y
_atom_site_fract_z
Si Si1 0.863559 0.478224 0.412070
Si Si2 0.469423 0.152550 0.703080
Si Si3 0.284868 0.358126 0.040560
Si Si4 0.614540 0.573675 0.611545
Si Si5 0.114602 0.010739 0.212169
Si Si6 0.967204 0.357547 0.710409
Si Si7 0.600203 0.004185 0.000750
Si Si8 0.165556 0.146533 0.454270
O O1 0.892354 0.391620 0.520168
O O2 0.838439 0.571069 0.454249
O O3 0.000000 0.500000 0.500000
O O4 0.739849 0.461520 0.199620
O O5 0.534433 0.250000 0.796348
O O6 0.445535 0.140881 0.546005
O O7 0.543415 0.071354 0.845327
O O8 0.320432 0.153268 0.590660
O O9 0.296187 0.250000 0.036431
O O10 0.344187 0.384775 0.225300
O O11 0.361926 0.411563 0.025218
O O12 0.125685 0.380471 0.871358
O O13 0.500000 0.500000 0.500000
O O14 0.745372 0.528177 0.697274
O O15 0.094629 0.097081 0.273364
O O16 0.102901 0.919047 0.271485
O O17 0.000000 0.000000 0.000000
O O18 0.956651 0.250000 0.718407
O O19 0.500000 0.000000 0.000000
O O20 0.117919 0.250000 0.426206
#
# Coordination Sequence:
#
# PCOD9163392 Si02
#       8
#     4   4   4   4   4   4   4   4
#     4  11  22  38  61  85 120 158 204 256 305 358
#     4  10  21  39  63  90 120 159 204 249 301 364
#     4  11  23  40  67  95 121 163 213 255 308 378
#     4  11  21  39  66  91 128 163 198 250 312 370
#     4  10  20  36  62  91 122 158 201 253 306 360
#     4  10  22  40  61  91 125 162 208 259 309 366
#     4  12  24  41  63  92 124 163 206 255 313 368
#     4   9  20  37  60  86 116 158 204 245 299 368
#
# _framework density 18.0062
#
# number of rings (size 3 to 8) (size 9 to 14) (size 15 to 20)
#    0.000    1.500    5.000    0.375    0.000    3.000 
#    0.000    2.500    0.000    0.000    0.000    0.000 
#    0.000    0.000    0.000    0.000    0.000    0.000 
#
# Total GULP energy -178329.353731 kJ/mol
# GULP energy per Si atom -5572.792304 kJ/mol
# Density = 1.796522 g / cm^3
# Si number density = 18.006200 Si / 1000 Ang^3
#
#
#
# Elastic Constant Matrix: (Units=GPa)
#
#
# Indices 1 2 3 4 5 6 
#
# 1 73.8339 29.1317 16.2969 0.0000 -6.1158 0.0000
# 2 29.1317 110.0035 34.3146 0.0000 -0.7091 0.0000
# 3 16.2969 34.3146 119.4204 0.0000 -12.6293 0.0000
# 4 0.0000 0.0000 0.0000 20.9751 0.0000 7.1878
# 5 -6.1158 -0.7091 -12.6293 0.0000 22.2628 0.0000
# 6 0.0000 0.0000 0.0000 7.1878 0.0000 17.6251
#
#
#
# Elastic Compliance Matrix: (Units=1/GPa)
#
#
# Indices 1 2 3 4 5 6 
#
# 1 0.015530 -0.003902 -0.000596 0.000000 0.003804 0.000000
# 2 -0.003902 0.011007 -0.002879 0.000000 -0.002355 0.000000
# 3 -0.000596 -0.002879 0.009846 0.000000 0.005330 0.000000
# 4 0.000000 0.000000 0.000000 0.055421 0.000000 -0.022602
# 5 0.003804 -0.002355 0.005330 0.000000 0.048912 0.000000
# 6 0.000000 0.000000 0.000000 -0.022602 0.000000 0.065955
#
#
# Mechanical properties :
#
#
# Convention : Reuss Voigt Hill
#
# Bulk Modulus (GPa) = 46.23526 51.41603 48.82564
# Shear Modulus (GPa) = 21.86890 27.07354 24.47122
#
# Velocity S-wave (km/s) = 3.48878 3.88179 3.69052
# Velocity P-wave (km/s) = 6.47780 6.97909 6.73311
#
# Compressibility (1/GPa) = 0.02162852
#
# Stress axis : x y z
#
# Youngs Moduli (GPa) = 64.39044 90.85059 101.56294
#
# Poissons Ratio (x) = 0.35454 0.06050
# Poissons Ratio (y) = 0.25128 0.29243
# Poissons Ratio (z) = 0.03836 0.26159
#
# Static dielectric constant tensor:
#      x y z
#    x 1.500580 0.000000 0.028690 
#    y 0.000000 1.746250 0.000000 
#    z 0.028690 0.000000 1.570110 
# 
# From -- ./inp_files/39698.got.cif
#   From: 2010.05.17/outbox.cif.g08.bks.cpg/sg11_20_cif.got.tgz:39698.got - 2010.06.03 12:22:45.
