data_PCOD9163227
_publ_section_title
;
Structure prediction by ZEFSAII (Michael W. Deem and Ramdas Pophale) SiO2 
 PCOD9163227
Probable space group: P 21/M
;
_chemical_formula_sum "Si O2"
_cell_formula_units_Z 32
_cell_length_a 24.268749
_cell_length_b 8.375259
_cell_length_c 15.598053
_cell_angle_alpha 90.000000
_cell_angle_beta 27.284138
_cell_angle_gamma 90.000000
_cell_volume 1453.329134
_symmetry_space_group_name_H-M "P 21/M"
_symmetry_group_IT_number 11
_symmetry_cell_setting 'monoclinic'
loop_
_space_group_symop_operation_xyz
x,y,z
-x,1/2+y,-z
-x,-y,-z
x,1/2-y,z
loop_
_atom_site_type_symbol
_atom_site_label
_atom_site_fract_x
_atom_site_fract_y
_atom_site_fract_z
Si Si1 0.747413 0.931345 0.655619
Si Si2 0.016539 0.940350 0.734252
Si Si3 0.315725 0.567450 0.085753
Si Si4 0.907051 0.558961 0.701133
Si Si5 0.416385 0.558154 0.693375
Si Si6 0.372009 0.058141 0.483647
Si Si7 0.792806 0.442184 0.132490
Si Si8 0.573703 0.433077 0.768785
O O1 0.758010 0.750000 0.671531
O O2 0.754757 0.047783 0.726771
O O3 0.624040 0.958262 0.775341
O O4 0.855350 0.974285 0.442650
O O5 0.031863 0.750000 0.714470
O O6 0.956633 0.988089 0.725721
O O7 0.925810 0.993452 0.933913
O O8 0.350332 0.750000 0.022204
O O9 0.224210 0.510769 0.139380
O O10 0.435465 0.467179 0.937424
O O11 0.900195 0.750000 0.706888
O O12 0.000000 0.500000 0.500000
O O13 0.500000 0.500000 0.500000
O O14 0.413298 0.750000 0.700100
O O15 0.493742 0.508112 0.668602
O O16 0.285768 0.503462 0.842599
O O17 0.369731 0.250000 0.478076
O O18 0.276703 0.006537 0.687831
O O19 0.354333 0.975764 0.417225
O O20 0.792732 0.250000 0.135616
O O21 0.591410 0.250000 0.768722
#
# Coordination Sequence:
#
# PCOD9163227 Si02
#       8
#     4   4   4   4   4   4   4   4
#     4  12  25  45  69  93 124 165 213 264 321 381
#     4  11  24  41  63  94 130 171 214 260 315 379
#     4  12  25  43  67  96 131 168 211 261 318 381
#     4  11  23  40  64  96 133 171 212 260 318 379
#     4   8  16  30  51  79 114 154 196 243 298 357
#     4  10  20  38  60  89 125 165 211 263 316 371
#     4  10  20  36  59  90 125 169 213 257 313 375
#     4  12  26  44  66  94 127 166 214 265 319 378
#
# _framework density 22.018412000000001
#
# number of rings (size 3 to 8) (size 9 to 14) (size 15 to 20)
#    0.000    1.250    1.250    5.250    1.750    2.500 
#    0.000    0.625    0.000    0.000    0.000    0.000 
#    0.000    0.000    0.000    0.000    0.000    0.000 
#
# Total GULP energy -178972.562181 kJ/mol
# GULP energy per Si atom -5592.892568 kJ/mol
# Density = 2.196830 g / cm^3
# Si number density = 22.018412 Si / 1000 Ang^3
#
#
#
# Elastic Constant Matrix: (Units=GPa)
#
#
# Indices 1 2 3 4 5 6 
#
# 1 55.1403 1.6461 -0.5984 0.0000 -4.9673 0.0000
# 2 1.6461 58.9718 1.9551 0.0000 -1.9374 0.0000
# 3 -0.5984 1.9551 98.5832 0.0000 -7.4143 0.0000
# 4 0.0000 0.0000 0.0000 33.0823 0.0000 -0.4265
# 5 -4.9673 -1.9374 -7.4143 0.0000 28.9816 0.0000
# 6 0.0000 0.0000 0.0000 -0.4265 0.0000 26.2011
#
#
#
# Elastic Compliance Matrix: (Units=1/GPa)
#
#
# Indices 1 2 3 4 5 6 
#
# 1 0.018443 -0.000421 0.000363 0.000000 0.003226 0.000000
# 2 -0.000421 0.017011 -0.000265 0.000000 0.000997 0.000000
# 3 0.000363 -0.000265 0.010354 0.000000 0.002693 0.000000
# 4 0.000000 0.000000 0.000000 0.030234 0.000000 0.000492
# 5 0.003226 0.000997 0.002693 0.000000 0.035813 0.000000
# 6 0.000000 0.000000 0.000000 0.000492 0.000000 0.038174
#
#
# Mechanical properties :
#
#
# Convention : Reuss Voigt Hill
#
# Bulk Modulus (GPa) = 22.14288 24.30007 23.22147
# Shear Modulus (GPa) = 30.16993 31.63250 30.90122
#
# Velocity S-wave (km/s) = 3.70566 3.79441 3.75030
# Velocity P-wave (km/s) = 5.32800 5.50063 5.41500
#
# Compressibility (1/GPa) = 0.04516124
#
# Stress axis : x y z
#
# Youngs Moduli (GPa) = 54.22215 58.78701 96.58363
#
# Poissons Ratio (x) = 0.02474 -0.03505
# Poissons Ratio (y) = 0.02282 0.02559
# Poissons Ratio (z) = -0.01968 0.01557
#
# Static dielectric constant tensor:
#      x y z
#    x 1.813170 0.000000 -0.008080 
#    y 0.000000 1.728590 0.000000 
#    z -0.008080 0.000000 1.830280 
# 
# From -- ./inp_files/55582.got.cif
#   From: 2010.05.17/outbox.cif.g08.bks.cpg/sg11_28_cif.got.tgz:55582.got - 2010.06.03 12:22:45.
