data_PCOD9163124
_publ_section_title
;
Structure prediction by ZEFSAII (Michael W. Deem and Ramdas Pophale) SiO2 
 PCOD9163124
Probable space group: P 21/M
;
_chemical_formula_sum "Si O2"
_cell_formula_units_Z 28
_cell_length_a 32.008388
_cell_length_b 8.347597
_cell_length_c 10.565440
_cell_angle_alpha 90.000000
_cell_angle_beta 32.695697
_cell_angle_gamma 90.000000
_cell_volume 1524.926987
_symmetry_space_group_name_H-M "P 21/M"
_symmetry_group_IT_number 11
_symmetry_cell_setting 'monoclinic'
loop_
_space_group_symop_operation_xyz
x,y,z
-x,1/2+y,-z
-x,-y,-z
x,1/2-y,z
loop_
_atom_site_type_symbol
_atom_site_label
_atom_site_fract_x
_atom_site_fract_y
_atom_site_fract_z
Si Si1 0.661919 0.055835 0.326255
Si Si2 0.079701 0.443622 0.450707
Si Si3 0.495758 0.441436 0.655436
Si Si4 0.256974 0.554198 0.619954
Si Si5 0.236198 0.441819 0.170621
Si Si6 0.669059 0.441217 0.830553
Si Si7 0.907872 0.056460 0.868917
O O1 0.664767 0.250000 0.314385
O O2 0.573418 0.004508 0.529539
O O3 0.696854 0.004765 0.371678
O O4 0.713278 0.991803 0.079853
O O5 0.080118 0.250000 0.448808
O O6 0.148340 0.497443 0.367786
O O7 0.098064 0.501072 0.261555
O O8 0.992080 0.497413 0.703636
O O9 0.500000 0.500000 0.500000
O O10 0.495960 0.250000 0.652826
O O11 0.416776 0.497899 0.920574
O O12 0.257160 0.750000 0.617752
O O13 0.297054 0.498320 0.389084
O O14 0.167816 0.502053 0.862730
O O15 0.236799 0.250000 0.178453
O O16 0.275234 0.510889 0.196172
O O17 0.665653 0.250000 0.833648
O O18 0.907617 0.250000 0.869633
#
# Coordination Sequence:
#
# PCOD9163124 Si02
#       7
#     4   4   4   4   4   4   4
#     4  10  20  36  59  82 105 139 183 224 266 325
#     4   9  18  30  50  83 112 137 176 226 273 319
#     4  11  22  36  57  84 112 140 179 226 274 325
#     4   9  19  36  57  81 108 144 185 224 267 323
#     4  11  21  34  53  81 113 143 181 226 274 324
#     4  11  23  38  56  78 109 147 187 226 269 323
#     4   9  16  31  55  79 108 143 178 220 270 322
#
# _framework density 18.361535
#
# number of rings (size 3 to 8) (size 9 to 14) (size 15 to 20)
#    0.000    2.000    2.857    1.286    0.000    1.714 
#    0.000    3.571    0.000    0.000    0.000    0.000 
#    0.000    0.000    0.000    0.000    0.000    0.000 
#
# Total GULP energy -156267.845747 kJ/mol
# GULP energy per Si atom -5580.994491 kJ/mol
# Density = 1.831974 g / cm^3
# Si number density = 18.361535 Si / 1000 Ang^3
#
#
#
# Elastic Constant Matrix: (Units=GPa)
#
#
# Indices 1 2 3 4 5 6 
#
# 1 130.5413 18.8519 98.0011 0.0000 -13.9578 0.0000
# 2 18.8519 15.9872 19.8797 0.0000 -4.8717 0.0000
# 3 98.0011 19.8797 176.3160 0.0000 -10.6839 0.0000
# 4 0.0000 0.0000 0.0000 16.8698 0.0000 -6.1777
# 5 -13.9578 -4.8717 -10.6839 0.0000 38.0028 0.0000
# 6 0.0000 0.0000 0.0000 -6.1777 0.0000 11.7258
#
#
#
# Elastic Compliance Matrix: (Units=1/GPa)
#
#
# Indices 1 2 3 4 5 6 
#
# 1 0.014150 -0.007415 -0.006889 0.000000 0.002310 0.000000
# 2 -0.007415 0.078592 -0.004369 0.000000 0.006123 0.000000
# 3 -0.006889 -0.004369 0.009976 0.000000 -0.000286 0.000000
# 4 0.000000 0.000000 0.000000 0.073448 0.000000 0.038695
# 5 0.002310 0.006123 -0.000286 0.000000 0.027867 0.000000
# 6 0.000000 0.000000 0.000000 0.038695 0.000000 0.105668
#
#
# Mechanical properties :
#
#
# Convention : Reuss Voigt Hill
#
# Bulk Modulus (GPa) = 15.29701 66.25666 40.77684
# Shear Modulus (GPa) = 13.55611 25.72714 19.64163
#
# Velocity S-wave (km/s) = 2.72009 3.74725 3.27420
# Velocity P-wave (km/s) = 4.26782 7.40846 6.04564
#
# Compressibility (1/GPa) = 0.06537225
#
# Stress axis : x y z
#
# Youngs Moduli (GPa) = 70.67173 12.72392 100.24168
#
# Poissons Ratio (x) = 0.09435 0.69055
# Poissons Ratio (y) = 0.52406 0.43791
# Poissons Ratio (z) = 0.48685 0.05558
#
# Static dielectric constant tensor:
#      x y z
#    x 1.627450 0.000000 -0.037530 
#    y 0.000000 1.638170 0.000000 
#    z -0.037530 0.000000 1.566150 
# 
# From -- ./inp_files/28254.got.cif
#   From: 2010.05.17/outbox.cif.g08.bks.cpg/sg11_15_cif.got.tgz:28254.got - 2010.06.03 12:22:45.
