data_PCOD9163374
_publ_section_title
;
Structure prediction by ZEFSAII (Michael W. Deem and Ramdas Pophale) SiO2 
 PCOD9163374
Probable space group: P 21/M
;
_chemical_formula_sum "Si O2"
_cell_formula_units_Z 24
_cell_length_a 14.966411
_cell_length_b 8.536024
_cell_length_c 13.997231
_cell_angle_alpha 90.000000
_cell_angle_beta 141.148708
_cell_angle_gamma 90.000000
_cell_volume 1121.738348
_symmetry_space_group_name_H-M "P 21/M"
_symmetry_group_IT_number 11
_symmetry_cell_setting 'monoclinic'
loop_
_space_group_symop_operation_xyz
x,y,z
-x,1/2+y,-z
-x,-y,-z
x,1/2-y,z
loop_
_atom_site_type_symbol
_atom_site_label
_atom_site_fract_x
_atom_site_fract_y
_atom_site_fract_z
Si Si1 0.703128 0.566210 0.610430
Si Si2 0.987340 0.931336 0.142310
Si Si3 0.451975 0.935128 0.704186
Si Si4 0.774517 0.934973 0.341063
Si Si5 0.713740 0.064866 0.822169
Si Si6 0.067219 0.567327 0.703899
O O1 0.669409 0.750000 0.574630
O O2 0.638792 0.477318 0.466177
O O3 0.655593 0.498271 0.672763
O O4 0.872676 0.537161 0.748978
O O5 0.025950 0.750000 0.159876
O O6 0.927454 0.960194 0.198755
O O7 0.863922 0.983486 0.968080
O O8 0.472443 0.750000 0.727735
O O9 0.362074 0.997215 0.718833
O O10 0.602385 0.018723 0.811652
O O11 0.757926 0.750000 0.310526
O O12 0.912228 0.954677 0.525244
O O13 0.816906 0.020841 0.278752
O O14 0.731417 0.250000 0.832461
O O15 0.081037 0.750000 0.742184
#
# Coordination Sequence:
#
# PCOD9163374 Si02
#       6
#     4   4   4   4   4   4
#     4  12  24  42  65  92 123 162 210 256 304 362
#     4  12  24  41  64  93 126 163 206 254 308 365
#     4  12  24  41  64  93 126 163 206 254 308 365
#     4  10  20  36  61  92 125 160 203 252 304 360
#     4  12  26  44  63  88 125 166 206 254 310 368
#     4  10  20  36  61  92 125 160 203 252 304 360
#
# _framework density 21.395364000000001
#
# number of rings (size 3 to 8) (size 9 to 14) (size 15 to 20)
#    0.000    0.667    1.667    8.000    0.000    1.333 
#    0.000    0.833    0.000    0.000    0.000    0.000 
#    0.000    0.000    0.000    0.000    0.000    0.000 
#
# Total GULP energy -134434.004853 kJ/mol
# GULP energy per Si atom -5601.416869 kJ/mol
# Density = 2.134667 g / cm^3
# Si number density = 21.395364 Si / 1000 Ang^3
#
#
#
# Elastic Constant Matrix: (Units=GPa)
#
#
# Indices 1 2 3 4 5 6 
#
# 1 111.0849 3.7483 -8.9951 0.0000 9.7373 0.0000
# 2 3.7483 92.3576 -10.0333 0.0000 -12.3849 0.0000
# 3 -8.9951 -10.0333 26.5105 0.0000 6.5150 0.0000
# 4 0.0000 0.0000 0.0000 24.4311 0.0000 0.4036
# 5 9.7373 -12.3849 6.5150 0.0000 20.5471 0.0000
# 6 0.0000 0.0000 0.0000 0.4036 0.0000 39.2987
#
#
#
# Elastic Compliance Matrix: (Units=1/GPa)
#
#
# Indices 1 2 3 4 5 6 
#
# 1 0.010002 -0.000792 0.004746 0.000000 -0.006722 0.000000
# 2 -0.000792 0.012058 0.002621 0.000000 0.006812 0.000000
# 3 0.004746 0.002621 0.043909 0.000000 -0.014592 0.000000
# 4 0.000000 0.000000 0.000000 0.040938 0.000000 -0.000420
# 5 -0.006722 0.006812 -0.014592 0.000000 0.060587 0.000000
# 6 0.000000 0.000000 0.000000 -0.000420 0.000000 0.025450
#
#
# Mechanical properties :
#
#
# Convention : Reuss Voigt Hill
#
# Bulk Modulus (GPa) = 12.63907 22.15476 17.39691
# Shear Modulus (GPa) = 24.25198 33.20424 28.72811
#
# Velocity S-wave (km/s) = 3.37042 3.94374 3.66830
# Velocity P-wave (km/s) = 4.58983 5.57807 5.10790
#
# Compressibility (1/GPa) = 0.07911974
#
# Stress axis : x y z
#
# Youngs Moduli (GPa) = 99.97577 82.93376 22.77426
#
# Poissons Ratio (x) = 0.06567 -0.10809
# Poissons Ratio (y) = 0.07916 -0.05968
# Poissons Ratio (z) = -0.47451 -0.21735
#
# Static dielectric constant tensor:
#      x y z
#    x 1.788170 0.000000 0.009480 
#    y 0.000000 1.674200 0.000000 
#    z 0.009480 0.000000 1.768570 
# 
# From -- ./inp_files/51824.got.cif
#   From: 2010.05.17/outbox.cif.g08.bks.cpg/sg11_26_cif.got.tgz:51824.got - 2010.06.03 12:22:45.
