data_PCOD9163479
_publ_section_title
;
Structure prediction by ZEFSAII (Michael W. Deem and Ramdas Pophale) SiO2 
 PCOD9163479
Probable space group: P 21/M
;
_chemical_formula_sum "Si O2"
_cell_formula_units_Z 22
_cell_length_a 13.266704
_cell_length_b 7.504243
_cell_length_c 19.661701
_cell_angle_alpha 90.000000
_cell_angle_beta 152.223848
_cell_angle_gamma 90.000000
_cell_volume 912.208455
_symmetry_space_group_name_H-M "P 21/M"
_symmetry_group_IT_number 11
_symmetry_cell_setting 'monoclinic'
loop_
_space_group_symop_operation_xyz
x,y,z
-x,1/2+y,-z
-x,-y,-z
x,1/2-y,z
loop_
_atom_site_type_symbol
_atom_site_label
_atom_site_fract_x
_atom_site_fract_y
_atom_site_fract_z
Si Si1 0.081335 0.951250 0.927780
Si Si2 0.558281 0.554873 0.959188
Si Si3 0.243654 0.039007 0.663654
Si Si4 0.102555 0.750000 0.275177
Si Si5 0.601935 0.464994 0.769201
Si Si6 0.379076 0.037060 0.498822
O O1 0.996956 0.750000 0.885265
O O2 0.188885 0.020359 0.062282
O O3 0.929379 0.095058 0.803203
O O4 0.279602 0.943572 0.990841
O O5 0.670947 0.750000 0.029060
O O6 0.335428 0.555806 0.785014
O O7 0.500000 0.500000 0.000000
O O8 0.269675 0.250000 0.689827
O O9 0.398565 0.982988 0.694558
O O10 0.000000 0.000000 0.500000
O O11 0.170725 0.590354 0.370902
O O12 0.615365 0.250000 0.777197
O O13 0.537740 0.517986 0.655238
O O14 0.332824 0.250000 0.476756
O O15 0.500000 0.000000 0.500000
#
# Coordination Sequence:
#
# PCOD9163479 Si02
#       6
#     4   4   4   2   4   4
#     4  10  21  42  65  93 129 166 217 264 318 390
#     4  11  21  37  58  86 124 172 210 262 318 368
#     4  10  20  37  57  89 123 163 213 261 309 371
#     4  12  24  40  66 100 126 164 210 260 328 386
#     4   8  19  40  68  87 125 177 207 261 328 376
#     4  11  23  45  69  95 131 167 215 267 327 391
#
# _framework density 24.117294999999999
#
# number of rings (size 3 to 8) (size 9 to 14) (size 15 to 20)
#    0.000    1.818    1.818    3.818    0.000    2.182 
#    6.545    4.545    0.000    0.000    0.000    0.000 
#    0.000    0.000    0.000    0.000    0.000    0.000 
#
# Total GULP energy -122485.337252 kJ/mol
# GULP energy per Si atom -5567.515330 kJ/mol
# Density = 2.406240 g / cm^3
# Si number density = 24.117295 Si / 1000 Ang^3
#
#
#
# Elastic Constant Matrix: (Units=GPa)
#
#
# Indices 1 2 3 4 5 6 
#
# 1 89.8044 -3.8982 46.1574 0.0000 -27.4509 0.0000
# 2 -3.8982 157.6311 44.6611 0.0000 -11.0505 0.0000
# 3 46.1574 44.6611 135.8885 0.0000 -50.8314 0.0000
# 4 0.0000 0.0000 0.0000 41.7901 0.0000 3.5734
# 5 -27.4509 -11.0505 -50.8314 0.0000 47.6842 0.0000
# 6 0.0000 0.0000 0.0000 3.5734 0.0000 -129.3263
#
#
#
# Elastic Compliance Matrix: (Units=1/GPa)
#
#
# Indices 1 2 3 4 5 6 
#
# 1 0.014608 0.001757 -0.003728 0.000000 0.004843 0.000000
# 2 0.001757 0.007262 -0.003286 0.000000 -0.000808 0.000000
# 3 -0.003728 -0.003286 0.014333 0.000000 0.012371 0.000000
# 4 0.000000 0.000000 0.000000 0.023873 0.000000 0.000660
# 5 0.004843 -0.000808 0.012371 0.000000 0.036760 0.000000
# 6 0.000000 0.000000 0.000000 0.000660 0.000000 -0.007714
#
#
# Mechanical properties :
#
#
# Convention : Reuss Voigt Hill
#
# Bulk Modulus (GPa) = 38.92701 61.90720 50.41711
# Shear Modulus (GPa) = 46.21205 11.78984 29.00094
#
# Velocity S-wave (km/s) = 4.38212 2.21340 3.47146
# Velocity P-wave (km/s) = 6.46372 5.67954 6.08428
#
# Compressibility (1/GPa) = 0.02568910
#
# Stress axis : x y z
#
# Youngs Moduli (GPa) = 68.45615 137.70971 69.77011
#
# Poissons Ratio (x) = -0.24195 0.26009
# Poissons Ratio (y) = -0.12027 0.22925
# Poissons Ratio (z) = 0.25519 0.45248
#
# Static dielectric constant tensor:
#      x y z
#    x 1.869940 0.000000 -0.009570 
#    y 0.000000 2.056170 0.000000 
#    z -0.009570 0.000000 1.899220 
# 
# From -- ./inp_files/60053.got.cif
#   From: 2010.05.17/outbox.cif.g08.bks.cpg/sg11_31_cif.got.tgz:60053.got - 2010.06.03 12:22:45.
