data_PCOD9163020
_publ_section_title
;
Structure prediction by ZEFSAII (Michael W. Deem and Ramdas Pophale) SiO2 
 PCOD9163020
Probable space group: P 21/M
;
_chemical_formula_sum "Si O2"
_cell_formula_units_Z 28
_cell_length_a 11.832666
_cell_length_b 21.757152
_cell_length_c 5.203082
_cell_angle_alpha 90.000000
_cell_angle_beta 93.705225
_cell_angle_gamma 90.000000
_cell_volume 1336.708097
_symmetry_space_group_name_H-M "P 21/M"
_symmetry_group_IT_number 11
_symmetry_cell_setting 'monoclinic'
loop_
_space_group_symop_operation_xyz
x,y,z
-x,1/2+y,-z
-x,-y,-z
x,1/2-y,z
loop_
_atom_site_type_symbol
_atom_site_label
_atom_site_fract_x
_atom_site_fract_y
_atom_site_fract_z
Si Si1 0.540472 0.750000 0.691091
Si Si2 0.734716 0.474681 0.947705
Si Si3 0.469670 0.381774 0.234012
Si Si4 0.390480 0.750000 0.174777
Si Si5 0.899781 0.421919 0.343508
Si Si6 0.628422 0.562648 0.288868
Si Si7 0.306898 0.869322 0.426184
Si Si8 0.849416 0.943629 0.581588
O O1 0.596089 0.816753 0.733970
O O2 0.493190 0.750000 0.395205
O O3 0.443299 0.750000 0.900232
O O4 0.675481 0.431999 0.731538
O O5 0.784674 0.536981 0.832110
O O6 0.841507 0.435129 0.061713
O O7 0.652672 0.495899 0.165856
O O8 0.431553 0.430456 0.445501
O O9 0.599027 0.367175 0.335121
O O10 0.440698 0.402092 0.941939
O O11 0.323126 0.811394 0.241962
O O12 0.818131 0.374120 0.472784
O O13 0.880995 0.488570 0.475626
O O14 0.032748 0.409271 0.360313
O O15 0.756430 0.585010 0.378133
#
# Coordination Sequence:
#
# PCOD9163020 Si02
#       8
#     2   4   4   2   4   4   4   4
#     4  10  22  42  64  84 110 166 208 258 287 360
#     4  10  20  36  57  94 126 162 203 240 314 359
#     4  11  23  39  62  87 123 153 206 247 310 365
#     4  10  22  40  64  84 120 152 210 256 299 358
#     4   9  19  34  61  85 119 159 202 245 292 358
#     4  11  22  38  60  90 123 166 190 253 299 366
#     4  10  23  37  58  93 118 162 199 257 308 367
#     4   9  18  38  55  89 120 160 203 239 288 360
#
# _framework density 20.946985000000002
#
# number of rings (size 3 to 8) (size 9 to 14) (size 15 to 20)
#    0.000    2.000    1.429    2.143    6.000    2.286 
#    0.000    0.000    0.000    1.714    0.000    0.000 
#    0.000    0.000    0.000    0.000    0.000    0.000 
#
# Total GULP energy -156149.451144 kJ/mol
# GULP energy per Si atom -5576.766112 kJ/mol
# Density = 2.089931 g / cm^3
# Si number density = 20.946985 Si / 1000 Ang^3
#
#
#
# Elastic Constant Matrix: (Units=GPa)
#
#
# Indices 1 2 3 4 5 6 
#
# 1 103.2373 25.7618 45.3549 0.0000 4.4201 0.0000
# 2 25.7618 56.6980 20.2258 0.0000 -5.1504 0.0000
# 3 45.3549 20.2258 116.2472 0.0000 0.7284 0.0000
# 4 0.0000 0.0000 0.0000 32.8551 0.0000 -8.4045
# 5 4.4201 -5.1504 0.7284 0.0000 23.1703 0.0000
# 6 0.0000 0.0000 0.0000 -8.4045 0.0000 14.4604
#
#
#
# Elastic Compliance Matrix: (Units=1/GPa)
#
#
# Indices 1 2 3 4 5 6 
#
# 1 0.012821 -0.004641 -0.004174 0.000000 -0.003346 0.000000
# 2 -0.004641 0.020919 -0.001864 0.000000 0.005594 0.000000
# 3 -0.004174 -0.001864 0.010555 0.000000 0.000050 0.000000
# 4 0.000000 0.000000 0.000000 0.035752 0.000000 0.020779
# 5 -0.003346 0.005594 0.000050 0.000000 0.045039 0.000000
# 6 0.000000 0.000000 0.000000 0.020779 0.000000 0.081232
#
#
# Mechanical properties :
#
#
# Convention : Reuss Voigt Hill
#
# Bulk Modulus (GPa) = 43.59624 50.98528 47.29076
# Shear Modulus (GPa) = 21.24753 26.41982 23.83367
#
# Velocity S-wave (km/s) = 3.18834 3.55529 3.37680
# Velocity P-wave (km/s) = 5.86616 6.42234 6.15054
#
# Compressibility (1/GPa) = 0.02293776
#
# Stress axis : x y z
#
# Youngs Moduli (GPa) = 77.99415 47.80339 94.74254
#
# Poissons Ratio (x) = 0.22184 0.39546
# Poissons Ratio (y) = 0.36194 0.17661
# Poissons Ratio (z) = 0.32555 0.08911
#
# Static dielectric constant tensor:
#      x y z
#    x 1.802270 0.000000 -0.023730 
#    y 0.000000 1.805460 0.000000 
#    z -0.023730 0.000000 1.826150 
# 
# From -- ./inp_files/5270.got.cif
#   From: 2010.05.17/outbox.cif.g08.bks.cpg/sg11_3_cif.got.tgz:5270.got - 2010.06.03 12:22:45.
