data_PCOD9163057
_publ_section_title
;
Structure prediction by ZEFSAII (Michael W. Deem and Ramdas Pophale) SiO2 
 PCOD9163057
Probable space group: P 21/M
;
_chemical_formula_sum "Si O2"
_cell_formula_units_Z 32
_cell_length_a 27.842545
_cell_length_b 7.897721
_cell_length_c 21.784225
_cell_angle_alpha 90.000000
_cell_angle_beta 161.493192
_cell_angle_gamma 90.000000
_cell_volume 1520.489670
_symmetry_space_group_name_H-M "P 21/M"
_symmetry_group_IT_number 11
_symmetry_cell_setting 'monoclinic'
loop_
_space_group_symop_operation_xyz
x,y,z
-x,1/2+y,-z
-x,-y,-z
x,1/2-y,z
loop_
_atom_site_type_symbol
_atom_site_label
_atom_site_fract_x
_atom_site_fract_y
_atom_site_fract_z
Si Si1 0.990915 0.942648 0.918890
Si Si2 0.849684 0.455315 0.007153
Si Si3 0.441273 0.453839 0.024216
Si Si4 0.660443 0.447174 0.509063
Si Si5 0.375253 0.457601 0.082511
Si Si6 0.736742 0.454200 0.310231
Si Si7 0.053931 0.452394 0.745633
Si Si8 0.489813 0.547825 0.416724
O O1 0.040401 0.750000 0.980828
O O2 0.091326 0.024004 0.986727
O O3 0.816857 0.958670 0.687401
O O4 0.000000 0.000000 0.000000
O O5 0.852054 0.250000 0.009054
O O6 0.947008 0.512961 0.182940
O O7 0.676283 0.508743 0.806849
O O8 0.449352 0.250000 0.036428
O O9 0.315319 0.500914 0.821410
O O10 0.403530 0.512483 0.046856
O O11 0.602273 0.515966 0.192386
O O12 0.684816 0.250000 0.524056
O O13 0.516792 0.511086 0.296180
O O14 0.615038 0.465462 0.525331
O O15 0.373944 0.250000 0.082748
O O16 0.213044 0.517678 0.911177
O O17 0.739209 0.250000 0.317915
O O18 0.901815 0.518825 0.529317
O O19 0.055754 0.250000 0.738866
O O20 0.500000 0.500000 0.500000
O O21 0.502531 0.750000 0.425921
#
# Coordination Sequence:
#
# PCOD9163057 Si02
#       8
#     4   4   4   4   4   4   4   4
#     4  11  24  42  61  86 117 152 194 244 296 351
#     4  10  23  40  57  83 118 149 188 240 291 341
#     4   9  18  35  56  79 112 150 187 229 280 335
#     4  11  22  38  60  87 118 153 195 240 291 350
#     4   9  19  35  56  83 113 149 190 233 279 337
#     4   9  19  34  55  83 112 144 188 234 277 333
#     4  10  20  36  58  83 113 149 191 234 281 340
#     4  11  22  38  61  86 115 152 195 241 292 348
#
# _framework density 21.045853000000001
#
# number of rings (size 3 to 8) (size 9 to 14) (size 15 to 20)
#    0.000    2.000    1.250    1.875    1.750    3.500 
#    0.000    1.875    0.000    0.000    0.000    0.000 
#    0.000    0.000    0.000    0.000    0.000    0.000 
#
# Total GULP energy -178739.949157 kJ/mol
# GULP energy per Si atom -5585.623411 kJ/mol
# Density = 2.099795 g / cm^3
# Si number density = 21.045853 Si / 1000 Ang^3
#
#
#
# Elastic Constant Matrix: (Units=GPa)
#
#
# Indices 1 2 3 4 5 6 
#
# 1 102.2012 -3.9661 14.0999 0.0000 -7.6457 0.0000
# 2 -3.9661 19.0726 -0.8020 0.0000 1.0059 0.0000
# 3 14.0999 -0.8020 89.0371 0.0000 -10.0181 0.0000
# 4 0.0000 0.0000 0.0000 21.2454 0.0000 -5.7948
# 5 -7.6457 1.0059 -10.0181 0.0000 28.3561 0.0000
# 6 0.0000 0.0000 0.0000 -5.7948 0.0000 22.3164
#
#
#
# Elastic Compliance Matrix: (Units=1/GPa)
#
#
# Indices 1 2 3 4 5 6 
#
# 1 0.010212 0.001950 -0.001351 0.000000 0.002207 0.000000
# 2 0.001950 0.052908 0.000016 0.000000 -0.001345 0.000000
# 3 -0.001351 0.000016 0.011876 0.000000 0.003831 0.000000
# 4 0.000000 0.000000 0.000000 0.050657 0.000000 0.013154
# 5 0.002207 -0.001345 0.003831 0.000000 0.037262 0.000000
# 6 0.000000 0.000000 0.000000 0.013154 0.000000 0.048226
#
#
# Mechanical properties :
#
#
# Convention : Reuss Voigt Hill
#
# Bulk Modulus (GPa) = 13.11862 25.44161 19.28012
# Shear Modulus (GPa) = 21.24772 27.78220 24.51496
#
# Velocity S-wave (km/s) = 3.18085 3.63723 3.41667
# Velocity P-wave (km/s) = 4.44267 5.45474 4.97451
#
# Compressibility (1/GPa) = 0.07622753
#
# Stress axis : x y z
#
# Youngs Moduli (GPa) = 97.92567 18.90058 84.20017
#
# Poissons Ratio (x) = -0.03686 0.11378
# Poissons Ratio (y) = -0.19099 -0.00138
# Poissons Ratio (z) = 0.13232 -0.00031
#
# Static dielectric constant tensor:
#      x y z
#    x 1.756130 0.000000 0.006810 
#    y 0.000000 1.760980 0.000000 
#    z 0.006810 0.000000 1.752920 
# 
# From -- ./inp_files/67208.got.cif
#   From: 2010.05.17/outbox.cif.g08.bks.cpg/sg11_34_cif.got.tgz:67208.got - 2010.06.03 12:22:45.
