data_PCOD9163837
_publ_section_title
;
Structure prediction by ZEFSAII (Michael W. Deem and Ramdas Pophale) SiO2 
 PCOD9163837
Probable space group: P 21/M
;
_chemical_formula_sum "Si O2"
_cell_formula_units_Z 26
_cell_length_a 8.189948
_cell_length_b 24.253004
_cell_length_c 5.468809
_cell_angle_alpha 90.000000
_cell_angle_beta 102.391637
_cell_angle_gamma 90.000000
_cell_volume 1060.967870
_symmetry_space_group_name_H-M "P 21/M"
_symmetry_group_IT_number 11
_symmetry_cell_setting 'monoclinic'
loop_
_space_group_symop_operation_xyz
x,y,z
-x,1/2+y,-z
-x,-y,-z
x,1/2-y,z
loop_
_atom_site_type_symbol
_atom_site_label
_atom_site_fract_x
_atom_site_fract_y
_atom_site_fract_z
Si Si1 0.696687 0.250000 0.161278
Si Si2 0.240202 0.045790 0.500230
Si Si3 0.651490 0.750000 0.202982
Si Si4 0.936620 0.456751 0.774691
Si Si5 0.977162 0.626818 0.827020
Si Si6 0.492042 0.129337 0.750556
Si Si7 0.698459 0.365516 0.324829
Si Si8 0.023913 0.250000 0.015373
O O1 0.499284 0.250000 0.045703
O O2 0.817819 0.250000 0.959004
O O3 0.741761 0.301568 0.334759
O O4 0.385834 0.073425 0.698582
O O5 0.087501 0.041795 0.635803
O O6 0.188529 0.092389 0.285126
O O7 0.234777 0.985405 0.375999
O O8 0.610437 0.688484 0.303076
O O9 0.842404 0.750000 0.164994
O O10 0.940779 0.396703 0.898559
O O11 0.000000 0.500000 0.000000
O O12 0.120008 0.609834 0.676045
O O13 0.940236 0.691519 0.839298
O O14 0.606247 0.125271 0.546812
O O15 0.586900 0.127810 0.042279
#
# Coordination Sequence:
#
# PCOD9163837 Si02
#       8
#     2   4   2   4   4   4   4   2
#     4   8  19  39  60  88 136 178 220 262 338 400
#     4  10  22  38  67  94 122 172 227 280 327 400
#     4  10  21  38  64  90 136 181 220 276 342 401
#     4   9  20  40  66  89 127 170 223 275 338 386
#     4  10  22  40  66  95 134 170 223 273 329 407
#     4  11  24  40  64  95 130 173 222 273 340 402
#     4  10  23  41  62  90 135 176 210 276 342 396
#     4  10  20  37  66 104 130 175 224 270 328 411
#
# _framework density 24.505928000000001
#
# number of rings (size 3 to 8) (size 9 to 14) (size 15 to 20)
#    0.000    2.154    0.000    1.385   10.769    0.615 
#    2.769    2.308    0.000    0.000    0.000    0.000 
#    0.000    0.000    0.000    0.000    0.000    0.000 
#
# Total GULP energy -144846.063079 kJ/mol
# GULP energy per Si atom -5571.002426 kJ/mol
# Density = 2.445015 g / cm^3
# Si number density = 24.505928 Si / 1000 Ang^3
#
#
#
# Elastic Constant Matrix: (Units=GPa)
#
#
# Indices 1 2 3 4 5 6 
#
# 1 78.9970 40.8910 37.8505 0.0000 -18.3612 0.0000
# 2 40.8910 105.2981 30.0032 0.0000 -1.1327 0.0000
# 3 37.8505 30.0032 97.9781 0.0000 -14.9684 0.0000
# 4 0.0000 0.0000 0.0000 21.6791 0.0000 -4.6802
# 5 -18.3612 -1.1327 -14.9684 0.0000 30.2786 0.0000
# 6 0.0000 0.0000 0.0000 -4.6802 0.0000 34.3783
#
#
#
# Elastic Compliance Matrix: (Units=1/GPa)
#
#
# Indices 1 2 3 4 5 6 
#
# 1 0.020502 -0.006610 -0.004364 0.000000 0.010028 0.000000
# 2 -0.006610 0.012582 -0.001990 0.000000 -0.004522 0.000000
# 3 -0.004364 -0.001990 0.013073 0.000000 0.003742 0.000000
# 4 0.000000 0.000000 0.000000 0.047524 0.000000 0.006470
# 5 0.010028 -0.004522 0.003742 0.000000 0.040788 0.000000
# 6 0.000000 0.000000 0.000000 0.006470 0.000000 0.029969
#
#
# Mechanical properties :
#
#
# Convention : Reuss Voigt Hill
#
# Bulk Modulus (GPa) = 49.43448 55.52919 52.48184
# Shear Modulus (GPa) = 25.36639 28.83579 27.10109
#
# Velocity S-wave (km/s) = 3.22081 3.43401 3.32911
# Velocity P-wave (km/s) = 5.83504 6.19935 6.01995
#
# Compressibility (1/GPa) = 0.02022880
#
# Stress axis : x y z
#
# Youngs Moduli (GPa) = 48.77522 79.47666 76.49144
#
# Poissons Ratio (x) = 0.52537 0.33381
# Poissons Ratio (y) = 0.32242 0.15223
# Poissons Ratio (z) = 0.21286 0.15817
#
# Static dielectric constant tensor:
#      x y z
#    x 2.015690 0.000000 0.042680 
#    y 0.000000 2.015020 0.000000 
#    z 0.042680 0.000000 2.066760 
# 
# From -- ./inp_files/2772.got.cif
#   From: 2010.05.17/outbox.cif.g08.bks.cpg/sg11_2_cif.got.tgz:2772.got - 2010.06.03 12:22:45.
