data_PCOD9163591
_publ_section_title
;
Structure prediction by ZEFSAII (Michael W. Deem and Ramdas Pophale) SiO2 
 PCOD9163591
Probable space group: P 21/M
;
_chemical_formula_sum "Si O2"
_cell_formula_units_Z 32
_cell_length_a 29.735046
_cell_length_b 8.379302
_cell_length_c 12.848013
_cell_angle_alpha 90.000000
_cell_angle_beta 29.955744
_cell_angle_gamma 90.000000
_cell_volume 1598.456737
_symmetry_space_group_name_H-M "P 21/M"
_symmetry_group_IT_number 11
_symmetry_cell_setting 'monoclinic'
loop_
_space_group_symop_operation_xyz
x,y,z
-x,1/2+y,-z
-x,-y,-z
x,1/2-y,z
loop_
_atom_site_type_symbol
_atom_site_label
_atom_site_fract_x
_atom_site_fract_y
_atom_site_fract_z
Si Si1 0.718102 0.556665 0.518009
Si Si2 0.063819 0.442222 0.278290
Si Si3 0.437805 0.442179 0.029539
Si Si4 0.405706 0.942744 0.422212
Si Si5 0.091261 0.558774 0.552654
Si Si6 0.096799 0.060613 0.771847
Si Si7 0.217870 0.058673 0.112170
Si Si8 0.598420 0.058695 0.334732
O O1 0.717446 0.750000 0.516275
O O2 0.661160 0.505864 0.735425
O O3 0.665455 0.498813 0.521578
O O4 0.819918 0.498771 0.325956
O O5 0.064768 0.250000 0.273388
O O6 0.162861 0.493794 0.117491
O O7 0.000000 0.500000 0.500000
O O8 0.008863 0.494702 0.286384
O O9 0.436193 0.250000 0.029622
O O10 0.500000 0.500000 0.000000
O O11 0.493670 0.495971 0.816493
O O12 0.405161 0.750000 0.423015
O O13 0.385055 0.997967 0.579635
O O14 0.090553 0.750000 0.562925
O O15 0.113006 0.484556 0.619695
O O16 0.163163 0.509659 0.320215
O O17 0.096713 0.250000 0.782132
O O18 0.000000 0.000000 0.000000
O O19 0.214215 0.250000 0.125788
O O20 0.320358 0.004134 0.898839
O O21 0.599573 0.250000 0.330602
O O22 0.500000 0.000000 0.500000
#
# Coordination Sequence:
#
# PCOD9163591 Si02
#       8
#     4   4   4   4   4   4   4   4
#     4   9  19  35  57  82 109 144 189 233 278 335
#     4   8  16  31  54  82 110 140 180 228 279 332
#     4   8  14  29  52  78 104 132 169 218 269 321
#     4   9  19  35  57  83 112 144 181 228 284 336
#     4  10  20  37  60  87 117 149 187 235 285 339
#     4  11  24  40  56  80 114 153 193 235 283 336
#     4  10  20  37  60  85 113 150 192 236 285 341
#     4  11  24  40  56  81 115 152 192 237 286 340
#
# _framework density 20.019307999999999
#
# number of rings (size 3 to 8) (size 9 to 14) (size 15 to 20)
#    0.000    2.500    0.000    1.500    0.000    5.000 
#    0.000    6.250    0.000    3.000    0.000    0.000 
#    0.000    0.000    0.000    0.000    0.000    0.000 
#
# Total GULP energy -178373.935308 kJ/mol
# GULP energy per Si atom -5574.185478 kJ/mol
# Density = 1.997374 g / cm^3
# Si number density = 20.019308 Si / 1000 Ang^3
#
#
#
# Elastic Constant Matrix: (Units=GPa)
#
#
# Indices 1 2 3 4 5 6 
#
# 1 87.4814 4.9761 47.2333 0.0000 -15.5243 0.0000
# 2 4.9761 15.6112 10.2907 0.0000 -5.8149 0.0000
# 3 47.2333 10.2907 111.0762 0.0000 -21.2264 0.0000
# 4 0.0000 0.0000 0.0000 26.7612 0.0000 0.5020
# 5 -15.5243 -5.8149 -21.2264 0.0000 33.9136 0.0000
# 6 0.0000 0.0000 0.0000 0.5020 0.0000 22.9739
#
#
#
# Elastic Compliance Matrix: (Units=1/GPa)
#
#
# Indices 1 2 3 4 5 6 
#
# 1 0.015157 0.000254 -0.005832 0.000000 0.003331 0.000000
# 2 0.000254 0.070617 -0.004900 0.000000 0.009157 0.000000
# 3 -0.005832 -0.004900 0.012797 0.000000 0.004499 0.000000
# 4 0.000000 0.000000 0.000000 0.037383 0.000000 -0.000817
# 5 0.003331 0.009157 0.004499 0.000000 0.035398 0.000000
# 6 0.000000 0.000000 0.000000 -0.000817 0.000000 0.043546
#
#
# Mechanical properties :
#
#
# Convention : Reuss Voigt Hill
#
# Bulk Modulus (GPa) = 12.88440 37.68542 25.28491
# Shear Modulus (GPa) = 19.10410 26.84097 22.97254
#
# Velocity S-wave (km/s) = 3.09250 3.66560 3.39118
# Velocity P-wave (km/s) = 4.38194 6.06473 5.29067
#
# Compressibility (1/GPa) = 0.07761324
#
# Stress axis : x y z
#
# Youngs Moduli (GPa) = 65.97808 14.16098 78.14561
#
# Poissons Ratio (x) = -0.00360 0.45574
# Poissons Ratio (y) = -0.01677 0.38294
# Poissons Ratio (z) = 0.38478 0.06939
#
# Static dielectric constant tensor:
#      x y z
#    x 1.730050 0.000000 -0.013450 
#    y 0.000000 1.681380 0.000000 
#    z -0.013450 0.000000 1.730320 
# 
# From -- ./inp_files/45204.got.cif
#   From: 2010.05.17/outbox.cif.g08.bks.cpg/sg11_23_cif.got.tgz:45204.got - 2010.06.03 12:22:45.
