data_PCOD9163301
_publ_section_title
;
Structure prediction by ZEFSAII (Michael W. Deem and Ramdas Pophale) SiO2 
 PCOD9163301
Probable space group: P 21/M
;
_chemical_formula_sum "Si O2"
_cell_formula_units_Z 32
_cell_length_a 28.247071
_cell_length_b 8.782446
_cell_length_c 14.547613
_cell_angle_alpha 90.000000
_cell_angle_beta 29.427439
_cell_angle_gamma 90.000000
_cell_volume 1773.151760
_symmetry_space_group_name_H-M "P 21/M"
_symmetry_group_IT_number 11
_symmetry_cell_setting 'monoclinic'
loop_
_space_group_symop_operation_xyz
x,y,z
-x,1/2+y,-z
-x,-y,-z
x,1/2-y,z
loop_
_atom_site_type_symbol
_atom_site_label
_atom_site_fract_x
_atom_site_fract_y
_atom_site_fract_z
Si Si1 0.909729 0.067187 0.268808
Si Si2 0.703995 0.070005 0.292126
Si Si3 0.598726 0.429442 0.795591
Si Si4 0.132757 0.068520 0.853785
Si Si5 0.435065 0.070929 0.332179
Si Si6 0.365135 0.430391 0.971923
Si Si7 0.603729 0.931379 0.295278
Si Si8 0.233611 0.570632 0.336870
O O1 0.896495 0.250000 0.284446
O O2 0.860554 0.018533 0.447491
O O3 0.861538 0.994821 0.259764
O O4 0.023371 0.034227 0.071342
O O5 0.712458 0.250000 0.270360
O O6 0.791576 0.003756 0.203845
O O7 0.608812 0.024408 0.510445
O O8 0.685575 0.996376 0.224259
O O9 0.586339 0.250000 0.796342
O O10 0.619911 0.519488 0.666410
O O11 0.681873 0.444869 0.729986
O O12 0.500000 0.500000 0.000000
O O13 0.146223 0.250000 0.829555
O O14 0.425071 0.250000 0.365258
O O15 0.546352 0.024562 0.134241
O O16 0.381172 0.250000 0.957670
O O17 0.369846 0.464210 0.855334
O O18 0.268888 0.480508 0.187864
O O19 0.597270 0.750000 0.317243
O O20 0.500000 0.000000 0.500000
O O21 0.224398 0.750000 0.329804
#
# Coordination Sequence:
#
# PCOD9163301 Si02
#       8
#     4   4   4   4   4   4   4   4
#     4   9  19  37  60  87 119 152 190 234 283 340
#     4  12  24  38  58  83 113 148 188 238 290 343
#     4  11  21  32  48  74 111 149 186 225 269 326
#     4  10  20  36  60  89 118 149 188 237 289 341
#     4  12  23  35  53  77 109 148 189 231 278 336
#     4  11  23  37  55  79 110 146 186 231 279 335
#     4  11  23  39  59  83 112 148 191 237 289 341
#     4  10  21  36  55  78 109 152 191 228 278 335
#
# _framework density 18.046961
#
# number of rings (size 3 to 8) (size 9 to 14) (size 15 to 20)
#    0.000    1.250    2.500    4.500    0.000    4.000 
#    0.000    0.000    0.000    0.750    0.000    0.000 
#    0.000    0.000    0.000    0.000    0.000    0.000 
#
# Total GULP energy -178800.885788 kJ/mol
# GULP energy per Si atom -5587.527681 kJ/mol
# Density = 1.800589 g / cm^3
# Si number density = 18.046961 Si / 1000 Ang^3
#
#
#
# Elastic Constant Matrix: (Units=GPa)
#
#
# Indices 1 2 3 4 5 6 
#
# 1 99.2087 42.7119 36.5764 0.0000 11.8394 0.0000
# 2 42.7119 58.7939 30.0753 0.0000 6.1766 0.0000
# 3 36.5764 30.0753 94.4437 0.0000 15.7508 0.0000
# 4 0.0000 0.0000 0.0000 26.5949 0.0000 3.8688
# 5 11.8394 6.1766 15.7508 0.0000 26.8315 0.0000
# 6 0.0000 0.0000 0.0000 3.8688 0.0000 27.8248
#
#
#
# Elastic Compliance Matrix: (Units=1/GPa)
#
#
# Indices 1 2 3 4 5 6 
#
# 1 0.015528 -0.009725 -0.002381 0.000000 -0.003216 0.000000
# 2 -0.009725 0.026432 -0.004824 0.000000 0.001038 0.000000
# 3 -0.002381 -0.004824 0.014063 0.000000 -0.006094 0.000000
# 4 0.000000 0.000000 0.000000 0.038377 0.000000 -0.005336
# 5 -0.003216 0.001038 -0.006094 0.000000 0.042027 0.000000
# 6 0.000000 0.000000 0.000000 -0.005336 0.000000 0.036681
#
#
# Mechanical properties :
#
#
# Convention : Reuss Voigt Hill
#
# Bulk Modulus (GPa) = 45.11885 52.35260 48.73573
# Shear Modulus (GPa) = 23.32569 25.78908 24.55738
#
# Velocity S-wave (km/s) = 3.59904 3.78431 3.69284
# Velocity P-wave (km/s) = 6.50583 6.94023 6.72654
#
# Compressibility (1/GPa) = 0.02216368
#
# Stress axis : x y z
#
# Youngs Moduli (GPa) = 64.39955 37.83273 71.10934
#
# Poissons Ratio (x) = 0.36793 0.16928
# Poissons Ratio (y) = 0.62629 0.34304
# Poissons Ratio (z) = 0.15331 0.18251
#
# Static dielectric constant tensor:
#      x y z
#    x 1.610590 0.000000 0.008300 
#    y 0.000000 1.590010 0.000000 
#    z 0.008300 0.000000 1.637620 
# 
# From -- ./inp_files/56164.got.cif
#   From: 2010.05.17/outbox.cif.g08.bks.cpg/sg11_29_cif.got.tgz:56164.got - 2010.06.03 12:22:45.
