data_PCOD9163265
_publ_section_title
;
Structure prediction by ZEFSAII (Michael W. Deem and Ramdas Pophale) SiO2 
 PCOD9163265
Probable space group: P 21/M
;
_chemical_formula_sum "Si O2"
_cell_formula_units_Z 32
_cell_length_a 21.340459
_cell_length_b 14.404800
_cell_length_c 12.642421
_cell_angle_alpha 90.000000
_cell_angle_beta 152.283140
_cell_angle_gamma 90.000000
_cell_volume 1807.548549
_symmetry_space_group_name_H-M "P 21/M"
_symmetry_group_IT_number 11
_symmetry_cell_setting 'monoclinic'
loop_
_space_group_symop_operation_xyz
x,y,z
-x,1/2+y,-z
-x,-y,-z
x,1/2-y,z
loop_
_atom_site_type_symbol
_atom_site_label
_atom_site_fract_x
_atom_site_fract_y
_atom_site_fract_z
Si Si1 0.674174 0.145234 0.122743
Si Si2 0.288788 0.644638 0.570349
Si Si3 0.292962 0.353589 0.324282
Si Si4 0.002035 0.437320 0.898269
Si Si5 0.376535 0.453791 0.252929
Si Si6 0.026489 0.858237 0.525082
Si Si7 0.917544 0.010624 0.205941
Si Si8 0.473381 0.998926 0.722400
O O1 0.625108 0.250000 0.024736
O O2 0.697650 0.139254 0.282935
O O3 0.818166 0.133880 0.280770
O O4 0.571780 0.066622 0.933524
O O5 0.320085 0.750000 0.583992
O O6 0.386976 0.570663 0.663447
O O7 0.135456 0.619783 0.312787
O O8 0.327448 0.250000 0.410323
O O9 0.331142 0.368332 0.257947
O O10 0.372507 0.432440 0.507997
O O11 0.134580 0.373386 0.098978
O O12 0.017497 0.496220 0.812241
O O13 0.000000 0.500000 0.000000
O O14 0.500000 0.500000 0.500000
O O15 0.434651 0.441596 0.222972
O O16 0.243713 0.518681 0.049268
O O17 0.989211 0.750000 0.470289
O O18 0.021240 0.906553 0.632260
O O19 0.942568 0.918784 0.315333
#
# Coordination Sequence:
#
# PCOD9163265 Si02
#       8
#     4   4   4   4   4   4   4   4
#     4  10  20  36  60  87 114 151 195 238 287 349
#     4  11  23  38  58  85 116 153 197 236 287 351
#     4  10  21  36  59  85 111 148 195 239 281 340
#     4  11  21  39  61  82 115 155 197 243 290 342
#     4   9  20  35  55  83 115 147 184 229 284 343
#     4  10  20  36  61  90 115 149 194 245 295 344
#     4  10  20  37  63  85 116 150 193 245 294 341
#     4  11  20  38  59  82 120 152 187 236 289 343
#
# _framework density 17.703534999999999
#
# number of rings (size 3 to 8) (size 9 to 14) (size 15 to 20)
#    0.000    1.750    3.750    1.125    0.000    2.500 
#    0.000    1.250    0.000    0.000    0.000    0.000 
#    0.000    0.000    0.000    0.000    0.000    0.000 
#
# Total GULP energy -178479.380897 kJ/mol
# GULP energy per Si atom -5577.480653 kJ/mol
# Density = 1.766324 g / cm^3
# Si number density = 17.703535 Si / 1000 Ang^3
#
#
#
# Elastic Constant Matrix: (Units=GPa)
#
#
# Indices 1 2 3 4 5 6 
#
# 1 75.4566 40.7034 6.8970 0.0000 -11.7701 0.0000
# 2 40.7034 98.6287 31.5861 0.0000 -6.2696 0.0000
# 3 6.8970 31.5861 81.0772 0.0000 -5.8762 0.0000
# 4 0.0000 0.0000 0.0000 13.9871 0.0000 -1.2109
# 5 -11.7701 -6.2696 -5.8762 0.0000 27.1171 0.0000
# 6 0.0000 0.0000 0.0000 -1.2109 0.0000 14.7340
#
#
#
# Elastic Compliance Matrix: (Units=1/GPa)
#
#
# Indices 1 2 3 4 5 6 
#
# 1 0.018278 -0.007747 0.001939 0.000000 0.006563 0.000000
# 2 -0.007747 0.014948 -0.005240 0.000000 -0.001042 0.000000
# 3 0.001939 -0.005240 0.014410 0.000000 0.002753 0.000000
# 4 0.000000 0.000000 0.000000 0.072007 0.000000 0.005918
# 5 0.006563 -0.001042 0.002753 0.000000 0.040081 0.000000
# 6 0.000000 0.000000 0.000000 0.005918 0.000000 0.068357
#
#
# Mechanical properties :
#
#
# Convention : Reuss Voigt Hill
#
# Bulk Modulus (GPa) = 39.15465 45.94838 42.55152
# Shear Modulus (GPa) = 19.32818 22.89938 21.11378
#
# Velocity S-wave (km/s) = 3.30778 3.60042 3.45720
# Velocity P-wave (km/s) = 6.06246 6.57987 6.32646
#
# Compressibility (1/GPa) = 0.02553975
#
# Stress axis : x y z
#
# Youngs Moduli (GPa) = 54.71049 66.89849 69.39687
#
# Poissons Ratio (x) = 0.51826 -0.13455
# Poissons Ratio (y) = 0.42384 0.36364
# Poissons Ratio (z) = -0.10607 0.35055
#
# Static dielectric constant tensor:
#      x y z
#    x 1.601540 0.000000 -0.009280 
#    y 0.000000 1.592000 0.000000 
#    z -0.009280 0.000000 1.610130 
# 
# From -- ./inp_files/41723.got.cif
#   From: 2010.05.17/outbox.cif.g08.bks.cpg/sg11_21_cif.got.tgz:41723.got - 2010.06.03 12:22:45.
