data_PCOD9163646
_publ_section_title
;
Structure prediction by ZEFSAII (Michael W. Deem and Ramdas Pophale) SiO2 
 PCOD9163646
Probable space group: P 21/M
;
_chemical_formula_sum "Si O2"
_cell_formula_units_Z 28
_cell_length_a 5.490866
_cell_length_b 8.875519
_cell_length_c 29.030706
_cell_angle_alpha 90.000000
_cell_angle_beta 69.229548
_cell_angle_gamma 90.000000
_cell_volume 1322.841605
_symmetry_space_group_name_H-M "P 21/M"
_symmetry_group_IT_number 11
_symmetry_cell_setting 'monoclinic'
loop_
_space_group_symop_operation_xyz
x,y,z
-x,1/2+y,-z
-x,-y,-z
x,1/2-y,z
loop_
_atom_site_type_symbol
_atom_site_label
_atom_site_fract_x
_atom_site_fract_y
_atom_site_fract_z
Si Si1 0.628339 0.088081 0.873459
Si Si2 0.598719 0.567194 0.311151
Si Si3 0.793885 0.432126 0.476605
Si Si4 0.767628 0.417399 0.969856
Si Si5 0.007502 0.066656 0.632430
Si Si6 0.829247 0.084433 0.103270
Si Si7 0.850677 0.924324 0.200234
O O1 0.479532 0.250000 0.879574
O O2 0.761835 0.099239 0.914164
O O3 0.834546 0.080223 0.818486
O O4 0.471657 0.935546 0.888452
O O5 0.607328 0.750000 0.309231
O O6 0.295542 0.526704 0.337866
O O7 0.794413 0.524611 0.339445
O O8 0.712934 0.513193 0.254585
O O9 0.500000 0.500000 0.500000
O O10 0.784144 0.250000 0.481814
O O11 0.000000 0.500000 0.500000
O O12 0.899817 0.484254 0.419854
O O13 0.780456 0.250000 0.988922
O O14 0.034312 0.510394 0.950668
O O15 0.500000 0.500000 0.000000
O O16 0.020466 0.250000 0.625762
O O17 0.936174 0.250000 0.100519
O O18 0.811020 0.012158 0.155546
O O19 0.768704 0.750000 0.200044
#
# Coordination Sequence:
#
# PCOD9163646 Si02
#       7
#     4   4   4   4   4   4   4
#     4   9  19  35  56  79 106 141 187 234 282 343
#     4   9  19  34  60  90 121 162 209 261 311 371
#     4  12  25  43  68  98 133 176 224 275 333 393
#     4  10  21  38  58  80 107 140 179 229 287 347
#     4  10  20  37  60  93 129 165 213 264 319 380
#     4  11  22  35  54  80 110 145 186 234 288 348
#     4   9  19  36  58  82 109 149 196 242 288 346
#
# _framework density 21.166554000000001
#
# number of rings (size 3 to 8) (size 9 to 14) (size 15 to 20)
#    0.000    2.000    0.000    4.714    2.000    4.571 
#    0.000    1.429    0.000    0.000    0.000    0.000 
#    0.000    0.000    0.000    0.000    0.000    0.000 
#
# Total GULP energy -155917.660551 kJ/mol
# GULP energy per Si atom -5568.487877 kJ/mol
# Density = 2.111838 g / cm^3
# Si number density = 21.166554 Si / 1000 Ang^3
#
#
#
# Elastic Constant Matrix: (Units=GPa)
#
#
# Indices 1 2 3 4 5 6 
#
# 1 94.5341 17.1674 58.2706 0.0000 -10.1954 0.0000
# 2 17.1674 72.3039 44.0810 0.0000 -7.4499 0.0000
# 3 58.2706 44.0810 175.4811 0.0000 -15.0024 0.0000
# 4 0.0000 0.0000 0.0000 25.1121 0.0000 6.0846
# 5 -10.1954 -7.4499 -15.0024 0.0000 37.2802 0.0000
# 6 0.0000 0.0000 0.0000 6.0846 0.0000 -8.6876
#
#
#
# Elastic Compliance Matrix: (Units=1/GPa)
#
#
# Indices 1 2 3 4 5 6 
#
# 1 0.013447 -0.000441 -0.004192 0.000000 0.001903 0.000000
# 2 -0.000441 0.016447 -0.003847 0.000000 0.001618 0.000000
# 3 -0.004192 -0.003847 0.008174 0.000000 0.001374 0.000000
# 4 0.000000 0.000000 0.000000 0.034044 0.000000 0.023844
# 5 0.001903 0.001618 0.001374 0.000000 0.028221 0.000000
# 6 0.000000 0.000000 0.000000 0.023844 0.000000 -0.098407
#
#
# Mechanical properties :
#
#
# Convention : Reuss Voigt Hill
#
# Bulk Modulus (GPa) = 47.37233 64.59523 55.98378
# Shear Modulus (GPa) = 192.88109 25.59427 109.23768
#
# Velocity S-wave (km/s) = 9.55632 3.48111 7.19171
# Velocity P-wave (km/s) = 12.00807 6.83676 9.77075
#
# Compressibility (1/GPa) = 0.02110937
#
# Stress axis : x y z
#
# Youngs Moduli (GPa) = 74.36403 60.80068 122.33338
#
# Poissons Ratio (x) = 0.02683 0.51281
# Poissons Ratio (y) = 0.03281 0.47058
# Poissons Ratio (z) = 0.31172 0.23388
#
# Static dielectric constant tensor:
#      x y z
#    x 1.964980 0.000000 0.005630 
#    y 0.000000 2.411520 0.000000 
#    z 0.005630 0.000000 1.730240 
# 
# From -- ./inp_files/9624.got.cif
#   From: 2010.05.17/outbox.cif.g08.bks.cpg/sg11_5_cif.got.tgz:9624.got - 2010.06.03 12:22:45.
