data_PCOD9163823
_publ_section_title
;
Structure prediction by ZEFSAII (Michael W. Deem and Ramdas Pophale) SiO2 
 PCOD9163823
Probable space group: P 21/M
;
_chemical_formula_sum "Si O2"
_cell_formula_units_Z 20
_cell_length_a 5.015648
_cell_length_b 22.892201
_cell_length_c 7.929394
_cell_angle_alpha 90.000000
_cell_angle_beta 91.509110
_cell_angle_gamma 90.000000
_cell_volume 910.131063
_symmetry_space_group_name_H-M "P 21/M"
_symmetry_group_IT_number 11
_symmetry_cell_setting 'monoclinic'
loop_
_space_group_symop_operation_xyz
x,y,z
-x,1/2+y,-z
-x,-y,-z
x,1/2-y,z
loop_
_atom_site_type_symbol
_atom_site_label
_atom_site_fract_x
_atom_site_fract_y
_atom_site_fract_z
Si Si1 0.885162 0.125405 0.747811
Si Si2 0.800238 0.976061 0.160473
Si Si3 0.406905 0.318901 0.920699
Si Si4 0.481253 0.419014 0.165299
Si Si5 0.163010 0.061010 0.500749
O O1 0.919328 0.058611 0.819921
O O2 0.117826 0.160645 0.849944
O O3 0.968598 0.113835 0.555351
O O4 0.618146 0.158611 0.785463
O O5 0.658776 0.949362 0.326559
O O6 0.759101 0.045098 0.179188
O O7 0.676877 0.953074 0.985920
O O8 0.416943 0.250000 0.942325
O O9 0.488590 0.354009 0.091827
O O10 0.331170 0.425892 0.339374
O O11 0.000000 0.000000 0.500000
#
# Coordination Sequence:
#
# PCOD9163823 Si02
#       5
#     4   4   4   4   4
#     4   9  23  40  64  92 129 169 207 262 338 374
#     4   8  20  34  59  95 132 162 198 255 340 381
#     4  11  23  44  65  88 126 177 228 267 304 377
#     4  10  20  37  64  94 130 169 213 262 322 392
#     4  10  22  35  63 101 137 161 202 266 332 406
#
# _framework density 21.974854000000001
#
# number of rings (size 3 to 8) (size 9 to 14) (size 15 to 20)
#    1.200    1.200    0.000    1.200    8.400    4.800 
#    0.000    2.000    0.000    0.000    0.000    0.000 
#    0.000    0.000    0.000    0.000    0.000    0.000 
#
# Total GULP energy -111451.469634 kJ/mol
# GULP energy per Si atom -5572.573482 kJ/mol
# Density = 2.192484 g / cm^3
# Si number density = 21.974854 Si / 1000 Ang^3
#
#
#
# Elastic Constant Matrix: (Units=GPa)
#
#
# Indices 1 2 3 4 5 6 
#
# 1 71.0399 32.1231 11.8629 0.0000 -7.5524 0.0000
# 2 32.1231 184.0900 52.8287 0.0000 -13.1766 0.0000
# 3 11.8629 52.8287 173.3062 0.0000 -23.9276 0.0000
# 4 0.0000 0.0000 0.0000 23.8915 0.0000 -0.3575
# 5 -7.5524 -13.1766 -23.9276 0.0000 26.6820 0.0000
# 6 0.0000 0.0000 0.0000 -0.3575 0.0000 26.3652
#
#
#
# Elastic Compliance Matrix: (Units=1/GPa)
#
#
# Indices 1 2 3 4 5 6 
#
# 1 0.015541 -0.002522 0.000160 0.000000 0.003297 0.000000
# 2 -0.002522 0.006415 -0.001648 0.000000 0.000976 0.000000
# 3 0.000160 -0.001648 0.007025 0.000000 0.005531 0.000000
# 4 0.000000 0.000000 0.000000 0.041864 0.000000 0.000568
# 5 0.003297 0.000976 0.005531 0.000000 0.043854 0.000000
# 6 0.000000 0.000000 0.000000 0.000568 0.000000 0.037936
#
#
# Mechanical properties :
#
#
# Convention : Reuss Voigt Hill
#
# Bulk Modulus (GPa) = 47.70640 69.11838 58.41239
# Shear Modulus (GPa) = 29.82536 37.49583 33.66060
#
# Velocity S-wave (km/s) = 3.68808 4.13523 3.91804
# Velocity P-wave (km/s) = 6.31606 7.37033 6.86347
#
# Compressibility (1/GPa) = 0.02096155
#
# Stress axis : x y z
#
# Youngs Moduli (GPa) = 64.34726 155.88482 142.34361
#
# Poissons Ratio (x) = 0.39310 -0.02280
# Poissons Ratio (y) = 0.16227 0.23459
# Poissons Ratio (z) = -0.01030 0.25691
#
# Static dielectric constant tensor:
#      x y z
#    x 1.918090 0.000000 0.035630 
#    y 0.000000 1.803300 0.000000 
#    z 0.035630 0.000000 1.917180 
# 
# From -- ./inp_files/10346.got.cif
#   From: 2010.05.17/outbox.cif.g08.bks.cpg/sg11_6_cif.got.tgz:10346.got - 2010.06.03 12:22:45.
