data_PCOD9163335
_publ_section_title
;
Structure prediction by ZEFSAII (Michael W. Deem and Ramdas Pophale) SiO2 
 PCOD9163335
Probable space group: P 21/M
;
_chemical_formula_sum "Si O2"
_cell_formula_units_Z 24
_cell_length_a 10.988223
_cell_length_b 19.642764
_cell_length_c 4.956783
_cell_angle_alpha 90.000000
_cell_angle_beta 64.285818
_cell_angle_gamma 90.000000
_cell_volume 963.918095
_symmetry_space_group_name_H-M "P 21/M"
_symmetry_group_IT_number 11
_symmetry_cell_setting 'monoclinic'
loop_
_space_group_symop_operation_xyz
x,y,z
-x,1/2+y,-z
-x,-y,-z
x,1/2-y,z
loop_
_atom_site_type_symbol
_atom_site_label
_atom_site_fract_x
_atom_site_fract_y
_atom_site_fract_z
Si Si1 0.318191 0.034695 0.444270
Si Si2 0.976105 0.587119 0.252121
Si Si3 0.259570 0.590911 0.176022
Si Si4 0.917767 0.672170 0.819679
Si Si5 0.379049 0.381303 0.877283
Si Si6 0.339160 0.672481 0.573333
O O1 0.154993 0.039784 0.628101
O O2 0.374146 0.052700 0.684040
O O3 0.344218 0.964556 0.263678
O O4 0.369571 0.093338 0.193119
O O5 0.993495 0.620371 0.944496
O O6 0.117391 0.558327 0.220352
O O7 0.939941 0.647784 0.493891
O O8 0.246948 0.651081 0.407311
O O9 0.319490 0.622640 0.846493
O O10 0.954421 0.750000 0.826735
O O11 0.759426 0.659774 0.041030
O O12 0.508889 0.337341 0.683091
O O13 0.314230 0.750000 0.679047
#
# Coordination Sequence:
#
# PCOD9163335 Si02
#       6
#     4   4   4   4   4   4
#     4  10  22  41  66  92 116 151 202 254 300 343
#     4  10  22  38  59  89 122 156 196 248 302 350
#     4  12  25  41  63  89 124 162 194 240 298 363
#     4  10  20  36  61  87 115 157 205 252 294 343
#     4  10  22  41  63  89 119 153 201 254 299 343
#     4  12  27  43  61  88 125 165 198 237 294 359
#
# _framework density 24.898382000000002
#
# number of rings (size 3 to 8) (size 9 to 14) (size 15 to 20)
#    0.000    1.333    0.000    5.000    0.000    8.000 
#    0.000   11.667    0.000    0.000    0.000    0.000 
#    0.000    0.000    0.000    0.000    0.000    0.000 
#
# Total GULP energy -134471.095763 kJ/mol
# GULP energy per Si atom -5602.962323 kJ/mol
# Density = 2.484171 g / cm^3
# Si number density = 24.898382 Si / 1000 Ang^3
#
#
#
# Elastic Constant Matrix: (Units=GPa)
#
#
# Indices 1 2 3 4 5 6 
#
# 1 103.5825 -11.5978 22.5384 0.0000 -3.8587 0.0000
# 2 -11.5978 60.9678 3.3218 0.0000 7.0826 0.0000
# 3 22.5384 3.3218 113.6513 0.0000 7.2478 0.0000
# 4 0.0000 0.0000 0.0000 28.7020 0.0000 7.0131
# 5 -3.8587 7.0826 7.2478 0.0000 36.1456 0.0000
# 6 0.0000 0.0000 0.0000 7.0131 0.0000 13.2241
#
#
#
# Elastic Compliance Matrix: (Units=1/GPa)
#
#
# Indices 1 2 3 4 5 6 
#
# 1 0.010394 0.001961 -0.002193 0.000000 0.001165 0.000000
# 2 0.001961 0.017163 -0.000698 0.000000 -0.003014 0.000000
# 3 -0.002193 -0.000698 0.009380 0.000000 -0.001978 0.000000
# 4 0.000000 0.000000 0.000000 0.040028 0.000000 -0.021228
# 5 0.001165 -0.003014 -0.001978 0.000000 0.028777 0.000000
# 6 0.000000 0.000000 0.000000 -0.021228 0.000000 0.086877
#
#
# Mechanical properties :
#
#
# Convention : Reuss Voigt Hill
#
# Bulk Modulus (GPa) = 28.50782 34.08071 31.29426
# Shear Modulus (GPa) = 24.25149 33.21028 28.73088
#
# Velocity S-wave (km/s) = 3.12431 3.65613 3.40063
# Velocity P-wave (km/s) = 4.94870 5.61611 5.29293
#
# Compressibility (1/GPa) = 0.03507809
#
# Stress axis : x y z
#
# Youngs Moduli (GPa) = 96.20641 58.26362 106.60642
#
# Poissons Ratio (x) = -0.11428 0.23378
# Poissons Ratio (y) = -0.18870 0.07446
# Poissons Ratio (z) = 0.21098 0.04069
#
# Static dielectric constant tensor:
#      x y z
#    x 1.986970 0.000000 -0.056640 
#    y 0.000000 1.938620 0.000000 
#    z -0.056640 0.000000 1.913030 
# 
# From -- ./inp_files/4818.got.cif
#   From: 2010.05.17/outbox.cif.g08.bks.cpg/sg11_3_cif.got.tgz:4818.got - 2010.06.03 12:22:45.
