data_PCOD9163972
_publ_section_title
;
Structure prediction by ZEFSAII (Michael W. Deem and Ramdas Pophale) SiO2 
 PCOD9163972
Probable space group: P 21/M
;
_chemical_formula_sum "Si O2"
_cell_formula_units_Z 30
_cell_length_a 16.716093
_cell_length_b 9.947893
_cell_length_c 9.568071
_cell_angle_alpha 90.000000
_cell_angle_beta 63.994201
_cell_angle_gamma 90.000000
_cell_volume 1429.976890
_symmetry_space_group_name_H-M "P 21/M"
_symmetry_group_IT_number 11
_symmetry_cell_setting 'monoclinic'
loop_
_space_group_symop_operation_xyz
x,y,z
-x,1/2+y,-z
-x,-y,-z
x,1/2-y,z
loop_
_atom_site_type_symbol
_atom_site_label
_atom_site_fract_x
_atom_site_fract_y
_atom_site_fract_z
Si Si1 0.190107 0.406795 0.261646
Si Si2 0.735533 0.092169 0.359885
Si Si3 0.612744 0.405700 0.213915
Si Si4 0.019775 0.750000 0.982709
Si Si5 0.452629 0.596268 0.336324
Si Si6 0.071075 0.001179 0.101731
Si Si7 0.112377 0.091761 0.622898
Si Si8 0.647159 0.403047 0.859636
O O1 0.209983 0.250000 0.224890
O O2 0.146481 0.467319 0.156472
O O3 0.126409 0.416781 0.445797
O O4 0.277720 0.489536 0.231547
O O5 0.762785 0.250000 0.350330
O O6 0.702278 0.058479 0.229235
O O7 0.643577 0.076292 0.518356
O O8 0.810890 0.994670 0.361172
O O9 0.594684 0.250000 0.263131
O O10 0.529736 0.496029 0.321351
O O11 0.623928 0.416468 0.039593
O O12 0.953878 0.631292 0.969557
O O13 0.084558 0.869905 0.997117
O O14 0.479955 0.750000 0.341848
O O15 0.433947 0.579677 0.185007
O O16 0.982283 0.965112 0.258839
O O17 0.114842 0.250000 0.662514
O O18 0.680777 0.250000 0.810311
#
# Coordination Sequence:
#
# PCOD9163972 Si02
#       8
#     4   4   4   2   4   4   4   4
#     4  11  24  42  65  93 126 164 214 265 314 369
#     4  10  22  40  60  91 128 163 209 264 313 372
#     4  10  22  38  60  92 121 164 209 254 317 382
#     4  10  24  42  66  88 130 162 200 252 324 358
#     4  10  20  38  62  87 124 164 209 258 313 374
#     4  11  23  46  64  98 125 167 210 256 306 386
#     4  11  24  42  65  93 126 164 214 265 314 369
#     4  10  22  40  60  91 128 163 209 264 313 372
#
# _framework density 20.979361999999998
#
# number of rings (size 3 to 8) (size 9 to 14) (size 15 to 20)
#    0.000    1.600    2.667    1.200    1.867    4.267 
#    2.400    0.000    0.000    0.000    0.000    0.000 
#    0.000    0.000    0.000    0.000    0.000    0.000 
#
# Total GULP energy -167240.905242 kJ/mol
# GULP energy per Si atom -5574.696841 kJ/mol
# Density = 2.093161 g / cm^3
# Si number density = 20.979362 Si / 1000 Ang^3
#
#
#
# Elastic Constant Matrix: (Units=GPa)
#
#
# Indices 1 2 3 4 5 6 
#
# 1 63.5165 36.9201 -1.5172 0.0000 11.2524 0.0000
# 2 36.9201 129.9531 15.7667 0.0000 -1.5971 0.0000
# 3 -1.5172 15.7667 38.5022 0.0000 9.9436 0.0000
# 4 0.0000 0.0000 0.0000 17.4267 0.0000 4.5430
# 5 11.2524 -1.5971 9.9436 0.0000 34.1642 0.0000
# 6 0.0000 0.0000 0.0000 4.5430 0.0000 29.9037
#
#
#
# Elastic Compliance Matrix: (Units=1/GPa)
#
#
# Indices 1 2 3 4 5 6 
#
# 1 0.021579 -0.006982 0.006087 0.000000 -0.009205 0.000000
# 2 -0.006982 0.010424 -0.005691 0.000000 0.004443 0.000000
# 3 0.006087 -0.005691 0.031497 0.000000 -0.011438 0.000000
# 4 0.000000 0.000000 0.000000 0.059750 0.000000 -0.009077
# 5 -0.009205 0.004443 -0.011438 0.000000 0.035839 0.000000
# 6 0.000000 0.000000 0.000000 -0.009077 0.000000 0.034820
#
#
# Mechanical properties :
#
#
# Convention : Reuss Voigt Hill
#
# Bulk Modulus (GPa) = 19.87032 37.14568 28.50800
# Shear Modulus (GPa) = 22.33572 28.35238 25.34405
#
# Velocity S-wave (km/s) = 3.26644 3.68018 3.47947
# Velocity P-wave (km/s) = 4.87012 5.98353 5.45530
#
# Compressibility (1/GPa) = 0.05032632
#
# Stress axis : x y z
#
# Youngs Moduli (GPa) = 46.34208 95.93372 31.74906
#
# Poissons Ratio (x) = 0.66983 -0.19325
# Poissons Ratio (y) = 0.32357 0.18069
# Poissons Ratio (z) = -0.28208 0.54599
#
# Static dielectric constant tensor:
#      x y z
#    x 1.711560 0.000000 0.014770 
#    y 0.000000 1.709100 0.000000 
#    z 0.014770 0.000000 1.850940 
# 
# From -- ./inp_files/38048.got.cif
#   From: 2010.05.17/outbox.cif.g08.bks.cpg/sg11_20_cif.got.tgz:38048.got - 2010.06.03 12:22:45.
