data_PCOD9163570
_publ_section_title
;
Structure prediction by ZEFSAII (Michael W. Deem and Ramdas Pophale) SiO2 
 PCOD9163570
Probable space group: P 21/M
;
_chemical_formula_sum "Si O2"
_cell_formula_units_Z 28
_cell_length_a 29.601363
_cell_length_b 9.025059
_cell_length_c 9.256279
_cell_angle_alpha 90.000000
_cell_angle_beta 38.536209
_cell_angle_gamma 90.000000
_cell_volume 1540.609534
_symmetry_space_group_name_H-M "P 21/M"
_symmetry_group_IT_number 11
_symmetry_cell_setting 'monoclinic'
loop_
_space_group_symop_operation_xyz
x,y,z
-x,1/2+y,-z
-x,-y,-z
x,1/2-y,z
loop_
_atom_site_type_symbol
_atom_site_label
_atom_site_fract_x
_atom_site_fract_y
_atom_site_fract_z
Si Si1 0.855039 0.072050 0.700933
Si Si2 0.432614 0.923502 0.091307
Si Si3 0.001325 0.572203 0.839754
Si Si4 0.138290 0.071054 0.001819
Si Si5 0.718635 0.573047 0.536337
Si Si6 0.720988 0.572528 0.870738
Si Si7 0.568094 0.424851 0.253116
O O1 0.848655 0.250000 0.720840
O O2 0.925775 0.032882 0.429155
O O3 0.784660 0.000836 0.802996
O O4 0.864077 0.007871 0.838494
O O5 0.432176 0.750000 0.126201
O O6 0.355420 0.994514 0.325402
O O7 0.439807 0.941309 0.900230
O O8 0.500000 0.000000 0.000000
O O9 0.999616 0.750000 0.860397
O O10 0.930970 0.529618 0.922082
O O11 0.000000 0.500000 0.000000
O O12 0.137195 0.250000 0.023981
O O13 0.211983 0.031979 0.732419
O O14 0.708402 0.750000 0.551372
O O15 0.732160 0.539232 0.671932
O O16 0.720860 0.750000 0.889217
O O17 0.643071 0.505007 0.107039
O O18 0.500000 0.500000 0.500000
O O19 0.571692 0.250000 0.277293
#
# Coordination Sequence:
#
# PCOD9163570 Si02
#       7
#     4   4   4   4   4   4   4
#     4  11  23  37  55  84 117 147 183 230 278 327
#     4  10  21  36  56  81 110 143 181 225 274 327
#     4  10  22  39  60  85 113 147 188 230 275 329
#     4  10  21  38  58  82 113 148 185 227 274 329
#     4   9  19  36  58  81 106 140 185 229 272 326
#     4  10  20  37  60  82 108 147 188 229 279 333
#     4  10  21  37  57  83 113 146 186 232 279 331
#
# _framework density 18.174624999999999
#
# number of rings (size 3 to 8) (size 9 to 14) (size 15 to 20)
#    0.000    2.000    0.000    3.000    0.000    6.857 
#    0.000    1.429    0.000    0.000    0.000    0.000 
#    0.000    0.000    0.000    0.000    0.000    0.000 
#
# Total GULP energy -156438.015988 kJ/mol
# GULP energy per Si atom -5587.072000 kJ/mol
# Density = 1.813326 g / cm^3
# Si number density = 18.174625 Si / 1000 Ang^3
#
#
#
# Elastic Constant Matrix: (Units=GPa)
#
#
# Indices 1 2 3 4 5 6 
#
# 1 172.6547 78.1520 104.4813 0.0000 -27.5334 0.0000
# 2 78.1520 67.9635 80.2415 0.0000 -9.3426 0.0000
# 3 104.4813 80.2415 185.9742 0.0000 -18.2381 0.0000
# 4 0.0000 0.0000 0.0000 30.8729 0.0000 1.3856
# 5 -27.5334 -9.3426 -18.2381 0.0000 28.3753 0.0000
# 6 0.0000 0.0000 0.0000 1.3856 0.0000 34.2465
#
#
#
# Elastic Compliance Matrix: (Units=1/GPa)
#
#
# Indices 1 2 3 4 5 6 
#
# 1 0.013945 -0.013464 -0.001209 0.000000 0.008321 0.000000
# 2 -0.013464 0.043066 -0.011642 0.000000 -0.006368 0.000000
# 3 -0.001209 -0.011642 0.011301 0.000000 0.002257 0.000000
# 4 0.000000 0.000000 0.000000 0.032450 0.000000 -0.001313
# 5 0.008321 -0.006368 0.002257 0.000000 0.042670 0.000000
# 6 0.000000 0.000000 0.000000 -0.001313 0.000000 0.029253
#
#
# Mechanical properties :
#
#
# Convention : Reuss Voigt Hill
#
# Bulk Modulus (GPa) = 63.76843 105.81576 84.79210
# Shear Modulus (GPa) = 21.68796 29.61344 25.65070
#
# Velocity S-wave (km/s) = 3.45818 4.04094 3.76087
# Velocity P-wave (km/s) = 7.14899 8.95100 8.10026
#
# Compressibility (1/GPa) = 0.01568174
#
# Stress axis : x y z
#
# Youngs Moduli (GPa) = 71.70932 23.22016 88.49064
#
# Poissons Ratio (x) = 0.31265 0.10698
# Poissons Ratio (y) = 0.96553 1.03017
# Poissons Ratio (z) = 0.08670 0.27032
#
# Static dielectric constant tensor:
#      x y z
#    x 1.591150 0.000000 0.002500 
#    y 0.000000 1.608050 0.000000 
#    z 0.002500 0.000000 1.601090 
# 
# From -- ./inp_files/26049.got.cif
#   From: 2010.05.17/outbox.cif.g08.bks.cpg/sg11_14_cif.got.tgz:26049.got - 2010.06.03 12:22:45.
