data_PCOD9163957
_publ_section_title
;
Structure prediction by ZEFSAII (Michael W. Deem and Ramdas Pophale) SiO2 
 PCOD9163957
Probable space group: P 21/M
;
_chemical_formula_sum "Si O2"
_cell_formula_units_Z 28
_cell_length_a 14.332333
_cell_length_b 20.447364
_cell_length_c 9.456441
_cell_angle_alpha 90.000000
_cell_angle_beta 147.964039
_cell_angle_gamma 90.000000
_cell_volume 1470.034603
_symmetry_space_group_name_H-M "P 21/M"
_symmetry_group_IT_number 11
_symmetry_cell_setting 'monoclinic'
loop_
_space_group_symop_operation_xyz
x,y,z
-x,1/2+y,-z
-x,-y,-z
x,1/2-y,z
loop_
_atom_site_type_symbol
_atom_site_label
_atom_site_fract_x
_atom_site_fract_y
_atom_site_fract_z
Si Si1 0.284579 0.821559 0.643202
Si Si2 0.509364 0.498548 0.680019
Si Si3 0.234161 0.937317 0.782779
Si Si4 0.112835 0.176049 0.982803
Si Si5 0.865046 0.578537 0.451982
Si Si6 0.870229 0.943223 0.776457
Si Si7 0.376594 0.358761 0.069232
O O1 0.287080 0.750000 0.716500
O O2 0.313035 0.881277 0.786356
O O3 0.090081 0.830300 0.327989
O O4 0.440685 0.823309 0.729150
O O5 0.500000 0.500000 0.500000
O O6 0.318501 0.476986 0.485452
O O7 0.650580 0.449771 0.929945
O O8 0.567361 0.569501 0.806374
O O9 0.037968 0.918568 0.577008
O O10 0.217562 0.006225 0.679118
O O11 0.134458 0.250000 0.068954
O O12 0.245878 0.169136 0.020611
O O13 0.144243 0.116633 0.131828
O O14 0.919006 0.583618 0.684248
O O15 0.730721 0.631081 0.214922
O O16 0.000000 0.000000 0.000000
#
# Coordination Sequence:
#
# PCOD9163957 Si02
#       7
#     4   4   4   4   4   4   4
#     4  11  23  40  63  90 122 166 212 252 302 376
#     4  11  21  35  61  93 125 156 204 260 317 371
#     4  10  20  38  61  93 126 153 206 261 312 361
#     4  11  24  43  63  89 128 168 209 260 319 378
#     4  10  21  36  66  93 118 160 204 262 313 364
#     4  12  23  38  61  96 130 167 206 264 319 376
#     4  11  21  41  67  92 119 165 212 256 312 377
#
# _framework density 19.047170999999999
#
# number of rings (size 3 to 8) (size 9 to 14) (size 15 to 20)
#    0.000    1.143    2.857    4.714    2.000    2.286 
#    0.000    4.286    0.000    0.000    0.000    0.000 
#    0.000    0.000    0.000    0.000    0.000    0.000 
#
# Total GULP energy -156338.706819 kJ/mol
# GULP energy per Si atom -5583.525244 kJ/mol
# Density = 1.900382 g / cm^3
# Si number density = 19.047171 Si / 1000 Ang^3
#
#
#
# Elastic Constant Matrix: (Units=GPa)
#
#
# Indices 1 2 3 4 5 6 
#
# 1 103.3087 28.9742 29.3056 0.0000 -1.1664 0.0000
# 2 28.9742 72.4512 29.0386 0.0000 -0.4411 0.0000
# 3 29.3056 29.0386 83.8553 0.0000 6.4574 0.0000
# 4 0.0000 0.0000 0.0000 8.4443 0.0000 2.1391
# 5 -1.1664 -0.4411 6.4574 0.0000 40.0387 0.0000
# 6 0.0000 0.0000 0.0000 2.1391 0.0000 9.4811
#
#
#
# Elastic Compliance Matrix: (Units=1/GPa)
#
#
# Indices 1 2 3 4 5 6 
#
# 1 0.011466 -0.003427 -0.002879 0.000000 0.000761 0.000000
# 2 -0.003427 0.017098 -0.004790 0.000000 0.000861 0.000000
# 3 -0.002879 -0.004790 0.014784 0.000000 -0.002521 0.000000
# 4 0.000000 0.000000 0.000000 0.125602 0.000000 -0.028338
# 5 0.000761 0.000861 -0.002521 0.000000 0.025414 0.000000
# 6 0.000000 0.000000 0.000000 -0.028338 0.000000 0.111866
#
#
# Mechanical properties :
#
#
# Convention : Reuss Voigt Hill
#
# Bulk Modulus (GPa) = 47.26532 48.25022 47.75777
# Shear Modulus (GPa) = 14.90429 23.07926 18.99178
#
# Velocity S-wave (km/s) = 2.80034 3.48471 3.16110
# Velocity P-wave (km/s) = 5.94345 6.44809 6.20091
#
# Compressibility (1/GPa) = 0.02115716
#
# Stress axis : x y z
#
# Youngs Moduli (GPa) = 87.21348 58.48718 67.63986
#
# Poissons Ratio (x) = 0.20043 0.19474
# Poissons Ratio (y) = 0.29887 0.32396
# Poissons Ratio (z) = 0.25109 0.28013
#
# Static dielectric constant tensor:
#      x y z
#    x 1.699740 0.000000 0.007550 
#    y 0.000000 1.658550 0.000000 
#    z 0.007550 0.000000 1.673350 
# 
# From -- ./inp_files/23232.got.cif
#   From: 2010.05.17/outbox.cif.g08.bks.cpg/sg11_12_cif.got.tgz:23232.got - 2010.06.03 12:22:45.
