data_PCOD9163094
_publ_section_title
;
Structure prediction by ZEFSAII (Michael W. Deem and Ramdas Pophale) SiO2 
 PCOD9163094
Probable space group: P 21/M
;
_chemical_formula_sum "Si O2"
_cell_formula_units_Z 32
_cell_length_a 8.758798
_cell_length_b 15.219759
_cell_length_c 14.619157
_cell_angle_alpha 90.000000
_cell_angle_beta 119.506805
_cell_angle_gamma 90.000000
_cell_volume 1696.063878
_symmetry_space_group_name_H-M "P 21/M"
_symmetry_group_IT_number 11
_symmetry_cell_setting 'monoclinic'
loop_
_space_group_symop_operation_xyz
x,y,z
-x,1/2+y,-z
-x,-y,-z
x,1/2-y,z
loop_
_atom_site_type_symbol
_atom_site_label
_atom_site_fract_x
_atom_site_fract_y
_atom_site_fract_z
Si Si1 0.421115 0.153184 0.637131
Si Si2 0.038513 0.508175 0.118810
Si Si3 0.811635 0.851781 0.721922
Si Si4 0.569477 0.351431 0.482603
Si Si5 0.797245 0.477205 0.430653
Si Si6 0.281282 0.848869 0.130013
Si Si7 0.677645 0.444948 0.052507
Si Si8 0.183486 0.851120 0.734230
O O1 0.335202 0.250000 0.601699
O O2 0.542698 0.142555 0.583382
O O3 0.536373 0.153161 0.762342
O O4 0.296332 0.070603 0.603259
O O5 0.146016 0.424418 0.188717
O O6 0.152179 0.595538 0.156644
O O7 0.849505 0.507301 0.110982
O O8 0.000000 0.500000 0.000000
O O9 0.812971 0.750000 0.755566
O O10 0.623483 0.868036 0.619322
O O11 0.977119 0.858979 0.701310
O O12 0.617288 0.250000 0.474603
O O13 0.709025 0.420494 0.485670
O O14 0.772248 0.417588 0.333452
O O15 0.000000 0.500000 0.500000
O O16 0.215997 0.750000 0.097738
O O17 0.303858 0.894047 0.038187
O O18 0.702024 0.377766 0.143409
O O19 0.500000 0.500000 0.000000
O O20 0.215933 0.750000 0.718339
#
# Coordination Sequence:
#
# PCOD9163094 Si02
#       8
#     4   4   4   4   4   4   4   4
#     4  10  22  39  59  81 110 149 192 235 281 335
#     4   9  19  33  53  80 109 142 183 230 273 323
#     4   9  18  35  60  83 108 143 186 235 286 333
#     4  10  21  38  59  84 111 143 188 240 285 336
#     4  12  24  36  56  85 117 152 185 231 289 348
#     4  10  20  37  58  79 108 149 190 229 275 330
#     4  10  20  36  58  85 117 150 184 231 285 342
#     4  10  21  38  59  85 116 152 192 237 289 343
#
# _framework density 18.867214000000001
#
# number of rings (size 3 to 8) (size 9 to 14) (size 15 to 20)
#    0.000    2.000    0.000    3.375    0.000    8.000 
#    0.000    1.250    0.000    6.750    0.000    0.000 
#    0.000    0.000    0.000    0.000    0.000    0.000 
#
# Total GULP energy -178559.521302 kJ/mol
# GULP energy per Si atom -5579.985041 kJ/mol
# Density = 1.882427 g / cm^3
# Si number density = 18.867214 Si / 1000 Ang^3
#
#
#
# Elastic Constant Matrix: (Units=GPa)
#
#
# Indices 1 2 3 4 5 6 
#
# 1 66.5675 76.3833 25.2893 0.0000 6.1170 0.0000
# 2 76.3833 162.1189 41.2280 0.0000 -4.4612 0.0000
# 3 25.2893 41.2280 73.1754 0.0000 -10.9498 0.0000
# 4 0.0000 0.0000 0.0000 24.4664 0.0000 -12.2828
# 5 6.1170 -4.4612 -10.9498 0.0000 27.7604 0.0000
# 6 0.0000 0.0000 0.0000 -12.2828 0.0000 30.1991
#
#
#
# Elastic Compliance Matrix: (Units=1/GPa)
#
#
# Indices 1 2 3 4 5 6 
#
# 1 0.037269 -0.016512 -0.005529 0.000000 -0.013047 0.000000
# 2 -0.016512 0.014522 -0.001681 0.000000 0.005309 0.000000
# 3 -0.005529 -0.001681 0.017711 0.000000 0.007934 0.000000
# 4 0.000000 0.000000 0.000000 0.051359 0.000000 0.020889
# 5 -0.013047 0.005309 0.007934 0.000000 0.042880 0.000000
# 6 0.000000 0.000000 0.000000 0.020889 0.000000 0.041610
#
#
# Mechanical properties :
#
#
# Convention : Reuss Voigt Hill
#
# Bulk Modulus (GPa) = 45.33645 65.29588 55.31616
# Shear Modulus (GPa) = 19.21988 27.08261 23.15125
#
# Velocity S-wave (km/s) = 3.19516 3.79282 3.50675
# Velocity P-wave (km/s) = 6.13950 7.33920 6.76599
#
# Compressibility (1/GPa) = 0.02205731
#
# Stress axis : x y z
#
# Youngs Moduli (GPa) = 26.83189 68.86220 56.46300
#
# Poissons Ratio (x) = 1.13709 0.31219
# Poissons Ratio (y) = 0.44306 0.09489
# Poissons Ratio (z) = 0.14835 0.11573
#
# Static dielectric constant tensor:
#      x y z
#    x 1.660390 0.000000 0.009290 
#    y 0.000000 1.669190 0.000000 
#    z 0.009290 0.000000 1.654710 
# 
# From -- ./inp_files/47632.got.cif
#   From: 2010.05.17/outbox.cif.g08.bks.cpg/sg11_24_cif.got.tgz:47632.got - 2010.06.03 12:22:45.
