data_PCOD9163520
_publ_section_title
;
Structure prediction by ZEFSAII (Michael W. Deem and Ramdas Pophale) SiO2 
 PCOD9163520
Probable space group: P 21/M
;
_chemical_formula_sum "Si O2"
_cell_formula_units_Z 28
_cell_length_a 26.961137
_cell_length_b 9.626298
_cell_length_c 9.420834
_cell_angle_alpha 90.000000
_cell_angle_beta 139.177241
_cell_angle_gamma 90.000000
_cell_volume 1598.377863
_symmetry_space_group_name_H-M "P 21/M"
_symmetry_group_IT_number 11
_symmetry_cell_setting 'monoclinic'
loop_
_space_group_symop_operation_xyz
x,y,z
-x,1/2+y,-z
-x,-y,-z
x,1/2-y,z
loop_
_atom_site_type_symbol
_atom_site_label
_atom_site_fract_x
_atom_site_fract_y
_atom_site_fract_z
Si Si1 0.747195 0.583369 0.002383
Si Si2 0.430979 0.417678 0.424899
Si Si3 0.164813 0.407991 0.099571
Si Si4 0.448332 0.093385 0.791925
Si Si5 0.791175 0.412175 0.364416
Si Si6 0.291606 0.100094 0.617550
Si Si7 0.926497 0.414609 0.887795
O O1 0.751403 0.750000 0.030480
O O2 0.789391 0.553376 0.943890
O O3 0.790526 0.501678 0.220106
O O4 0.656732 0.547032 0.806183
O O5 0.500000 0.500000 0.500000
O O6 0.439222 0.250000 0.422213
O O7 0.438604 0.449592 0.608596
O O8 0.133633 0.250000 0.014191
O O9 0.226172 0.400738 0.358471
O O10 0.105036 0.517124 0.034384
O O11 0.478674 0.250000 0.856148
O O12 0.367812 0.093217 0.694626
O O13 0.500000 0.000000 0.000000
O O14 0.782389 0.250000 0.314795
O O15 0.721580 0.474709 0.304656
O O16 0.863930 0.429663 0.625677
O O17 0.288509 0.250000 0.687949
O O18 0.940756 0.250000 0.935915
O O19 0.000000 0.500000 0.000000
#
# Coordination Sequence:
#
# PCOD9163520 Si02
#       7
#     4   4   4   4   4   4   4
#     4  10  20  37  59  81 110 149 191 229 273 335
#     4  10  22  39  55  77 110 148 190 235 282 330
#     4   9  17  34  60  83 105 141 184 226 272 321
#     4  10  21  36  53  75 105 139 183 233 279 329
#     4  10  22  36  54  84 116 142 177 227 274 320
#     4   9  17  34  56  75 100 140 184 227 273 326
#     4  10  21  38  60  87 117 146 179 221 269 326
#
# _framework density 17.517759999999999
#
# number of rings (size 3 to 8) (size 9 to 14) (size 15 to 20)
#    0.000    2.286    1.429    0.857    2.000    4.000 
#    0.000    0.714    0.000    0.000    0.000    0.000 
#    0.000    0.000    0.000    0.000    0.000    0.000 
#
# Total GULP energy -155986.049714 kJ/mol
# GULP energy per Si atom -5570.930347 kJ/mol
# Density = 1.747789 g / cm^3
# Si number density = 17.517760 Si / 1000 Ang^3
#
#
#
# Elastic Constant Matrix: (Units=GPa)
#
#
# Indices 1 2 3 4 5 6 
#
# 1 117.5709 71.6483 34.5330 0.0000 2.0467 0.0000
# 2 71.6483 92.5707 49.3253 0.0000 2.3146 0.0000
# 3 34.5330 49.3253 41.9241 0.0000 -5.2866 0.0000
# 4 0.0000 0.0000 0.0000 29.7864 0.0000 -2.3722
# 5 2.0467 2.3146 -5.2866 0.0000 24.3709 0.0000
# 6 0.0000 0.0000 0.0000 -2.3722 0.0000 33.1337
#
#
#
# Elastic Compliance Matrix: (Units=1/GPa)
#
#
# Indices 1 2 3 4 5 6 
#
# 1 0.016342 -0.014913 0.004206 0.000000 0.000956 0.000000
# 2 -0.014913 0.045391 -0.042673 0.000000 -0.012315 0.000000
# 3 0.004206 -0.042673 0.073060 0.000000 0.019548 0.000000
# 4 0.000000 0.000000 0.000000 0.033765 0.000000 0.002417
# 5 0.000956 -0.012315 0.019548 0.000000 0.046362 0.000000
# 6 0.000000 0.000000 0.000000 0.002417 0.000000 0.030354
#
#
# Mechanical properties :
#
#
# Convention : Reuss Voigt Hill
#
# Bulk Modulus (GPa) = 35.67411 62.56433 49.11922
# Shear Modulus (GPa) = 13.83591 23.89546 18.86568
#
# Velocity S-wave (km/s) = 2.81343 3.69734 3.28525
# Velocity P-wave (km/s) = 5.56440 7.34979 6.51851
#
# Compressibility (1/GPa) = 0.02803153
#
# Stress axis : x y z
#
# Youngs Moduli (GPa) = 61.19333 22.03084 13.68736
#
# Poissons Ratio (x) = 0.32855 -0.05756
# Poissons Ratio (y) = 0.91258 0.58408
# Poissons Ratio (z) = -0.25736 0.94013
#
# Static dielectric constant tensor:
#      x y z
#    x 1.595160 0.000000 0.002510 
#    y 0.000000 1.608920 0.000000 
#    z 0.002510 0.000000 1.578130 
# 
# From -- ./inp_files/28242.got.cif
#   From: 2010.05.17/outbox.cif.g08.bks.cpg/sg11_15_cif.got.tgz:28242.got - 2010.06.03 12:22:45.
