data_PCOD9163529
_publ_section_title
;
Structure prediction by ZEFSAII (Michael W. Deem and Ramdas Pophale) SiO2 
 PCOD9163529
Probable space group: P 21/M
;
_chemical_formula_sum "Si O2"
_cell_formula_units_Z 20
_cell_length_a 13.183882
_cell_length_b 9.540518
_cell_length_c 17.286685
_cell_angle_alpha 90.000000
_cell_angle_beta 25.762681
_cell_angle_gamma 90.000000
_cell_volume 945.064094
_symmetry_space_group_name_H-M "P 21/M"
_symmetry_group_IT_number 11
_symmetry_cell_setting 'monoclinic'
loop_
_space_group_symop_operation_xyz
x,y,z
-x,1/2+y,-z
-x,-y,-z
x,1/2-y,z
loop_
_atom_site_type_symbol
_atom_site_label
_atom_site_fract_x
_atom_site_fract_y
_atom_site_fract_z
Si Si1 0.380686 0.750000 0.965011
Si Si2 0.470682 0.511263 0.387671
Si Si3 0.683606 0.250000 0.158450
Si Si4 0.211266 0.250000 0.798466
Si Si5 0.038942 0.487870 0.213959
Si Si6 0.658396 0.250000 0.647070
Si Si7 0.170148 0.250000 0.013423
Si Si8 0.145582 0.250000 0.266964
O O1 0.464745 0.750000 0.818148
O O2 0.603826 0.750000 0.866696
O O3 0.221042 0.613439 0.086771
O O4 0.622583 0.385509 0.250338
O O5 0.633152 0.614219 0.326402
O O6 0.391428 0.613396 0.371535
O O7 0.228152 0.464384 0.591748
O O8 0.951171 0.250000 0.945859
O O9 0.167075 0.250000 0.922675
O O10 0.106263 0.383684 0.238302
O O11 0.055990 0.388796 0.126728
O O12 0.443020 0.250000 0.853921
O O13 0.932169 0.250000 0.475848
#
# Coordination Sequence:
#
# PCOD9163529 Si02
#       8
#     2   4   2   2   4   2   2   2
#     4  12  22  35  54  85 113 142 181 228 270 314
#     4   9  19  37  56  77 109 144 177 224 274 318
#     4  12  23  36  53  82 115 144 180 228 270 314
#     4  10  20  38  59  78 107 150 185 216 266 330
#     4  10  20  37  59  83 110 140 179 228 275 321
#     4   8  16  35  58  77 102 144 186 214 258 330
#     4   9  17  36  60  81 101 141 190 223 260 330
#     4   9  20  38  58  79 110 147 180 217 272 330
#
# _framework density 21.162585
#
# number of rings (size 3 to 8) (size 9 to 14) (size 15 to 20)
#    0.000    2.400    0.000    6.000    0.000    0.000 
#    0.000   19.000    0.000    0.000    0.000    0.000 
#    0.000    0.000    0.000    0.000    0.000    0.000 
#
# Total GULP energy -111686.089756 kJ/mol
# GULP energy per Si atom -5584.304488 kJ/mol
# Density = 2.111442 g / cm^3
# Si number density = 21.162585 Si / 1000 Ang^3
#
#
#
# Elastic Constant Matrix: (Units=GPa)
#
#
# Indices 1 2 3 4 5 6 
#
# 1 58.2734 2.2832 11.5613 0.0000 -19.2511 0.0000
# 2 2.2832 102.1441 17.5261 0.0000 -19.3266 0.0000
# 3 11.5613 17.5261 105.6509 0.0000 -20.5500 0.0000
# 4 0.0000 0.0000 0.0000 3.4846 0.0000 -12.1496
# 5 -19.2511 -19.3266 -20.5500 0.0000 22.2643 0.0000
# 6 0.0000 0.0000 0.0000 -12.1496 0.0000 -4.6899
#
#
#
# Elastic Compliance Matrix: (Units=1/GPa)
#
#
# Indices 1 2 3 4 5 6 
#
# 1 0.025815 0.004370 0.001864 0.000000 0.027835 0.000000
# 2 0.004370 0.012454 0.000358 0.000000 0.014919 0.000000
# 3 0.001864 0.000358 0.011671 0.000000 0.012695 0.000000
# 4 0.000000 0.000000 0.000000 0.028605 0.000000 -0.074103
# 5 0.027835 0.014919 0.012695 0.000000 0.093652 0.000000
# 6 0.000000 0.000000 0.000000 -0.074103 0.000000 -0.021253
#
#
# Mechanical properties :
#
#
# Convention : Reuss Voigt Hill
#
# Bulk Modulus (GPa) = 15.84185 36.53439 26.18812
# Shear Modulus (GPa) = 31.48609 19.85831 25.67220
#
# Velocity S-wave (km/s) = 3.86141 3.06660 3.48673
# Velocity P-wave (km/s) = 5.23285 5.46259 5.34895
#
# Compressibility (1/GPa) = 0.06312395
#
# Stress axis : x y z
#
# Youngs Moduli (GPa) = 38.73713 80.29626 85.68194
#
# Poissons Ratio (x) = -0.35088 -0.15975
# Poissons Ratio (y) = -0.16927 -0.03066
# Poissons Ratio (z) = -0.07222 -0.02873
#
# Static dielectric constant tensor:
#      x y z
#    x 1.759490 0.000000 0.002400 
#    y 0.000000 1.734910 0.000000 
#    z 0.002400 0.000000 1.795840 
# 
# From -- ./inp_files/15994.got.cif
#   From: 2010.05.17/outbox.cif.g08.bks.cpg/sg11_8_cif.got.tgz:15994.got - 2010.06.03 12:22:45.
