data_PCOD9163774
_publ_section_title
;
Structure prediction by ZEFSAII (Michael W. Deem and Ramdas Pophale) SiO2 
 PCOD9163774
Probable space group: P 21/M
;
_chemical_formula_sum "Si O2"
_cell_formula_units_Z 28
_cell_length_a 11.983694
_cell_length_b 8.563365
_cell_length_c 15.232717
_cell_angle_alpha 90.000000
_cell_angle_beta 64.838001
_cell_angle_gamma 90.000000
_cell_volume 1414.860241
_symmetry_space_group_name_H-M "P 21/M"
_symmetry_group_IT_number 11
_symmetry_cell_setting 'monoclinic'
loop_
_space_group_symop_operation_xyz
x,y,z
-x,1/2+y,-z
-x,-y,-z
x,1/2-y,z
loop_
_atom_site_type_symbol
_atom_site_label
_atom_site_fract_x
_atom_site_fract_y
_atom_site_fract_z
Si Si1 0.040944 0.069279 0.319533
Si Si2 0.809568 0.563262 0.057259
Si Si3 0.193634 0.432480 0.526835
Si Si4 0.006112 0.933376 0.142288
Si Si5 0.563125 0.561585 0.230547
Si Si6 0.282613 0.934665 0.314938
Si Si7 0.615918 0.063935 0.405904
O O1 0.019680 0.250000 0.346393
O O2 0.009330 0.031578 0.229609
O O3 0.181410 0.023902 0.291897
O O4 0.949633 0.969042 0.410897
O O5 0.819587 0.750000 0.037565
O O6 0.668662 0.522672 0.124997
O O7 0.889905 0.530913 0.118229
O O8 0.874577 0.472702 0.956678
O O9 0.213399 0.250000 0.504147
O O10 0.250274 0.527493 0.426932
O O11 0.264490 0.485228 0.590926
O O12 0.002413 0.750000 0.165903
O O13 0.565894 0.750000 0.242271
O O14 0.424069 0.518163 0.251371
O O15 0.596949 0.483872 0.311750
O O16 0.270956 0.750000 0.303342
O O17 0.623510 0.250000 0.412126
O O18 0.500000 0.000000 0.500000
#
# Coordination Sequence:
#
# PCOD9163774 Si02
#       7
#     4   4   4   4   4   4   4
#     4  12  25  41  61  85 116 155 201 248 297 352
#     4   9  19  37  62  91 120 151 187 237 297 354
#     4  12  24  40  61  86 118 156 200 247 298 353
#     4  10  20  37  62  91 121 151 190 241 295 353
#     4  10  21  38  61  87 120 159 199 243 295 354
#     4  11  23  40  60  84 118 158 202 246 294 352
#     4  12  23  36  57  86 121 157 196 241 292 347
#
# _framework density 19.789940999999999
#
# number of rings (size 3 to 8) (size 9 to 14) (size 15 to 20)
#    0.000    1.143    1.429    6.000    0.000    2.857 
#    0.000    0.714    0.000    0.000    0.000    0.000 
#    0.000    0.000    0.000    0.000    0.000    0.000 
#
# Total GULP energy -156645.415393 kJ/mol
# GULP energy per Si atom -5594.479121 kJ/mol
# Density = 1.974490 g / cm^3
# Si number density = 19.789941 Si / 1000 Ang^3
#
#
#
# Elastic Constant Matrix: (Units=GPa)
#
#
# Indices 1 2 3 4 5 6 
#
# 1 69.5273 5.5038 19.9030 0.0000 -20.3393 0.0000
# 2 5.5038 31.6213 -6.8433 0.0000 -2.8707 0.0000
# 3 19.9030 -6.8433 40.2996 0.0000 -26.9481 0.0000
# 4 0.0000 0.0000 0.0000 26.6358 0.0000 1.9656
# 5 -20.3393 -2.8707 -26.9481 0.0000 30.3619 0.0000
# 6 0.0000 0.0000 0.0000 1.9656 0.0000 28.5218
#
#
#
# Elastic Compliance Matrix: (Units=1/GPa)
#
#
# Indices 1 2 3 4 5 6 
#
# 1 0.018227 -0.003258 -0.003927 0.000000 0.008417 0.000000
# 2 -0.003258 0.039094 0.022780 0.000000 0.021733 0.000000
# 3 -0.003927 0.022780 0.074548 0.000000 0.065689 0.000000
# 4 0.000000 0.000000 0.000000 0.037735 0.000000 -0.002601
# 5 0.008417 0.021733 0.065689 0.000000 0.098932 0.000000
# 6 0.000000 0.000000 0.000000 -0.002601 0.000000 0.035240
#
#
# Mechanical properties :
#
#
# Convention : Reuss Voigt Hill
#
# Bulk Modulus (GPa) = 6.13274 19.84170 12.98722
# Shear Modulus (GPa) = 15.29332 25.29621 20.29476
#
# Velocity S-wave (km/s) = 2.78291 3.57912 3.20583
# Velocity P-wave (km/s) = 3.66494 5.20846 4.50332
#
# Compressibility (1/GPa) = 0.16305920
#
# Stress axis : x y z
#
# Youngs Moduli (GPa) = 54.86327 25.57916 13.41421
#
# Poissons Ratio (x) = 0.08334 0.05268
# Poissons Ratio (y) = 0.17876 -0.30558
# Poissons Ratio (z) = 0.21545 -0.58270
#
# Static dielectric constant tensor:
#      x y z
#    x 1.715870 0.000000 -0.017840 
#    y 0.000000 1.705940 0.000000 
#    z -0.017840 0.000000 1.670450 
# 
# From -- ./inp_files/48933.got.cif
#   From: 2010.05.17/outbox.cif.g08.bks.cpg/sg11_25_cif.got.tgz:48933.got - 2010.06.03 12:22:45.
