data_PCOD9163989
_publ_section_title
;
Structure prediction by ZEFSAII (Michael W. Deem and Ramdas Pophale) SiO2 
 PCOD9163989
Probable space group: P 21/M
;
_chemical_formula_sum "Si O2"
_cell_formula_units_Z 30
_cell_length_a 11.750813
_cell_length_b 18.090348
_cell_length_c 7.932576
_cell_angle_alpha 90.000000
_cell_angle_beta 116.188282
_cell_angle_gamma 90.000000
_cell_volume 1513.178947
_symmetry_space_group_name_H-M "P 21/M"
_symmetry_group_IT_number 11
_symmetry_cell_setting 'monoclinic'
loop_
_space_group_symop_operation_xyz
x,y,z
-x,1/2+y,-z
-x,-y,-z
x,1/2-y,z
loop_
_atom_site_type_symbol
_atom_site_label
_atom_site_fract_x
_atom_site_fract_y
_atom_site_fract_z
Si Si1 0.115089 0.666408 0.837963
Si Si2 0.324089 0.549855 0.083139
Si Si3 0.257101 0.994417 0.401297
Si Si4 0.659044 0.750000 0.479188
Si Si5 0.779441 0.608218 0.106559
Si Si6 0.041957 0.920001 0.456482
Si Si7 0.847757 0.858150 0.793001
Si Si8 0.410495 0.390651 0.730129
O O1 0.160348 0.750000 0.849393
O O2 0.066214 0.634614 0.627296
O O3 0.992892 0.664532 0.879688
O O4 0.221263 0.611967 0.976122
O O5 0.332168 0.536748 0.290185
O O6 0.460655 0.576408 0.110187
O O7 0.273544 0.474097 0.967085
O O8 0.171387 0.934201 0.438923
O O9 0.160904 0.055364 0.259952
O O10 0.343864 0.041777 0.585258
O O11 0.764745 0.813402 0.605547
O O12 0.563110 0.817908 0.363558
O O13 0.687060 0.637978 0.190433
O O14 0.923008 0.605475 0.267440
O O15 0.783238 0.651138 0.932785
O O16 0.000000 0.000000 0.500000
#
# Coordination Sequence:
#
# PCOD9163989 Si02
#       8
#     4   4   4   2   4   4   4   4
#     4  12  24  39  61  88 128 163 195 254 316 369
#     4  11  23  39  62  89 126 161 202 245 303 367
#     4  10  20  38  65  91 115 156 206 257 298 347
#     4  10  22  40  58  84 122 162 198 246 298 358
#     4  11  22  37  65  96 116 153 209 260 299 349
#     4  12  19  38  64  92 121 154 204 261 309 352
#     4  10  20  38  62  91 116 149 202 257 303 350
#     4  11  22  39  63  89 125 165 201 243 298 365
#
# _framework density 19.825813
#
# number of rings (size 3 to 8) (size 9 to 14) (size 15 to 20)
#    0.000    1.067    4.667    2.400    0.933    2.667 
#    1.200    0.667    2.933    0.000    0.000    0.000 
#    0.000    0.000    0.000    0.000    0.000    0.000 
#
# Total GULP energy -167047.521304 kJ/mol
# GULP energy per Si atom -5568.250710 kJ/mol
# Density = 1.978069 g / cm^3
# Si number density = 19.825813 Si / 1000 Ang^3
#
#
#
# Elastic Constant Matrix: (Units=GPa)
#
#
# Indices 1 2 3 4 5 6 
#
# 1 51.5642 12.6329 26.4321 0.0000 -0.5489 0.0000
# 2 12.6329 54.1675 2.1719 0.0000 8.7957 0.0000
# 3 26.4321 2.1719 55.7608 0.0000 8.4244 0.0000
# 4 0.0000 0.0000 0.0000 37.2674 0.0000 12.0040
# 5 -0.5489 8.7957 8.4244 0.0000 33.1641 0.0000
# 6 0.0000 0.0000 0.0000 12.0040 0.0000 8.5615
#
#
#
# Elastic Compliance Matrix: (Units=1/GPa)
#
#
# Indices 1 2 3 4 5 6 
#
# 1 0.028391 -0.007016 -0.014077 0.000000 0.005907 0.000000
# 2 -0.007016 0.021026 0.003501 0.000000 -0.006582 0.000000
# 3 -0.014077 0.003501 0.025629 0.000000 -0.007672 0.000000
# 4 0.000000 0.000000 0.000000 0.048931 0.000000 -0.068606
# 5 0.005907 -0.006582 -0.007672 0.000000 0.033945 0.000000
# 6 0.000000 0.000000 0.000000 -0.068606 0.000000 0.212995
#
#
# Mechanical properties :
#
#
# Convention : Reuss Voigt Hill
#
# Bulk Modulus (GPa) = 25.08628 27.10737 26.09682
# Shear Modulus (GPa) = 11.92208 23.81565 17.86887
#
# Velocity S-wave (km/s) = 2.45489 3.46966 3.00541
# Velocity P-wave (km/s) = 4.55149 5.45471 5.02344
#
# Compressibility (1/GPa) = 0.03986243
#
# Stress axis : x y z
#
# Youngs Moduli (GPa) = 35.22226 47.56028 39.01758
#
# Poissons Ratio (x) = 0.33369 0.54926
# Poissons Ratio (y) = 0.24712 -0.13661
# Poissons Ratio (z) = 0.49583 -0.16652
#
# Static dielectric constant tensor:
#      x y z
#    x 1.722060 0.000000 -0.046710 
#    y 0.000000 1.628200 0.000000 
#    z -0.046710 0.000000 1.737810 
# 
# From -- ./inp_files/18817.got.cif
#   From: 2010.05.17/outbox.cif.g08.bks.cpg/sg11_10_cif.got.tgz:18817.got - 2010.06.03 12:22:45.
