data_PCOD9163654
_publ_section_title
;
Structure prediction by ZEFSAII (Michael W. Deem and Ramdas Pophale) SiO2 
 PCOD9163654
Probable space group: P 21/M
;
_chemical_formula_sum "Si O2"
_cell_formula_units_Z 32
_cell_length_a 8.807369
_cell_length_b 21.383579
_cell_length_c 15.394389
_cell_angle_alpha 90.000000
_cell_angle_beta 33.789022
_cell_angle_gamma 90.000000
_cell_volume 1612.390962
_symmetry_space_group_name_H-M "P 21/M"
_symmetry_group_IT_number 11
_symmetry_cell_setting 'monoclinic'
loop_
_space_group_symop_operation_xyz
x,y,z
-x,1/2+y,-z
-x,-y,-z
x,1/2-y,z
loop_
_atom_site_type_symbol
_atom_site_label
_atom_site_fract_x
_atom_site_fract_y
_atom_site_fract_z
Si Si1 0.608524 0.321013 0.033593
Si Si2 0.108389 0.117226 0.175284
Si Si3 0.321855 0.451867 0.361999
Si Si4 0.089977 0.528541 0.866186
Si Si5 0.480295 0.820610 0.546387
Si Si6 0.707493 0.818001 0.634355
Si Si7 0.931622 0.910216 0.247133
Si Si8 0.101316 0.000468 0.306765
O O1 0.683886 0.250000 0.976244
O O2 0.371243 0.344092 0.080700
O O3 0.491134 0.321843 0.187590
O O4 0.866829 0.365661 0.901461
O O5 0.107621 0.079599 0.084349
O O6 0.834020 0.158312 0.309923
O O7 0.083905 0.061051 0.255892
O O8 0.620135 0.438702 0.255651
O O9 0.156426 0.386733 0.428177
O O10 0.162849 0.493227 0.506889
O O11 0.341124 0.487471 0.261331
O O12 0.140742 0.470533 0.776395
O O13 0.000000 0.500000 0.000000
O O14 0.514181 0.750000 0.494400
O O15 0.569998 0.816829 0.604838
O O16 0.676385 0.870988 0.405591
O O17 0.853274 0.750000 0.574024
O O18 0.103318 0.939693 0.245792
#
# Coordination Sequence:
#
# PCOD9163654 Si02
#       8
#     4   4   4   4   4   4   4   4
#     4  11  24  41  61  87 123 160 201 249 297 357
#     4  11  22  38  62  89 118 155 206 245 297 357
#     4  11  19  39  57  90 120 154 196 244 304 352
#     4  11  24  36  60  88 126 157 195 248 308 366
#     4  11  22  40  65  88 117 160 206 246 293 361
#     4  10  20  37  61  84 118 163 204 238 292 369
#     4  11  23  40  61  92 122 155 199 251 308 353
#     4  10  22  34  63  88 120 152 193 252 300 357
#
# _framework density 19.846304
#
# number of rings (size 3 to 8) (size 9 to 14) (size 15 to 20)
#    0.000    1.250    3.750    2.250    1.750    3.000 
#    0.000    0.000    0.000    0.000    0.000    0.000 
#    0.000    0.000    0.000    0.000    0.000    0.000 
#
# Total GULP energy -178463.724914 kJ/mol
# GULP energy per Si atom -5576.991404 kJ/mol
# Density = 1.980113 g / cm^3
# Si number density = 19.846304 Si / 1000 Ang^3
#
#
#
# Elastic Constant Matrix: (Units=GPa)
#
#
# Indices 1 2 3 4 5 6 
#
# 1 42.7389 -2.9726 16.1439 0.0000 10.5823 0.0000
# 2 -2.9726 96.8438 6.5464 0.0000 -0.8377 0.0000
# 3 16.1439 6.5464 19.7133 0.0000 9.5386 0.0000
# 4 0.0000 0.0000 0.0000 1730.6706 0.0000 1515.7882
# 5 10.5823 -0.8377 9.5386 0.0000 26.2370 0.0000
# 6 0.0000 0.0000 0.0000 1515.7882 0.0000 1373.3928
#
#
#
# Elastic Compliance Matrix: (Units=1/GPa)
#
#
# Indices 1 2 3 4 5 6 
#
# 1 0.035073 0.002920 -0.027779 0.000000 -0.003954 0.000000
# 2 0.002920 0.010890 -0.006803 0.000000 0.001643 0.000000
# 3 -0.027779 -0.006803 0.085451 0.000000 -0.020079 0.000000
# 4 0.000000 0.000000 0.000000 0.017324 0.000000 -0.019120
# 5 -0.003954 0.001643 -0.020079 0.000000 0.047061 0.000000
# 6 0.000000 0.000000 0.000000 -0.019120 0.000000 0.021831
#
#
# Mechanical properties :
#
#
# Convention : Reuss Voigt Hill
#
# Bulk Modulus (GPa) = 14.68638 22.08129 18.38383
# Shear Modulus (GPa) = 16.46635 635.36528 325.91582
#
# Velocity S-wave (km/s) = 2.88356 17.91195 12.82873
# Velocity P-wave (km/s) = 4.30148 20.95076 15.12344
#
# Compressibility (1/GPa) = 0.06809032
#
# Stress axis : x y z
#
# Youngs Moduli (GPa) = 28.51196 91.83079 11.70260
#
# Poissons Ratio (x) = -0.26816 0.32509
# Poissons Ratio (y) = -0.08326 0.07961
# Poissons Ratio (z) = 0.79204 0.62469
#
# Static dielectric constant tensor:
#      x y z
#    x 1.730800 0.000000 0.009660 
#    y 0.000000 1.741620 0.000000 
#    z 0.009660 0.000000 1.687000 
# 
# From -- ./inp_files/48242.got.cif
#   From: 2010.05.17/outbox.cif.g08.bks.cpg/sg11_25_cif.got.tgz:48242.got - 2010.06.03 12:22:45.
