data_PCOD9163308
_publ_section_title
;
Structure prediction by ZEFSAII (Michael W. Deem and Ramdas Pophale) SiO2 
 PCOD9163308
Probable space group: P 21/M
;
_chemical_formula_sum "Si O2"
_cell_formula_units_Z 28
_cell_length_a 12.429763
_cell_length_b 14.045496
_cell_length_c 7.918802
_cell_angle_alpha 90.000000
_cell_angle_beta 69.378140
_cell_angle_gamma 90.000000
_cell_volume 1293.899566
_symmetry_space_group_name_H-M "P 21/M"
_symmetry_group_IT_number 11
_symmetry_cell_setting 'monoclinic'
loop_
_space_group_symop_operation_xyz
x,y,z
-x,1/2+y,-z
-x,-y,-z
x,1/2-y,z
loop_
_atom_site_type_symbol
_atom_site_label
_atom_site_fract_x
_atom_site_fract_y
_atom_site_fract_z
Si Si1 0.067276 0.365458 0.837908
Si Si2 0.691649 0.855745 0.435806
Si Si3 0.295127 0.366195 0.189160
Si Si4 0.548266 0.402169 0.543800
Si Si5 0.703872 0.360485 0.140441
Si Si6 0.461443 0.863428 0.083937
Si Si7 0.886876 0.995054 0.890501
O O1 0.051606 0.250000 0.845895
O O2 0.198096 0.396079 0.719182
O O3 0.979546 0.427479 0.772461
O O4 0.052047 0.413286 0.030345
O O5 0.734002 0.750000 0.444633
O O6 0.671893 0.890120 0.636203
O O7 0.574019 0.848371 0.398372
O O8 0.276045 0.250000 0.180039
O O9 0.189826 0.432720 0.194259
O O10 0.406432 0.391866 0.016261
O O11 0.500000 0.500000 0.500000
O O12 0.643012 0.368801 0.357004
O O13 0.587647 0.403758 0.714757
O O14 0.741844 0.250000 0.098615
O O15 0.608510 0.381099 0.048548
O O16 0.802601 0.436318 0.046651
O O17 0.459826 0.750000 0.105955
#
# Coordination Sequence:
#
# PCOD9163308 Si02
#       7
#     4   4   4   4   4   4   4
#     4  10  22  42  63  85 115 156 205 254 308 367
#     4  10  20  37  59  83 116 157 201 249 302 357
#     4  10  20  36  60  89 121 157 200 253 303 359
#     4  12  23  34  60  92 124 163 206 256 306 362
#     4  11  23  40  60  90 131 167 203 252 310 367
#     4  10  21  37  58  86 125 169 205 242 301 367
#     4  11  23  38  62  89 117 156 204 254 307 365
#
# _framework density 21.64001
#
# number of rings (size 3 to 8) (size 9 to 14) (size 15 to 20)
#    0.000    1.429    1.429    4.714    2.000    4.000 
#    0.000    0.000    0.000    0.000    0.000    0.000 
#    0.000    0.000    0.000    0.000    0.000    0.000 
#
# Total GULP energy -156055.774874 kJ/mol
# GULP energy per Si atom -5573.420531 kJ/mol
# Density = 2.159076 g / cm^3
# Si number density = 21.640010 Si / 1000 Ang^3
#
#
#
# Elastic Constant Matrix: (Units=GPa)
#
#
# Indices 1 2 3 4 5 6 
#
# 1 39.9925 4.9870 -11.4671 0.0000 -10.7804 0.0000
# 2 4.9870 120.3678 -2.2710 0.0000 -9.8123 0.0000
# 3 -11.4671 -2.2710 45.4054 0.0000 1.5796 0.0000
# 4 0.0000 0.0000 0.0000 1.2747 0.0000 5.0040
# 5 -10.7804 -9.8123 1.5796 0.0000 32.4412 0.0000
# 6 0.0000 0.0000 0.0000 5.0040 0.0000 23.4084
#
#
#
# Elastic Compliance Matrix: (Units=1/GPa)
#
#
# Indices 1 2 3 4 5 6 
#
# 1 0.029626 -0.000327 0.007139 0.000000 0.009398 0.000000
# 2 -0.000327 0.008527 0.000258 0.000000 0.002458 0.000000
# 3 0.007139 0.000258 0.023795 0.000000 0.001292 0.000000
# 4 0.000000 0.000000 0.000000 4.878245 0.000000 -1.042828
# 5 0.009398 0.002458 0.001292 0.000000 0.034629 0.000000
# 6 0.000000 0.000000 0.000000 -1.042828 0.000000 0.265646
#
#
# Mechanical properties :
#
#
# Convention : Reuss Voigt Hill
#
# Bulk Modulus (GPa) = 13.14266 20.91818 17.03042
# Shear Modulus (GPa) = 0.95207 25.72598 13.33903
#
# Velocity S-wave (km/s) = 0.66401 3.45166 2.48545
# Velocity P-wave (km/s) = 2.58348 5.05695 4.01541
#
# Compressibility (1/GPa) = 0.07608813
#
# Stress axis : x y z
#
# Youngs Moduli (GPa) = 33.75442 117.27945 42.02624
#
# Poissons Ratio (x) = 0.03830 -0.30001
# Poissons Ratio (y) = 0.01102 -0.01086
# Poissons Ratio (z) = -0.24096 -0.03031
#
# Static dielectric constant tensor:
#      x y z
#    x 1.838640 0.000000 -0.019940 
#    y 0.000000 1.838190 0.000000 
#    z -0.019940 0.000000 1.859380 
# 
# From -- ./inp_files/17898.got.cif
#   From: 2010.05.17/outbox.cif.g08.bks.cpg/sg11_9_cif.got.tgz:17898.got - 2010.06.03 12:22:45.
