data_PCOD9163056
_publ_section_title
;
Structure prediction by ZEFSAII (Michael W. Deem and Ramdas Pophale) SiO2 
 PCOD9163056
Probable space group: P 21/M
;
_chemical_formula_sum "Si O2"
_cell_formula_units_Z 32
_cell_length_a 8.140080
_cell_length_b 28.674897
_cell_length_c 13.891111
_cell_angle_alpha 90.000000
_cell_angle_beta 150.009446
_cell_angle_gamma 90.000000
_cell_volume 1620.740513
_symmetry_space_group_name_H-M "P 21/M"
_symmetry_group_IT_number 11
_symmetry_cell_setting 'monoclinic'
loop_
_space_group_symop_operation_xyz
x,y,z
-x,1/2+y,-z
-x,-y,-z
x,1/2-y,z
loop_
_atom_site_type_symbol
_atom_site_label
_atom_site_fract_x
_atom_site_fract_y
_atom_site_fract_z
Si Si1 0.394295 0.696976 0.131441
Si Si2 0.612409 0.132989 0.328824
Si Si3 0.084546 0.803313 0.361510
Si Si4 0.909900 0.132576 0.176157
Si Si5 0.663691 0.552637 0.687830
Si Si6 0.263970 0.552639 0.288046
Si Si7 0.291264 0.367405 0.557520
Si Si8 0.238324 0.367028 0.954741
O O1 0.292963 0.750000 0.097636
O O2 0.475973 0.668792 0.269584
O O3 0.739607 0.698179 0.246533
O O4 0.143283 0.668766 0.936899
O O5 0.666055 0.167735 0.445192
O O6 0.491401 0.083345 0.306448
O O7 0.963778 0.127534 0.455102
O O8 0.361273 0.150842 0.120413
O O9 0.185064 0.750000 0.394987
O O10 0.003502 0.832289 0.224364
O O11 0.033546 0.083466 0.197429
O O12 0.169972 0.147882 0.389961
O O13 0.562204 0.127511 0.053530
O O14 0.400621 0.550652 0.466866
O O15 0.761362 0.499999 0.761438
O O16 0.525240 0.583485 0.361336
O O17 0.936555 0.583330 0.121471
#
# Coordination Sequence:
#
# PCOD9163056 Si02
#       8
#     4   4   4   4   4   4   4   4
#     4   9  18  34  59  84 107 145 188 225 274 330
#     4  10  20  36  58  83 113 146 185 230 275 328
#     4   9  18  36  59  82 111 147 184 227 278 326
#     4   9  20  37  56  81 115 146 181 231 276 325
#     4  10  21  38  59  81 113 152 186 229 282 333
#     4  10  21  38  59  81 113 152 186 229 282 333
#     4   9  20  37  56  81 115 146 181 231 276 325
#     4  10  20  36  58  83 113 146 185 230 275 328
#
# _framework density 19.744062
#
# number of rings (size 3 to 8) (size 9 to 14) (size 15 to 20)
#    0.000    2.500    1.250    0.000    1.750    2.500 
#    0.000    6.250    0.000    0.000    0.000    0.000 
#    0.000    0.000    0.000    0.000    0.000    0.000 
#
# Total GULP energy -178678.052433 kJ/mol
# GULP energy per Si atom -5583.689139 kJ/mol
# Density = 1.969912 g / cm^3
# Si number density = 19.744062 Si / 1000 Ang^3
#
#
#
# Elastic Constant Matrix: (Units=GPa)
#
#
# Indices 1 2 3 4 5 6 
#
# 1 67.1767 46.7267 60.1593 0.0000 -13.6563 0.0000
# 2 46.7267 171.9973 95.5858 0.0000 -36.2876 0.0000
# 3 60.1593 95.5858 123.3526 0.0000 -28.0134 0.0000
# 4 0.0000 0.0000 0.0000 9.4839 0.0000 9.9506
# 5 -13.6563 -36.2876 -28.0134 0.0000 23.3786 0.0000
# 6 0.0000 0.0000 0.0000 9.9506 0.0000 22.8198
#
#
#
# Elastic Compliance Matrix: (Units=1/GPa)
#
#
# Indices 1 2 3 4 5 6 
#
# 1 0.026429 -0.000035 -0.012871 0.000000 -0.000039 0.000000
# 2 -0.000035 0.011705 -0.006775 0.000000 0.010029 0.000000
# 3 -0.012871 -0.006775 0.021348 0.000000 0.007545 0.000000
# 4 0.000000 0.000000 0.000000 0.194363 0.000000 -0.084752
# 5 -0.000039 0.010029 0.007545 0.000000 0.067358 0.000000
# 6 0.000000 0.000000 0.000000 -0.084752 0.000000 0.080778
#
#
# Mechanical properties :
#
#
# Convention : Reuss Voigt Hill
#
# Bulk Modulus (GPa) = 49.70610 85.27448 67.49029
# Shear Modulus (GPa) = 11.15945 21.80679 16.48312
#
# Velocity S-wave (km/s) = 2.37998 3.32697 2.89249
# Velocity P-wave (km/s) = 5.72558 7.61853 6.73885
#
# Compressibility (1/GPa) = 0.02011826
#
# Stress axis : x y z
#
# Youngs Moduli (GPa) = 37.83676 85.43544 46.84326
#
# Poissons Ratio (x) = 0.00302 0.60293
# Poissons Ratio (y) = 0.00134 0.31737
# Poissons Ratio (z) = 0.48700 0.57885
#
# Static dielectric constant tensor:
#      x y z
#    x 1.708990 0.000000 0.002420 
#    y 0.000000 1.640390 0.000000 
#    z 0.002420 0.000000 1.705750 
# 
# From -- ./inp_files/48532.got.cif
#   From: 2010.05.17/outbox.cif.g08.bks.cpg/sg11_25_cif.got.tgz:48532.got - 2010.06.03 12:22:45.
