data_PCOD9163642
_publ_section_title
;
Structure prediction by ZEFSAII (Michael W. Deem and Ramdas Pophale) SiO2 
 PCOD9163642
Probable space group: P 21/M
;
_chemical_formula_sum "Si O2"
_cell_formula_units_Z 20
_cell_length_a 18.312888
_cell_length_b 10.157419
_cell_length_c 5.088847
_cell_angle_alpha 90.000000
_cell_angle_beta 72.243624
_cell_angle_gamma 90.000000
_cell_volume 901.491422
_symmetry_space_group_name_H-M "P 21/M"
_symmetry_group_IT_number 11
_symmetry_cell_setting 'monoclinic'
loop_
_space_group_symop_operation_xyz
x,y,z
-x,1/2+y,-z
-x,-y,-z
x,1/2-y,z
loop_
_atom_site_type_symbol
_atom_site_label
_atom_site_fract_x
_atom_site_fract_y
_atom_site_fract_z
Si Si1 0.257236 0.902726 0.562054
Si Si2 0.114762 0.894392 0.366060
Si Si3 0.562458 0.750000 0.045422
Si Si4 0.652351 0.016572 0.059322
Si Si5 0.960411 0.602363 0.847262
Si Si6 0.539103 0.250000 0.343892
O O1 0.268251 0.750000 0.623729
O O2 0.170881 0.916926 0.549679
O O3 0.284561 0.987071 0.778808
O O4 0.309083 0.933704 0.251214
O O5 0.136654 0.750000 0.224342
O O6 0.027401 0.880788 0.557482
O O7 0.111832 0.023623 0.190232
O O8 0.611854 0.621093 0.050362
O O9 0.490844 0.750000 0.325758
O O10 0.531709 0.750000 0.781855
O O11 0.589322 0.121498 0.226325
O O12 0.943820 0.750000 0.967899
O O13 0.000000 0.500000 0.000000
#
# Coordination Sequence:
#
# PCOD9163642 Si02
#       6
#     4   4   2   4   4   2
#     4  11  22  42  66  92 127 171 218 256 313 377
#     4   9  21  38  61  85 117 166 209 262 304 362
#     4  12  26  42  66 100 128 165 202 267 322 372
#     4  12  24  43  66  96 131 164 212 261 313 383
#     4  10  20  37  60  91 123 156 214 258 311 365
#     4  12  22  44  70  94 126 165 218 251 316 376
#
# _framework density 22.185459999999999
#
# number of rings (size 3 to 8) (size 9 to 14) (size 15 to 20)
#    0.000    1.200    2.000    4.200    2.800    0.800 
#    3.600    0.000    0.000    0.000    0.000    0.000 
#    0.000    0.000    0.000    0.000    0.000    0.000 
#
# Total GULP energy -111813.062809 kJ/mol
# GULP energy per Si atom -5590.653140 kJ/mol
# Density = 2.213497 g / cm^3
# Si number density = 22.185460 Si / 1000 Ang^3
#
#
#
# Elastic Constant Matrix: (Units=GPa)
#
#
# Indices 1 2 3 4 5 6 
#
# 1 96.8352 40.3594 -4.1203 0.0000 22.0340 0.0000
# 2 40.3594 142.7709 -8.4141 0.0000 21.0632 0.0000
# 3 -4.1203 -8.4141 57.1337 0.0000 -1.0542 0.0000
# 4 0.0000 0.0000 0.0000 15.7092 0.0000 1.8089
# 5 22.0340 21.0632 -1.0542 0.0000 43.9257 0.0000
# 6 0.0000 0.0000 0.0000 1.8089 0.0000 10.7347
#
#
#
# Elastic Compliance Matrix: (Units=1/GPa)
#
#
# Indices 1 2 3 4 5 6 
#
# 1 0.012653 -0.002817 0.000406 0.000000 -0.004986 0.000000
# 2 -0.002817 0.008227 0.000962 0.000000 -0.002509 0.000000
# 3 0.000406 0.000962 0.017669 0.000000 -0.000241 0.000000
# 4 0.000000 0.000000 0.000000 0.064916 0.000000 -0.010939
# 5 -0.004986 -0.002509 -0.000241 0.000000 0.026464 0.000000
# 6 0.000000 0.000000 0.000000 -0.010939 0.000000 0.094999
#
#
# Mechanical properties :
#
#
# Convention : Reuss Voigt Hill
#
# Bulk Modulus (GPa) = 28.04995 39.15442 33.60218
# Shear Modulus (GPa) = 20.85836 32.00159 26.42998
#
# Velocity S-wave (km/s) = 3.06956 3.80209 3.45529
# Velocity P-wave (km/s) = 5.02333 6.07960 5.57653
#
# Compressibility (1/GPa) = 0.03565068
#
# Stress axis : x y z
#
# Youngs Moduli (GPa) = 79.03361 121.54384 56.59533
#
# Poissons Ratio (x) = 0.34242 -0.02295
# Poissons Ratio (y) = 0.22266 -0.05446
# Poissons Ratio (z) = -0.03205 -0.11695
#
# Static dielectric constant tensor:
#      x y z
#    x 1.824810 0.000000 -0.005840 
#    y 0.000000 1.834330 0.000000 
#    z -0.005840 0.000000 1.850790 
# 
# From -- ./inp_files/7462.got.cif
#   From: 2010.05.17/outbox.cif.g08.bks.cpg/sg11_4_cif.got.tgz:7462.got - 2010.06.03 12:22:45.
