data_PCOD9163426
_publ_section_title
;
Structure prediction by ZEFSAII (Michael W. Deem and Ramdas Pophale) SiO2 
 PCOD9163426
Probable space group: P 21/M
;
_chemical_formula_sum "Si O2"
_cell_formula_units_Z 32
_cell_length_a 11.433931
_cell_length_b 15.700917
_cell_length_c 16.986305
_cell_angle_alpha 90.000000
_cell_angle_beta 152.208318
_cell_angle_gamma 90.000000
_cell_volume 1421.824520
_symmetry_space_group_name_H-M "P 21/M"
_symmetry_group_IT_number 11
_symmetry_cell_setting 'monoclinic'
loop_
_space_group_symop_operation_xyz
x,y,z
-x,1/2+y,-z
-x,-y,-z
x,1/2-y,z
loop_
_atom_site_type_symbol
_atom_site_label
_atom_site_fract_x
_atom_site_fract_y
_atom_site_fract_z
Si Si1 0.791215 0.409581 0.645263
Si Si2 0.384608 0.842875 0.308746
Si Si3 0.443684 0.519747 0.654250
Si Si4 0.111266 0.347285 0.082024
Si Si5 0.324272 0.000240 0.754386
Si Si6 0.794033 0.841651 0.214023
Si Si7 0.770896 0.154756 0.188190
Si Si8 0.095253 0.935951 0.886505
O O1 0.608969 0.358570 0.594086
O O2 0.668304 0.442190 0.492103
O O3 0.025519 0.356429 0.752592
O O4 0.894436 0.488914 0.757087
O O5 0.487257 0.750000 0.348866
O O6 0.499546 0.921821 0.331669
O O7 0.092437 0.843988 0.108771
O O8 0.681884 0.581128 0.812616
O O9 0.284848 0.515961 0.639193
O O10 0.208452 0.250000 0.150627
O O11 0.966126 0.379353 0.073998
O O12 0.239196 0.917212 0.751599
O O13 0.195378 0.081452 0.718369
O O14 0.625447 0.022206 0.943008
O O15 0.850950 0.750000 0.284750
O O16 0.513194 0.840853 0.013571
O O17 0.846654 0.250000 0.257526
O O18 0.922756 0.119874 0.203570
#
# Coordination Sequence:
#
# PCOD9163426 Si02
#       8
#     4   4   4   4   4   4   4   4
#     4  12  23  41  64  88 128 172 204 252 318 372
#     4  11  24  43  66  92 122 166 214 259 311 371
#     4  12  26  41  63  94 131 168 206 256 310 376
#     4  11  24  41  67  96 126 162 210 266 310 359
#     4  11  21  40  66  90 124 159 212 262 300 364
#     4  10  21  38  64  92 121 161 209 257 308 367
#     4  10  20  36  63  96 121 159 211 262 307 357
#     4  11  19  40  66  90 123 161 209 259 310 363
#
# _framework density 22.506294
#
# number of rings (size 3 to 8) (size 9 to 14) (size 15 to 20)
#    0.000    1.000    5.000    3.000    0.000    3.000 
#    0.000    0.625    0.000    0.000    0.000    0.000 
#    0.000    0.000    0.000    0.000    0.000    0.000 
#
# Total GULP energy -179012.589848 kJ/mol
# GULP energy per Si atom -5594.143433 kJ/mol
# Density = 2.245507 g / cm^3
# Si number density = 22.506294 Si / 1000 Ang^3
#
#
#
# Elastic Constant Matrix: (Units=GPa)
#
#
# Indices 1 2 3 4 5 6 
#
# 1 132.4875 78.7425 11.9117 0.0000 -18.7482 0.0000
# 2 78.7425 190.3979 11.3921 0.0000 -15.8913 0.0000
# 3 11.9117 11.3921 28.0805 0.0000 -16.5736 0.0000
# 4 0.0000 0.0000 0.0000 -38.7684 0.0000 0.0957
# 5 -18.7482 -15.8913 -16.5736 0.0000 31.4848 0.0000
# 6 0.0000 0.0000 0.0000 0.0957 0.0000 -32.7576
#
#
#
# Elastic Compliance Matrix: (Units=1/GPa)
#
#
# Indices 1 2 3 4 5 6 
#
# 1 0.010530 -0.003992 -0.000487 0.000000 0.003999 0.000000
# 2 -0.003992 0.007011 -0.000675 0.000000 0.000806 0.000000
# 3 -0.000487 -0.000675 0.051820 0.000000 0.026647 0.000000
# 4 0.000000 0.000000 0.000000 -0.025794 0.000000 -0.000075
# 5 0.003999 0.000806 0.026647 0.000000 0.048577 0.000000
# 6 0.000000 0.000000 0.000000 -0.000075 0.000000 -0.030527
#
#
# Mechanical properties :
#
#
# Convention : Reuss Voigt Hill
#
# Bulk Modulus (GPa) = 16.93396 61.67316 39.30356
# Shear Modulus (GPa) = 54.58015 8.58641 31.58328
#
# Velocity S-wave (km/s) = 4.92988 1.95535 3.75014
# Velocity P-wave (km/s) = 6.32024 5.70614 6.02102
#
# Compressibility (1/GPa) = 0.05905293
#
# Stress axis : x y z
#
# Youngs Moduli (GPa) = 94.96491 142.63698 19.29753
#
# Poissons Ratio (x) = 0.56941 0.00940
# Poissons Ratio (y) = 0.37910 0.01303
# Poissons Ratio (z) = 0.04625 0.09629
#
# Static dielectric constant tensor:
#      x y z
#    x 1.779230 0.000000 0.021820 
#    y 0.000000 1.844720 0.000000 
#    z 0.021820 0.000000 1.877190 
# 
# From -- ./inp_files/27822.got.cif
#   From: 2010.05.17/outbox.cif.g08.bks.cpg/sg11_14_cif.got.tgz:27822.got - 2010.06.03 12:22:45.
