data_PCOD9163639
_publ_section_title
;
Structure prediction by ZEFSAII (Michael W. Deem and Ramdas Pophale) SiO2 
 PCOD9163639
Probable space group: P 21/M
;
_chemical_formula_sum "Si O2"
_cell_formula_units_Z 32
_cell_length_a 7.464520
_cell_length_b 22.289978
_cell_length_c 12.978421
_cell_angle_alpha 90.000000
_cell_angle_beta 45.254454
_cell_angle_gamma 90.000000
_cell_volume 1533.693488
_symmetry_space_group_name_H-M "P 21/M"
_symmetry_group_IT_number 11
_symmetry_cell_setting 'monoclinic'
loop_
_space_group_symop_operation_xyz
x,y,z
-x,1/2+y,-z
-x,-y,-z
x,1/2-y,z
loop_
_atom_site_type_symbol
_atom_site_label
_atom_site_fract_x
_atom_site_fract_y
_atom_site_fract_z
Si Si1 0.816762 0.967126 0.656390
Si Si2 0.052392 0.526849 0.789007
Si Si3 0.443423 0.438503 0.895703
Si Si4 0.490802 0.113778 0.359537
Si Si5 0.162941 0.902379 0.105528
Si Si6 0.779349 0.681034 0.350193
Si Si7 0.816013 0.184155 0.085150
Si Si8 0.398762 0.185035 0.812260
O O1 0.957203 0.961205 0.710045
O O2 0.713905 0.907715 0.641860
O O3 0.572004 0.007988 0.780983
O O4 0.000000 0.000000 0.500000
O O5 0.045001 0.455230 0.813044
O O6 0.318767 0.558901 0.695459
O O7 0.846029 0.551941 0.954668
O O8 0.597048 0.432464 0.939996
O O9 0.502394 0.377088 0.811775
O O10 0.355892 0.137838 0.515266
O O11 0.662832 0.167914 0.247986
O O12 0.050582 0.848078 0.217673
O O13 0.231206 0.871468 0.971480
O O14 0.793467 0.750000 0.379158
O O15 0.643421 0.680975 0.293515
O O16 0.741343 0.250000 0.074123
O O17 0.116757 0.186494 0.974909
O O18 0.520275 0.250000 0.786173
#
# Coordination Sequence:
#
# PCOD9163639 Si02
#       8
#     4   4   4   4   4   4   4   4
#     4  11  26  41  60  94 129 160 207 261 303 374
#     4  11  24  40  62  99 127 157 208 252 313 382
#     4  11  21  40  60  90 131 156 199 263 308 366
#     4  12  23  39  68  88 123 169 198 251 332 357
#     4  10  21  38  63  87 121 165 199 250 306 364
#     4  10  23  42  60  86 120 160 212 253 298 371
#     4  10  20  37  60  90 119 154 209 253 296 366
#     4   9  20  37  59  86 116 159 206 249 296 362
#
# _framework density 20.864664999999999
#
# number of rings (size 3 to 8) (size 9 to 14) (size 15 to 20)
#    0.000    1.500    1.250    6.000    5.250    3.000 
#    0.000    0.000    0.000    1.500    0.000    0.000 
#    0.000    0.000    0.000    0.000    0.000    0.000 
#
# Total GULP energy -178682.888109 kJ/mol
# GULP energy per Si atom -5583.840253 kJ/mol
# Density = 2.081718 g / cm^3
# Si number density = 20.864665 Si / 1000 Ang^3
#
#
#
# Elastic Constant Matrix: (Units=GPa)
#
#
# Indices 1 2 3 4 5 6 
#
# 1 43.2133 18.3013 4.9038 0.0000 8.3232 0.0000
# 2 18.3013 103.3359 -7.9823 0.0000 11.3645 0.0000
# 3 4.9038 -7.9823 71.8612 0.0000 15.4348 0.0000
# 4 0.0000 0.0000 0.0000 -18.9345 0.0000 10.4658
# 5 8.3232 11.3645 15.4348 0.0000 12.1960 0.0000
# 6 0.0000 0.0000 0.0000 10.4658 0.0000 25.7644
#
#
#
# Elastic Compliance Matrix: (Units=1/GPa)
#
#
# Indices 1 2 3 4 5 6 
#
# 1 0.027677 -0.002708 0.001820 0.000000 -0.018669 0.000000
# 2 -0.002708 0.012286 0.004960 0.000000 -0.015877 0.000000
# 3 0.001820 0.004960 0.021426 0.000000 -0.032980 0.000000
# 4 0.000000 0.000000 0.000000 -0.043130 0.000000 0.017520
# 5 -0.018669 -0.015877 -0.032980 0.000000 0.151268 0.000000
# 6 0.000000 0.000000 0.000000 0.017520 0.000000 0.031697
#
#
# Mechanical properties :
#
#
# Convention : Reuss Voigt Hill
#
# Bulk Modulus (GPa) = 14.38164 27.65066 21.01615
# Shear Modulus (GPa) = 23.12059 17.35099 20.23579
#
# Velocity S-wave (km/s) = 3.33246 2.88687 3.11763
# Velocity P-wave (km/s) = 4.65992 4.93895 4.80146
#
# Compressibility (1/GPa) = 0.06953308
#
# Stress axis : x y z
#
# Youngs Moduli (GPa) = 36.13089 81.39351 46.67223
#
# Poissons Ratio (x) = 0.22042 -0.08496
# Poissons Ratio (y) = 0.09784 -0.23148
# Poissons Ratio (z) = -0.06577 -0.40369
#
# Static dielectric constant tensor:
#      x y z
#    x 1.781260 0.000000 0.006350 
#    y 0.000000 1.737360 0.000000 
#    z 0.006350 0.000000 1.714260 
# 
# From -- ./inp_files/32849.got.cif
#   From: 2010.05.17/outbox.cif.g08.bks.cpg/sg11_17_cif.got.tgz:32849.got - 2010.06.03 12:22:45.
