data_PCOD9163834
_publ_section_title
;
Structure prediction by ZEFSAII (Michael W. Deem and Ramdas Pophale) SiO2 
 PCOD9163834
Probable space group: P 21/M
;
_chemical_formula_sum "Si O2"
_cell_formula_units_Z 32
_cell_length_a 13.878874
_cell_length_b 17.781371
_cell_length_c 11.984719
_cell_angle_alpha 90.000000
_cell_angle_beta 145.296212
_cell_angle_gamma 90.000000
_cell_volume 1683.892483
_symmetry_space_group_name_H-M "P 21/M"
_symmetry_group_IT_number 11
_symmetry_cell_setting 'monoclinic'
loop_
_space_group_symop_operation_xyz
x,y,z
-x,1/2+y,-z
-x,-y,-z
x,1/2-y,z
loop_
_atom_site_type_symbol
_atom_site_label
_atom_site_fract_x
_atom_site_fract_y
_atom_site_fract_z
Si Si1 0.565646 0.571249 0.494651
Si Si2 0.784379 0.488959 0.528440
Si Si3 0.694505 0.517761 0.191646
Si Si4 0.107981 0.163907 0.618260
Si Si5 0.877109 0.661109 0.901191
Si Si6 0.096227 0.584153 0.773848
Si Si7 0.769025 0.160693 0.884664
Si Si8 0.939793 0.335799 0.702155
O O1 0.500000 0.500000 0.500000
O O2 0.638770 0.536406 0.449444
O O3 0.721733 0.613242 0.704889
O O4 0.403642 0.624028 0.322955
O O5 0.760378 0.487781 0.372897
O O6 0.808072 0.403794 0.593150
O O7 0.956862 0.535930 0.708340
O O8 0.738000 0.605715 0.228010
O O9 0.791697 0.475299 0.186269
O O10 0.500000 0.500000 0.000000
O O11 0.158621 0.250000 0.649314
O O12 0.995690 0.135200 0.407271
O O13 0.007728 0.159204 0.640185
O O14 0.847816 0.750000 0.849675
O O15 0.059190 0.640306 0.019778
O O16 0.909807 0.652694 0.064899
O O17 0.199525 0.633228 0.959376
O O18 0.754226 0.250000 0.865021
O O19 0.875560 0.250000 0.659574
#
# Coordination Sequence:
#
# PCOD9163834 Si02
#       8
#     4   4   4   4   4   4   4   4
#     4  12  26  40  64  99 127 168 220 266 316 382
#     4  11  21  40  63  91 127 167 209 263 320 375
#     4  11  22  38  59  92 131 167 206 260 318 382
#     4  10  20  38  62  91 119 161 214 258 314 380
#     4  10  23  43  64  90 128 172 209 265 329 372
#     4  11  20  40  65  93 124 169 211 259 322 383
#     4  11  24  43  66  95 129 168 215 269 323 382
#     4  10  20  37  65  90 119 165 215 260 314 383
#
# _framework density 19.003589000000002
#
# number of rings (size 3 to 8) (size 9 to 14) (size 15 to 20)
#    0.000    1.250    3.750    3.000    1.750    2.000 
#    0.000    5.625    0.000    0.000    0.000    0.000 
#    0.000    0.000    0.000    0.000    0.000    0.000 
#
# Total GULP energy -178688.424230 kJ/mol
# GULP energy per Si atom -5584.013257 kJ/mol
# Density = 1.896034 g / cm^3
# Si number density = 19.003589 Si / 1000 Ang^3
#
#
#
# Elastic Constant Matrix: (Units=GPa)
#
#
# Indices 1 2 3 4 5 6 
#
# 1 65.4239 44.0218 25.5025 0.0000 7.0294 0.0000
# 2 44.0218 144.3068 76.7849 0.0000 14.6320 0.0000
# 3 25.5025 76.7849 93.2847 0.0000 13.1862 0.0000
# 4 0.0000 0.0000 0.0000 35.6932 0.0000 4.4392
# 5 7.0294 14.6320 13.1862 0.0000 34.7470 0.0000
# 6 0.0000 0.0000 0.0000 4.4392 0.0000 28.5647
#
#
#
# Elastic Compliance Matrix: (Units=1/GPa)
#
#
# Indices 1 2 3 4 5 6 
#
# 1 0.019326 -0.005423 -0.000623 0.000000 -0.001390 0.000000
# 2 -0.005423 0.013918 -0.009828 0.000000 -0.001034 0.000000
# 3 -0.000623 -0.009828 0.019418 0.000000 -0.003105 0.000000
# 4 0.000000 0.000000 0.000000 0.028569 0.000000 -0.004440
# 5 -0.001390 -0.001034 -0.003105 0.000000 0.030674 0.000000
# 6 0.000000 0.000000 0.000000 -0.004440 0.000000 0.035698
#
#
# Mechanical properties :
#
#
# Convention : Reuss Voigt Hill
#
# Bulk Modulus (GPa) = 47.81237 66.18152 56.99695
# Shear Modulus (GPa) = 26.83509 30.24805 28.54157
#
# Velocity S-wave (km/s) = 3.76188 3.99394 3.87965
# Velocity P-wave (km/s) = 6.63952 7.49468 7.08002
#
# Compressibility (1/GPa) = 0.02091509
#
# Stress axis : x y z
#
# Youngs Moduli (GPa) = 51.74323 71.84890 51.49765
#
# Poissons Ratio (x) = 0.38965 0.03209
# Poissons Ratio (y) = 0.28061 0.50609
# Poissons Ratio (z) = 0.03224 0.70610
#
# Static dielectric constant tensor:
#      x y z
#    x 1.747290 0.000000 0.061980 
#    y 0.000000 1.671150 0.000000 
#    z 0.061980 0.000000 1.788610 
# 
# From -- ./inp_files/40047.got.cif
#   From: 2010.05.17/outbox.cif.g08.bks.cpg/sg11_21_cif.got.tgz:40047.got - 2010.06.03 12:22:45.
