data_PCOD9163634
_publ_section_title
;
Structure prediction by ZEFSAII (Michael W. Deem and Ramdas Pophale) SiO2 
 PCOD9163634
Probable space group: P 21/M
;
_chemical_formula_sum "Si O2"
_cell_formula_units_Z 32
_cell_length_a 15.247596
_cell_length_b 14.446987
_cell_length_c 21.688913
_cell_angle_alpha 90.000000
_cell_angle_beta 19.668661
_cell_angle_gamma 90.000000
_cell_volume 1608.070473
_symmetry_space_group_name_H-M "P 21/M"
_symmetry_group_IT_number 11
_symmetry_cell_setting 'monoclinic'
loop_
_space_group_symop_operation_xyz
x,y,z
-x,1/2+y,-z
-x,-y,-z
x,1/2-y,z
loop_
_atom_site_type_symbol
_atom_site_label
_atom_site_fract_x
_atom_site_fract_y
_atom_site_fract_z
Si Si1 0.575717 0.356536 0.815403
Si Si2 0.212650 0.531951 0.209561
Si Si3 0.832636 0.477404 0.551004
Si Si4 0.010020 0.142592 0.155557
Si Si5 0.519740 0.142515 0.262581
Si Si6 0.572391 0.858506 0.419832
Si Si7 0.205736 0.358803 0.591455
Si Si8 0.977694 0.971511 0.084861
O O1 0.643126 0.250000 0.768281
O O2 0.726966 0.399581 0.773030
O O3 0.642545 0.400224 0.704360
O O4 0.265051 0.368009 0.028961
O O5 0.023081 0.456130 0.367645
O O6 0.037015 0.581589 0.273639
O O7 0.500000 0.500000 0.000000
O O8 0.676971 0.569968 0.637460
O O9 0.000000 0.500000 0.500000
O O10 0.012239 0.250000 0.130210
O O11 0.737014 0.130350 0.370924
O O12 0.022131 0.062449 0.096602
O O13 0.479026 0.250000 0.273531
O O14 0.448075 0.132886 0.382903
O O15 0.800726 0.107209 0.054894
O O16 0.626862 0.750000 0.371623
O O17 0.698169 0.881890 0.403559
O O18 0.705458 0.925098 0.282871
O O19 0.131351 0.250000 0.640053
O O20 0.000000 0.000000 0.000000
#
# Coordination Sequence:
#
# PCOD9163634 Si02
#       8
#     4   4   4   4   4   4   4   4
#     4  10  20  39  62  86 123 169 207 243 299 373
#     4  10  21  35  59  91 123 157 201 260 306 358
#     4   9  19  36  59  88 121 158 203 247 299 361
#     4  10  22  40  61  85 123 166 204 244 299 369
#     4  10  20  37  60  89 121 157 203 255 308 360
#     4  10  22  40  62  92 121 156 202 250 305 368
#     4   9  19  37  61  85 118 157 197 247 304 362
#     4  12  24  38  60  91 122 156 200 254 311 364
#
# _framework density 19.899625
#
# number of rings (size 3 to 8) (size 9 to 14) (size 15 to 20)
#    0.000    2.000    1.250    1.875    1.750    5.000 
#    2.250    1.250    0.000    0.750    0.000    0.000 
#    0.000    0.000    0.000    0.000    0.000    0.000 
#
# Total GULP energy -178502.771406 kJ/mol
# GULP energy per Si atom -5578.211606 kJ/mol
# Density = 1.985433 g / cm^3
# Si number density = 19.899625 Si / 1000 Ang^3
#
#
#
# Elastic Constant Matrix: (Units=GPa)
#
#
# Indices 1 2 3 4 5 6 
#
# 1 36.4729 16.3357 15.3301 0.0000 6.1170 0.0000
# 2 16.3357 73.6169 31.3706 0.0000 9.7360 0.0000
# 3 15.3301 31.3706 111.6383 0.0000 -1.8861 0.0000
# 4 0.0000 0.0000 0.0000 33.6849 0.0000 -0.6339
# 5 6.1170 9.7360 -1.8861 0.0000 21.9225 0.0000
# 6 0.0000 0.0000 0.0000 -0.6339 0.0000 21.6885
#
#
#
# Elastic Compliance Matrix: (Units=1/GPa)
#
#
# Indices 1 2 3 4 5 6 
#
# 1 0.032104 -0.004837 -0.003169 0.000000 -0.007082 0.000000
# 2 -0.004837 0.017399 -0.004339 0.000000 -0.006751 0.000000
# 3 -0.003169 -0.004339 0.010675 0.000000 0.003730 0.000000
# 4 0.000000 0.000000 0.000000 0.029703 0.000000 0.000868
# 5 -0.007082 -0.006751 0.003730 0.000000 0.050910 0.000000
# 6 0.000000 0.000000 0.000000 0.000868 0.000000 0.046133
#
#
# Mechanical properties :
#
#
# Convention : Reuss Voigt Hill
#
# Bulk Modulus (GPa) = 28.17849 38.64455 33.41152
# Shear Modulus (GPa) = 22.37707 26.03862 24.20785
#
# Velocity S-wave (km/s) = 3.35699 3.62124 3.49162
# Velocity P-wave (km/s) = 5.40527 6.07836 5.75167
#
# Compressibility (1/GPa) = 0.03548807
#
# Stress axis : x y z
#
# Youngs Moduli (GPa) = 31.14901 57.47481 93.67730
#
# Poissons Ratio (x) = 0.27799 0.29686
# Poissons Ratio (y) = 0.15066 0.40647
# Poissons Ratio (z) = 0.09871 0.24938
#
# Static dielectric constant tensor:
#      x y z
#    x 1.685670 0.000000 0.003240 
#    y 0.000000 1.716710 0.000000 
#    z 0.003240 0.000000 1.767850 
# 
# From -- ./inp_files/55006.got.cif
#   From: 2010.05.17/outbox.cif.g08.bks.cpg/sg11_28_cif.got.tgz:55006.got - 2010.06.03 12:22:45.
