data_PCOD9163982
_publ_section_title
;
Structure prediction by ZEFSAII (Michael W. Deem and Ramdas Pophale) SiO2 
 PCOD9163982
Probable space group: P 21/M
;
_chemical_formula_sum "Si O2"
_cell_formula_units_Z 28
_cell_length_a 15.143168
_cell_length_b 8.865888
_cell_length_c 11.037363
_cell_angle_alpha 90.000000
_cell_angle_beta 67.541505
_cell_angle_gamma 90.000000
_cell_volume 1369.461515
_symmetry_space_group_name_H-M "P 21/M"
_symmetry_group_IT_number 11
_symmetry_cell_setting 'monoclinic'
loop_
_space_group_symop_operation_xyz
x,y,z
-x,1/2+y,-z
-x,-y,-z
x,1/2-y,z
loop_
_atom_site_type_symbol
_atom_site_label
_atom_site_fract_x
_atom_site_fract_y
_atom_site_fract_z
Si Si1 0.443487 0.076737 0.678701
Si Si2 0.412266 0.080270 0.980693
Si Si3 0.654217 0.067068 0.591500
Si Si4 0.748862 0.071602 0.305703
Si Si5 0.742247 0.431371 0.797250
Si Si6 0.036908 0.932390 0.353343
Si Si7 0.943694 0.930271 0.143625
O O1 0.434051 0.250000 0.636779
O O2 0.550344 0.013921 0.600451
O O3 0.355256 0.973952 0.687354
O O4 0.436344 0.085654 0.827427
O O5 0.404038 0.250000 0.031703
O O6 0.313253 0.996461 0.059241
O O7 0.500000 0.000000 0.000000
O O8 0.645786 0.250000 0.598620
O O9 0.738563 0.031532 0.453614
O O10 0.682790 0.017168 0.710123
O O11 0.764982 0.250000 0.284797
O O12 0.833698 0.981995 0.198572
O O13 0.738452 0.250000 0.803786
O O14 0.852104 0.474968 0.724572
O O15 0.031007 0.750000 0.365561
O O16 0.982936 0.977821 0.256817
O O17 0.000000 0.000000 0.500000
O O18 0.951789 0.750000 0.132587
O O19 0.000000 0.000000 0.000000
#
# Coordination Sequence:
#
# PCOD9163982 Si02
#       7
#     4   4   4   4   4   4   4
#     4  10  21  38  58  85 123 162 200 247 301 358
#     4  11  22  37  58  86 120 160 201 246 300 358
#     4   9  18  36  60  87 122 159 195 240 302 362
#     4  11  23  39  63  90 117 160 209 252 306 366
#     4  10  20  38  62  88 121 158 197 248 303 361
#     4  10  23  42  68  97 127 163 208 263 320 376
#     4  11  25  45  65  93 129 167 213 265 318 376
#
# _framework density 20.445995
#
# number of rings (size 3 to 8) (size 9 to 14) (size 15 to 20)
#    0.000    1.714    1.429    2.571    2.000    4.000 
#    0.000    2.143    0.000    0.000    0.000    0.000 
#    0.000    0.000    0.000    0.000    0.000    0.000 
#
# Total GULP energy -156348.292506 kJ/mol
# GULP energy per Si atom -5583.867589 kJ/mol
# Density = 2.039946 g / cm^3
# Si number density = 20.445995 Si / 1000 Ang^3
#
#
#
# Elastic Constant Matrix: (Units=GPa)
#
#
# Indices 1 2 3 4 5 6 
#
# 1 83.3150 17.2504 38.2471 0.0000 -18.1874 0.0000
# 2 17.2504 41.3791 34.1775 0.0000 -4.9459 0.0000
# 3 38.2471 34.1775 125.2122 0.0000 -25.1539 0.0000
# 4 0.0000 0.0000 0.0000 30.8044 0.0000 0.7831
# 5 -18.1874 -4.9459 -25.1539 0.0000 40.2372 0.0000
# 6 0.0000 0.0000 0.0000 0.7831 0.0000 17.7740
#
#
#
# Elastic Compliance Matrix: (Units=1/GPa)
#
#
# Indices 1 2 3 4 5 6 
#
# 1 0.014972 -0.003461 -0.002693 0.000000 0.004659 0.000000
# 2 -0.003461 0.032103 -0.008265 0.000000 -0.002785 0.000000
# 3 -0.002693 -0.008265 0.012141 0.000000 0.005357 0.000000
# 4 0.000000 0.000000 0.000000 0.032499 0.000000 -0.001432
# 5 0.004659 -0.002785 0.005357 0.000000 0.029965 0.000000
# 6 0.000000 0.000000 0.000000 -0.001432 0.000000 0.056325
#
#
# Mechanical properties :
#
#
# Convention : Reuss Voigt Hill
#
# Bulk Modulus (GPa) = 32.91721 47.69515 40.30618
# Shear Modulus (GPa) = 23.04465 28.44521 25.74493
#
# Velocity S-wave (km/s) = 3.36087 3.73397 3.55232
# Velocity P-wave (km/s) = 5.58526 6.47828 6.04827
#
# Compressibility (1/GPa) = 0.03037925
#
# Stress axis : x y z
#
# Youngs Moduli (GPa) = 66.78957 31.14940 82.36418
#
# Poissons Ratio (x) = 0.10780 0.22180
# Poissons Ratio (y) = 0.23114 0.68076
# Poissons Ratio (z) = 0.17986 0.25746
#
# Static dielectric constant tensor:
#      x y z
#    x 1.733680 0.000000 0.016520 
#    y 0.000000 1.681510 0.000000 
#    z 0.016520 0.000000 1.732140 
# 
# From -- ./inp_files/37906.got.cif
#   From: 2010.05.17/outbox.cif.g08.bks.cpg/sg11_19_cif.got.tgz:37906.got - 2010.06.03 12:22:45.
