data_PCOD9163732
_publ_section_title
;
Structure prediction by ZEFSAII (Michael W. Deem and Ramdas Pophale) SiO2 
 PCOD9163732
Probable space group: P 21/M
;
_chemical_formula_sum "Si O2"
_cell_formula_units_Z 28
_cell_length_a 19.870744
_cell_length_b 13.385051
_cell_length_c 5.808181
_cell_angle_alpha 90.000000
_cell_angle_beta 52.889464
_cell_angle_gamma 90.000000
_cell_volume 1231.942065
_symmetry_space_group_name_H-M "P 21/M"
_symmetry_group_IT_number 11
_symmetry_cell_setting 'monoclinic'
loop_
_space_group_symop_operation_xyz
x,y,z
-x,1/2+y,-z
-x,-y,-z
x,1/2-y,z
loop_
_atom_site_type_symbol
_atom_site_label
_atom_site_fract_x
_atom_site_fract_y
_atom_site_fract_z
Si Si1 0.909271 0.053489 0.424265
Si Si2 0.444208 0.864674 0.724884
Si Si3 0.503509 0.632649 0.100078
Si Si4 0.813925 0.530298 0.242160
Si Si5 0.271955 0.556228 0.963793
Si Si6 0.063822 0.361789 0.346884
Si Si7 0.693459 0.636498 0.839760
O O1 0.980978 0.128299 0.358044
O O2 0.886259 0.037499 0.207372
O O3 0.940626 0.944942 0.447157
O O4 0.819047 0.075596 0.731905
O O5 0.475808 0.750000 0.666009
O O6 0.476487 0.906374 0.410568
O O7 0.343390 0.870218 0.903136
O O8 0.468374 0.908023 0.928034
O O9 0.476163 0.750000 0.160874
O O10 0.604921 0.630808 0.889183
O O11 0.746850 0.455024 0.266673
O O12 0.768477 0.599614 0.521077
O O13 0.856881 0.601608 0.967140
O O14 0.306328 0.446407 0.963152
O O15 0.073889 0.250000 0.411588
O O16 0.704866 0.750000 0.896470
#
# Coordination Sequence:
#
# PCOD9163732 Si02
#       7
#     4   4   4   4   4   4   4
#     4   9  21  39  55  84 122 146 186 250 292 352
#     4  10  22  41  62  87 123 165 208 258 308 360
#     4   9  21  39  61  87 122 163 209 259 308 356
#     4  10  21  37  56  85 118 154 190 244 298 357
#     4  10  23  37  59  86 118 157 200 244 302 364
#     4  10  20  37  62  85 110 152 193 234 296 365
#     4  10  22  38  57  85 120 157 198 251 304 359
#
# _framework density 22.728342000000001
#
# number of rings (size 3 to 8) (size 9 to 14) (size 15 to 20)
#    0.000    2.286    0.000    0.857    6.000    8.000 
#    0.000    0.714    0.000    0.000    0.000    0.000 
#    0.000    0.000    0.000    0.000    0.000    0.000 
#
# Total GULP energy -156298.447122 kJ/mol
# GULP energy per Si atom -5582.087397 kJ/mol
# Density = 2.267661 g / cm^3
# Si number density = 22.728342 Si / 1000 Ang^3
#
#
#
# Elastic Constant Matrix: (Units=GPa)
#
#
# Indices 1 2 3 4 5 6 
#
# 1 131.9700 16.5599 22.9909 0.0000 13.0612 0.0000
# 2 16.5599 35.5875 17.3370 0.0000 12.4744 0.0000
# 3 22.9909 17.3370 68.2134 0.0000 7.0358 0.0000
# 4 0.0000 0.0000 0.0000 20.1525 0.0000 1.0766
# 5 13.0612 12.4744 7.0358 0.0000 42.0315 0.0000
# 6 0.0000 0.0000 0.0000 1.0766 0.0000 21.6926
#
#
#
# Elastic Compliance Matrix: (Units=1/GPa)
#
#
# Indices 1 2 3 4 5 6 
#
# 1 0.008387 -0.002347 -0.002069 0.000000 -0.001563 0.000000
# 2 -0.002347 0.035847 -0.007426 0.000000 -0.008667 0.000000
# 3 -0.002069 -0.007426 0.017249 0.000000 -0.000040 0.000000
# 4 0.000000 0.000000 0.000000 0.049754 0.000000 -0.002469
# 5 -0.001563 -0.008667 -0.000040 0.000000 0.026856 0.000000
# 6 0.000000 0.000000 0.000000 -0.002469 0.000000 0.046221
#
#
# Mechanical properties :
#
#
# Convention : Reuss Voigt Hill
#
# Bulk Modulus (GPa) = 26.45535 38.83852 32.64693
# Shear Modulus (GPa) = 22.66561 28.70085 25.68323
#
# Velocity S-wave (km/s) = 3.16134 3.55741 3.36521
# Velocity P-wave (km/s) = 4.99905 5.83085 5.43090
#
# Compressibility (1/GPa) = 0.03779954
#
# Stress axis : x y z
#
# Youngs Moduli (GPa) = 119.22990 27.89601 57.97499
#
# Poissons Ratio (x) = 0.06546 0.11996
# Poissons Ratio (y) = 0.27980 0.43052
# Poissons Ratio (z) = 0.24670 0.20716
#
# Static dielectric constant tensor:
#      x y z
#    x 1.888590 0.000000 0.029300 
#    y 0.000000 1.837340 0.000000 
#    z 0.029300 0.000000 1.875300 
# 
# From -- ./inp_files/8001.got.cif
#   From: 2010.05.17/outbox.cif.g08.bks.cpg/sg11_5_cif.got.tgz:8001.got - 2010.06.03 12:22:45.
