data_PCOD9163240
_publ_section_title
;
Structure prediction by ZEFSAII (Michael W. Deem and Ramdas Pophale) SiO2 
 PCOD9163240
Probable space group: P 21/M
;
_chemical_formula_sum "Si O2"
_cell_formula_units_Z 32
_cell_length_a 18.687898
_cell_length_b 15.173576
_cell_length_c 12.834152
_cell_angle_alpha 90.000000
_cell_angle_beta 153.376632
_cell_angle_gamma 90.000000
_cell_volume 1630.848130
_symmetry_space_group_name_H-M "P 21/M"
_symmetry_group_IT_number 11
_symmetry_cell_setting 'monoclinic'
loop_
_space_group_symop_operation_xyz
x,y,z
-x,1/2+y,-z
-x,-y,-z
x,1/2-y,z
loop_
_atom_site_type_symbol
_atom_site_label
_atom_site_fract_x
_atom_site_fract_y
_atom_site_fract_z
Si Si1 0.292422 0.845873 0.418537
Si Si2 0.817408 0.851184 0.021621
Si Si3 0.230587 0.001525 0.709687
Si Si4 0.019230 0.143266 0.542678
Si Si5 0.582965 0.489312 0.259447
Si Si6 0.048908 0.089282 0.005845
Si Si7 0.371309 0.151843 0.536268
Si Si8 0.486664 0.895404 0.491139
O O1 0.356609 0.750000 0.528236
O O2 0.371564 0.918449 0.594422
O O3 0.329152 0.868306 0.346620
O O4 0.104644 0.849870 0.190010
O O5 0.859764 0.750000 0.048104
O O6 0.872712 0.864275 0.211497
O O7 0.902675 0.917575 0.052299
O O8 0.630902 0.862633 0.753255
O O9 0.113713 0.085399 0.578495
O O10 0.287624 0.984881 0.665273
O O11 0.401078 0.021879 0.985571
O O12 0.140424 0.914401 0.638265
O O13 0.997132 0.250000 0.494356
O O14 0.593223 0.583337 0.328036
O O15 0.201546 0.128689 0.262915
O O16 0.000000 0.000000 0.000000
O O17 0.371859 0.250000 0.577490
O O18 0.492044 0.142595 0.596054
O O19 0.500000 0.000000 0.500000
#
# Coordination Sequence:
#
# PCOD9163240 Si02
#       8
#     4   4   4   4   4   4   4   4
#     4  12  22  36  61  94 122 151 200 256 297 346
#     4  10  20  36  60  85 115 155 197 238 294 357
#     4  10  24  42  64  90 124 154 204 268 306 358
#     4  10  22  42  67  92 116 156 205 257 314 361
#     4  11  23  42  61  91 122 163 206 250 312 360
#     4  11  20  36  56  88 125 157 192 242 289 359
#     4  11  23  40  58  83 123 169 199 230 296 371
#     4  11  20  36  56  88 125 157 192 242 289 359
#
# _framework density 19.621693
#
# number of rings (size 3 to 8) (size 9 to 14) (size 15 to 20)
#    0.000    1.250    2.500    5.250    0.000    4.000 
#    0.000    2.500    0.000    1.500    0.000    0.000 
#    0.000    0.000    0.000    0.000    0.000    0.000 
#
# Total GULP energy -178631.981706 kJ/mol
# GULP energy per Si atom -5582.249428 kJ/mol
# Density = 1.957703 g / cm^3
# Si number density = 19.621693 Si / 1000 Ang^3
#
#
#
# Elastic Constant Matrix: (Units=GPa)
#
#
# Indices 1 2 3 4 5 6 
#
# 1 100.4763 34.5830 14.1102 0.0000 22.0686 0.0000
# 2 34.5830 145.6137 -5.9872 0.0000 0.4630 0.0000
# 3 14.1102 -5.9872 18.2286 0.0000 9.3123 0.0000
# 4 0.0000 0.0000 0.0000 9.2454 0.0000 10.9512
# 5 22.0686 0.4630 9.3123 0.0000 17.4511 0.0000
# 6 0.0000 0.0000 0.0000 10.9512 0.0000 17.6774
#
#
#
# Elastic Compliance Matrix: (Units=1/GPa)
#
#
# Indices 1 2 3 4 5 6 
#
# 1 0.015742 -0.003872 -0.004592 0.000000 -0.017354 0.000000
# 2 -0.003872 0.007962 0.004425 0.000000 0.002324 0.000000
# 3 -0.004592 0.004425 0.078307 0.000000 -0.036098 0.000000
# 4 0.000000 0.000000 0.000000 0.406321 0.000000 -0.251717
# 5 -0.017354 0.002324 -0.036098 0.000000 0.098450 0.000000
# 6 0.000000 0.000000 0.000000 -0.251717 0.000000 0.212509
#
#
# Mechanical properties :
#
#
# Convention : Reuss Voigt Hill
#
# Bulk Modulus (GPa) = 10.64584 38.85896 24.75240
# Shear Modulus (GPa) = 5.82289 23.64896 14.73592
#
# Velocity S-wave (km/s) = 1.72453 3.47543 2.74341
# Velocity P-wave (km/s) = 3.06638 5.99599 4.76207
#
# Compressibility (1/GPa) = 0.09393343
#
# Stress axis : x y z
#
# Youngs Moduli (GPa) = 63.52473 125.60126 12.77018
#
# Poissons Ratio (x) = 0.48636 0.05863
# Poissons Ratio (y) = 0.24599 -0.05651
# Poissons Ratio (z) = 0.29168 -0.55579
#
# Static dielectric constant tensor:
#      x y z
#    x 1.667630 0.000000 -0.004760 
#    y 0.000000 1.696830 0.000000 
#    z -0.004760 0.000000 1.688220 
# 
# From -- ./inp_files/41703.got.cif
#   From: 2010.05.17/outbox.cif.g08.bks.cpg/sg11_21_cif.got.tgz:41703.got - 2010.06.03 12:22:45.
