data_PCOD9163405
_publ_section_title
;
Structure prediction by ZEFSAII (Michael W. Deem and Ramdas Pophale) SiO2 
 PCOD9163405
Probable space group: P 21/M
;
_chemical_formula_sum "Si O2"
_cell_formula_units_Z 32
_cell_length_a 24.236057
_cell_length_b 8.819185
_cell_length_c 11.108913
_cell_angle_alpha 90.000000
_cell_angle_beta 36.704220
_cell_angle_gamma 90.000000
_cell_volume 1419.167830
_symmetry_space_group_name_H-M "P 21/M"
_symmetry_group_IT_number 11
_symmetry_cell_setting 'monoclinic'
loop_
_space_group_symop_operation_xyz
x,y,z
-x,1/2+y,-z
-x,-y,-z
x,1/2-y,z
loop_
_atom_site_type_symbol
_atom_site_label
_atom_site_fract_x
_atom_site_fract_y
_atom_site_fract_z
Si Si1 0.797733 0.925499 0.810163
Si Si2 0.139187 0.428677 0.947218
Si Si3 0.378405 0.426189 0.037586
Si Si4 0.303530 0.572454 0.788644
Si Si5 0.952855 0.069474 0.393631
Si Si6 0.357260 0.572974 0.324863
Si Si7 0.541230 0.928588 0.626785
Si Si8 0.863900 0.072038 0.291495
O O1 0.802470 0.750000 0.839122
O O2 0.726956 0.938492 0.821972
O O3 0.897113 0.983248 0.593796
O O4 0.748231 0.019465 0.000989
O O5 0.161063 0.250000 0.914159
O O6 0.060500 0.462711 0.183485
O O7 0.228862 0.527908 0.817181
O O8 0.103135 0.471205 0.877908
O O9 0.397916 0.250000 0.027462
O O10 0.394168 0.522514 0.130096
O O11 0.444799 0.486474 0.816277
O O12 0.321449 0.750000 0.757862
O O13 0.397403 0.486123 0.591630
O O14 0.942434 0.250000 0.430748
O O15 0.905815 0.031779 0.347249
O O16 0.377277 0.750000 0.313566
O O17 0.400788 0.473351 0.354619
O O18 0.246866 0.554508 0.510471
O O19 0.473230 0.250000 0.355313
O O20 0.884744 0.250000 0.232554
#
# Coordination Sequence:
#
# PCOD9163405 Si02
#       8
#     4   4   4   4   4   4   4   4
#     4  11  25  44  67  93 122 161 210 262 309 366
#     4  11  23  39  64  95 129 165 208 257 309 368
#     4  11  24  42  65  95 129 164 206 254 311 372
#     4  12  26  45  67  89 122 165 209 260 313 369
#     4  10  22  41  64  94 129 167 207 254 309 369
#     4  11  21  37  64  95 130 167 206 252 308 371
#     4  12  25  42  66  94 127 164 208 257 308 370
#     4  10  20  36  62  93 129 168 206 249 308 371
#
# _framework density 22.548425999999999
#
# number of rings (size 3 to 8) (size 9 to 14) (size 15 to 20)
#    0.000    1.000    2.500    4.500    0.000    4.500 
#    0.000    0.000    0.000    0.000    0.000    0.000 
#    0.000    0.000    0.000    0.000    0.000    0.000 
#
# Total GULP energy -179205.701323 kJ/mol
# GULP energy per Si atom -5600.178166 kJ/mol
# Density = 2.249710 g / cm^3
# Si number density = 22.548426 Si / 1000 Ang^3
#
#
#
# Elastic Constant Matrix: (Units=GPa)
#
#
# Indices 1 2 3 4 5 6 
#
# 1 32.3688 -4.5223 -2.8783 0.0000 2.2927 0.0000
# 2 -4.5223 52.3483 24.1588 0.0000 0.4822 0.0000
# 3 -2.8783 24.1588 117.5781 0.0000 3.2463 0.0000
# 4 0.0000 0.0000 0.0000 41.6188 0.0000 4.1305
# 5 2.2927 0.4822 3.2463 0.0000 34.2630 0.0000
# 6 0.0000 0.0000 0.0000 4.1305 0.0000 25.3931
#
#
#
# Elastic Compliance Matrix: (Units=1/GPa)
#
#
# Indices 1 2 3 4 5 6 
#
# 1 0.031437 0.002599 0.000295 0.000000 -0.002168 0.000000
# 2 0.002599 0.021319 -0.004315 0.000000 -0.000065 0.000000
# 3 0.000295 -0.004315 0.009422 0.000000 -0.000852 0.000000
# 4 0.000000 0.000000 0.000000 0.024422 0.000000 -0.003973
# 5 -0.002168 -0.000065 -0.000852 0.000000 0.029413 0.000000
# 6 0.000000 0.000000 0.000000 -0.003973 0.000000 0.040027
#
#
# Mechanical properties :
#
#
# Convention : Reuss Voigt Hill
#
# Bulk Modulus (GPa) = 16.85256 26.20129 21.52693
# Shear Modulus (GPa) = 27.98609 32.62410 30.30510
#
# Velocity S-wave (km/s) = 3.52682 3.80787 3.67004
# Velocity P-wave (km/s) = 4.90661 5.56582 5.24658
#
# Compressibility (1/GPa) = 0.05933817
#
# Stress axis : x y z
#
# Youngs Moduli (GPa) = 31.80968 46.90569 106.13065
#
# Poissons Ratio (x) = -0.12193 -0.03134
# Poissons Ratio (y) = -0.08269 0.45796
# Poissons Ratio (z) = -0.00939 0.20240
#
# Static dielectric constant tensor:
#      x y z
#    x 1.886370 0.000000 -0.002410 
#    y 0.000000 1.749610 0.000000 
#    z -0.002410 0.000000 1.827000 
# 
# From -- ./inp_files/45108.got.cif
#   From: 2010.05.17/outbox.cif.g08.bks.cpg/sg11_23_cif.got.tgz:45108.got - 2010.06.03 12:22:45.
