data_PCOD9163534
_publ_section_title
;
Structure prediction by ZEFSAII (Michael W. Deem and Ramdas Pophale) SiO2 
 PCOD9163534
Probable space group: P 21/M
;
_chemical_formula_sum "Si O2"
_cell_formula_units_Z 24
_cell_length_a 8.123483
_cell_length_b 15.987445
_cell_length_c 8.827026
_cell_angle_alpha 90.000000
_cell_angle_beta 75.772868
_cell_angle_gamma 90.000000
_cell_volume 1111.237749
_symmetry_space_group_name_H-M "P 21/M"
_symmetry_group_IT_number 11
_symmetry_cell_setting 'monoclinic'
loop_
_space_group_symop_operation_xyz
x,y,z
-x,1/2+y,-z
-x,-y,-z
x,1/2-y,z
loop_
_atom_site_type_symbol
_atom_site_label
_atom_site_fract_x
_atom_site_fract_y
_atom_site_fract_z
Si Si1 0.308132 0.156607 0.254349
Si Si2 0.090138 0.842698 0.578480
Si Si3 0.666429 0.155479 0.742635
Si Si4 0.849964 0.502211 0.240668
Si Si5 0.422478 0.407251 0.538537
Si Si6 0.750363 0.004708 0.925936
O O1 0.342114 0.250000 0.186292
O O2 0.418177 0.137967 0.378484
O O3 0.317560 0.080741 0.133639
O O4 0.111873 0.154896 0.355660
O O5 0.148028 0.750000 0.613617
O O6 0.158861 0.854442 0.393249
O O7 0.164425 0.915955 0.664266
O O8 0.656326 0.250000 0.803785
O O9 0.524973 0.140053 0.645778
O O10 0.661531 0.084092 0.869538
O O11 0.767886 0.575097 0.359004
O O12 0.048647 0.512783 0.159836
O O13 0.746326 0.497623 0.107639
O O14 0.500000 0.500000 0.500000
#
# Coordination Sequence:
#
# PCOD9163534 Si02
#       6
#     4   4   4   4   4   4
#     4  10  20  37  59  83 112 147 192 236 281 332
#     4   9  18  34  58  84 110 147 194 238 274 328
#     4  11  22  37  57  85 116 149 191 233 281 335
#     4  10  21  37  60  84 115 151 187 231 285 334
#     4  12  21  36  58  83 112 150 184 233 280 334
#     4  10  21  39  60  85 114 150 189 233 280 336
#
# _framework density 21.597536999999999
#
# number of rings (size 3 to 8) (size 9 to 14) (size 15 to 20)
#    0.000    1.667    3.333    1.500    0.000    4.000 
#    0.000    5.000    0.000    0.000    0.000    0.000 
#    0.000    0.000    0.000    0.000    0.000    0.000 
#
# Total GULP energy -134187.079626 kJ/mol
# GULP energy per Si atom -5591.128318 kJ/mol
# Density = 2.154838 g / cm^3
# Si number density = 21.597537 Si / 1000 Ang^3
#
#
#
# Elastic Constant Matrix: (Units=GPa)
#
#
# Indices 1 2 3 4 5 6 
#
# 1 66.1547 29.5474 17.1047 0.0000 9.9010 0.0000
# 2 29.5474 150.7399 52.5348 0.0000 31.3727 0.0000
# 3 17.1047 52.5348 64.9075 0.0000 22.6533 0.0000
# 4 0.0000 0.0000 0.0000 -16.3895 0.0000 5.1294
# 5 9.9010 31.3727 22.6533 0.0000 47.0144 0.0000
# 6 0.0000 0.0000 0.0000 5.1294 0.0000 26.8621
#
#
#
# Elastic Compliance Matrix: (Units=1/GPa)
#
#
# Indices 1 2 3 4 5 6 
#
# 1 0.016875 -0.002338 -0.002235 0.000000 -0.000917 0.000000
# 2 -0.002338 0.009951 -0.006362 0.000000 -0.003082 0.000000
# 3 -0.002235 -0.006362 0.023441 0.000000 -0.006579 0.000000
# 4 0.000000 0.000000 0.000000 -0.057574 0.000000 0.010994
# 5 -0.000917 -0.003082 -0.006579 0.000000 0.026690 0.000000
# 6 0.000000 0.000000 0.000000 0.010994 0.000000 0.035128
#
#
# Mechanical properties :
#
#
# Convention : Reuss Voigt Hill
#
# Bulk Modulus (GPa) = 35.21468 53.35288 44.28378
# Shear Modulus (GPa) = 58.24301 23.67174 40.95738
#
# Velocity S-wave (km/s) = 5.19865 3.31424 4.35948
# Velocity P-wave (km/s) = 7.23706 6.27714 6.77412
#
# Compressibility (1/GPa) = 0.02839725
#
# Stress axis : x y z
#
# Youngs Moduli (GPa) = 59.25773 100.49103 42.66050
#
# Poissons Ratio (x) = 0.23497 0.09533
# Poissons Ratio (y) = 0.13856 0.27142
# Poissons Ratio (z) = 0.13242 0.63935
#
# Static dielectric constant tensor:
#      x y z
#    x 1.831820 0.000000 -0.045570 
#    y 0.000000 1.770520 0.000000 
#    z -0.045570 0.000000 1.754160 
# 
# From -- ./inp_files/12429.got.cif
#   From: 2010.05.17/outbox.cif.g08.bks.cpg/sg11_7_cif.got.tgz:12429.got - 2010.06.03 12:22:45.
