data_PCOD9163965
_publ_section_title
;
Structure prediction by ZEFSAII (Michael W. Deem and Ramdas Pophale) SiO2 
 PCOD9163965
Probable space group: P 21/M
;
_chemical_formula_sum "Si O2"
_cell_formula_units_Z 28
_cell_length_a 28.780156
_cell_length_b 8.586761
_cell_length_c 10.118223
_cell_angle_alpha 90.000000
_cell_angle_beta 37.638526
_cell_angle_gamma 90.000000
_cell_volume 1526.999425
_symmetry_space_group_name_H-M "P 21/M"
_symmetry_group_IT_number 11
_symmetry_cell_setting 'monoclinic'
loop_
_space_group_symop_operation_xyz
x,y,z
-x,1/2+y,-z
-x,-y,-z
x,1/2-y,z
loop_
_atom_site_type_symbol
_atom_site_label
_atom_site_fract_x
_atom_site_fract_y
_atom_site_fract_z
Si Si1 0.951180 0.934967 0.231437
Si Si2 0.498990 0.937007 0.652071
Si Si3 0.801400 0.562472 0.186173
Si Si4 0.796980 0.434523 0.486747
Si Si5 0.371596 0.438856 0.435971
Si Si6 0.370859 0.063396 0.133736
Si Si7 0.959847 0.936399 0.719219
O O1 0.945745 0.750000 0.233287
O O2 0.866701 0.005854 0.417266
O O3 0.996623 0.986501 0.257407
O O4 0.000000 0.000000 0.000000
O O5 0.501394 0.750000 0.640052
O O6 0.570169 0.992635 0.582836
O O7 0.500000 0.000000 0.500000
O O8 0.425646 0.989358 0.901515
O O9 0.801246 0.750000 0.208614
O O10 0.817149 0.481496 0.290642
O O11 0.715949 0.517641 0.337181
O O12 0.870026 0.525657 0.933124
O O13 0.788695 0.250000 0.516362
O O14 0.716358 0.515858 0.696013
O O15 0.375091 0.250000 0.426518
O O16 0.389149 0.488817 0.244636
O O17 0.377998 0.250000 0.113533
O O18 0.966680 0.750000 0.711753
O O19 0.000000 0.000000 0.500000
#
# Coordination Sequence:
#
# PCOD9163965 Si02
#       7
#     4   4   4   4   4   4   4
#     4  12  23  38  61  88 119 157 200 244 295 349
#     4  11  22  38  58  84 120 156 192 237 290 351
#     4   9  18  36  60  84 113 151 196 244 294 349
#     4  11  21  35  59  91 120 149 192 244 296 347
#     4   8  17  35  61  87 110 145 193 240 288 343
#     4  10  20  38  62  87 115 149 192 241 292 349
#     4  11  23  39  59  84 120 160 202 248 298 354
#
# _framework density 18.336614999999998
#
# number of rings (size 3 to 8) (size 9 to 14) (size 15 to 20)
#    0.000    1.714    1.429    5.143    0.000    0.571 
#    2.571    6.429    0.000    0.000    0.000    0.000 
#    0.000    0.000    0.000    0.000    0.000    0.000 
#
# Total GULP energy -156333.524289 kJ/mol
# GULP energy per Si atom -5583.340153 kJ/mol
# Density = 1.829488 g / cm^3
# Si number density = 18.336615 Si / 1000 Ang^3
#
#
#
# Elastic Constant Matrix: (Units=GPa)
#
#
# Indices 1 2 3 4 5 6 
#
# 1 112.8649 23.6918 75.9074 0.0000 0.9971 0.0000
# 2 23.6918 60.9887 29.1642 0.0000 2.0213 0.0000
# 3 75.9074 29.1642 135.4589 0.0000 4.0985 0.0000
# 4 0.0000 0.0000 0.0000 31.3370 0.0000 0.8955
# 5 0.9971 2.0213 4.0985 0.0000 24.9201 0.0000
# 6 0.0000 0.0000 0.0000 0.8955 0.0000 27.4015
#
#
#
# Elastic Compliance Matrix: (Units=1/GPa)
#
#
# Indices 1 2 3 4 5 6 
#
# 1 0.014439 -0.001957 -0.007696 0.000000 0.000847 0.000000
# 2 -0.001957 0.018561 -0.002871 0.000000 -0.000955 0.000000
# 3 -0.007696 -0.002871 0.012358 0.000000 -0.001492 0.000000
# 4 0.000000 0.000000 0.000000 0.031941 0.000000 -0.001044
# 5 0.000847 -0.000955 -0.001492 0.000000 0.040417 0.000000
# 6 0.000000 0.000000 0.000000 -0.001044 0.000000 0.036528
#
#
# Mechanical properties :
#
#
# Convention : Reuss Voigt Hill
#
# Bulk Modulus (GPa) = 49.23306 62.98214 56.10760
# Shear Modulus (GPa) = 26.87279 28.76831 27.82055
#
# Velocity S-wave (km/s) = 3.83237 3.96523 3.89937
# Velocity P-wave (km/s) = 6.81840 7.44220 7.13712
#
# Compressibility (1/GPa) = 0.02031156
#
# Stress axis : x y z
#
# Youngs Moduli (GPa) = 69.25613 53.87614 80.92031
#
# Poissons Ratio (x) = 0.10545 0.62273
# Poissons Ratio (y) = 0.13555 0.23228
# Poissons Ratio (z) = 0.53296 0.15465
#
# Static dielectric constant tensor:
#      x y z
#    x 1.621830 0.000000 -0.025500 
#    y 0.000000 1.623010 0.000000 
#    z -0.025500 0.000000 1.605560 
# 
# From -- ./inp_files/28426.got.cif
#   From: 2010.05.17/outbox.cif.g08.bks.cpg/sg11_15_cif.got.tgz:28426.got - 2010.06.03 12:22:45.
