data_PCOD9163899
_publ_section_title
;
Structure prediction by ZEFSAII (Michael W. Deem and Ramdas Pophale) SiO2 
 PCOD9163899
Probable space group: P 21/M
;
_chemical_formula_sum "Si O2"
_cell_formula_units_Z 32
_cell_length_a 12.751892
_cell_length_b 8.856736
_cell_length_c 14.464445
_cell_angle_alpha 90.000000
_cell_angle_beta 89.230990
_cell_angle_gamma 90.000000
_cell_volume 1633.469316
_symmetry_space_group_name_H-M "P 21/M"
_symmetry_group_IT_number 11
_symmetry_cell_setting 'monoclinic'
loop_
_space_group_symop_operation_xyz
x,y,z
-x,1/2+y,-z
-x,-y,-z
x,1/2-y,z
loop_
_atom_site_type_symbol
_atom_site_label
_atom_site_fract_x
_atom_site_fract_y
_atom_site_fract_z
Si Si1 0.111314 0.931922 0.464551
Si Si2 0.892506 0.578902 0.023241
Si Si3 0.037997 0.423240 0.774732
Si Si4 0.337293 0.433804 0.991522
Si Si5 0.382707 0.930688 0.179725
Si Si6 0.212590 0.570570 0.650671
Si Si7 0.387874 0.069136 0.778915
Si Si8 0.829201 0.930619 0.734927
O O1 0.101248 0.750000 0.456541
O O2 0.198497 0.964095 0.542453
O O3 0.146329 0.004588 0.367552
O O4 0.000000 0.000000 0.500000
O O5 0.898670 0.750000 0.989377
O O6 0.891059 0.579989 0.134598
O O7 0.783177 0.515160 0.990218
O O8 0.000000 0.500000 0.000000
O O9 0.015828 0.250000 0.749028
O O10 0.106750 0.505985 0.697819
O O11 0.928544 0.507855 0.792153
O O12 0.343663 0.250000 0.997769
O O13 0.362571 0.475855 0.885584
O O14 0.398972 0.509315 0.074709
O O15 0.369709 0.750000 0.177262
O O16 0.488969 0.965344 0.234862
O O17 0.280212 0.006973 0.224698
O O18 0.213922 0.750000 0.661877
O O19 0.310960 0.503118 0.704734
O O20 0.373651 0.250000 0.774739
O O21 0.828490 0.750000 0.735020
#
# Coordination Sequence:
#
# PCOD9163899 Si02
#       8
#     4   4   4   4   4   4   4   4
#     4  11  23  40  64  95 127 160 199 250 305 370
#     4  10  21  34  51  79 117 159 199 241 297 359
#     4  11  21  37  60  85 121 162 199 246 305 363
#     4  10  20  38  60  86 120 161 207 255 302 362
#     4  11  24  41  62  90 121 162 210 258 310 365
#     4  11  23  38  62  95 124 153 199 249 302 364
#     4  10  22  42  65  88 122 164 210 256 306 362
#     4  12  25  41  62  91 125 163 206 253 307 371
#
# _framework density 19.590205999999998
#
# number of rings (size 3 to 8) (size 9 to 14) (size 15 to 20)
#    0.000    1.250    2.500    3.750    0.000    6.500 
#    0.000    0.625    0.000    0.000    0.000    0.000 
#    0.000    0.000    0.000    0.000    0.000    0.000 
#
# Total GULP energy -178775.621590 kJ/mol
# GULP energy per Si atom -5586.738175 kJ/mol
# Density = 1.954562 g / cm^3
# Si number density = 19.590206 Si / 1000 Ang^3
#
#
#
# Elastic Constant Matrix: (Units=GPa)
#
#
# Indices 1 2 3 4 5 6 
#
# 1 122.4189 53.5670 38.7392 0.0000 17.1712 0.0000
# 2 53.5670 70.7216 31.3361 0.0000 13.9733 0.0000
# 3 38.7392 31.3361 89.1592 0.0000 16.2714 0.0000
# 4 0.0000 0.0000 0.0000 32.2473 0.0000 2.6083
# 5 17.1712 13.9733 16.2714 0.0000 30.4795 0.0000
# 6 0.0000 0.0000 0.0000 2.6083 0.0000 21.1313
#
#
#
# Elastic Compliance Matrix: (Units=1/GPa)
#
#
# Indices 1 2 3 4 5 6 
#
# 1 0.012811 -0.008264 -0.002256 0.000000 -0.002224 0.000000
# 2 -0.008264 0.022804 -0.003729 0.000000 -0.003808 0.000000
# 3 -0.002256 -0.003729 0.014362 0.000000 -0.004687 0.000000
# 4 0.000000 0.000000 0.000000 0.031323 0.000000 -0.003866
# 5 -0.002224 -0.003808 -0.004687 0.000000 0.038310 0.000000
# 6 0.000000 0.000000 0.000000 -0.003866 0.000000 0.047800
#
#
# Mechanical properties :
#
#
# Convention : Reuss Voigt Hill
#
# Bulk Modulus (GPa) = 46.55767 58.84270 52.70018
# Shear Modulus (GPa) = 24.62231 27.34879 25.98555
#
# Velocity S-wave (km/s) = 3.54908 3.74042 3.64601
# Velocity P-wave (km/s) = 6.37276 6.98257 6.68462
#
# Compressibility (1/GPa) = 0.02147874
#
# Stress axis : x y z
#
# Youngs Moduli (GPa) = 78.05982 43.85122 69.62859
#
# Poissons Ratio (x) = 0.36240 0.15706
# Poissons Ratio (y) = 0.64511 0.25965
# Poissons Ratio (z) = 0.17608 0.16353
#
# Static dielectric constant tensor:
#      x y z
#    x 1.693560 0.000000 0.001360 
#    y 0.000000 1.675240 0.000000 
#    z 0.001360 0.000000 1.711620 
# 
# From -- ./inp_files/49337.got.cif
#   From: 2010.05.17/outbox.cif.g08.bks.cpg/sg11_25_cif.got.tgz:49337.got - 2010.06.03 12:22:45.
