data_PCOD9163568
_publ_section_title
;
Structure prediction by ZEFSAII (Michael W. Deem and Ramdas Pophale) SiO2 
 PCOD9163568
Probable space group: P 21/M
;
_chemical_formula_sum "Si O2"
_cell_formula_units_Z 32
_cell_length_a 32.330635
_cell_length_b 7.693011
_cell_length_c 12.300131
_cell_angle_alpha 90.000000
_cell_angle_beta 150.318819
_cell_angle_gamma 90.000000
_cell_volume 1514.877713
_symmetry_space_group_name_H-M "P 21/M"
_symmetry_group_IT_number 11
_symmetry_cell_setting 'monoclinic'
loop_
_space_group_symop_operation_xyz
x,y,z
-x,1/2+y,-z
-x,-y,-z
x,1/2-y,z
loop_
_atom_site_type_symbol
_atom_site_label
_atom_site_fract_x
_atom_site_fract_y
_atom_site_fract_z
Si Si1 0.753162 0.449613 0.701824
Si Si2 0.516882 0.042360 0.412703
Si Si3 0.882721 0.453044 0.827402
Si Si4 0.932862 0.038798 0.704136
Si Si5 0.775048 0.462269 0.214713
Si Si6 0.403435 0.445644 0.777445
Si Si7 0.707612 0.036595 0.827493
Si Si8 0.358772 0.549442 0.913189
O O1 0.781608 0.250000 0.778433
O O2 0.812285 0.531108 0.744650
O O3 0.658609 0.448984 0.441324
O O4 0.753272 0.525610 0.822888
O O5 0.511513 0.250000 0.385264
O O6 0.610674 0.984841 0.600927
O O7 0.500000 0.000000 0.500000
O O8 0.446584 0.959086 0.176879
O O9 0.861436 0.250000 0.762449
O O10 0.895175 0.523834 0.734030
O O11 0.973429 0.469704 0.089829
O O12 0.938034 0.250000 0.719284
O O13 0.868059 0.988673 0.462829
O O14 0.770591 0.250000 0.204339
O O15 0.710413 0.519828 0.160871
O O16 0.746768 0.520541 0.031131
O O17 0.399421 0.250000 0.727960
O O18 0.368733 0.457722 0.820844
O O19 0.500000 0.500000 0.000000
O O20 0.708408 0.250000 0.829097
O O21 0.337652 0.750000 0.840295
#
# Coordination Sequence:
#
# PCOD9163568 Si02
#       8
#     4   4   4   4   4   4   4   4
#     4  10  20  37  60  81 108 147 187 228 276 333
#     4  11  20  33  52  78 110 147 190 231 276 331
#     4   9  18  33  53  80 108 139 178 223 281 335
#     4   9  17  31  54  78 104 138 179 225 274 336
#     4   9  17  32  54  81 108 139 180 225 278 332
#     4  12  25  40  57  81 113 147 186 230 277 331
#     4   9  18  33  54  78 105 142 186 227 269 328
#     4  11  21  36  58  82 111 144 184 235 285 334
#
# _framework density 21.123818
#
# number of rings (size 3 to 8) (size 9 to 14) (size 15 to 20)
#    0.000    2.000    1.250    3.375    0.000    3.500 
#    0.000    5.000    0.000    0.000    0.000    0.000 
#    0.000    0.000    0.000    0.000    0.000    0.000 
#
# Total GULP energy -178774.500416 kJ/mol
# GULP energy per Si atom -5586.703138 kJ/mol
# Density = 2.107574 g / cm^3
# Si number density = 21.123818 Si / 1000 Ang^3
#
#
#
# Elastic Constant Matrix: (Units=GPa)
#
#
# Indices 1 2 3 4 5 6 
#
# 1 103.7966 -2.0470 29.8826 0.0000 4.9326 0.0000
# 2 -2.0470 45.1826 -13.3246 0.0000 3.6383 0.0000
# 3 29.8826 -13.3246 98.5730 0.0000 -3.1739 0.0000
# 4 0.0000 0.0000 0.0000 22.0344 0.0000 -1.2844
# 5 4.9326 3.6383 -3.1739 0.0000 27.6420 0.0000
# 6 0.0000 0.0000 0.0000 -1.2844 0.0000 11.5436
#
#
#
# Elastic Compliance Matrix: (Units=1/GPa)
#
#
# Indices 1 2 3 4 5 6 
#
# 1 0.010702 -0.000325 -0.003361 0.000000 -0.002253 0.000000
# 2 -0.000325 0.023262 0.003158 0.000000 -0.002641 0.000000
# 3 -0.003361 0.003158 0.011639 0.000000 0.001521 0.000000
# 4 0.000000 0.000000 0.000000 0.045680 0.000000 0.005082
# 5 -0.002253 -0.002641 0.001521 0.000000 0.037101 0.000000
# 6 0.000000 0.000000 0.000000 0.005082 0.000000 0.087194
#
#
# Mechanical properties :
#
#
# Convention : Reuss Voigt Hill
#
# Bulk Modulus (GPa) = 22.44787 30.73047 26.58917
# Shear Modulus (GPa) = 21.59980 27.78006 24.68993
#
# Velocity S-wave (km/s) = 3.20118 3.63037 3.42251
# Velocity P-wave (km/s) = 4.93085 5.67029 5.31345
#
# Compressibility (1/GPa) = 0.04454765
#
# Stress axis : x y z
#
# Youngs Moduli (GPa) = 93.43619 42.98922 85.91466
#
# Poissons Ratio (x) = 0.01396 0.28875
# Poissons Ratio (y) = 0.03035 -0.27130
# Poissons Ratio (z) = 0.31403 -0.13575
#
# Static dielectric constant tensor:
#      x y z
#    x 1.765060 0.000000 0.008140 
#    y 0.000000 1.777930 0.000000 
#    z 0.008140 0.000000 1.746750 
# 
# From -- ./inp_files/45334.got.cif
#   From: 2010.05.17/outbox.cif.g08.bks.cpg/sg11_23_cif.got.tgz:45334.got - 2010.06.03 12:22:45.
