data_PCOD9163859
_publ_section_title
;
Structure prediction by ZEFSAII (Michael W. Deem and Ramdas Pophale) SiO2 
 PCOD9163859
Probable space group: P 21/M
;
_chemical_formula_sum "Si O2"
_cell_formula_units_Z 24
_cell_length_a 10.876676
_cell_length_b 10.617378
_cell_length_c 10.876697
_cell_angle_alpha 90.000000
_cell_angle_beta 118.732322
_cell_angle_gamma 90.000000
_cell_volume 1101.408055
_symmetry_space_group_name_H-M "P 21/M"
_symmetry_group_IT_number 11
_symmetry_cell_setting 'monoclinic'
loop_
_space_group_symop_operation_xyz
x,y,z
-x,1/2+y,-z
-x,-y,-z
x,1/2-y,z
loop_
_atom_site_type_symbol
_atom_site_label
_atom_site_fract_x
_atom_site_fract_y
_atom_site_fract_z
Si Si1 0.499924 0.610621 0.329739
Si Si2 0.636478 0.024070 0.979348
Si Si3 0.329740 0.610621 0.499925
Si Si4 0.979347 0.024070 0.636478
Si Si5 0.982378 0.750000 0.616676
Si Si6 0.718379 0.250000 0.171730
Si Si7 0.828271 0.750000 0.281621
Si Si8 0.383324 0.250000 0.017621
O O1 0.562989 0.750000 0.369573
O O2 0.410322 0.596072 0.164752
O O3 0.401312 0.594037 0.401312
O O4 0.613827 0.500000 0.386172
O O5 0.677226 0.881692 0.961757
O O6 0.500000 0.000000 0.000000
O O7 0.733080 0.120547 0.101165
O O8 0.369574 0.750000 0.562990
O O9 0.164753 0.596072 0.410322
O O10 0.101164 0.120547 0.733080
O O11 0.961756 0.881692 0.677225
O O12 0.000000 0.000000 0.500000
O O13 0.879306 0.750000 0.448690
O O14 0.152033 0.750000 0.670325
O O15 0.551310 0.250000 0.120694
O O16 0.670325 0.750000 0.152034
#
# Coordination Sequence:
#
# PCOD9163859 Si02
#       8
#     4   4   4   4   2   2   2   2
#     4  10  22  41  66  96 131 172 219 273 331 390
#     4  10  21  37  57  89 128 164 211 261 326 387
#     4  10  22  41  66  96 131 172 219 273 331 390
#     4  10  21  37  57  89 128 164 211 261 326 387
#     4  10  22  34  59  88 125 169 209 267 319 384
#     4  10  20  38  57  86 127 167 213 263 323 384
#     4  10  20  38  57  86 127 167 213 263 323 384
#     4  10  22  34  59  88 125 169 209 267 319 384
#
# _framework density 21.790289999999999
#
# number of rings (size 3 to 8) (size 9 to 14) (size 15 to 20)
#    0.000    2.000    1.667    1.000    2.333   10.667 
#    0.000    0.000    0.000    6.000    0.000    0.000 
#    0.000    0.000    0.000    0.000    0.000    0.000 
#
# Total GULP energy -133822.366552 kJ/mol
# GULP energy per Si atom -5575.931940 kJ/mol
# Density = 2.174069 g / cm^3
# Si number density = 21.790290 Si / 1000 Ang^3
#
#
#
# Elastic Constant Matrix: (Units=GPa)
#
#
# Indices 1 2 3 4 5 6 
#
# 1 43.6299 12.7802 26.9185 0.0000 12.0572 0.0000
# 2 12.7802 194.3453 12.4019 0.0000 -0.2264 0.0000
# 3 26.9185 12.4019 91.4135 0.0000 16.4161 0.0000
# 4 0.0000 0.0000 0.0000 36.9506 0.0000 9.9941
# 5 12.0572 -0.2264 16.4161 0.0000 21.0695 0.0000
# 6 0.0000 0.0000 0.0000 9.9941 0.0000 20.1778
#
#
#
# Elastic Compliance Matrix: (Units=1/GPa)
#
#
# Indices 1 2 3 4 5 6 
#
# 1 0.030966 -0.001627 -0.006642 0.000000 -0.012563 0.000000
# 2 -0.001627 0.005285 -0.000483 0.000000 0.001364 0.000000
# 3 -0.006642 -0.000483 0.014277 0.000000 -0.007328 0.000000
# 4 0.000000 0.000000 0.000000 0.031250 0.000000 -0.015478
# 5 -0.012563 0.001364 -0.007328 0.000000 0.060376 0.000000
# 6 0.000000 0.000000 0.000000 -0.015478 0.000000 0.057226
#
#
# Mechanical properties :
#
#
# Convention : Reuss Voigt Hill
#
# Bulk Modulus (GPa) = 30.28068 48.17667 39.22867
# Shear Modulus (GPa) = 21.94037 34.12544 28.03291
#
# Velocity S-wave (km/s) = 3.17659 3.96167 3.59065
# Velocity P-wave (km/s) = 5.23268 6.56382 5.93568
#
# Compressibility (1/GPa) = 0.03302436
#
# Stress axis : x y z
#
# Youngs Moduli (GPa) = 32.29304 189.21901 70.04490
#
# Poissons Ratio (x) = 0.30789 0.46522
# Poissons Ratio (y) = 0.05255 0.03382
# Poissons Ratio (z) = 0.21448 0.09136
#
# Static dielectric constant tensor:
#      x y z
#    x 1.773950 0.000000 0.007520 
#    y 0.000000 1.964120 0.000000 
#    z 0.007520 0.000000 1.786560 
# 
# From -- ./inp_files/34940.got.cif
#   From: 2010.05.17/outbox.cif.g08.bks.cpg/sg11_18_cif.got.tgz:34940.got - 2010.06.03 12:22:45.
