data_PCOD9163384
_publ_section_title
;
Structure prediction by ZEFSAII (Michael W. Deem and Ramdas Pophale) SiO2 
 PCOD9163384
Probable space group: P 21/M
;
_chemical_formula_sum "Si O2"
_cell_formula_units_Z 32
_cell_length_a 11.745453
_cell_length_b 8.281833
_cell_length_c 30.885587
_cell_angle_alpha 90.000000
_cell_angle_beta 145.863907
_cell_angle_gamma 90.000000
_cell_volume 1685.928699
_symmetry_space_group_name_H-M "P 21/M"
_symmetry_group_IT_number 11
_symmetry_cell_setting 'monoclinic'
loop_
_space_group_symop_operation_xyz
x,y,z
-x,1/2+y,-z
-x,-y,-z
x,1/2-y,z
loop_
_atom_site_type_symbol
_atom_site_label
_atom_site_fract_x
_atom_site_fract_y
_atom_site_fract_z
Si Si1 0.544262 0.943671 0.231653
Si Si2 0.843448 0.553286 0.503222
Si Si3 0.910774 0.944073 0.926259
Si Si4 0.726813 0.943963 0.563422
Si Si5 0.691497 0.943053 0.115783
Si Si6 0.704546 0.939881 0.372015
Si Si7 0.230643 0.555242 0.954279
Si Si8 0.870377 0.056823 0.262989
O O1 0.565640 0.750000 0.238511
O O2 0.590206 0.009769 0.294543
O O3 0.315800 0.989416 0.148540
O O4 0.705514 0.008257 0.247527
O O5 0.868660 0.750000 0.508605
O O6 0.778272 0.509737 0.530543
O O7 0.687394 0.501907 0.416171
O O8 0.058394 0.469256 0.562861
O O9 0.904812 0.750000 0.923224
O O10 0.056673 0.000099 0.932721
O O11 0.000000 0.000000 0.000000
O O12 0.730659 0.750000 0.567058
O O13 0.907516 0.003906 0.651664
O O14 0.500000 0.000000 0.500000
O O15 0.687955 0.750000 0.113863
O O16 0.792760 0.002128 0.102913
O O17 0.800769 0.996868 0.194037
O O18 0.455666 0.000695 0.040214
O O19 0.657296 0.750000 0.357988
O O20 0.231444 0.750000 0.955488
O O21 0.876882 0.250000 0.263649
#
# Coordination Sequence:
#
# PCOD9163384 Si02
#       8
#     4   4   4   4   4   4   4   4
#     4  11  22  36  56  85 118 150 193 242 289 344
#     4   9  17  34  56  79 108 141 182 228 280 338
#     4  11  23  39  60  86 120 158 193 235 287 339
#     4  10  22  38  57  80 112 149 189 236 285 341
#     4  10  20  36  62  90 113 149 193 238 288 336
#     4   9  18  32  55  82 108 141 181 231 281 332
#     4   9  20  39  59  83 118 153 191 234 280 339
#     4  11  22  38  59  84 114 150 194 239 287 344
#
# _framework density 18.980634999999999
#
# number of rings (size 3 to 8) (size 9 to 14) (size 15 to 20)
#    0.000    2.000    1.250    2.250    0.000    4.500 
#    2.250    0.000    0.000    0.000    0.000    0.000 
#    0.000    0.000    0.000    0.000    0.000    0.000 
#
# Total GULP energy -178503.495020 kJ/mol
# GULP energy per Si atom -5578.234219 kJ/mol
# Density = 1.893743 g / cm^3
# Si number density = 18.980635 Si / 1000 Ang^3
#
#
#
# Elastic Constant Matrix: (Units=GPa)
#
#
# Indices 1 2 3 4 5 6 
#
# 1 79.1395 2.8886 68.7139 0.0000 -10.4083 0.0000
# 2 2.8886 6.4386 -1.9215 0.0000 -4.8353 0.0000
# 3 68.7139 -1.9215 164.5893 0.0000 -27.2067 0.0000
# 4 0.0000 0.0000 0.0000 24.2006 0.0000 1.2973
# 5 -10.4083 -4.8353 -27.2067 0.0000 35.5862 0.0000
# 6 0.0000 0.0000 0.0000 1.2973 0.0000 25.6597
#
#
#
# Elastic Compliance Matrix: (Units=1/GPa)
#
#
# Indices 1 2 3 4 5 6 
#
# 1 0.020938 -0.014486 -0.009413 0.000000 -0.003041 0.000000
# 2 -0.014486 0.189811 0.013538 0.000000 0.031904 0.000000
# 3 -0.009413 0.013538 0.011461 0.000000 0.007849 0.000000
# 4 0.000000 0.000000 0.000000 0.041434 0.000000 -0.002095
# 5 -0.003041 0.031904 0.007849 0.000000 0.037547 0.000000
# 6 0.000000 0.000000 0.000000 -0.002095 0.000000 0.039077
#
#
# Mechanical properties :
#
#
# Convention : Reuss Voigt Hill
#
# Bulk Modulus (GPa) = 4.96312 43.28103 24.12207
# Shear Modulus (GPa) = 11.67806 29.12173 20.39990
#
# Velocity S-wave (km/s) = 2.48314 3.92125 3.28193
# Velocity P-wave (km/s) = 3.29269 6.58436 5.20556
#
# Compressibility (1/GPa) = 0.20148624
#
# Stress axis : x y z
#
# Youngs Moduli (GPa) = 47.76073 5.26840 87.25277
#
# Poissons Ratio (x) = 0.07632 0.82131
# Poissons Ratio (y) = 0.69187 -1.18118
# Poissons Ratio (z) = 0.44957 -0.07132
#
# Static dielectric constant tensor:
#      x y z
#    x 1.655540 0.000000 -0.026030 
#    y 0.000000 1.653220 0.000000 
#    z -0.026030 0.000000 1.676150 
# 
# From -- ./inp_files/73188.got.cif
#   From: 2010.05.17/outbox.cif.g08.bks.cpg/sg11_37_cif.got.tgz:73188.got - 2010.06.03 12:22:45.
