data_PCOD9163829
_publ_section_title
;
Structure prediction by ZEFSAII (Michael W. Deem and Ramdas Pophale) SiO2 
 PCOD9163829
Probable space group: P 21/M
;
_chemical_formula_sum "Si O2"
_cell_formula_units_Z 30
_cell_length_a 9.018486
_cell_length_b 14.866615
_cell_length_c 12.396168
_cell_angle_alpha 90.000000
_cell_angle_beta 114.466462
_cell_angle_gamma 90.000000
_cell_volume 1512.766345
_symmetry_space_group_name_H-M "P 21/M"
_symmetry_group_IT_number 11
_symmetry_cell_setting 'monoclinic'
loop_
_space_group_symop_operation_xyz
x,y,z
-x,1/2+y,-z
-x,-y,-z
x,1/2-y,z
loop_
_atom_site_type_symbol
_atom_site_label
_atom_site_fract_x
_atom_site_fract_y
_atom_site_fract_z
Si Si1 0.304776 0.750000 0.568229
Si Si2 0.749531 0.429537 0.311291
Si Si3 0.218581 0.853189 0.127637
Si Si4 0.861162 0.643055 0.932689
Si Si5 0.368085 0.892006 0.396189
Si Si6 0.425186 0.487108 0.094719
Si Si7 0.969699 0.644797 0.725999
Si Si8 0.271725 0.438694 0.504710
O O1 0.254949 0.830896 0.637288
O O2 0.355860 0.827315 0.494342
O O3 0.571020 0.455916 0.216480
O O4 0.796150 0.504952 0.414297
O O5 0.877182 0.419462 0.251985
O O6 0.244960 0.750000 0.101582
O O7 0.251730 0.861683 0.264833
O O8 0.342642 0.920773 0.108650
O O9 0.034009 0.877090 0.040517
O O10 0.830091 0.750000 0.932171
O O11 0.715988 0.587293 0.940706
O O12 0.880705 0.620986 0.811345
O O13 0.555052 0.895018 0.413379
O O14 0.314889 0.989581 0.423555
O O15 0.500000 0.500000 0.000000
O O16 0.014785 0.750000 0.750405
O O17 0.852199 0.630088 0.587712
#
# Coordination Sequence:
#
# PCOD9163829 Si02
#       8
#     2   4   4   4   4   4   4   4
#     4  10  22  36  66  96 130 168 212 266 328 392
#     4  11  23  42  62  96 135 171 216 271 329 388
#     4  11  22  43  65  94 134 171 222 268 326 393
#     4  10  25  43  70  98 127 171 225 272 321 389
#     4  10  20  37  64  96 125 169 211 262 327 392
#     4  12  26  43  69  96 132 175 221 274 333 390
#     4  11  23  40  65  96 129 172 217 272 324 385
#     4  10  22  37  62  93 131 165 214 264 325 384
#
# _framework density 19.831218
#
# number of rings (size 3 to 8) (size 9 to 14) (size 15 to 20)
#    0.000    1.333    2.667    2.400    5.600    1.600 
#    0.000    0.000    0.000    0.000    0.000    0.000 
#    0.000    0.000    0.000    0.000    0.000    0.000 
#
# Total GULP energy -167115.391967 kJ/mol
# GULP energy per Si atom -5570.513066 kJ/mol
# Density = 1.978608 g / cm^3
# Si number density = 19.831218 Si / 1000 Ang^3
#
#
#
# Elastic Constant Matrix: (Units=GPa)
#
#
# Indices 1 2 3 4 5 6 
#
# 1 103.9692 38.4718 36.0678 0.0000 -10.5385 0.0000
# 2 38.4718 50.0244 25.1257 0.0000 -2.9263 0.0000
# 3 36.0678 25.1257 54.4714 0.0000 2.8662 0.0000
# 4 0.0000 0.0000 0.0000 13.9231 0.0000 -28.6483
# 5 -10.5385 -2.9263 2.8662 0.0000 34.4633 0.0000
# 6 0.0000 0.0000 0.0000 -28.6483 0.0000 -80.7244
#
#
#
# Elastic Compliance Matrix: (Units=1/GPa)
#
#
# Indices 1 2 3 4 5 6 
#
# 1 0.015453 -0.008273 -0.006657 0.000000 0.004576 0.000000
# 2 -0.008273 0.030808 -0.008776 0.000000 0.000816 0.000000
# 3 -0.006657 -0.008776 0.027079 0.000000 -0.005033 0.000000
# 4 0.000000 0.000000 0.000000 0.041511 0.000000 -0.014732
# 5 0.004576 0.000816 -0.005033 0.000000 0.030904 0.000000
# 6 0.000000 0.000000 0.000000 -0.014732 0.000000 -0.007160
#
#
# Mechanical properties :
#
#
# Convention : Reuss Voigt Hill
#
# Bulk Modulus (GPa) = 38.56719 45.31062 41.93890
# Shear Modulus (GPa) = 25.68743 0.78569 13.23656
#
# Velocity S-wave (km/s) = 3.60294 0.63012 2.58633
# Velocity P-wave (km/s) = 6.06615 4.84016 5.48750
#
# Compressibility (1/GPa) = 0.02592878
#
# Stress axis : x y z
#
# Youngs Moduli (GPa) = 64.71424 32.45897 36.92938
#
# Poissons Ratio (x) = 0.26853 0.24583
# Poissons Ratio (y) = 0.53537 0.32409
# Poissons Ratio (z) = 0.43078 0.28486
#
# Static dielectric constant tensor:
#      x y z
#    x 1.703580 0.000000 0.011370 
#    y 0.000000 1.701400 0.000000 
#    z 0.011370 0.000000 1.707860 
# 
# From -- ./inp_files/18100.got.cif
#   From: 2010.05.17/outbox.cif.g08.bks.cpg/sg11_10_cif.got.tgz:18100.got - 2010.06.03 12:22:45.
