data_PCOD9163199
_publ_section_title
;
Structure prediction by ZEFSAII (Michael W. Deem and Ramdas Pophale) SiO2 
 PCOD9163199
Probable space group: P 21/M
;
_chemical_formula_sum "Si O2"
_cell_formula_units_Z 32
_cell_length_a 15.645877
_cell_length_b 8.185205
_cell_length_c 23.224807
_cell_angle_alpha 90.000000
_cell_angle_beta 148.230669
_cell_angle_gamma 90.000000
_cell_volume 1565.959827
_symmetry_space_group_name_H-M "P 21/M"
_symmetry_group_IT_number 11
_symmetry_cell_setting 'monoclinic'
loop_
_space_group_symop_operation_xyz
x,y,z
-x,1/2+y,-z
-x,-y,-z
x,1/2-y,z
loop_
_atom_site_type_symbol
_atom_site_label
_atom_site_fract_x
_atom_site_fract_y
_atom_site_fract_z
Si Si1 0.052996 0.050084 0.152808
Si Si2 0.166717 0.946020 0.566542
Si Si3 0.993639 0.053227 0.249177
Si Si4 0.668136 0.057618 0.123903
Si Si5 0.621764 0.946864 0.722418
Si Si6 0.422051 0.441970 0.804315
Si Si7 0.741916 0.447300 0.509026
Si Si8 0.276659 0.947725 0.092246
O O1 0.054528 0.250000 0.153602
O O2 0.015620 0.995497 0.196297
O O3 0.227048 0.994150 0.229199
O O4 0.905740 0.999007 0.026786
O O5 0.183777 0.750000 0.579632
O O6 0.177904 0.994272 0.506203
O O7 0.310697 0.026386 0.685252
O O8 0.000000 0.000000 0.500000
O O9 0.981771 0.250000 0.239858
O O10 0.829566 0.988156 0.185781
O O11 0.149052 0.010795 0.376743
O O12 0.675095 0.250000 0.119614
O O13 0.657700 0.021841 0.185680
O O14 0.500000 0.000000 0.000000
O O15 0.618012 0.750000 0.717090
O O16 0.445006 0.005206 0.600475
O O17 0.658170 0.991996 0.809313
O O18 0.432453 0.250000 0.822658
O O19 0.601065 0.501260 0.888717
O O20 0.740935 0.250000 0.511233
O O21 0.280490 0.750000 0.095332
#
# Coordination Sequence:
#
# PCOD9163199 Si02
#       8
#     4   4   4   4   4   4   4   4
#     4   9  19  37  60  84 113 151 192 238 294 349
#     4  11  22  37  56  81 114 150 192 239 291 349
#     4  10  22  40  60  83 114 154 198 239 285 347
#     4  11  23  39  60  86 118 156 198 243 292 348
#     4  10  20  37  60  85 116 152 189 237 297 350
#     4  11  22  36  57  85 117 152 192 238 290 347
#     4  10  22  38  56  82 118 152 188 241 293 342
#     4  10  20  36  59  87 118 150 190 241 293 352
#
# _framework density 20.434750999999999
#
# number of rings (size 3 to 8) (size 9 to 14) (size 15 to 20)
#    0.000    1.750    1.250    3.000    0.000    7.500 
#    0.000    1.250    0.000    0.000    0.000    0.000 
#    0.000    0.000    0.000    0.000    0.000    0.000 
#
# Total GULP energy -178805.153622 kJ/mol
# GULP energy per Si atom -5587.661051 kJ/mol
# Density = 2.038824 g / cm^3
# Si number density = 20.434751 Si / 1000 Ang^3
#
#
#
# Elastic Constant Matrix: (Units=GPa)
#
#
# Indices 1 2 3 4 5 6 
#
# 1 120.0019 9.9796 57.9824 0.0000 19.5211 0.0000
# 2 9.9796 9.2094 4.2732 0.0000 7.1157 0.0000
# 3 57.9824 4.2732 132.5193 0.0000 14.9651 0.0000
# 4 0.0000 0.0000 0.0000 29.3142 0.0000 -5.1315
# 5 19.5211 7.1157 14.9651 0.0000 41.5687 0.0000
# 6 0.0000 0.0000 0.0000 -5.1315 0.0000 19.8764
#
#
#
# Elastic Compliance Matrix: (Units=1/GPa)
#
#
# Indices 1 2 3 4 5 6 
#
# 1 0.011633 -0.008689 -0.004545 0.000000 -0.002339 0.000000
# 2 -0.008689 0.131988 0.001706 0.000000 -0.019127 0.000000
# 3 -0.004545 0.001706 0.009665 0.000000 -0.001637 0.000000
# 4 0.000000 0.000000 0.000000 0.035728 0.000000 0.009224
# 5 -0.002339 -0.019127 -0.001637 0.000000 0.029018 0.000000
# 6 0.000000 0.000000 0.000000 0.009224 0.000000 0.052692
#
#
# Mechanical properties :
#
#
# Convention : Reuss Voigt Hill
#
# Bulk Modulus (GPa) = 7.67883 45.13345 26.40614
# Shear Modulus (GPa) = 14.82840 30.78489 22.80664
#
# Velocity S-wave (km/s) = 2.69670 3.88557 3.34439
# Velocity P-wave (km/s) = 3.66908 6.50114 5.27859
#
# Compressibility (1/GPa) = 0.13022814
#
# Stress axis : x y z
#
# Youngs Moduli (GPa) = 85.96587 7.57642 103.46946
#
# Poissons Ratio (x) = 0.06583 0.47031
# Poissons Ratio (y) = 0.74696 -0.17649
# Poissons Ratio (z) = 0.39075 -0.01292
#
# Static dielectric constant tensor:
#      x y z
#    x 1.733830 0.000000 0.027990 
#    y 0.000000 1.730760 0.000000 
#    z 0.027990 0.000000 1.715140 
# 
# From -- ./inp_files/69097.got.cif
#   From: 2010.05.17/outbox.cif.g08.bks.cpg/sg11_35_cif.got.tgz:69097.got - 2010.06.03 12:22:45.
