data_PCOD9163846
_publ_section_title
;
Structure prediction by ZEFSAII (Michael W. Deem and Ramdas Pophale) SiO2 
 PCOD9163846
Probable space group: P 21/M
;
_chemical_formula_sum "Si O2"
_cell_formula_units_Z 24
_cell_length_a 14.769556
_cell_length_b 14.198567
_cell_length_c 7.923714
_cell_angle_alpha 90.000000
_cell_angle_beta 39.546486
_cell_angle_gamma 90.000000
_cell_volume 1057.982205
_symmetry_space_group_name_H-M "P 21/M"
_symmetry_group_IT_number 11
_symmetry_cell_setting 'monoclinic'
loop_
_space_group_symop_operation_xyz
x,y,z
-x,1/2+y,-z
-x,-y,-z
x,1/2-y,z
loop_
_atom_site_type_symbol
_atom_site_label
_atom_site_fract_x
_atom_site_fract_y
_atom_site_fract_z
Si Si1 0.913743 0.750000 0.066105
Si Si2 0.587621 0.956648 0.220531
Si Si3 0.444412 0.250000 0.789730
Si Si4 0.909443 0.549638 0.486767
Si Si5 0.151225 0.036065 0.952012
Si Si6 0.245705 0.750000 0.543711
Si Si7 0.805692 0.750000 0.600573
Si Si8 0.681084 0.041998 0.614106
O O1 0.880418 0.648556 0.024476
O O2 0.825807 0.750000 0.368902
O O3 0.085956 0.750000 0.844396
O O4 0.599957 0.845245 0.232482
O O5 0.747888 0.987435 0.030905
O O6 0.483803 0.966640 0.206285
O O7 0.500000 0.000000 0.500000
O O8 0.615803 0.250000 0.535541
O O9 0.356755 0.250000 0.094775
O O10 0.888143 0.659081 0.548993
O O11 0.751532 0.515677 0.664090
O O12 0.000000 0.500000 0.500000
O O13 0.007949 0.523625 0.184092
O O14 0.237465 0.995886 0.669050
O O15 0.274595 0.650259 0.411265
#
# Coordination Sequence:
#
# PCOD9163846 Si02
#       8
#     2   4   2   4   4   2   2   4
#     4  12  21  38  77  99 136 183 250 279 349 421
#     4   9  20  38  69  97 132 180 233 279 342 419
#     4  10  21  42  61 100 145 175 220 288 362 403
#     4  12  25  41  66  99 140 175 233 286 356 413
#     4  11  21  39  66 102 130 179 235 294 333 419
#     4  10  20  37  68  95 124 183 230 284 332 411
#     4  12  26  43  66 104 141 189 222 297 361 421
#     4  10  20  40  64  94 132 177 232 280 344 409
#
# _framework density 22.684691999999998
#
# number of rings (size 3 to 8) (size 9 to 14) (size 15 to 20)
#    0.000    1.333    3.333    3.000    0.000    1.333 
#    0.000    7.500    0.000    0.000    0.000    0.000 
#    0.000    0.000    0.000    0.000    0.000    0.000 
#
# Total GULP energy -133744.755902 kJ/mol
# GULP energy per Si atom -5572.698163 kJ/mol
# Density = 2.263306 g / cm^3
# Si number density = 22.684692 Si / 1000 Ang^3
#
#
#
# Elastic Constant Matrix: (Units=GPa)
#
#
# Indices 1 2 3 4 5 6 
#
# 1 150.3555 48.7253 56.4790 0.0000 -24.9932 0.0000
# 2 48.7253 127.4320 31.8318 0.0000 -13.0072 0.0000
# 3 56.4790 31.8318 145.1981 0.0000 -38.9228 0.0000
# 4 0.0000 0.0000 0.0000 33.2408 0.0000 6.0711
# 5 -24.9932 -13.0072 -38.9228 0.0000 46.6584 0.0000
# 6 0.0000 0.0000 0.0000 6.0711 0.0000 31.0190
#
#
#
# Elastic Compliance Matrix: (Units=1/GPa)
#
#
# Indices 1 2 3 4 5 6 
#
# 1 0.008664 -0.002538 -0.002266 0.000000 0.002043 0.000000
# 2 -0.002538 0.009084 -0.000888 0.000000 0.000432 0.000000
# 3 -0.002266 -0.000888 0.009752 0.000000 0.006674 0.000000
# 4 0.000000 0.000000 0.000000 0.031199 0.000000 -0.006106
# 5 0.002043 0.000432 0.006674 0.000000 0.028215 0.000000
# 6 0.000000 0.000000 0.000000 -0.006106 0.000000 0.033433
#
#
# Mechanical properties :
#
#
# Convention : Reuss Voigt Hill
#
# Bulk Modulus (GPa) = 62.05384 77.45089 69.75237
# Shear Modulus (GPa) = 36.46843 41.24693 38.85768
#
# Velocity S-wave (km/s) = 4.01387 4.26875 4.14327
# Velocity P-wave (km/s) = 6.99256 7.64936 7.32832
#
# Compressibility (1/GPa) = 0.01611504
#
# Stress axis : x y z
#
# Youngs Moduli (GPa) = 115.41559 110.08539 102.53833
#
# Poissons Ratio (x) = 0.27943 0.23236
# Poissons Ratio (y) = 0.29296 0.09110
# Poissons Ratio (z) = 0.26154 0.09780
#
# Static dielectric constant tensor:
#      x y z
#    x 1.871100 0.000000 0.007170 
#    y 0.000000 1.850000 0.000000 
#    z 0.007170 0.000000 1.902400 
# 
# From -- ./inp_files/22073.got.cif
#   From: 2010.05.17/outbox.cif.g08.bks.cpg/sg11_12_cif.got.tgz:22073.got - 2010.06.03 12:22:45.
