data_PCOD9163248
_publ_section_title
;
Structure prediction by ZEFSAII (Michael W. Deem and Ramdas Pophale) SiO2 
 PCOD9163248
Probable space group: P 21/M
;
_chemical_formula_sum "Si O2"
_cell_formula_units_Z 28
_cell_length_a 8.400777
_cell_length_b 8.968094
_cell_length_c 25.062858
_cell_angle_alpha 90.000000
_cell_angle_beta 43.001600
_cell_angle_gamma 90.000000
_cell_volume 1287.794415
_symmetry_space_group_name_H-M "P 21/M"
_symmetry_group_IT_number 11
_symmetry_cell_setting 'monoclinic'
loop_
_space_group_symop_operation_xyz
x,y,z
-x,1/2+y,-z
-x,-y,-z
x,1/2-y,z
loop_
_atom_site_type_symbol
_atom_site_label
_atom_site_fract_x
_atom_site_fract_y
_atom_site_fract_z
Si Si1 0.086671 0.572468 0.533265
Si Si2 0.693152 0.924264 0.025680
Si Si3 0.444266 0.571917 0.602647
Si Si4 0.160074 0.921326 0.115156
Si Si5 0.927032 0.928219 0.687159
Si Si6 0.293939 0.926400 0.755009
Si Si7 0.454156 0.071777 0.825633
O O1 0.081043 0.750000 0.529894
O O2 0.351600 0.517184 0.476076
O O3 0.935107 0.532586 0.622300
O O4 0.000000 0.500000 0.500000
O O5 0.765949 0.750000 0.003467
O O6 0.418910 0.930039 0.076088
O O7 0.697830 0.976089 0.085763
O O8 0.822166 0.024022 0.950492
O O9 0.483170 0.750000 0.587207
O O10 0.185064 0.538864 0.645496
O O11 0.442439 0.535450 0.666213
O O12 0.081932 0.750000 0.137059
O O13 0.973708 0.026458 0.189467
O O14 0.888612 0.750000 0.701633
O O15 0.719033 0.014416 0.766440
O O16 0.311428 0.750000 0.758612
O O17 0.367917 0.007979 0.790729
O O18 0.451283 0.250000 0.825979
#
# Coordination Sequence:
#
# PCOD9163248 Si02
#       7
#     4   4   4   4   4   4   4
#     4  11  23  38  59  86 117 151 186 229 280 332
#     4   9  20  38  58  83 114 146 184 230 280 333
#     4  10  22  40  61  84 112 148 190 233 278 331
#     4  10  20  36  60  86 111 144 187 232 278 332
#     4  10  22  40  60  84 114 148 187 231 281 334
#     4  11  23  38  57  82 114 150 186 230 283 333
#     4  11  23  38  58  84 114 149 188 231 278 331
#
# _framework density 21.742602000000002
#
# number of rings (size 3 to 8) (size 9 to 14) (size 15 to 20)
#    0.000    1.714    0.000    3.857    0.000    8.571 
#    0.000    0.000    0.000    0.000    0.000    0.000 
#    0.000    0.000    0.000    0.000    0.000    0.000 
#
# Total GULP energy -156659.496734 kJ/mol
# GULP energy per Si atom -5594.982026 kJ/mol
# Density = 2.169311 g / cm^3
# Si number density = 21.742602 Si / 1000 Ang^3
#
#
#
# Elastic Constant Matrix: (Units=GPa)
#
#
# Indices 1 2 3 4 5 6 
#
# 1 61.6875 6.0724 -4.6524 0.0000 15.3378 0.0000
# 2 6.0724 22.9697 15.8677 0.0000 10.9406 0.0000
# 3 -4.6524 15.8677 72.7226 0.0000 10.7905 0.0000
# 4 0.0000 0.0000 0.0000 29.9475 0.0000 -6.6471
# 5 15.3378 10.9406 10.7905 0.0000 35.1189 0.0000
# 6 0.0000 0.0000 0.0000 -6.6471 0.0000 32.8797
#
#
#
# Elastic Compliance Matrix: (Units=1/GPa)
#
#
# Indices 1 2 3 4 5 6 
#
# 1 0.018793 -0.003237 0.003119 0.000000 -0.008157 0.000000
# 2 -0.003237 0.058334 -0.010948 0.000000 -0.013395 0.000000
# 3 0.003119 -0.010948 0.016801 0.000000 -0.003114 0.000000
# 4 0.000000 0.000000 0.000000 0.034960 0.000000 0.007068
# 5 -0.008157 -0.013395 -0.003114 0.000000 0.037167 0.000000
# 6 0.000000 0.000000 0.000000 0.007068 0.000000 0.031843
#
#
# Mechanical properties :
#
#
# Convention : Reuss Voigt Hill
#
# Bulk Modulus (GPa) = 13.92832 21.32835 17.62834
# Shear Modulus (GPa) = 20.49489 28.92871 24.71180
#
# Velocity S-wave (km/s) = 3.07353 3.65157 3.37495
# Velocity P-wave (km/s) = 4.36066 5.25446 4.82829
#
# Compressibility (1/GPa) = 0.07179615
#
# Stress axis : x y z
#
# Youngs Moduli (GPa) = 53.21155 17.14254 59.51951
#
# Poissons Ratio (x) = 0.05550 -0.18564
# Poissons Ratio (y) = 0.17227 0.65161
# Poissons Ratio (z) = -0.16597 0.18767
#
# Static dielectric constant tensor:
#      x y z
#    x 1.861380 0.000000 -0.010190 
#    y 0.000000 1.709930 0.000000 
#    z -0.010190 0.000000 1.783540 
# 
# From -- ./inp_files/70819.got.cif
#   From: 2010.05.17/outbox.cif.g08.bks.cpg/sg11_36_cif.got.tgz:70819.got - 2010.06.03 12:22:45.
