data_PCOD9163723
_publ_section_title
;
Structure prediction by ZEFSAII (Michael W. Deem and Ramdas Pophale) SiO2 
 PCOD9163723
Probable space group: P 21/M
;
_chemical_formula_sum "Si O2"
_cell_formula_units_Z 32
_cell_length_a 14.110531
_cell_length_b 11.803651
_cell_length_c 13.752278
_cell_angle_alpha 90.000000
_cell_angle_beta 141.370809
_cell_angle_gamma 90.000000
_cell_volume 1429.921417
_symmetry_space_group_name_H-M "P 21/M"
_symmetry_group_IT_number 11
_symmetry_cell_setting 'monoclinic'
loop_
_space_group_symop_operation_xyz
x,y,z
-x,1/2+y,-z
-x,-y,-z
x,1/2-y,z
loop_
_atom_site_type_symbol
_atom_site_label
_atom_site_fract_x
_atom_site_fract_y
_atom_site_fract_z
Si Si1 0.459979 0.623733 0.578333
Si Si2 0.271797 0.960101 0.254730
Si Si3 0.071824 0.378932 0.776885
Si Si4 0.405391 0.617605 0.951121
Si Si5 0.773191 0.427834 0.999758
Si Si6 0.239491 0.023038 0.509736
Si Si7 0.172566 0.024580 0.665186
Si Si8 0.898985 0.869470 0.772370
O O1 0.488924 0.750000 0.632658
O O2 0.609243 0.562857 0.660087
O O3 0.338547 0.618461 0.392628
O O4 0.386364 0.551164 0.605300
O O5 0.122442 0.022119 0.175925
O O6 0.263405 0.906952 0.141871
O O7 0.041394 0.250000 0.776903
O O8 0.178038 0.441875 0.940470
O O9 0.165343 0.392510 0.751097
O O10 0.911181 0.443982 0.629245
O O11 0.457031 0.750000 0.976028
O O12 0.349368 0.607850 0.018489
O O13 0.255518 0.590292 0.766300
O O14 0.500000 0.500000 0.000000
O O15 0.936604 0.369850 0.145966
O O16 0.244181 0.068012 0.622599
O O17 0.222460 0.115030 0.411403
O O18 0.000000 0.000000 0.500000
O O19 0.878651 0.750000 0.808002
#
# Coordination Sequence:
#
# PCOD9163723 Si02
#       8
#     4   4   4   4   4   4   4   4
#     4  10  21  36  57  83 117 155 194 246 303 368
#     4  10  22  39  58  86 122 153 204 254 307 372
#     4   9  18  33  55  86 120 153 203 263 312 372
#     4  11  26  46  67  98 140 182 228 281 340 408
#     4  10  22  40  62  86 121 166 209 257 320 388
#     4   9  19  35  56  87 119 156 202 251 311 381
#     4   9  20  38  62  91 124 165 219 274 328 391
#     4  10  20  37  61  90 123 158 205 263 318 380
#
# _framework density 22.378851000000001
#
# number of rings (size 3 to 8) (size 9 to 14) (size 15 to 20)
#    0.000    2.250    0.000    2.250    1.750    7.000 
#    0.000    0.000    0.000    0.000    0.000    0.000 
#    0.000    0.000    0.000    0.000    0.000    0.000 
#
# Total GULP energy -178366.425662 kJ/mol
# GULP energy per Si atom -5573.950802 kJ/mol
# Density = 2.232792 g / cm^3
# Si number density = 22.378851 Si / 1000 Ang^3
#
#
#
# Elastic Constant Matrix: (Units=GPa)
#
#
# Indices 1 2 3 4 5 6 
#
# 1 108.7531 4.1314 6.6726 0.0000 -1.5031 0.0000
# 2 4.1314 97.0212 3.3838 0.0000 22.0425 0.0000
# 3 6.6726 3.3838 22.1842 0.0000 -6.3115 0.0000
# 4 0.0000 0.0000 0.0000 3.6367 0.0000 4.3081
# 5 -1.5031 22.0425 -6.3115 0.0000 31.5036 0.0000
# 6 0.0000 0.0000 0.0000 4.3081 0.0000 13.9406
#
#
#
# Elastic Compliance Matrix: (Units=1/GPa)
#
#
# Indices 1 2 3 4 5 6 
#
# 1 0.009377 -0.000335 -0.002731 0.000000 0.000134 0.000000
# 2 -0.000335 0.012720 -0.004641 0.000000 -0.009846 0.000000
# 3 -0.002731 -0.004641 0.050364 0.000000 0.013207 0.000000
# 4 0.000000 0.000000 0.000000 0.433775 0.000000 -0.134051
# 5 0.000134 -0.009846 0.013207 0.000000 0.041284 0.000000
# 6 0.000000 0.000000 0.000000 -0.134051 0.000000 0.113159
#
#
# Mechanical properties :
#
#
# Convention : Reuss Voigt Hill
#
# Bulk Modulus (GPa) = 17.52906 28.48156 23.00531
# Shear Modulus (GPa) = 7.19312 24.06754 15.63033
#
# Velocity S-wave (km/s) = 1.79478 3.28298 2.64567
# Velocity P-wave (km/s) = 3.48495 5.20819 4.43114
#
# Compressibility (1/GPa) = 0.05704814
#
# Stress axis : x y z
#
# Youngs Moduli (GPa) = 106.64066 78.61640 19.85546
#
# Poissons Ratio (x) = 0.02630 0.05423
# Poissons Ratio (y) = 0.03568 0.09214
# Poissons Ratio (z) = 0.29127 0.36484
#
# Static dielectric constant tensor:
#      x y z
#    x 1.868160 0.000000 0.026380 
#    y 0.000000 1.882830 0.000000 
#    z 0.026380 0.000000 1.842810 
# 
# From -- ./inp_files/52301.got.cif
#   From: 2010.05.17/outbox.cif.g08.bks.cpg/sg11_27_cif.got.tgz:52301.got - 2010.06.03 12:22:45.
