data_PCOD9163391
_publ_section_title
;
Structure prediction by ZEFSAII (Michael W. Deem and Ramdas Pophale) SiO2 
 PCOD9163391
Probable space group: P 21/M
;
_chemical_formula_sum "Si O2"
_cell_formula_units_Z 32
_cell_length_a 26.639276
_cell_length_b 14.741791
_cell_length_c 10.265587
_cell_angle_alpha 90.000000
_cell_angle_beta 153.639501
_cell_angle_gamma 90.000000
_cell_volume 1790.014673
_symmetry_space_group_name_H-M "P 21/M"
_symmetry_group_IT_number 11
_symmetry_cell_setting 'monoclinic'
loop_
_space_group_symop_operation_xyz
x,y,z
-x,1/2+y,-z
-x,-y,-z
x,1/2-y,z
loop_
_atom_site_type_symbol
_atom_site_label
_atom_site_fract_x
_atom_site_fract_y
_atom_site_fract_z
Si Si1 0.715380 0.146496 0.320345
Si Si2 0.783052 0.643833 0.038131
Si Si3 0.225071 0.643743 0.845606
Si Si4 0.043472 0.011353 0.454934
Si Si5 0.401700 0.992724 0.376979
Si Si6 0.897250 0.008877 0.864277
Si Si7 0.232110 0.354898 0.297078
Si Si8 0.475545 0.059162 0.817876
O O1 0.735181 0.250000 0.407847
O O2 0.732882 0.141216 0.205567
O O3 0.805212 0.080359 0.598481
O O4 0.586654 0.118056 0.048474
O O5 0.767437 0.750000 0.024032
O O6 0.872663 0.596937 0.340733
O O7 0.670616 0.585346 0.797593
O O8 0.816785 0.631696 0.963709
O O9 0.208231 0.750000 0.842570
O O10 0.113228 0.580949 0.587792
O O11 0.317537 0.590671 0.148911
O O12 0.000000 0.000000 0.500000
O O13 0.952430 0.031535 0.132448
O O14 0.451054 0.994401 0.637119
O O15 0.500000 0.000000 0.500000
O O16 0.830267 0.916317 0.741795
O O17 0.000000 0.000000 0.000000
O O18 0.221634 0.250000 0.305816
O O19 0.362985 0.382914 0.584568
O O20 0.500000 0.000000 0.000000
#
# Coordination Sequence:
#
# PCOD9163391 Si02
#       8
#     4   4   4   4   4   4   4   4
#     4  11  23  40  64  92 123 165 209 252 309 370
#     4   9  20  37  61  89 117 153 201 246 294 357
#     4  10  22  40  62  90 122 162 207 250 303 370
#     4  11  22  39  62  87 119 160 202 250 308 356
#     4  10  20  36  62  91 121 155 198 244 297 356
#     4  12  24  40  62  90 125 161 206 256 304 364
#     4  10  21  39  64  91 117 159 206 245 298 369
#     4  11  21  39  66  89 126 160 196 250 310 362
#
# _framework density 17.876947999999999
#
# number of rings (size 3 to 8) (size 9 to 14) (size 15 to 20)
#    0.000    1.500    5.000    0.375    0.000    3.000 
#    0.000    2.500    0.000    0.000    0.000    0.000 
#    0.000    0.000    0.000    0.000    0.000    0.000 
#
# Total GULP energy -178523.264732 kJ/mol
# GULP energy per Si atom -5578.852023 kJ/mol
# Density = 1.783626 g / cm^3
# Si number density = 17.876948 Si / 1000 Ang^3
#
#
#
# Elastic Constant Matrix: (Units=GPa)
#
#
# Indices 1 2 3 4 5 6 
#
# 1 100.9703 50.7454 35.3204 0.0000 4.8000 0.0000
# 2 50.7454 154.5665 57.2292 0.0000 -3.7657 0.0000
# 3 35.3204 57.2292 113.9248 0.0000 -12.6108 0.0000
# 4 0.0000 0.0000 0.0000 10.1843 0.0000 -7.5074
# 5 4.8000 -3.7657 -12.6108 0.0000 32.0843 0.0000
# 6 0.0000 0.0000 0.0000 -7.5074 0.0000 27.2424
#
#
#
# Elastic Compliance Matrix: (Units=1/GPa)
#
#
# Indices 1 2 3 4 5 6 
#
# 1 0.012617 -0.003242 -0.002650 0.000000 -0.003310 0.000000
# 2 -0.003242 0.008795 -0.003392 0.000000 0.000184 0.000000
# 3 -0.002650 -0.003392 0.011817 0.000000 0.004643 0.000000
# 4 0.000000 0.000000 0.000000 0.123222 0.000000 0.033957
# 5 -0.003310 0.000184 0.004643 0.000000 0.033510 0.000000
# 6 0.000000 0.000000 0.000000 0.033957 0.000000 0.046065
#
#
# Mechanical properties :
#
#
# Convention : Reuss Voigt Hill
#
# Bulk Modulus (GPa) = 68.20665 72.89463 70.55064
# Shear Modulus (GPa) = 19.26918 28.97997 24.12457
#
# Velocity S-wave (km/s) = 3.28667 4.03063 3.67751
# Velocity P-wave (km/s) = 7.25528 7.90731 7.58831
#
# Compressibility (1/GPa) = 0.01466133
#
# Stress axis : x y z
#
# Youngs Moduli (GPa) = 79.25535 113.70569 84.62186
#
# Poissons Ratio (x) = 0.36864 0.22421
# Poissons Ratio (y) = 0.25695 0.28707
# Poissons Ratio (z) = 0.20999 0.38574
#
# Static dielectric constant tensor:
#      x y z
#    x 1.672570 0.000000 0.136860 
#    y 0.000000 1.589510 0.000000 
#    z 0.136860 0.000000 1.875680 
# 
# From -- ./inp_files/27805.got.cif
#   From: 2010.05.17/outbox.cif.g08.bks.cpg/sg11_14_cif.got.tgz:27805.got - 2010.06.03 12:22:45.
