data_PCOD9163099
_publ_section_title
;
Structure prediction by ZEFSAII (Michael W. Deem and Ramdas Pophale) SiO2 
 PCOD9163099
Probable space group: P 21/M
;
_chemical_formula_sum "Si O2"
_cell_formula_units_Z 32
_cell_length_a 14.845713
_cell_length_b 8.539261
_cell_length_c 21.912485
_cell_angle_alpha 90.000000
_cell_angle_beta 144.427332
_cell_angle_gamma 90.000000
_cell_volume 1615.988235
_symmetry_space_group_name_H-M "P 21/M"
_symmetry_group_IT_number 11
_symmetry_cell_setting 'monoclinic'
loop_
_space_group_symop_operation_xyz
x,y,z
-x,1/2+y,-z
-x,-y,-z
x,1/2-y,z
loop_
_atom_site_type_symbol
_atom_site_label
_atom_site_fract_x
_atom_site_fract_y
_atom_site_fract_z
Si Si1 0.586877 0.063109 0.489057
Si Si2 0.156690 0.062251 0.447660
Si Si3 0.617302 0.062870 0.322306
Si Si4 0.558901 0.438788 0.153755
Si Si5 0.830978 0.440883 0.217286
Si Si6 0.787717 0.439314 0.054702
Si Si7 0.636225 0.063730 0.737832
Si Si8 0.972768 0.937146 0.917139
O O1 0.592368 0.250000 0.492525
O O2 0.500000 0.000000 0.500000
O O3 0.754301 0.995066 0.564389
O O4 0.484283 0.996977 0.377900
O O5 0.165129 0.250000 0.455326
O O6 0.979270 0.012453 0.339731
O O7 0.249008 0.998528 0.557985
O O8 0.611773 0.250000 0.326557
O O9 0.637568 0.023393 0.262413
O O10 0.447859 0.994977 0.247098
O O11 0.545689 0.250000 0.143808
O O12 0.672252 0.492028 0.162065
O O13 0.387579 0.507912 0.054197
O O14 0.831495 0.250000 0.217219
O O15 0.837647 0.491704 0.150343
O O16 0.792106 0.250000 0.056679
O O17 0.904875 0.494624 0.066060
O O18 0.648648 0.250000 0.746148
O O19 0.798524 0.990387 0.808683
O O20 0.982049 0.750000 0.923499
O O21 0.000000 0.000000 0.000000
#
# Coordination Sequence:
#
# PCOD9163099 Si02
#       8
#     4   4   4   4   4   4   4   4
#     4  11  22  37  57  83 116 152 192 236 284 343
#     4  10  20  36  59  85 116 155 196 239 292 348
#     4  10  20  36  58  85 119 155 193 242 294 347
#     4  10  21  38  61  85 113 152 195 242 296 349
#     4   9  20  39  60  85 117 152 192 240 296 353
#     4  10  22  39  60  85 114 151 193 240 295 352
#     4  11  22  37  57  84 115 152 194 238 288 347
#     4  11  23  38  58  85 117 155 195 243 295 352
#
# _framework density 19.802125
#
# number of rings (size 3 to 8) (size 9 to 14) (size 15 to 20)
#    0.000    1.750    0.000    6.000    1.750    4.500 
#    0.000    2.500    0.000    0.000    0.000    0.000 
#    0.000    0.000    0.000    0.000    0.000    0.000 
#
# Total GULP energy -178591.528442 kJ/mol
# GULP energy per Si atom -5580.985264 kJ/mol
# Density = 1.975705 g / cm^3
# Si number density = 19.802125 Si / 1000 Ang^3
#
#
#
# Elastic Constant Matrix: (Units=GPa)
#
#
# Indices 1 2 3 4 5 6 
#
# 1 152.8283 27.4256 57.6471 0.0000 2.0293 0.0000
# 2 27.4256 59.5407 18.3870 0.0000 -0.3201 0.0000
# 3 57.6471 18.3870 91.4451 0.0000 11.3172 0.0000
# 4 0.0000 0.0000 0.0000 27.2631 0.0000 -1.3588
# 5 2.0293 -0.3201 11.3172 0.0000 34.2672 0.0000
# 6 0.0000 0.0000 0.0000 -1.3588 0.0000 20.6891
#
#
#
# Elastic Compliance Matrix: (Units=1/GPa)
#
#
# Indices 1 2 3 4 5 6 
#
# 1 0.008975 -0.002489 -0.005306 0.000000 0.001198 0.000000
# 2 -0.002489 0.018664 -0.002318 0.000000 0.001087 0.000000
# 3 -0.005306 -0.002318 0.015337 0.000000 -0.004773 0.000000
# 4 0.000000 0.000000 0.000000 0.036800 0.000000 0.002417
# 5 0.001198 0.001087 -0.004773 0.000000 0.030698 0.000000
# 6 0.000000 0.000000 0.000000 0.002417 0.000000 0.048493
#
#
# Mechanical properties :
#
#
# Convention : Reuss Voigt Hill
#
# Bulk Modulus (GPa) = 43.95645 56.74817 50.35231
# Shear Modulus (GPa) = 26.76990 29.80084 28.28537
#
# Velocity S-wave (km/s) = 3.68077 3.88355 3.78352
# Velocity P-wave (km/s) = 6.34902 6.98779 6.67605
#
# Compressibility (1/GPa) = 0.02274979
#
# Stress axis : x y z
#
# Youngs Moduli (GPa) = 111.41472 53.58041 65.20154
#
# Poissons Ratio (x) = 0.13338 0.34595
# Poissons Ratio (y) = 0.27735 0.15114
# Poissons Ratio (z) = 0.59115 0.12420
#
# Static dielectric constant tensor:
#      x y z
#    x 1.793510 0.000000 0.003620 
#    y 0.000000 1.675040 0.000000 
#    z 0.003620 0.000000 1.720320 
# 
# From -- ./inp_files/65249.got.cif
#   From: 2010.05.17/outbox.cif.g08.bks.cpg/sg11_33_cif.got.tgz:65249.got - 2010.06.03 12:22:45.
