data_PCOD9163437
_publ_section_title
;
Structure prediction by ZEFSAII (Michael W. Deem and Ramdas Pophale) SiO2 
 PCOD9163437
Probable space group: P 21/M
;
_chemical_formula_sum "Si O2"
_cell_formula_units_Z 28
_cell_length_a 10.841722
_cell_length_b 16.269125
_cell_length_c 9.720714
_cell_angle_alpha 90.000000
_cell_angle_beta 45.393947
_cell_angle_gamma 90.000000
_cell_volume 1220.706507
_symmetry_space_group_name_H-M "P 21/M"
_symmetry_group_IT_number 11
_symmetry_cell_setting 'monoclinic'
loop_
_space_group_symop_operation_xyz
x,y,z
-x,1/2+y,-z
-x,-y,-z
x,1/2-y,z
loop_
_atom_site_type_symbol
_atom_site_label
_atom_site_fract_x
_atom_site_fract_y
_atom_site_fract_z
Si Si1 0.471539 0.996718 0.183978
Si Si2 0.020799 0.089464 0.917448
Si Si3 0.491974 0.343828 0.316595
Si Si4 0.740476 0.154803 0.332194
Si Si5 0.308590 0.154320 0.889223
Si Si6 0.140246 0.086310 0.522595
Si Si7 0.001365 0.153292 0.353567
O O1 0.561136 0.080171 0.171825
O O2 0.271452 0.013423 0.377563
O O3 0.546585 0.913861 0.191665
O O4 0.500000 0.000000 0.000000
O O5 0.193794 0.129831 0.846682
O O6 0.030427 0.077899 0.746781
O O7 0.863927 0.142164 0.102715
O O8 0.000000 0.000000 0.000000
O O9 0.550724 0.250000 0.244603
O O10 0.552581 0.369730 0.423076
O O11 0.287093 0.346079 0.447948
O O12 0.726369 0.250000 0.375227
O O13 0.848253 0.120636 0.375045
O O14 0.365313 0.250000 0.836334
O O15 0.173875 0.147842 0.123658
O O16 0.967645 0.890336 0.526583
O O17 0.973370 0.250000 0.403587
#
# Coordination Sequence:
#
# PCOD9163437 Si02
#       7
#     4   4   4   4   4   4   4
#     4  10  20  36  64  98 135 169 223 285 345 397
#     4  11  23  40  63  92 129 178 227 279 329 411
#     4   9  19  36  63  99 137 174 223 286 341 402
#     4   9  19  38  62  89 129 176 216 267 340 402
#     4  10  20  38  63  91 131 182 226 271 339 414
#     4  10  22  36  65  96 127 172 228 278 341 404
#     4   9  17  33  62  95 127 171 222 272 330 408
#
# _framework density 22.937533999999999
#
# number of rings (size 3 to 8) (size 9 to 14) (size 15 to 20)
#    0.857    1.429    1.429    2.571    0.000    3.429 
#    0.000    2.857    0.000    4.286    0.000    8.000 
#    0.000    0.000    0.000    0.000    0.000    0.000 
#
# Total GULP energy -156203.960005 kJ/mol
# GULP energy per Si atom -5578.712857 kJ/mol
# Density = 2.288533 g / cm^3
# Si number density = 22.937534 Si / 1000 Ang^3
#
#
#
# Elastic Constant Matrix: (Units=GPa)
#
#
# Indices 1 2 3 4 5 6 
#
# 1 181.6445 56.9658 59.0970 0.0000 26.3117 0.0000
# 2 56.9658 134.4982 37.2900 0.0000 11.6661 0.0000
# 3 59.0970 37.2900 106.9668 0.0000 32.2514 0.0000
# 4 0.0000 0.0000 0.0000 16.5107 0.0000 -1.3740
# 5 26.3117 11.6661 32.2514 0.0000 37.4337 0.0000
# 6 0.0000 0.0000 0.0000 -1.3740 0.0000 39.4214
#
#
#
# Elastic Compliance Matrix: (Units=1/GPa)
#
#
# Indices 1 2 3 4 5 6 
#
# 1 0.007375 -0.002200 -0.002636 0.000000 -0.002227 0.000000
# 2 -0.002200 0.008887 -0.002045 0.000000 0.000539 0.000000
# 3 -0.002636 -0.002045 0.014546 0.000000 -0.010042 0.000000
# 4 0.000000 0.000000 0.000000 0.060743 0.000000 0.002117
# 5 -0.002227 0.000539 -0.010042 0.000000 0.036763 0.000000
# 6 0.000000 0.000000 0.000000 0.002117 0.000000 0.025441
#
#
# Mechanical properties :
#
#
# Convention : Reuss Voigt Hill
#
# Bulk Modulus (GPa) = 58.66605 81.09057 69.87831
# Shear Modulus (GPa) = 28.86839 36.65694 32.76267
#
# Velocity S-wave (km/s) = 3.55148 4.00199 3.78344
# Velocity P-wave (km/s) = 6.51531 7.53552 7.04391
#
# Compressibility (1/GPa) = 0.01704563
#
# Stress axis : x y z
#
# Youngs Moduli (GPa) = 135.58465 112.52341 68.74784
#
# Poissons Ratio (x) = 0.24752 0.18125
# Poissons Ratio (y) = 0.29824 0.14061
# Poissons Ratio (z) = 0.35746 0.23014
#
# Static dielectric constant tensor:
#      x y z
#    x 1.890590 0.000000 -0.016220 
#    y 0.000000 1.871870 0.000000 
#    z -0.016220 0.000000 1.905840 
# 
# From -- ./inp_files/35845.got.cif
#   From: 2010.05.17/outbox.cif.g08.bks.cpg/sg11_18_cif.got.tgz:35845.got - 2010.06.03 12:22:45.
