data_PCOD9163096
_publ_section_title
;
Structure prediction by ZEFSAII (Michael W. Deem and Ramdas Pophale) SiO2 
 PCOD9163096
Probable space group: P 21/M
;
_chemical_formula_sum "Si O2"
_cell_formula_units_Z 28
_cell_length_a 5.276614
_cell_length_b 14.952491
_cell_length_c 18.815949
_cell_angle_alpha 90.000000
_cell_angle_beta 120.375149
_cell_angle_gamma 90.000000
_cell_volume 1280.770891
_symmetry_space_group_name_H-M "P 21/M"
_symmetry_group_IT_number 11
_symmetry_cell_setting 'monoclinic'
loop_
_space_group_symop_operation_xyz
x,y,z
-x,1/2+y,-z
-x,-y,-z
x,1/2-y,z
loop_
_atom_site_type_symbol
_atom_site_label
_atom_site_fract_x
_atom_site_fract_y
_atom_site_fract_z
Si Si1 0.109087 0.075703 0.819431
Si Si2 0.857984 0.155234 0.654733
Si Si3 0.393018 0.496742 0.588833
Si Si4 0.945243 0.350778 0.506711
Si Si5 0.495346 0.019115 0.234888
Si Si6 0.109011 0.356608 0.100456
Si Si7 0.561948 0.641415 0.995232
O O1 0.062452 0.150796 0.752214
O O2 0.280106 0.001902 0.796694
O O3 0.303209 0.106406 0.912665
O O4 0.783647 0.049024 0.800966
O O5 0.682224 0.250000 0.633391
O O6 0.687031 0.061602 0.630498
O O7 0.008046 0.157525 0.599540
O O8 0.356736 0.594020 0.548207
O O9 0.346560 0.515214 0.666460
O O10 0.179762 0.426094 0.517760
O O11 0.948664 0.250000 0.477469
O O12 0.326496 0.110166 0.192573
O O13 0.101510 0.250000 0.098853
O O14 0.241605 0.387438 0.043871
O O15 0.775061 0.389035 0.061646
O O16 0.563653 0.750000 0.997154
#
# Coordination Sequence:
#
# PCOD9163096 Si02
#       7
#     4   4   4   4   4   4   4
#     4  11  22  37  58  90 117 154 195 244 297 353
#     4  10  20  36  58  85 118 157 192 241 304 361
#     4  10  21  37  57  86 120 150 197 251 295 357
#     4  10  20  37  61  85 114 155 197 242 303 362
#     4  11  23  38  59  85 118 154 195 244 298 349
#     4  10  22  39  58  80 114 157 198 243 295 350
#     4  10  21  38  58  84 117 154 196 244 292 348
#
# _framework density 21.861834999999999
#
# number of rings (size 3 to 8) (size 9 to 14) (size 15 to 20)
#    0.000    1.714    1.429    3.000    0.000    4.000 
#    0.000    1.429    0.000    0.857    0.000    0.000 
#    0.000    0.000    0.000    0.000    0.000    0.000 
#
# Total GULP energy -156056.851678 kJ/mol
# GULP energy per Si atom -5573.458989 kJ/mol
# Density = 2.181208 g / cm^3
# Si number density = 21.861835 Si / 1000 Ang^3
#
#
#
# Elastic Constant Matrix: (Units=GPa)
#
#
# Indices 1 2 3 4 5 6 
#
# 1 80.9738 17.3893 19.0554 0.0000 0.0812 0.0000
# 2 17.3893 90.8448 34.9868 0.0000 11.0814 0.0000
# 3 19.0554 34.9868 85.4915 0.0000 0.0143 0.0000
# 4 0.0000 0.0000 0.0000 21.2234 0.0000 4.9149
# 5 0.0812 11.0814 0.0143 0.0000 28.1899 0.0000
# 6 0.0000 0.0000 0.0000 4.9149 0.0000 18.3985
#
#
#
# Elastic Compliance Matrix: (Units=1/GPa)
#
#
# Indices 1 2 3 4 5 6 
#
# 1 0.013252 -0.001755 -0.002236 0.000000 0.000653 0.000000
# 2 -0.001755 0.014088 -0.005373 0.000000 -0.005530 0.000000
# 3 -0.002236 -0.005373 0.014394 0.000000 0.002111 0.000000
# 4 0.000000 0.000000 0.000000 0.050225 0.000000 -0.013417
# 5 0.000653 -0.005530 0.002111 0.000000 0.037645 0.000000
# 6 0.000000 0.000000 0.000000 -0.013417 0.000000 0.057936
#
#
# Mechanical properties :
#
#
# Convention : Reuss Voigt Hill
#
# Bulk Modulus (GPa) = 43.46755 44.46368 43.96562
# Shear Modulus (GPa) = 23.37144 25.95426 24.66285
#
# Velocity S-wave (km/s) = 3.27318 3.44931 3.36240
# Velocity P-wave (km/s) = 5.84902 6.02049 5.93537
#
# Compressibility (1/GPa) = 0.02300567
#
# Stress axis : x y z
#
# Youngs Moduli (GPa) = 75.45988 70.98389 69.47386
#
# Poissons Ratio (x) = 0.12460 0.15531
# Poissons Ratio (y) = 0.13246 0.37329
# Poissons Ratio (z) = 0.16869 0.38140
#
# Static dielectric constant tensor:
#      x y z
#    x 1.860630 0.000000 0.023790 
#    y 0.000000 1.866800 0.000000 
#    z 0.023790 0.000000 1.803860 
# 
# From -- ./inp_files/7947.got.cif
#   From: 2010.05.17/outbox.cif.g08.bks.cpg/sg11_4_cif.got.tgz:7947.got - 2010.06.03 12:22:45.
