data_PCOD9163445
_publ_section_title
;
Structure prediction by ZEFSAII (Michael W. Deem and Ramdas Pophale) SiO2 
 PCOD9163445
Probable space group: P 21/M
;
_chemical_formula_sum "Si O2"
_cell_formula_units_Z 22
_cell_length_a 8.041952
_cell_length_b 16.865811
_cell_length_c 9.013921
_cell_angle_alpha 90.000000
_cell_angle_beta 127.483415
_cell_angle_gamma 90.000000
_cell_volume 970.164863
_symmetry_space_group_name_H-M "P 21/M"
_symmetry_group_IT_number 11
_symmetry_cell_setting 'monoclinic'
loop_
_space_group_symop_operation_xyz
x,y,z
-x,1/2+y,-z
-x,-y,-z
x,1/2-y,z
loop_
_atom_site_type_symbol
_atom_site_label
_atom_site_fract_x
_atom_site_fract_y
_atom_site_fract_z
Si Si1 0.813784 0.997429 0.569601
Si Si2 0.849378 0.383207 0.142071
Si Si3 0.009099 0.334646 0.689415
Si Si4 0.425208 0.162957 0.060889
Si Si5 0.976244 0.250000 0.980707
Si Si6 0.623264 0.997357 0.795021
O O1 0.732114 0.000497 0.694929
O O2 0.898142 0.085446 0.582419
O O3 0.617464 0.977597 0.359813
O O4 0.991090 0.931009 0.667917
O O5 0.659133 0.343270 0.128460
O O6 0.963532 0.319521 0.101338
O O7 0.740087 0.449046 0.977608
O O8 0.957707 0.250000 0.583889
O O9 0.955119 0.317477 0.833585
O O10 0.260684 0.344072 0.836089
O O11 0.376341 0.250000 0.104332
O O12 0.382188 0.092478 0.149567
#
# Coordination Sequence:
#
# PCOD9163445 Si02
#       6
#     4   4   4   4   2   4
#     4  11  23  39  66  92 122 158 210 246 301 358
#     4  12  22  42  62  90 123 163 199 255 301 368
#     4   9  19  38  61  91 115 162 199 244 302 357
#     4  11  23  39  62  91 124 162 203 245 312 358
#     4  10  20  36  70  80 124 162 200 250 308 350
#     4  11  23  40  64  94 119 162 204 252 298 363
#
# _framework density 22.676556999999999
#
# number of rings (size 3 to 8) (size 9 to 14) (size 15 to 20)
#    0.545    0.727    4.545    2.182    0.000    1.455 
#    0.000    0.909    0.000    0.000    0.000    0.000 
#    0.000    0.000    0.000    0.000    0.000    0.000 
#
# Total GULP energy -122534.223407 kJ/mol
# GULP energy per Si atom -5569.737428 kJ/mol
# Density = 2.262494 g / cm^3
# Si number density = 22.676557 Si / 1000 Ang^3
#
#
#
# Elastic Constant Matrix: (Units=GPa)
#
#
# Indices 1 2 3 4 5 6 
#
# 1 22.3148 19.9164 18.7358 0.0000 -14.0049 0.0000
# 2 19.9164 119.5226 24.3493 0.0000 -17.8544 0.0000
# 3 18.7358 24.3493 48.6953 0.0000 -6.7101 0.0000
# 4 0.0000 0.0000 0.0000 0.6338 0.0000 22.5942
# 5 -14.0049 -17.8544 -6.7101 0.0000 20.7119 0.0000
# 6 0.0000 0.0000 0.0000 22.5942 0.0000 20.5834
#
#
#
# Elastic Compliance Matrix: (Units=1/GPa)
#
#
# Indices 1 2 3 4 5 6 
#
# 1 0.118168 -0.002660 -0.035004 0.000000 0.066269 0.000000
# 2 -0.002660 0.010399 -0.003338 0.000000 0.006084 0.000000
# 3 -0.035004 -0.003338 0.033511 0.000000 -0.015690 0.000000
# 4 0.000000 0.000000 0.000000 -0.041378 0.000000 0.045420
# 5 0.066269 0.006084 -0.015690 0.000000 0.093253 0.000000
# 6 0.000000 0.000000 0.000000 0.045420 0.000000 -0.001274
#
#
# Mechanical properties :
#
#
# Convention : Reuss Voigt Hill
#
# Bulk Modulus (GPa) = 12.48847 35.17062 23.82954
# Shear Modulus (GPa) = 15.55817 16.88789 16.22303
#
# Velocity S-wave (km/s) = 2.62217 2.73193 2.67762
# Velocity P-wave (km/s) = 3.83235 5.04922 4.48227
#
# Compressibility (1/GPa) = 0.08007386
#
# Stress axis : x y z
#
# Youngs Moduli (GPa) = 8.46250 96.16564 29.84107
#
# Poissons Ratio (x) = 0.25583 1.04456
# Poissons Ratio (y) = 0.02251 0.09960
# Poissons Ratio (z) = 0.29622 0.32098
#
# Static dielectric constant tensor:
#      x y z
#    x 1.928720 0.000000 0.082930 
#    y 0.000000 1.809830 0.000000 
#    z 0.082930 0.000000 1.840870 
# 
# From -- ./inp_files/32322.got.cif
#   From: 2010.05.17/outbox.cif.g08.bks.cpg/sg11_17_cif.got.tgz:32322.got - 2010.06.03 12:22:45.
