data_PCOD9163480
_publ_section_title
;
Structure prediction by ZEFSAII (Michael W. Deem and Ramdas Pophale) SiO2 
 PCOD9163480
Probable space group: P 21/M
;
_chemical_formula_sum "Si O2"
_cell_formula_units_Z 28
_cell_length_a 28.126375
_cell_length_b 7.624353
_cell_length_c 10.035201
_cell_angle_alpha 90.000000
_cell_angle_beta 36.111276
_cell_angle_gamma 90.000000
_cell_volume 1268.294392
_symmetry_space_group_name_H-M "P 21/M"
_symmetry_group_IT_number 11
_symmetry_cell_setting 'monoclinic'
loop_
_space_group_symop_operation_xyz
x,y,z
-x,1/2+y,-z
-x,-y,-z
x,1/2-y,z
loop_
_atom_site_type_symbol
_atom_site_label
_atom_site_fract_x
_atom_site_fract_y
_atom_site_fract_z
Si Si1 0.568194 0.548242 0.503552
Si Si2 0.226535 0.546605 0.316077
Si Si3 0.593863 0.034633 0.035128
Si Si4 0.381366 0.960927 0.315829
Si Si5 0.796990 0.460078 0.201702
Si Si6 0.907795 0.039010 0.178191
Si Si7 0.740500 0.544377 0.038241
O O1 0.564024 0.750000 0.470563
O O2 0.477943 0.471513 0.705615
O O3 0.586995 0.545182 0.620318
O O4 0.649061 0.466896 0.257310
O O5 0.234179 0.750000 0.339121
O O6 0.154297 0.472353 0.567962
O O7 0.316633 0.472311 0.131285
O O8 0.211673 0.536844 0.192381
O O9 0.591976 0.250000 0.043848
O O10 0.581069 0.982684 0.909458
O O11 0.390305 0.750000 0.308008
O O12 0.285348 0.999328 0.530764
O O13 0.801530 0.250000 0.180997
O O14 0.872587 0.524605 0.116207
O O15 0.783274 0.525501 0.083647
O O16 0.902053 0.250000 0.188969
O O17 0.000000 0.000000 0.000000
O O18 0.732856 0.750000 0.028747
#
# Coordination Sequence:
#
# PCOD9163480 Si02
#       7
#     4   4   4   4   4   4   4
#     4   9  18  30  45  71 108 145 179 220 265 304
#     4  10  20  37  58  79 105 144 185 220 262 319
#     4   9  16  29  50  73 102 141 183 223 261 306
#     4   9  15  27  49  74 101 135 180 223 259 308
#     4   9  17  34  58  81 105 140 181 218 260 321
#     4  10  21  38  62  89 111 132 170 221 273 327
#     4  10  21  35  51  78 115 149 181 220 265 311
#
# _framework density 22.076892999999998
#
# number of rings (size 3 to 8) (size 9 to 14) (size 15 to 20)
#    0.000    2.571    1.429    0.857    0.000    2.286 
#    0.000    2.143    0.000    0.000    0.000    0.000 
#    0.000    0.000    0.000    0.000    0.000    0.000 
#
# Total GULP energy -156317.519792 kJ/mol
# GULP energy per Si atom -5582.768564 kJ/mol
# Density = 2.202664 g / cm^3
# Si number density = 22.076893 Si / 1000 Ang^3
#
#
#
# Elastic Constant Matrix: (Units=GPa)
#
#
# Indices 1 2 3 4 5 6 
#
# 1 104.4849 9.4109 63.0534 0.0000 -15.2176 0.0000
# 2 9.4109 48.5135 6.5130 0.0000 -5.3949 0.0000
# 3 63.0534 6.5130 104.2115 0.0000 -5.2701 0.0000
# 4 0.0000 0.0000 0.0000 8.2869 0.0000 -0.3399
# 5 -15.2176 -5.3949 -5.2701 0.0000 36.1515 0.0000
# 6 0.0000 0.0000 0.0000 -0.3399 0.0000 20.4781
#
#
#
# Elastic Compliance Matrix: (Units=1/GPa)
#
#
# Indices 1 2 3 4 5 6 
#
# 1 0.016129 -0.001284 -0.009414 0.000000 0.005225 0.000000
# 2 -0.001284 0.021203 -0.000419 0.000000 0.002563 0.000000
# 3 -0.009414 -0.000419 0.015227 0.000000 -0.001806 0.000000
# 4 0.000000 0.000000 0.000000 0.120755 0.000000 0.002004
# 5 0.005225 0.002563 -0.001806 0.000000 0.029980 0.000000
# 6 0.000000 0.000000 0.000000 0.002004 0.000000 0.048866
#
#
# Mechanical properties :
#
#
# Convention : Reuss Voigt Hill
#
# Bulk Modulus (GPa) = 32.97614 46.12940 39.55277
# Shear Modulus (GPa) = 17.57464 24.86548 21.22006
#
# Velocity S-wave (km/s) = 2.82452 3.35970 3.10367
# Velocity P-wave (km/s) = 5.06030 5.99920 5.54964
#
# Compressibility (1/GPa) = 0.03032496
#
# Stress axis : x y z
#
# Youngs Moduli (GPa) = 62.00185 47.16304 65.67376
#
# Poissons Ratio (x) = 0.06055 0.61826
# Poissons Ratio (y) = 0.07960 0.02751
# Poissons Ratio (z) = 0.58369 0.01975
#
# Static dielectric constant tensor:
#      x y z
#    x 1.856110 0.000000 -0.002210 
#    y 0.000000 1.836080 0.000000 
#    z -0.002210 0.000000 1.808690 
# 
# From -- ./inp_files/28372.got.cif
#   From: 2010.05.17/outbox.cif.g08.bks.cpg/sg11_15_cif.got.tgz:28372.got - 2010.06.03 12:22:45.
