data_PCOD9163447
_publ_section_title
;
Structure prediction by ZEFSAII (Michael W. Deem and Ramdas Pophale) SiO2 
 PCOD9163447
Probable space group: P 21/M
;
_chemical_formula_sum "Si O2"
_cell_formula_units_Z 32
_cell_length_a 11.979120
_cell_length_b 7.689511
_cell_length_c 34.088038
_cell_angle_alpha 90.000000
_cell_angle_beta 149.335920
_cell_angle_gamma 90.000000
_cell_volume 1601.397030
_symmetry_space_group_name_H-M "P 21/M"
_symmetry_group_IT_number 11
_symmetry_cell_setting 'monoclinic'
loop_
_space_group_symop_operation_xyz
x,y,z
-x,1/2+y,-z
-x,-y,-z
x,1/2-y,z
loop_
_atom_site_type_symbol
_atom_site_label
_atom_site_fract_x
_atom_site_fract_y
_atom_site_fract_z
Si Si1 0.260056 0.547576 0.473018
Si Si2 0.529996 0.953404 0.187706
Si Si3 0.982042 0.460262 0.675117
Si Si4 0.901053 0.458068 0.427336
Si Si5 0.666134 0.958532 0.645225
Si Si6 0.185536 0.043128 0.023729
Si Si7 0.831383 0.041423 0.860561
Si Si8 0.592844 0.540770 0.711015
O O1 0.311831 0.750000 0.481580
O O2 0.183981 0.471784 0.408529
O O3 0.466892 0.469600 0.558372
O O4 0.054141 0.537129 0.440196
O O5 0.553522 0.750000 0.204450
O O6 0.364979 0.028491 0.170709
O O7 0.773513 0.027389 0.259226
O O8 0.406349 0.966760 0.108565
O O9 0.987581 0.250000 0.673908
O O10 0.888006 0.505137 0.689130
O O11 0.903765 0.250000 0.423090
O O12 0.650200 0.521088 0.350300
O O13 0.000000 0.500000 0.500000
O O14 0.637415 0.750000 0.638887
O O15 0.650247 0.024386 0.684856
O O16 0.217670 0.250000 0.031520
O O17 0.066747 0.979785 0.948086
O O18 0.000000 0.000000 0.000000
O O19 0.835082 0.250000 0.867076
O O20 0.767999 0.004232 0.797051
O O21 0.579398 0.750000 0.705179
#
# Coordination Sequence:
#
# PCOD9163447 Si02
#       8
#     4   4   4   4   4   4   4   4
#     4  10  20  37  55  73 103 135 169 218 265 302
#     4   9  18  33  51  77 109 134 164 207 255 303
#     4  10  21  35  54  77 101 134 175 217 258 304
#     4  11  21  34  52  75 103 134 170 209 255 308
#     4  10  21  37  52  69 101 138 174 218 258 298
#     4   9  17  30  50  77 107 136 165 199 249 307
#     4   9  18  32  52  79 106 133 164 201 249 306
#     4  10  21  35  50  73 104 136 170 210 255 301
#
# _framework density 19.982552999999999
#
# number of rings (size 3 to 8) (size 9 to 14) (size 15 to 20)
#    0.000    2.250    1.250    2.625    0.000    6.500 
#    0.000    0.000    0.000    0.750    0.000    0.000 
#    0.000    0.000    0.000    0.000    0.000    0.000 
#
# Total GULP energy -178555.715281 kJ/mol
# GULP energy per Si atom -5579.866103 kJ/mol
# Density = 1.993707 g / cm^3
# Si number density = 19.982553 Si / 1000 Ang^3
#
#
#
# Elastic Constant Matrix: (Units=GPa)
#
#
# Indices 1 2 3 4 5 6 
#
# 1 73.4380 -6.6507 30.4859 0.0000 -6.8807 0.0000
# 2 -6.6507 33.8571 -4.3589 0.0000 3.8158 0.0000
# 3 30.4859 -4.3589 112.3208 0.0000 -19.5791 0.0000
# 4 0.0000 0.0000 0.0000 17.1500 0.0000 1.3953
# 5 -6.8807 3.8158 -19.5791 0.0000 14.7685 0.0000
# 6 0.0000 0.0000 0.0000 1.3953 0.0000 19.3432
#
#
#
# Elastic Compliance Matrix: (Units=1/GPa)
#
#
# Indices 1 2 3 4 5 6 
#
# 1 0.015583 0.002393 -0.003874 0.000000 0.001506 0.000000
# 2 0.002393 0.030794 -0.000841 0.000000 -0.007957 0.000000
# 3 -0.003874 -0.000841 0.012544 0.000000 0.015043 0.000000
# 4 0.000000 0.000000 0.000000 0.058653 0.000000 -0.004231
# 5 0.001506 -0.007957 0.015043 0.000000 0.090412 0.000000
# 6 0.000000 0.000000 0.000000 -0.004231 0.000000 0.052003
#
#
# Mechanical properties :
#
#
# Convention : Reuss Voigt Hill
#
# Bulk Modulus (GPa) = 18.42457 28.72984 23.57720
# Shear Modulus (GPa) = 17.68491 23.59499 20.63995
#
# Velocity S-wave (km/s) = 2.97815 3.43998 3.21736
# Velocity P-wave (km/s) = 4.58979 5.49423 5.06225
#
# Compressibility (1/GPa) = 0.05427534
#
# Stress axis : x y z
#
# Youngs Moduli (GPa) = 64.17273 32.47347 79.71894
#
# Poissons Ratio (x) = -0.07769 0.30884
# Poissons Ratio (y) = -0.15354 0.06708
# Poissons Ratio (z) = 0.24862 0.02732
#
# Static dielectric constant tensor:
#      x y z
#    x 1.678510 0.000000 -0.007540 
#    y 0.000000 1.759600 0.000000 
#    z -0.007540 0.000000 1.746320 
# 
# From -- ./inp_files/64190.got.cif
#   From: 2010.05.17/outbox.cif.g08.bks.cpg/sg11_33_cif.got.tgz:64190.got - 2010.06.03 12:22:45.
