data_PCOD9163643
_publ_section_title
;
Structure prediction by ZEFSAII (Michael W. Deem and Ramdas Pophale) SiO2 
 PCOD9163643
Probable space group: P 21/M
;
_chemical_formula_sum "Si O2"
_cell_formula_units_Z 28
_cell_length_a 5.237541
_cell_length_b 33.382998
_cell_length_c 8.806947
_cell_angle_alpha 90.000000
_cell_angle_beta 55.453808
_cell_angle_gamma 90.000000
_cell_volume 1268.326378
_symmetry_space_group_name_H-M "P 21/M"
_symmetry_group_IT_number 11
_symmetry_cell_setting 'monoclinic'
loop_
_space_group_symop_operation_xyz
x,y,z
-x,1/2+y,-z
-x,-y,-z
x,1/2-y,z
loop_
_atom_site_type_symbol
_atom_site_label
_atom_site_fract_x
_atom_site_fract_y
_atom_site_fract_z
Si Si1 0.211506 0.525911 0.039987
Si Si2 0.293244 0.164400 0.063886
Si Si3 0.446589 0.750000 0.703519
Si Si4 0.670040 0.623658 0.245727
Si Si5 0.483799 0.400050 0.236703
Si Si6 0.937928 0.419928 0.640447
Si Si7 0.654786 0.168864 0.411936
Si Si8 0.709081 0.750000 0.944169
O O1 0.054138 0.541781 0.249762
O O2 0.500000 0.500000 0.000000
O O3 0.323283 0.563398 0.898637
O O4 0.000000 0.500000 0.000000
O O5 0.465093 0.131648 0.105725
O O6 0.433531 0.206776 0.962913
O O7 0.014664 0.176596 0.268623
O O8 0.176692 0.140580 0.956484
O O9 0.507350 0.708607 0.595527
O O10 0.646010 0.750000 0.786374
O O11 0.073909 0.750000 0.868134
O O12 0.916705 0.612703 0.291685
O O13 0.452613 0.658439 0.385383
O O14 0.418160 0.589361 0.286253
O O15 0.159585 0.417848 0.416933
O O16 0.602237 0.372292 0.334943
#
# Coordination Sequence:
#
# PCOD9163643 Si02
#       8
#     4   4   2   4   4   4   4   2
#     4  12  28  45  68  98 131 164 209 274 335 385
#     4  11  21  39  65  92 131 174 214 265 316 372
#     4  10  20  37  60  91 133 167 212 267 309 369
#     4  11  23  37  67  97 128 168 220 258 305 383
#     4  11  23  41  72  89 130 173 214 260 325 388
#     4  11  24  44  66 100 124 164 219 257 317 395
#     4  10  22  39  64  95 130 173 218 259 321 373
#     4  10  22  35  60  95 129 169 220 259 315 371
#
# _framework density 22.076338
#
# number of rings (size 3 to 8) (size 9 to 14) (size 15 to 20)
#    0.000    1.143    4.286    1.714    2.000    1.714 
#    0.000    0.000    0.000    5.143    0.000    0.000 
#    0.000    0.000    0.000    0.000    0.000    0.000 
#
# Total GULP energy -156066.359474 kJ/mol
# GULP energy per Si atom -5573.798553 kJ/mol
# Density = 2.202609 g / cm^3
# Si number density = 22.076338 Si / 1000 Ang^3
#
#
#
# Elastic Constant Matrix: (Units=GPa)
#
#
# Indices 1 2 3 4 5 6 
#
# 1 73.7740 33.0167 13.8775 0.0000 10.7897 0.0000
# 2 33.0167 130.8622 21.8957 0.0000 0.7008 0.0000
# 3 13.8775 21.8957 78.7953 0.0000 -1.5097 0.0000
# 4 0.0000 0.0000 0.0000 23.3010 0.0000 12.5202
# 5 10.7897 0.7008 -1.5097 0.0000 24.2676 0.0000
# 6 0.0000 0.0000 0.0000 12.5202 0.0000 39.8805
#
#
#
# Elastic Compliance Matrix: (Units=1/GPa)
#
#
# Indices 1 2 3 4 5 6 
#
# 1 0.016749 -0.003847 -0.002024 0.000000 -0.007461 0.000000
# 2 -0.003847 0.008901 -0.001770 0.000000 0.001343 0.000000
# 3 -0.002024 -0.001770 0.013574 0.000000 0.001795 0.000000
# 4 0.000000 0.000000 0.000000 0.051625 0.000000 -0.016207
# 5 -0.007461 0.001343 0.001795 0.000000 0.044597 0.000000
# 6 0.000000 0.000000 0.000000 -0.016207 0.000000 0.030163
#
#
# Mechanical properties :
#
#
# Convention : Reuss Voigt Hill
#
# Bulk Modulus (GPa) = 41.76824 46.77904 44.27364
# Shear Modulus (GPa) = 26.47295 31.79925 29.13610
#
# Velocity S-wave (km/s) = 3.46664 3.79941 3.63683
# Velocity P-wave (km/s) = 5.91476 6.36263 6.14278
#
# Compressibility (1/GPa) = 0.02394163
#
# Stress axis : x y z
#
# Youngs Moduli (GPa) = 59.70655 112.34371 73.67121
#
# Poissons Ratio (x) = 0.43220 0.14909
# Poissons Ratio (y) = 0.22970 0.13041
# Poissons Ratio (z) = 0.12083 0.19887
#
# Static dielectric constant tensor:
#      x y z
#    x 1.852030 0.000000 -0.048960 
#    y 0.000000 2.044120 0.000000 
#    z -0.048960 0.000000 1.810290 
# 
# From -- ./inp_files/3359.got.cif
#   From: 2010.05.17/outbox.cif.g08.bks.cpg/sg11_2_cif.got.tgz:3359.got - 2010.06.03 12:22:45.
