data_PCOD9163047
_publ_section_title
;
Structure prediction by ZEFSAII (Michael W. Deem and Ramdas Pophale) SiO2 
 PCOD9163047
Probable space group: P 21/M
;
_chemical_formula_sum "Si O2"
_cell_formula_units_Z 28
_cell_length_a 23.576960
_cell_length_b 7.631422
_cell_length_c 17.117002
_cell_angle_alpha 90.000000
_cell_angle_beta 24.962412
_cell_angle_gamma 90.000000
_cell_volume 1299.743689
_symmetry_space_group_name_H-M "P 21/M"
_symmetry_group_IT_number 11
_symmetry_cell_setting 'monoclinic'
loop_
_space_group_symop_operation_xyz
x,y,z
-x,1/2+y,-z
-x,-y,-z
x,1/2-y,z
loop_
_atom_site_type_symbol
_atom_site_label
_atom_site_fract_x
_atom_site_fract_y
_atom_site_fract_z
Si Si1 0.634099 0.036111 0.160076
Si Si2 0.341436 0.960347 0.701369
Si Si3 0.865709 0.953455 0.563163
Si Si4 0.373644 0.041196 0.402025
Si Si5 0.838036 0.036928 0.771814
Si Si6 0.390096 0.461856 0.204434
Si Si7 0.843489 0.042062 0.208606
O O1 0.631887 0.250000 0.166493
O O2 0.694064 0.975465 0.167305
O O3 0.483864 0.974309 0.326856
O O4 0.726768 0.986175 0.972363
O O5 0.326854 0.750000 0.717842
O O6 0.249598 0.031384 0.745989
O O7 0.500000 0.000000 0.500000
O O8 0.881973 0.750000 0.520971
O O9 0.753958 0.030013 0.646192
O O10 0.015750 0.027232 0.382219
O O11 0.810400 0.966383 0.720311
O O12 0.391910 0.250000 0.375199
O O13 0.406194 0.975168 0.273836
O O14 0.226438 0.011776 0.622358
O O15 0.841430 0.250000 0.761655
O O16 0.385152 0.250000 0.214094
O O17 0.500000 0.500000 0.000000
O O18 0.833134 0.250000 0.219441
O O19 0.000000 0.000000 0.000000
#
# Coordination Sequence:
#
# PCOD9163047 Si02
#       7
#     4   4   4   4   4   4   4
#     4   9  17  31  55  82 105 135 178 225 273 330
#     4  10  20  36  59  84 110 143 184 229 283 339
#     4   9  18  32  49  73 107 139 175 225 273 318
#     4  10  20  36  58  82 112 149 189 235 288 347
#     4   9  17  31  52  75 101 138 179 218 268 330
#     4  10  21  35  54  81 111 149 189 231 284 339
#     4  11  24  40  60  87 118 156 196 239 295 351
#
# _framework density 21.542707
#
# number of rings (size 3 to 8) (size 9 to 14) (size 15 to 20)
#    0.000    2.286    1.429    1.286    0.000    4.000 
#    0.000    5.714    0.000    3.429    0.000    0.000 
#    0.000    0.000    0.000    0.000    0.000    0.000 
#
# Total GULP energy -156186.885723 kJ/mol
# GULP energy per Si atom -5578.103062 kJ/mol
# Density = 2.149368 g / cm^3
# Si number density = 21.542707 Si / 1000 Ang^3
#
#
#
# Elastic Constant Matrix: (Units=GPa)
#
#
# Indices 1 2 3 4 5 6 
#
# 1 129.1756 5.3613 49.5010 0.0000 -2.9763 0.0000
# 2 5.3613 44.1281 -11.6179 0.0000 -1.0647 0.0000
# 3 49.5010 -11.6179 103.8366 0.0000 14.3311 0.0000
# 4 0.0000 0.0000 0.0000 25.2352 0.0000 2.5614
# 5 -2.9763 -1.0647 14.3311 0.0000 21.2371 0.0000
# 6 0.0000 0.0000 0.0000 2.5614 0.0000 11.8676
#
#
#
# Elastic Compliance Matrix: (Units=1/GPa)
#
#
# Indices 1 2 3 4 5 6 
#
# 1 0.010239 -0.002672 -0.005910 0.000000 0.005289 0.000000
# 2 -0.002672 0.024055 0.004246 0.000000 -0.002034 0.000000
# 3 -0.005910 0.004246 0.014344 0.000000 -0.010295 0.000000
# 4 0.000000 0.000000 0.000000 0.040515 0.000000 -0.008744
# 5 0.005289 -0.002034 -0.010295 0.000000 0.054674 0.000000
# 6 0.000000 0.000000 0.000000 -0.008744 0.000000 0.086150
#
#
# Mechanical properties :
#
#
# Convention : Reuss Voigt Hill
#
# Bulk Modulus (GPa) = 25.02194 40.40324 32.71259
# Shear Modulus (GPa) = 19.84356 27.26104 23.55230
#
# Velocity S-wave (km/s) = 3.03830 3.56116 3.31007
# Velocity P-wave (km/s) = 4.89373 5.97535 5.46139
#
# Compressibility (1/GPa) = 0.03996492
#
# Stress axis : x y z
#
# Youngs Moduli (GPa) = 97.66589 41.57172 69.71583
#
# Poissons Ratio (x) = 0.11110 0.41203
# Poissons Ratio (y) = 0.26100 -0.29602
# Poissons Ratio (z) = 0.57722 -0.17652
#
# Static dielectric constant tensor:
#      x y z
#    x 1.807830 0.000000 0.005490 
#    y 0.000000 1.821620 0.000000 
#    z 0.005490 0.000000 1.759640 
# 
# From -- ./inp_files/54471.got.cif
#   From: 2010.05.17/outbox.cif.g08.bks.cpg/sg11_28_cif.got.tgz:54471.got - 2010.06.03 12:22:45.
