data_PCOD9163947
_publ_section_title
;
Structure prediction by ZEFSAII (Michael W. Deem and Ramdas Pophale) SiO2 
 PCOD9163947
Probable space group: P 21/M
;
_chemical_formula_sum "Si O2"
_cell_formula_units_Z 28
_cell_length_a 12.032738
_cell_length_b 14.231107
_cell_length_c 10.506372
_cell_angle_alpha 90.000000
_cell_angle_beta 130.279805
_cell_angle_gamma 90.000000
_cell_volume 1372.528597
_symmetry_space_group_name_H-M "P 21/M"
_symmetry_group_IT_number 11
_symmetry_cell_setting 'monoclinic'
loop_
_space_group_symop_operation_xyz
x,y,z
-x,1/2+y,-z
-x,-y,-z
x,1/2-y,z
loop_
_atom_site_type_symbol
_atom_site_label
_atom_site_fract_x
_atom_site_fract_y
_atom_site_fract_z
Si Si1 0.131670 0.949101 0.442147
Si Si2 0.890201 0.860920 0.438960
Si Si3 0.417954 0.098966 0.420284
Si Si4 0.432004 0.641584 0.731731
Si Si5 0.570292 0.636831 0.099263
Si Si6 0.844761 0.481231 0.823756
Si Si7 0.391864 0.856289 0.208259
O O1 0.292524 0.923614 0.609294
O O2 0.130909 0.929255 0.292015
O O3 0.018322 0.885582 0.435332
O O4 0.096654 0.059086 0.442643
O O5 0.892799 0.750000 0.477101
O O6 0.736584 0.883592 0.256965
O O7 0.475472 0.139106 0.329897
O O8 0.476978 0.149110 0.590226
O O9 0.500000 0.000000 0.500000
O O10 0.248535 0.074660 0.280851
O O11 0.384827 0.750000 0.716659
O O12 0.521036 0.609909 0.921743
O O13 0.560802 0.750000 0.096731
O O14 0.461587 0.604607 0.130346
O O15 0.737721 0.420421 0.834034
O O16 0.000000 0.500000 0.000000
O O17 0.338181 0.750000 0.148709
#
# Coordination Sequence:
#
# PCOD9163947 Si02
#       7
#     4   4   4   4   4   4   4
#     4  11  23  41  66  92 126 172 213 260 321 384
#     4  10  23  42  63  93 130 166 207 262 324 381
#     4  10  20  38  61  88 122 165 212 259 309 380
#     4  11  22  39  65  97 128 165 216 264 314 377
#     4   9  21  38  62  96 126 160 211 263 315 373
#     4  11  25  41  60  92 130 167 213 263 322 386
#     4  10  20  40  67  91 124 170 215 265 317 375
#
# _framework density 20.400304999999999
#
# number of rings (size 3 to 8) (size 9 to 14) (size 15 to 20)
#    0.000    1.714    2.857    1.714    4.000    3.429 
#    0.000    4.286    0.000    0.000    0.000    0.000 
#    0.000    0.000    0.000    0.000    0.000    0.000 
#
# Total GULP energy -156294.217220 kJ/mol
# GULP energy per Si atom -5581.936329 kJ/mol
# Density = 2.035387 g / cm^3
# Si number density = 20.400305 Si / 1000 Ang^3
#
#
#
# Elastic Constant Matrix: (Units=GPa)
#
#
# Indices 1 2 3 4 5 6 
#
# 1 76.9089 1.0599 23.7222 0.0000 5.0676 0.0000
# 2 1.0599 83.9909 2.9026 0.0000 3.7684 0.0000
# 3 23.7222 2.9026 84.4957 0.0000 0.7742 0.0000
# 4 0.0000 0.0000 0.0000 27.8719 0.0000 0.1933
# 5 5.0676 3.7684 0.7742 0.0000 40.7629 0.0000
# 6 0.0000 0.0000 0.0000 0.1933 0.0000 31.1062
#
#
#
# Elastic Compliance Matrix: (Units=1/GPa)
#
#
# Indices 1 2 3 4 5 6 
#
# 1 0.014353 0.000034 -0.004015 0.000000 -0.001711 0.000000
# 2 0.000034 0.011969 -0.000411 0.000000 -0.001103 0.000000
# 3 -0.004015 -0.000411 0.012974 0.000000 0.000291 0.000000
# 4 0.000000 0.000000 0.000000 0.035880 0.000000 -0.000223
# 5 -0.001711 -0.001103 0.000291 0.000000 0.024841 0.000000
# 6 0.000000 0.000000 0.000000 -0.000223 0.000000 0.032149
#
#
# Mechanical properties :
#
#
# Convention : Reuss Voigt Hill
#
# Bulk Modulus (GPa) = 32.77277 33.41832 33.09554
# Shear Modulus (GPa) = 33.08616 34.46226 33.77421
#
# Velocity S-wave (km/s) = 4.03158 4.11457 4.07329
# Velocity P-wave (km/s) = 6.14583 6.24418 6.19520
#
# Compressibility (1/GPa) = 0.03051313
#
# Stress axis : x y z
#
# Youngs Moduli (GPa) = 69.67121 83.54709 77.07948
#
# Poissons Ratio (x) = -0.00287 0.30949
# Poissons Ratio (y) = -0.00240 0.03166
# Poissons Ratio (z) = 0.27974 0.03431
#
# Static dielectric constant tensor:
#      x y z
#    x 1.712480 0.000000 -0.016530 
#    y 0.000000 1.787310 0.000000 
#    z -0.016530 0.000000 1.737180 
# 
# From -- ./inp_files/18162.got.cif
#   From: 2010.05.17/outbox.cif.g08.bks.cpg/sg11_10_cif.got.tgz:18162.got - 2010.06.03 12:22:45.
