data_PCOD9163921
_publ_section_title
;
Structure prediction by ZEFSAII (Michael W. Deem and Ramdas Pophale) SiO2 
 PCOD9163921
Probable space group: P 21/M
;
_chemical_formula_sum "Si O2"
_cell_formula_units_Z 32
_cell_length_a 23.912717
_cell_length_b 9.405146
_cell_length_c 14.977850
_cell_angle_alpha 90.000000
_cell_angle_beta 150.678014
_cell_angle_gamma 90.000000
_cell_volume 1649.639968
_symmetry_space_group_name_H-M "P 21/M"
_symmetry_group_IT_number 11
_symmetry_cell_setting 'monoclinic'
loop_
_space_group_symop_operation_xyz
x,y,z
-x,1/2+y,-z
-x,-y,-z
x,1/2-y,z
loop_
_atom_site_type_symbol
_atom_site_label
_atom_site_fract_x
_atom_site_fract_y
_atom_site_fract_z
Si Si1 0.954935 0.411974 0.021074
Si Si2 0.301020 0.595640 0.403310
Si Si3 0.248564 0.082975 0.012312
Si Si4 0.003855 0.421865 0.737892
Si Si5 0.397646 0.917177 0.721124
Si Si6 0.395089 0.086887 0.389606
Si Si7 0.247322 0.578658 0.675647
Si Si8 0.378140 0.578984 0.037137
O O1 0.000342 0.250000 0.087725
O O2 0.979862 0.495858 0.146496
O O3 0.820778 0.401705 0.812958
O O4 0.000000 0.500000 0.000000
O O5 0.357979 0.750000 0.465338
O O6 0.300471 0.578811 0.508706
O O7 0.366635 0.470024 0.447345
O O8 0.261848 0.250000 0.006881
O O9 0.113927 0.047127 0.828807
O O10 0.325250 0.989005 0.053044
O O11 0.293696 0.067297 0.176765
O O12 0.004312 0.250000 0.753802
O O13 0.882012 0.464737 0.526559
O O14 0.430419 0.750000 0.777675
O O15 0.340473 0.972762 0.732482
O O16 0.503967 0.005650 0.830848
O O17 0.424455 0.250000 0.433756
O O18 0.500000 0.000000 0.500000
O O19 0.248541 0.750000 0.668018
O O20 0.289102 0.546540 0.833030
O O21 0.391224 0.750000 0.063457
#
# Coordination Sequence:
#
# PCOD9163921 Si02
#       8
#     4   4   4   4   4   4   4   4
#     4  11  22  36  57  86 120 155 193 237 287 344
#     4  10  21  36  56  83 113 149 190 230 281 342
#     4  10  22  39  59  84 117 157 197 240 295 355
#     4  10  20  40  64  85 116 157 199 243 295 356
#     4  10  20  38  61  85 116 154 194 239 295 361
#     4  11  22  36  55  82 114 152 192 234 284 342
#     4   9  20  39  63  87 115 153 196 244 305 359
#     4  11  23  38  59  88 117 152 198 250 299 349
#
# _framework density 19.398171999999999
#
# number of rings (size 3 to 8) (size 9 to 14) (size 15 to 20)
#    0.000    1.750    1.250    3.000    0.000    8.000 
#    0.000    3.750    0.000    0.000    0.000    0.000 
#    0.000    0.000    0.000    0.000    0.000    0.000 
#
# Total GULP energy -178572.102270 kJ/mol
# GULP energy per Si atom -5580.378196 kJ/mol
# Density = 1.935402 g / cm^3
# Si number density = 19.398172 Si / 1000 Ang^3
#
#
#
# Elastic Constant Matrix: (Units=GPa)
#
#
# Indices 1 2 3 4 5 6 
#
# 1 58.6284 38.8504 -12.7147 0.0000 4.5200 0.0000
# 2 38.8504 75.3272 18.6648 0.0000 4.4309 0.0000
# 3 -12.7147 18.6648 53.2662 0.0000 4.7147 0.0000
# 4 0.0000 0.0000 0.0000 22.7061 0.0000 -1.7338
# 5 4.5200 4.4309 4.7147 0.0000 30.2515 0.0000
# 6 0.0000 0.0000 0.0000 -1.7338 0.0000 22.4924
#
#
#
# Elastic Compliance Matrix: (Units=1/GPa)
#
#
# Indices 1 2 3 4 5 6 
#
# 1 0.035947 -0.022440 0.016861 0.000000 -0.004712 0.000000
# 2 -0.022440 0.028601 -0.015519 0.000000 0.001582 0.000000
# 3 0.016861 -0.015519 0.028653 0.000000 -0.004712 0.000000
# 4 0.000000 0.000000 0.000000 0.044302 0.000000 0.003415
# 5 -0.004712 0.001582 -0.004712 0.000000 0.034263 0.000000
# 6 0.000000 0.000000 0.000000 0.003415 0.000000 0.044723
#
#
# Mechanical properties :
#
#
# Convention : Reuss Voigt Hill
#
# Bulk Modulus (GPa) = 19.60605 30.75809 25.18207
# Shear Modulus (GPa) = 18.13658 24.58475 21.36067
#
# Velocity S-wave (km/s) = 3.06103 3.56388 3.32199
# Velocity P-wave (km/s) = 4.75630 5.72936 5.26536
#
# Compressibility (1/GPa) = 0.05100465
#
# Stress axis : x y z
#
# Youngs Moduli (GPa) = 27.81911 34.96353 34.90022
#
# Poissons Ratio (x) = 0.78459 -0.58844
# Poissons Ratio (y) = 0.62427 0.54160
# Poissons Ratio (z) = -0.46905 0.54258
#
# Static dielectric constant tensor:
#      x y z
#    x 1.599830 0.000000 0.022220 
#    y 0.000000 1.671170 0.000000 
#    z 0.022220 0.000000 1.720210 
# 
# From -- ./inp_files/55658.got.cif
#   From: 2010.05.17/outbox.cif.g08.bks.cpg/sg11_28_cif.got.tgz:55658.got - 2010.06.03 12:22:45.
