data_PCOD9163213
_publ_section_title
;
Structure prediction by ZEFSAII (Michael W. Deem and Ramdas Pophale) SiO2 
 PCOD9163213
Probable space group: P 21/M
;
_chemical_formula_sum "Si O2"
_cell_formula_units_Z 32
_cell_length_a 12.550235
_cell_length_b 16.366315
_cell_length_c 11.869577
_cell_angle_alpha 90.000000
_cell_angle_beta 37.281822
_cell_angle_gamma 90.000000
_cell_volume 1476.798988
_symmetry_space_group_name_H-M "P 21/M"
_symmetry_group_IT_number 11
_symmetry_cell_setting 'monoclinic'
loop_
_space_group_symop_operation_xyz
x,y,z
-x,1/2+y,-z
-x,-y,-z
x,1/2-y,z
loop_
_atom_site_type_symbol
_atom_site_label
_atom_site_fract_x
_atom_site_fract_y
_atom_site_fract_z
Si Si1 0.936621 0.345808 0.795477
Si Si2 0.738330 0.001452 0.981207
Si Si3 0.174588 0.847384 0.443383
Si Si4 0.330501 0.496853 0.715982
Si Si5 0.109310 0.336532 0.890634
Si Si6 0.826678 0.652094 0.602349
Si Si7 0.449880 0.150434 0.986394
Si Si8 0.914766 0.407248 0.243514
O O1 0.891564 0.250000 0.808140
O O2 0.783955 0.409782 0.891235
O O3 0.110903 0.369353 0.576181
O O4 0.983115 0.350334 0.888801
O O5 0.648050 0.923203 0.999052
O O6 0.933230 0.969457 0.848041
O O7 0.638785 0.019767 0.181155
O O8 0.155735 0.750000 0.470885
O O9 0.990857 0.877985 0.542201
O O10 0.188933 0.883108 0.557179
O O11 0.347537 0.860768 0.221834
O O12 0.500000 0.500000 0.500000
O O13 0.249092 0.407261 0.782342
O O14 0.194382 0.552734 0.764460
O O15 0.197782 0.250000 0.795504
O O16 0.011311 0.336079 0.093190
O O17 0.833332 0.750000 0.599307
O O18 0.637255 0.632840 0.816593
O O19 0.412904 0.250000 0.995327
#
# Coordination Sequence:
#
# PCOD9163213 Si02
#       8
#     4   4   4   4   4   4   4   4
#     4  10  20  38  62  85 112 156 205 241 286 353
#     4  11  20  37  60  85 117 155 198 239 297 351
#     4  10  20  36  59  88 118 153 194 245 300 355
#     4  11  22  37  54  83 124 157 190 240 303 358
#     4  10  20  37  61  86 111 151 202 241 288 357
#     4   9  19  37  60  84 118 158 195 245 300 345
#     4  10  21  37  59  89 119 151 198 246 299 355
#     4  11  19  36  58  86 115 152 190 241 301 350
#
# _framework density 21.668486999999999
#
# number of rings (size 3 to 8) (size 9 to 14) (size 15 to 20)
#    0.000    1.750    3.750    1.875    0.000    2.500 
#    0.000    3.750    0.000    3.000    0.000    0.000 
#    0.000    0.000    0.000    0.000    0.000    0.000 
#
# Total GULP energy -178237.657625 kJ/mol
# GULP energy per Si atom -5569.926801 kJ/mol
# Density = 2.161917 g / cm^3
# Si number density = 21.668487 Si / 1000 Ang^3
#
#
#
# Elastic Constant Matrix: (Units=GPa)
#
#
# Indices 1 2 3 4 5 6 
#
# 1 28.1414 15.0121 29.6076 0.0000 22.7158 0.0000
# 2 15.0121 81.9439 47.1231 0.0000 3.5566 0.0000
# 3 29.6076 47.1231 171.1769 0.0000 17.6038 0.0000
# 4 0.0000 0.0000 0.0000 11.8989 0.0000 7.4320
# 5 22.7158 3.5566 17.6038 0.0000 32.8592 0.0000
# 6 0.0000 0.0000 0.0000 7.4320 0.0000 5.7340
#
#
#
# Elastic Compliance Matrix: (Units=1/GPa)
#
#
# Indices 1 2 3 4 5 6 
#
# 1 0.103067 -0.011483 -0.007902 0.000000 -0.065775 0.000000
# 2 -0.011483 0.015789 -0.003176 0.000000 0.007931 0.000000
# 3 -0.007902 -0.003176 0.007922 0.000000 0.001562 0.000000
# 4 0.000000 0.000000 0.000000 0.441311 0.000000 -0.572001
# 5 -0.065775 0.007931 0.001562 0.000000 0.074208 0.000000
# 6 0.000000 0.000000 0.000000 -0.572001 0.000000 0.915793
#
#
# Mechanical properties :
#
#
# Convention : Reuss Voigt Hill
#
# Bulk Modulus (GPa) = 12.24626 51.63863 31.94245
# Shear Modulus (GPa) = 3.06667 22.73306 12.89986
#
# Velocity S-wave (km/s) = 1.19094 3.24254 2.44258
# Velocity P-wave (km/s) = 2.74864 6.15644 4.76743
#
# Compressibility (1/GPa) = 0.08165756
#
# Stress axis : x y z
#
# Youngs Moduli (GPa) = 9.70238 63.33354 126.22580
#
# Poissons Ratio (x) = 0.72727 0.99738
# Poissons Ratio (y) = 0.11141 0.40090
# Poissons Ratio (z) = 0.07666 0.20115
#
# Static dielectric constant tensor:
#      x y z
#    x 1.868810 0.000000 -0.018380 
#    y 0.000000 1.905460 0.000000 
#    z -0.018380 0.000000 1.818960 
# 
# From -- ./inp_files/39976.got.cif
#   From: 2010.05.17/outbox.cif.g08.bks.cpg/sg11_20_cif.got.tgz:39976.got - 2010.06.03 12:22:45.
