data_PCOD9163292
_publ_section_title
;
Structure prediction by ZEFSAII (Michael W. Deem and Ramdas Pophale) SiO2 
 PCOD9163292
Probable space group: P 21/M
;
_chemical_formula_sum "Si O2"
_cell_formula_units_Z 32
_cell_length_a 12.519366
_cell_length_b 17.634032
_cell_length_c 16.065285
_cell_angle_alpha 90.000000
_cell_angle_beta 26.997538
_cell_angle_gamma 90.000000
_cell_volume 1610.024677
_symmetry_space_group_name_H-M "P 21/M"
_symmetry_group_IT_number 11
_symmetry_cell_setting 'monoclinic'
loop_
_space_group_symop_operation_xyz
x,y,z
-x,1/2+y,-z
-x,-y,-z
x,1/2-y,z
loop_
_atom_site_type_symbol
_atom_site_label
_atom_site_fract_x
_atom_site_fract_y
_atom_site_fract_z
Si Si1 0.388742 0.659235 0.303414
Si Si2 0.854221 0.337853 0.695111
Si Si3 0.776676 0.841929 0.434405
Si Si4 0.879528 0.411453 0.940933
Si Si5 0.495274 0.337357 0.100507
Si Si6 0.229017 0.659477 0.811377
Si Si7 0.075795 0.340127 0.279096
Si Si8 0.125668 0.409553 0.066177
O O1 0.433451 0.750000 0.263437
O O2 0.264610 0.629770 0.304677
O O3 0.195622 0.648931 0.508977
O O4 0.634864 0.618098 0.143969
O O5 0.905715 0.250000 0.637623
O O6 0.090573 0.369204 0.573488
O O7 0.662126 0.338677 0.902597
O O8 0.797275 0.750000 0.418540
O O9 0.504105 0.862140 0.619496
O O10 0.923965 0.874188 0.254857
O O11 0.627599 0.387088 0.076525
O O12 0.890204 0.378995 0.026041
O O13 0.903352 0.501194 0.922630
O O14 0.484857 0.250000 0.137801
O O15 0.240573 0.360757 0.243432
O O16 0.214876 0.750000 0.829234
O O17 0.093165 0.632818 0.823886
O O18 0.118380 0.250000 0.235351
O O19 0.143661 0.385375 0.150008
#
# Coordination Sequence:
#
# PCOD9163292 Si02
#       8
#     4   4   4   4   4   4   4   4
#     4  10  20  36  60  88 120 161 208 252 293 352
#     4   8  14  30  57  85 116 147 189 254 303 335
#     4   9  20  39  63  92 118 151 207 264 301 339
#     4  11  24  40  62  90 126 164 195 247 311 366
#     4   9  17  35  62  87 117 154 204 256 296 348
#     4  11  24  42  67  88 113 157 213 259 293 352
#     4  10  21  37  61  88 117 161 209 252 298 352
#     4  12  25  41  58  89 133 166 193 239 308 376
#
# _framework density 19.875471999999998
#
# number of rings (size 3 to 8) (size 9 to 14) (size 15 to 20)
#    0.000    2.000    1.250    3.375    1.750    3.000 
#    0.000    1.875    0.000    0.000    0.000    0.000 
#    0.000    0.000    0.000    0.000    0.000    0.000 
#
# Total GULP energy -178747.075659 kJ/mol
# GULP energy per Si atom -5585.846114 kJ/mol
# Density = 1.983023 g / cm^3
# Si number density = 19.875472 Si / 1000 Ang^3
#
#
#
# Elastic Constant Matrix: (Units=GPa)
#
#
# Indices 1 2 3 4 5 6 
#
# 1 61.4614 20.6932 15.0785 0.0000 -17.0472 0.0000
# 2 20.6932 49.6957 23.5044 0.0000 -4.7850 0.0000
# 3 15.0785 23.5044 61.8713 0.0000 -19.5235 0.0000
# 4 0.0000 0.0000 0.0000 9.5371 0.0000 -1.0449
# 5 -17.0472 -4.7850 -19.5235 0.0000 31.4975 0.0000
# 6 0.0000 0.0000 0.0000 -1.0449 0.0000 -6.1112
#
#
#
# Elastic Compliance Matrix: (Units=1/GPa)
#
#
# Indices 1 2 3 4 5 6 
#
# 1 0.022069 -0.008852 0.001652 0.000000 0.011624 0.000000
# 2 -0.008852 0.028246 -0.010854 0.000000 -0.007227 0.000000
# 3 0.001652 -0.010854 0.024422 0.000000 0.014383 0.000000
# 4 0.000000 0.000000 0.000000 0.102925 0.000000 -0.017599
# 5 0.011624 -0.007227 0.014383 0.000000 0.045857 0.000000
# 6 0.000000 0.000000 0.000000 -0.017599 0.000000 -0.160624
#
#
# Mechanical properties :
#
#
# Convention : Reuss Voigt Hill
#
# Bulk Modulus (GPa) = 25.88649 32.39785 29.14217
# Shear Modulus (GPa) = 44.69133 14.56817 29.62975
#
# Velocity S-wave (km/s) = 4.74705 2.71028 3.86524
# Velocity P-wave (km/s) = 6.56495 5.11175 5.88339
#
# Compressibility (1/GPa) = 0.03863019
#
# Stress axis : x y z
#
# Youngs Moduli (GPa) = 45.31168 35.40333 40.94708
#
# Poissons Ratio (x) = 0.31339 -0.06765
# Poissons Ratio (y) = 0.40109 0.44443
# Poissons Ratio (z) = -0.07486 0.38426
#
# Static dielectric constant tensor:
#      x y z
#    x 1.706090 0.000000 -0.010070 
#    y 0.000000 1.664890 0.000000 
#    z -0.010070 0.000000 1.709860 
# 
# From -- ./inp_files/50670.got.cif
#   From: 2010.05.17/outbox.cif.g08.bks.cpg/sg11_26_cif.got.tgz:50670.got - 2010.06.03 12:22:45.
