data_PCOD9163943
_publ_section_title
;
Structure prediction by ZEFSAII (Michael W. Deem and Ramdas Pophale) SiO2 
 PCOD9163943
Probable space group: P 21/M
;
_chemical_formula_sum "Si O2"
_cell_formula_units_Z 32
_cell_length_a 11.886458
_cell_length_b 10.218252
_cell_length_c 13.986899
_cell_angle_alpha 90.000000
_cell_angle_beta 83.457507
_cell_angle_gamma 90.000000
_cell_volume 1687.768862
_symmetry_space_group_name_H-M "P 21/M"
_symmetry_group_IT_number 11
_symmetry_cell_setting 'monoclinic'
loop_
_space_group_symop_operation_xyz
x,y,z
-x,1/2+y,-z
-x,-y,-z
x,1/2-y,z
loop_
_atom_site_type_symbol
_atom_site_label
_atom_site_fract_x
_atom_site_fract_y
_atom_site_fract_z
Si Si1 0.691526 0.062385 0.456886
Si Si2 0.061614 0.099428 0.263713
Si Si3 0.201991 0.893558 0.757998
Si Si4 0.312793 0.099987 0.888620
Si Si5 0.478901 0.388080 0.603003
Si Si6 0.434939 0.596848 0.209264
Si Si7 0.728028 0.598132 0.886979
Si Si8 0.910837 0.407726 0.566015
O O1 0.639469 0.922991 0.433538
O O2 0.791681 0.079012 0.521972
O O3 0.736141 0.111059 0.350879
O O4 0.576164 0.118410 0.513794
O O5 0.072831 0.250000 0.302989
O O6 0.144388 0.092910 0.165284
O O7 0.095746 0.983542 0.332745
O O8 0.930367 0.082939 0.249768
O O9 0.214245 0.750000 0.802065
O O10 0.255250 0.003795 0.818808
O O11 0.277024 0.250000 0.874572
O O12 0.447938 0.094099 0.860759
O O13 0.281457 0.066026 0.000334
O O14 0.457973 0.250000 0.652994
O O15 0.532667 0.462315 0.688429
O O16 0.393504 0.750000 0.217599
O O17 0.345701 0.502642 0.167368
O O18 0.688993 0.750000 0.878786
O O19 0.062547 0.750000 0.431601
O O20 0.000000 0.500000 0.500000
#
# Coordination Sequence:
#
# PCOD9163943 Si02
#       8
#     4   4   4   4   4   4   4   4
#     4  11  22  38  58  85 120 157 196 239 293 350
#     4  10  23  43  62  88 121 157 198 247 300 351
#     4  11  22  39  61  84 118 158 199 245 293 352
#     4  10  22  40  61  88 119 155 198 247 301 355
#     4  10  21  37  59  87 119 155 193 241 295 350
#     4  10  20  38  61  87 121 155 194 243 296 357
#     4  10  22  40  62  88 121 155 195 249 302 353
#     4  12  24  40  63  90 122 161 201 243 290 349
#
# _framework density 18.959942000000002
#
# number of rings (size 3 to 8) (size 9 to 14) (size 15 to 20)
#    0.000    1.500    2.500    2.625    0.000    4.500 
#    0.000    1.875    0.000    0.000    0.000    0.000 
#    0.000    0.000    0.000    0.000    0.000    0.000 
#
# Total GULP energy -178196.572389 kJ/mol
# GULP energy per Si atom -5568.642887 kJ/mol
# Density = 1.891679 g / cm^3
# Si number density = 18.959942 Si / 1000 Ang^3
#
#
#
# Elastic Constant Matrix: (Units=GPa)
#
#
# Indices 1 2 3 4 5 6 
#
# 1 76.2607 49.9661 19.7769 0.0000 -2.7903 0.0000
# 2 49.9661 82.0328 22.2182 0.0000 6.7146 0.0000
# 3 19.7769 22.2182 65.8055 0.0000 -19.6097 0.0000
# 4 0.0000 0.0000 0.0000 112.2651 0.0000 42.9077
# 5 -2.7903 6.7146 -19.6097 0.0000 24.6586 0.0000
# 6 0.0000 0.0000 0.0000 42.9077 0.0000 25.4438
#
#
#
# Elastic Compliance Matrix: (Units=1/GPa)
#
#
# Indices 1 2 3 4 5 6 
#
# 1 0.022798 -0.014394 -0.000072 0.000000 0.006442 0.000000
# 2 -0.014394 0.024454 -0.008388 0.000000 -0.014958 0.000000
# 3 -0.000072 -0.008388 0.024545 0.000000 0.021795 0.000000
# 4 0.000000 0.000000 0.000000 0.025058 0.000000 -0.042258
# 5 0.006442 -0.014958 0.021795 0.000000 0.062688 0.000000
# 6 0.000000 0.000000 0.000000 -0.042258 0.000000 0.110564
#
#
# Mechanical properties :
#
#
# Convention : Reuss Voigt Hill
#
# Bulk Modulus (GPa) = 38.33075 45.33571 41.83323
# Shear Modulus (GPa) = 15.40769 41.28269 28.34519
#
# Velocity S-wave (km/s) = 2.85378 4.67129 3.87072
# Velocity P-wave (km/s) = 5.57847 7.28408 6.48757
#
# Compressibility (1/GPa) = 0.02608872
#
# Stress axis : x y z
#
# Youngs Moduli (GPa) = 43.86256 40.89304 40.74175
#
# Poissons Ratio (x) = 0.58863 0.00293
# Poissons Ratio (y) = 0.63137 0.34174
# Poissons Ratio (z) = 0.00316 0.34301
#
# Static dielectric constant tensor:
#      x y z
#    x 1.633070 0.000000 -0.031710 
#    y 0.000000 1.733950 0.000000 
#    z -0.031710 0.000000 1.661500 
# 
# From -- ./inp_files/49327.got.cif
#   From: 2010.05.17/outbox.cif.g08.bks.cpg/sg11_25_cif.got.tgz:49327.got - 2010.06.03 12:22:45.
