data_PCOD9163875
_publ_section_title
;
Structure prediction by ZEFSAII (Michael W. Deem and Ramdas Pophale) SiO2 
 PCOD9163875
Probable space group: P 21/M
;
_chemical_formula_sum "Si O2"
_cell_formula_units_Z 32
_cell_length_a 14.464081
_cell_length_b 14.039041
_cell_length_c 22.379210
_cell_angle_alpha 90.000000
_cell_angle_beta 161.065193
_cell_angle_gamma 90.000000
_cell_volume 1474.609984
_symmetry_space_group_name_H-M "P 21/M"
_symmetry_group_IT_number 11
_symmetry_cell_setting 'monoclinic'
loop_
_space_group_symop_operation_xyz
x,y,z
-x,1/2+y,-z
-x,-y,-z
x,1/2-y,z
loop_
_atom_site_type_symbol
_atom_site_label
_atom_site_fract_x
_atom_site_fract_y
_atom_site_fract_z
Si Si1 0.680478 0.138160 0.653275
Si Si2 0.679973 0.545658 0.365062
Si Si3 0.774481 0.138710 0.254307
Si Si4 0.759779 0.018191 0.805399
Si Si5 0.441419 0.540382 0.089018
Si Si6 0.010423 0.137285 0.264962
Si Si7 0.617882 0.140129 0.481965
Si Si8 0.011714 0.641340 0.406387
O O1 0.740565 0.250000 0.692860
O O2 0.859661 0.083439 0.812131
O O3 0.710494 0.105804 0.603629
O O4 0.349196 0.121796 0.468532
O O5 0.491401 0.564209 0.308305
O O6 0.494085 0.553214 0.191864
O O7 0.805022 0.438166 0.446578
O O8 0.954964 0.613572 0.537856
O O9 0.701612 0.250000 0.213238
O O10 0.881642 0.116230 0.252049
O O11 0.524880 0.066605 0.120359
O O12 0.632090 0.923237 0.698015
O O13 0.000000 0.000000 0.000000
O O14 0.687883 0.607640 0.211283
O O15 0.149033 0.576684 0.882816
O O16 0.963934 0.250000 0.225550
O O17 0.524970 0.250000 0.431490
O O18 0.873736 0.136509 0.591255
O O19 0.048058 0.750000 0.449639
#
# Coordination Sequence:
#
# PCOD9163875 Si02
#       8
#     4   4   4   4   4   4   4   4
#     4  10  21  41  65  90 119 155 201 250 303 360
#     4  10  22  37  55  86 119 157 200 239 300 357
#     4  10  20  38  59  82 118 161 199 245 304 354
#     4  11  23  39  61  89 119 156 197 250 303 356
#     4  11  22  35  58  90 123 153 203 251 288 355
#     4  10  21  37  59  86 119 157 196 248 305 350
#     4   9  20  39  63  88 117 158 201 244 302 362
#     4   9  18  36  59  85 121 158 197 246 302 358
#
# _framework density 21.700654
#
# number of rings (size 3 to 8) (size 9 to 14) (size 15 to 20)
#    0.000    2.000    1.250    2.625    1.750    3.000 
#    0.000    0.000    0.000    0.000    0.000    0.000 
#    0.000    0.000    0.000    0.000    0.000    0.000 
#
# Total GULP energy -178988.767012 kJ/mol
# GULP energy per Si atom -5593.398969 kJ/mol
# Density = 2.165126 g / cm^3
# Si number density = 21.700654 Si / 1000 Ang^3
#
#
#
# Elastic Constant Matrix: (Units=GPa)
#
#
# Indices 1 2 3 4 5 6 
#
# 1 74.3939 32.0676 26.1130 0.0000 -35.0066 0.0000
# 2 32.0676 83.5795 29.9906 0.0000 -24.8629 0.0000
# 3 26.1130 29.9906 88.4990 0.0000 -37.1062 0.0000
# 4 0.0000 0.0000 0.0000 5.6353 0.0000 -0.7009
# 5 -35.0066 -24.8629 -37.1062 0.0000 33.1335 0.0000
# 6 0.0000 0.0000 0.0000 -0.7009 0.0000 26.2707
#
#
#
# Elastic Compliance Matrix: (Units=1/GPa)
#
#
# Indices 1 2 3 4 5 6 
#
# 1 0.030187 -0.002979 0.008554 0.000000 0.039238 0.000000
# 2 -0.002979 0.015720 -0.001550 0.000000 0.006913 0.000000
# 3 0.008554 -0.001550 0.023758 0.000000 0.034482 0.000000
# 4 0.000000 0.000000 0.000000 0.178043 0.000000 0.004751
# 5 0.039238 0.006913 0.034482 0.000000 0.115441 0.000000
# 6 0.000000 0.000000 0.000000 0.004751 0.000000 0.038192
#
#
# Mechanical properties :
#
#
# Convention : Reuss Voigt Hill
#
# Bulk Modulus (GPa) = 12.86721 46.97942 29.92331
# Shear Modulus (GPa) = 11.92755 23.56133 17.74444
#
# Velocity S-wave (km/s) = 2.34698 3.29864 2.86263
# Velocity P-wave (km/s) = 3.64510 6.01696 4.97446
#
# Compressibility (1/GPa) = 0.07771694
#
# Stress axis : x y z
#
# Youngs Moduli (GPa) = 33.12634 63.61209 42.09037
#
# Poissons Ratio (x) = 0.18952 -0.36006
# Poissons Ratio (y) = 0.09869 0.06523
# Poissons Ratio (z) = -0.28338 0.09858
#
# Static dielectric constant tensor:
#      x y z
#    x 1.816790 0.000000 0.013620 
#    y 0.000000 1.789490 0.000000 
#    z 0.013620 0.000000 1.772740 
# 
# From -- ./inp_files/65778.got.cif
#   From: 2010.05.17/outbox.cif.g08.bks.cpg/sg11_33_cif.got.tgz:65778.got - 2010.06.03 12:22:45.
