data_PCOD9163431
_publ_section_title
;
Structure prediction by ZEFSAII (Michael W. Deem and Ramdas Pophale) SiO2 
 PCOD9163431
Probable space group: P 21/M
;
_chemical_formula_sum "Si O2"
_cell_formula_units_Z 30
_cell_length_a 15.124052
_cell_length_b 9.422657
_cell_length_c 16.206803
_cell_angle_alpha 90.000000
_cell_angle_beta 34.413450
_cell_angle_gamma 90.000000
_cell_volume 1305.301499
_symmetry_space_group_name_H-M "P 21/M"
_symmetry_group_IT_number 11
_symmetry_cell_setting 'monoclinic'
loop_
_space_group_symop_operation_xyz
x,y,z
-x,1/2+y,-z
-x,-y,-z
x,1/2-y,z
loop_
_atom_site_type_symbol
_atom_site_label
_atom_site_fract_x
_atom_site_fract_y
_atom_site_fract_z
Si Si1 0.017857 0.250000 0.020416
Si Si2 0.347372 0.582640 0.147954
Si Si3 0.221807 0.524168 0.819548
Si Si4 0.551495 0.083894 0.570638
Si Si5 0.101962 0.919591 0.679393
Si Si6 0.036770 0.419721 0.386956
Si Si7 0.509218 0.591411 0.186237
Si Si8 0.804262 0.091008 0.969595
O O1 0.890001 0.126483 0.144895
O O2 0.141066 0.372885 0.894154
O O3 0.343485 0.750000 0.128744
O O4 0.197881 0.494358 0.234774
O O5 0.365976 0.577595 0.233649
O O6 0.500000 0.500000 0.000000
O O7 0.401863 0.504613 0.655068
O O8 0.213779 0.593119 0.917365
O O9 0.540738 0.250000 0.553869
O O10 0.727781 0.030608 0.421477
O O11 0.532380 0.082133 0.685690
O O12 0.085733 0.750000 0.702809
O O13 0.085490 0.942130 0.592989
O O14 0.954042 0.998656 0.831693
O O15 0.054319 0.250000 0.386137
O O16 0.000000 0.500000 0.500000
O O17 0.577036 0.750000 0.120675
O O18 0.644023 0.479291 0.062805
O O19 0.825220 0.250000 0.922950
#
# Coordination Sequence:
#
# PCOD9163431 Si02
#       8
#     2   4   4   4   4   4   4   4
#     4  10  20  36  64  92 120 142 188 220 284 328
#     4  11  22  36  54  79 112 148 192 245 299 352
#     4  10  20  37  62  93 114 153 180 235 268 338
#     4   9  17  35  59  82 106 141 190 230 272 323
#     4  10  22  38  58  80 113 157 195 233 282 348
#     4  11  23  39  58  82 112 154 203 248 298 353
#     4   9  19  35  57  78 104 145 191 237 285 342
#     4  11  22  36  55  87 120 147 191 237 284 329
#
# _framework density 22.983194999999998
#
# number of rings (size 3 to 8) (size 9 to 14) (size 15 to 20)
#    0.000    1.867    1.333    2.800    1.867    7.467 
#    1.200    0.000    0.000    4.800    0.000    0.000 
#    0.000    0.000    0.000    0.000    0.000    0.000 
#
# Total GULP energy -167310.426405 kJ/mol
# GULP energy per Si atom -5577.014214 kJ/mol
# Density = 2.293088 g / cm^3
# Si number density = 22.983195 Si / 1000 Ang^3
#
#
#
# Elastic Constant Matrix: (Units=GPa)
#
#
# Indices 1 2 3 4 5 6 
#
# 1 95.5274 29.7122 17.9712 0.0000 -10.9049 0.0000
# 2 29.7122 124.1826 32.6276 0.0000 -22.9022 0.0000
# 3 17.9712 32.6276 130.7145 0.0000 -28.6266 0.0000
# 4 0.0000 0.0000 0.0000 29.6194 0.0000 1.5775
# 5 -10.9049 -22.9022 -28.6266 0.0000 43.1825 0.0000
# 6 0.0000 0.0000 0.0000 1.5775 0.0000 18.9715
#
#
#
# Elastic Compliance Matrix: (Units=1/GPa)
#
#
# Indices 1 2 3 4 5 6 
#
# 1 0.011466 -0.002334 -0.000738 0.000000 0.001169 0.000000
# 2 -0.002334 0.009623 -0.001278 0.000000 0.003667 0.000000
# 3 -0.000738 -0.001278 0.009220 0.000000 0.005248 0.000000
# 4 0.000000 0.000000 0.000000 0.033912 0.000000 -0.002820
# 5 0.001169 0.003667 0.005248 0.000000 0.028876 0.000000
# 6 0.000000 0.000000 0.000000 -0.002820 0.000000 0.052945
#
#
# Mechanical properties :
#
#
# Convention : Reuss Voigt Hill
#
# Bulk Modulus (GPa) = 46.27600 56.78297 51.52948
# Shear Modulus (GPa) = 30.87439 36.36223 33.61831
#
# Velocity S-wave (km/s) = 3.66915 3.98191 3.82872
# Velocity P-wave (km/s) = 6.17484 6.77500 6.48187
#
# Compressibility (1/GPa) = 0.02160948
#
# Stress axis : x y z
#
# Youngs Moduli (GPa) = 87.21134 103.91547 108.45942
#
# Poissons Ratio (x) = 0.24255 0.08004
# Poissons Ratio (y) = 0.20356 0.13862
# Poissons Ratio (z) = 0.06436 0.13281
#
# Static dielectric constant tensor:
#      x y z
#    x 1.998540 0.000000 0.054620 
#    y 0.000000 1.782390 0.000000 
#    z 0.054620 0.000000 1.880140 
# 
# From -- ./inp_files/66043.got.cif
#   From: 2010.05.17/outbox.cif.g08.bks.cpg/sg11_34_cif.got.tgz:66043.got - 2010.06.03 12:22:45.
