data_PCOD9163317
_publ_section_title
;
Structure prediction by ZEFSAII (Michael W. Deem and Ramdas Pophale) SiO2 
 PCOD9163317
Probable space group: P 21/M
;
_chemical_formula_sum "Si O2"
_cell_formula_units_Z 24
_cell_length_a 12.118855
_cell_length_b 10.062706
_cell_length_c 16.637501
_cell_angle_alpha 90.000000
_cell_angle_beta 141.700414
_cell_angle_gamma 90.000000
_cell_volume 1257.469250
_symmetry_space_group_name_H-M "P 21/M"
_symmetry_group_IT_number 11
_symmetry_cell_setting 'monoclinic'
loop_
_space_group_symop_operation_xyz
x,y,z
-x,1/2+y,-z
-x,-y,-z
x,1/2-y,z
loop_
_atom_site_type_symbol
_atom_site_label
_atom_site_fract_x
_atom_site_fract_y
_atom_site_fract_z
Si Si1 0.011441 0.897273 0.266005
Si Si2 0.918100 0.907531 0.385551
Si Si3 0.374759 0.902583 0.377178
Si Si4 0.801950 0.893936 0.841843
Si Si5 0.474719 0.402898 0.908124
Si Si6 0.179160 0.970898 0.986248
O O1 0.929878 0.750000 0.220577
O O2 0.024539 0.939726 0.364704
O O3 0.200405 0.890183 0.332197
O O4 0.893382 0.986583 0.141754
O O5 0.936332 0.750000 0.414857
O O6 0.712451 0.932439 0.243419
O O7 0.000000 0.000000 0.500000
O O8 0.438468 0.750000 0.397545
O O9 0.500000 0.000000 0.500000
O O10 0.305415 0.983936 0.259461
O O11 0.727858 0.750000 0.775263
O O12 0.008874 0.897859 0.930370
O O13 0.794115 0.912664 0.933188
O O14 0.470482 0.250000 0.934641
O O15 0.500000 0.500000 0.000000
O O16 0.631460 0.410959 0.930506
#
# Coordination Sequence:
#
# PCOD9163317 Si02
#       6
#     4   4   4   4   4   4
#     4   9  18  36  59  81 113 156 197 243 300 362
#     4  10  22  41  60  84 119 157 200 247 301 362
#     4  10  21  37  58  83 115 155 201 248 300 363
#     4  10  21  36  59  89 122 158 197 247 308 364
#     4  11  23  39  63  92 122 156 204 258 307 364
#     4  10  20  36  60  90 122 154 199 250 304 361
#
# _framework density 19.085954000000001
#
# number of rings (size 3 to 8) (size 9 to 14) (size 15 to 20)
#    0.000    2.000    1.667    1.500    0.000    7.333 
#    0.000    5.000    0.000    0.000    0.000    0.000 
#    0.000    0.000    0.000    0.000    0.000    0.000 
#
# Total GULP energy -133616.313355 kJ/mol
# GULP energy per Si atom -5567.346390 kJ/mol
# Density = 1.904251 g / cm^3
# Si number density = 19.085954 Si / 1000 Ang^3
#
#
#
# Elastic Constant Matrix: (Units=GPa)
#
#
# Indices 1 2 3 4 5 6 
#
# 1 48.8141 29.8448 15.0969 0.0000 -17.1204 0.0000
# 2 29.8448 127.4501 63.2666 0.0000 -10.5426 0.0000
# 3 15.0969 63.2666 88.8519 0.0000 -13.5791 0.0000
# 4 0.0000 0.0000 0.0000 21.0234 0.0000 -0.8258
# 5 -17.1204 -10.5426 -13.5791 0.0000 28.4361 0.0000
# 6 0.0000 0.0000 0.0000 -0.8258 0.0000 13.2551
#
#
#
# Elastic Compliance Matrix: (Units=1/GPa)
#
#
# Indices 1 2 3 4 5 6 
#
# 1 0.029653 -0.006697 0.002243 0.000000 0.016441 0.000000
# 2 -0.006697 0.013653 -0.009089 0.000000 -0.003311 0.000000
# 3 0.002243 -0.009089 0.018378 0.000000 0.006757 0.000000
# 4 0.000000 0.000000 0.000000 0.047683 0.000000 0.002971
# 5 0.016441 -0.003311 0.006757 0.000000 0.047064 0.000000
# 6 0.000000 0.000000 0.000000 0.002971 0.000000 0.075628
#
#
# Mechanical properties :
#
#
# Convention : Reuss Voigt Hill
#
# Bulk Modulus (GPa) = 28.90431 53.50363 41.20397
# Shear Modulus (GPa) = 18.47210 23.00344 20.73777
#
# Velocity S-wave (km/s) = 3.11438 3.47544 3.29986
# Velocity P-wave (km/s) = 5.30186 6.64822 6.01284
#
# Compressibility (1/GPa) = 0.03459692
#
# Stress axis : x y z
#
# Youngs Moduli (GPa) = 33.72313 73.24624 54.41229
#
# Poissons Ratio (x) = 0.49055 -0.12205
# Poissons Ratio (y) = 0.22585 0.49457
# Poissons Ratio (z) = -0.07564 0.66576
#
# Static dielectric constant tensor:
#      x y z
#    x 1.702600 0.000000 0.027250 
#    y 0.000000 1.729510 0.000000 
#    z 0.027250 0.000000 1.713270 
# 
# From -- ./inp_files/49936.got.cif
#   From: 2010.05.17/outbox.cif.g08.bks.cpg/sg11_25_cif.got.tgz:49936.got - 2010.06.03 12:22:45.
