data_PCOD9163949
_publ_section_title
;
Structure prediction by ZEFSAII (Michael W. Deem and Ramdas Pophale) SiO2 
 PCOD9163949
Probable space group: P 21/M
;
_chemical_formula_sum "Si O2"
_cell_formula_units_Z 28
_cell_length_a 14.897019
_cell_length_b 8.676634
_cell_length_c 12.898881
_cell_angle_alpha 90.000000
_cell_angle_beta 121.719092
_cell_angle_gamma 90.000000
_cell_volume 1418.229214
_symmetry_space_group_name_H-M "P 21/M"
_symmetry_group_IT_number 11
_symmetry_cell_setting 'monoclinic'
loop_
_space_group_symop_operation_xyz
x,y,z
-x,1/2+y,-z
-x,-y,-z
x,1/2-y,z
loop_
_atom_site_type_symbol
_atom_site_label
_atom_site_fract_x
_atom_site_fract_y
_atom_site_fract_z
Si Si1 0.228487 0.562529 0.007596
Si Si2 0.308844 0.934411 0.643288
Si Si3 0.617311 0.063446 0.082852
Si Si4 0.601925 0.566981 0.504855
Si Si5 0.989345 0.565154 0.815516
Si Si6 0.224934 0.565945 0.237658
Si Si7 0.921948 0.566445 0.538565
O O1 0.227803 0.750000 0.003838
O O2 0.307048 0.509889 0.964957
O O3 0.107653 0.514154 0.914439
O O4 0.260566 0.518924 0.143659
O O5 0.312709 0.750000 0.639926
O O6 0.337217 0.982264 0.777364
O O7 0.386423 0.003414 0.604247
O O8 0.192012 0.990829 0.544254
O O9 0.614661 0.250000 0.078217
O O10 0.500000 0.000000 0.000000
O O11 0.500000 0.500000 0.500000
O O12 0.596532 0.750000 0.498810
O O13 0.704414 0.514744 0.632437
O O14 0.981339 0.750000 0.828497
O O15 0.896942 0.480911 0.821844
O O16 0.967024 0.536557 0.680579
O O17 0.235881 0.750000 0.255055
O O18 0.912276 0.750000 0.520747
O O19 0.000000 0.500000 0.500000
#
# Coordination Sequence:
#
# PCOD9163949 Si02
#       7
#     4   4   4   4   4   4   4
#     4   9  20  39  62  89 125 167 208 252 309 369
#     4  11  23  42  66  94 128 163 209 261 315 376
#     4  10  23  43  65  91 123 164 208 261 313 370
#     4  12  26  44  66  93 126 165 211 262 317 376
#     4  10  20  38  61  88 124 166 208 252 309 371
#     4  11  22  38  63  95 127 164 207 254 311 373
#     4  11  22  36  60  91 126 169 212 258 311 369
#
# _framework density 19.742930999999999
#
# number of rings (size 3 to 8) (size 9 to 14) (size 15 to 20)
#    0.000    1.429    1.429    3.857    2.000    4.000 
#    0.000    2.143    0.000    0.000    0.000    0.000 
#    0.000    0.000    0.000    0.000    0.000    0.000 
#
# Total GULP energy -156580.466734 kJ/mol
# GULP energy per Si atom -5592.159526 kJ/mol
# Density = 1.969799 g / cm^3
# Si number density = 19.742931 Si / 1000 Ang^3
#
#
#
# Elastic Constant Matrix: (Units=GPa)
#
#
# Indices 1 2 3 4 5 6 
#
# 1 122.0738 20.8968 23.5037 0.0000 -29.0748 0.0000
# 2 20.8968 49.7213 29.4965 0.0000 -17.3666 0.0000
# 3 23.5037 29.4965 78.5423 0.0000 -24.9126 0.0000
# 4 0.0000 0.0000 0.0000 22.1307 0.0000 4.3663
# 5 -29.0748 -17.3666 -24.9126 0.0000 40.2706 0.0000
# 6 0.0000 0.0000 0.0000 4.3663 0.0000 37.8943
#
#
#
# Elastic Compliance Matrix: (Units=1/GPa)
#
#
# Indices 1 2 3 4 5 6 
#
# 1 0.010064 -0.001844 -0.000332 0.000000 0.006265 0.000000
# 2 -0.001844 0.027615 -0.008042 0.000000 0.005602 0.000000
# 3 -0.000332 -0.008042 0.018258 0.000000 0.007587 0.000000
# 4 0.000000 0.000000 0.000000 0.046237 0.000000 -0.005328
# 5 0.006265 0.005602 0.007587 0.000000 0.036465 0.000000
# 6 0.000000 0.000000 0.000000 -0.005328 0.000000 0.027003
#
#
# Mechanical properties :
#
#
# Convention : Reuss Voigt Hill
#
# Bulk Modulus (GPa) = 28.16858 44.23683 36.20271
# Shear Modulus (GPa) = 25.26390 31.82182 28.54286
#
# Velocity S-wave (km/s) = 3.58109 4.01909 3.80639
# Velocity P-wave (km/s) = 5.60336 6.63268 6.13963
#
# Compressibility (1/GPa) = 0.03550054
#
# Stress axis : x y z
#
# Youngs Moduli (GPa) = 99.36846 36.21255 54.77068
#
# Poissons Ratio (x) = 0.06679 0.01816
# Poissons Ratio (y) = 0.18328 0.44045
# Poissons Ratio (z) = 0.03295 0.29121
#
# Static dielectric constant tensor:
#      x y z
#    x 1.674260 0.000000 -0.012240 
#    y 0.000000 1.664700 0.000000 
#    z -0.012240 0.000000 1.684710 
# 
# From -- ./inp_files/38424.got.cif
#   From: 2010.05.17/outbox.cif.g08.bks.cpg/sg11_20_cif.got.tgz:38424.got - 2010.06.03 12:22:45.
