data_PCOD9163782
_publ_section_title
;
Structure prediction by ZEFSAII (Michael W. Deem and Ramdas Pophale) SiO2 
 PCOD9163782
Probable space group: P 21/M
;
_chemical_formula_sum "Si O2"
_cell_formula_units_Z 26
_cell_length_a 7.908911
_cell_length_b 20.976980
_cell_length_c 8.668756
_cell_angle_alpha 90.000000
_cell_angle_beta 129.550793
_cell_angle_gamma 90.000000
_cell_volume 1108.931774
_symmetry_space_group_name_H-M "P 21/M"
_symmetry_group_IT_number 11
_symmetry_cell_setting 'monoclinic'
loop_
_space_group_symop_operation_xyz
x,y,z
-x,1/2+y,-z
-x,-y,-z
x,1/2-y,z
loop_
_atom_site_type_symbol
_atom_site_label
_atom_site_fract_x
_atom_site_fract_y
_atom_site_fract_z
Si Si1 0.722794 0.250000 0.486784
Si Si2 0.757022 0.750000 0.174854
Si Si3 0.708996 0.389256 0.839923
Si Si4 0.404520 0.940374 0.534951
Si Si5 0.760470 0.549074 0.364961
Si Si6 0.398324 0.750000 0.230192
Si Si7 0.163165 0.946005 0.797390
Si Si8 0.513452 0.642800 0.844199
O O1 0.595231 0.250000 0.578316
O O2 0.649898 0.190306 0.341050
O O3 0.982798 0.250000 0.660573
O O4 0.680021 0.687108 0.034480
O O5 0.623150 0.750000 0.259964
O O6 0.726163 0.399701 0.666400
O O7 0.458326 0.411983 0.730709
O O8 0.727226 0.314731 0.886315
O O9 0.861164 0.432448 0.035190
O O10 0.581287 0.902184 0.739390
O O11 0.500000 0.000000 0.500000
O O12 0.255501 0.977980 0.568997
O O13 0.793827 0.521617 0.211706
O O14 0.954745 0.578473 0.578245
O O15 0.369913 0.901419 0.872888
#
# Coordination Sequence:
#
# PCOD9163782 Si02
#       8
#     2   2   4   4   4   2   4   4
#     4  11  25  45  66  94 130 175 217 269 320 382
#     4  11  25  45  68  96 126 179 221 257 334 378
#     4  11  21  39  60  89 130 165 212 274 314 379
#     4   9  19  39  62  87 127 169 209 267 333 378
#     4   9  21  38  61  92 118 169 215 254 333 384
#     4  12  24  44  66 100 128 168 228 262 318 396
#     4  10  20  37  62  92 126 161 214 266 315 390
#     4  10  21  42  63  91 135 166 213 277 314 386
#
# _framework density 23.445988
#
# number of rings (size 3 to 8) (size 9 to 14) (size 15 to 20)
#    0.000    1.846    3.077    0.462    2.154    0.615 
#    5.538    3.846    0.000    0.000    0.000    0.000 
#    0.000    0.000    0.000    0.000    0.000    0.000 
#
# Total GULP energy -144928.350674 kJ/mol
# GULP energy per Si atom -5574.167334 kJ/mol
# Density = 2.339262 g / cm^3
# Si number density = 23.445988 Si / 1000 Ang^3
#
#
#
# Elastic Constant Matrix: (Units=GPa)
#
#
# Indices 1 2 3 4 5 6 
#
# 1 45.1591 3.6681 34.7471 0.0000 -2.4561 0.0000
# 2 3.6681 66.6606 14.2637 0.0000 4.3907 0.0000
# 3 34.7471 14.2637 109.2898 0.0000 1.4327 0.0000
# 4 0.0000 0.0000 0.0000 27.9910 0.0000 -12.8815
# 5 -2.4561 4.3907 1.4327 0.0000 34.5095 0.0000
# 6 0.0000 0.0000 0.0000 -12.8815 0.0000 19.1941
#
#
#
# Elastic Compliance Matrix: (Units=1/GPa)
#
#
# Indices 1 2 3 4 5 6 
#
# 1 0.029532 0.000235 -0.009452 0.000000 0.002464 0.000000
# 2 0.000235 0.015557 -0.002081 0.000000 -0.001876 0.000000
# 3 -0.009452 -0.002081 0.012439 0.000000 -0.000924 0.000000
# 4 0.000000 0.000000 0.000000 0.051691 0.000000 0.034691
# 5 0.002464 -0.001876 -0.000924 0.000000 0.029430 0.000000
# 6 0.000000 0.000000 0.000000 0.034691 0.000000 0.075381
#
#
# Mechanical properties :
#
#
# Convention : Reuss Voigt Hill
#
# Bulk Modulus (GPa) = 28.62656 36.27414 32.45035
# Shear Modulus (GPa) = 20.13947 27.56762 23.85355
#
# Velocity S-wave (km/s) = 2.93400 3.43270 3.19310
# Velocity P-wave (km/s) = 4.86969 5.58715 5.24071
#
# Compressibility (1/GPa) = 0.03493260
#
# Stress axis : x y z
#
# Youngs Moduli (GPa) = 33.86185 64.27891 80.39331
#
# Poissons Ratio (x) = -0.01512 0.75989
# Poissons Ratio (y) = -0.00796 0.16727
# Poissons Ratio (z) = 0.32007 0.13374
#
# Static dielectric constant tensor:
#      x y z
#    x 2.137770 0.000000 -0.182750 
#    y 0.000000 2.920920 0.000000 
#    z -0.182750 0.000000 2.035050 
# 
# From -- ./inp_files/14517.got.cif
#   From: 2010.05.17/outbox.cif.g08.bks.cpg/sg11_8_cif.got.tgz:14517.got - 2010.06.03 12:22:45.
