data_PCOD9163121
_publ_section_title
;
Structure prediction by ZEFSAII (Michael W. Deem and Ramdas Pophale) SiO2 
 PCOD9163121
Probable space group: P 21/M
;
_chemical_formula_sum "Si O2"
_cell_formula_units_Z 28
_cell_length_a 11.039443
_cell_length_b 23.751220
_cell_length_c 5.221669
_cell_angle_alpha 90.000000
_cell_angle_beta 92.313543
_cell_angle_gamma 90.000000
_cell_volume 1368.006864
_symmetry_space_group_name_H-M "P 21/M"
_symmetry_group_IT_number 11
_symmetry_cell_setting 'monoclinic'
loop_
_space_group_symop_operation_xyz
x,y,z
-x,1/2+y,-z
-x,-y,-z
x,1/2-y,z
loop_
_atom_site_type_symbol
_atom_site_label
_atom_site_fract_x
_atom_site_fract_y
_atom_site_fract_z
Si Si1 0.382273 0.422520 0.737254
Si Si2 0.738060 0.967563 0.766087
Si Si3 0.771788 0.080913 0.482378
Si Si4 0.566612 0.813913 0.511511
Si Si5 0.002351 0.038901 0.251070
Si Si6 0.429985 0.884402 0.883371
Si Si7 0.296967 0.812564 0.239828
O O1 0.358164 0.451319 0.462513
O O2 0.359838 0.356250 0.666523
O O3 0.304580 0.452943 0.951738
O O4 0.515875 0.420223 0.877216
O O5 0.864423 0.933480 0.735940
O O6 0.770360 0.032047 0.697610
O O7 0.880426 0.073882 0.287906
O O8 0.642940 0.078787 0.324923
O O9 0.779986 0.141192 0.618858
O O10 0.611182 0.750000 0.546593
O O11 0.540153 0.848814 0.768954
O O12 0.430058 0.810024 0.384883
O O13 0.000000 0.000000 0.500000
O O14 0.000000 0.000000 0.000000
O O15 0.332422 0.838784 0.970490
O O16 0.246809 0.750000 0.224014
#
# Coordination Sequence:
#
# PCOD9163121 Si02
#       7
#     4   4   4   4   4   4   4
#     4  11  22  39  57  91 123 161 193 247 306 358
#     4  11  23  39  60  87 128 160 204 243 296 366
#     4  10  23  37  62  89 119 161 203 251 309 362
#     4   9  18  37  59  84 118 162 208 246 296 364
#     4  10  22  41  64  88 112 155 207 245 283 349
#     4  10  20  36  58  95 122 156 202 246 317 361
#     4   9  19  35  58  88 121 155 200 254 305 361
#
# _framework density 20.467735999999999
#
# number of rings (size 3 to 8) (size 9 to 14) (size 15 to 20)
#    0.000    2.000    1.429    2.143    6.000    2.286 
#    0.000    0.000    0.000    1.714    0.000    0.000 
#    0.000    0.000    0.000    0.000    0.000    0.000 
#
# Total GULP energy -156037.763775 kJ/mol
# GULP energy per Si atom -5572.777278 kJ/mol
# Density = 2.042115 g / cm^3
# Si number density = 20.467736 Si / 1000 Ang^3
#
#
#
# Elastic Constant Matrix: (Units=GPa)
#
#
# Indices 1 2 3 4 5 6 
#
# 1 53.0286 37.2894 19.1210 0.0000 -11.4299 0.0000
# 2 37.2894 120.1628 39.1300 0.0000 -20.8986 0.0000
# 3 19.1210 39.1300 119.4946 0.0000 -14.1318 0.0000
# 4 0.0000 0.0000 0.0000 21.6685 0.0000 -5.4716
# 5 -11.4299 -20.8986 -14.1318 0.0000 35.9560 0.0000
# 6 0.0000 0.0000 0.0000 -5.4716 0.0000 3.9168
#
#
#
# Elastic Compliance Matrix: (Units=1/GPa)
#
#
# Indices 1 2 3 4 5 6 
#
# 1 0.024768 -0.006632 -0.001380 0.000000 0.003476 0.000000
# 2 -0.006632 0.011813 -0.002354 0.000000 0.003833 0.000000
# 3 -0.001380 -0.002354 0.009592 0.000000 0.001963 0.000000
# 4 0.000000 0.000000 0.000000 0.071301 0.000000 0.099604
# 5 0.003476 0.003833 0.001963 0.000000 0.031916 0.000000
# 6 0.000000 0.000000 0.000000 0.099604 0.000000 0.394448
#
#
# Mechanical properties :
#
#
# Convention : Reuss Voigt Hill
#
# Bulk Modulus (GPa) = 39.30626 53.75188 46.52907
# Shear Modulus (GPa) = 8.72519 25.45130 17.08825
#
# Velocity S-wave (km/s) = 2.06692 3.53013 2.89258
# Velocity P-wave (km/s) = 4.99419 6.55245 5.82565
#
# Compressibility (1/GPa) = 0.02544124
#
# Stress axis : x y z
#
# Youngs Moduli (GPa) = 40.37387 84.65046 104.24857
#
# Poissons Ratio (x) = 0.56142 0.14391
# Poissons Ratio (y) = 0.26777 0.24539
# Poissons Ratio (z) = 0.05573 0.19926
#
# Static dielectric constant tensor:
#      x y z
#    x 1.793830 0.000000 -0.004450 
#    y 0.000000 1.768850 0.000000 
#    z -0.004450 0.000000 1.806340 
# 
# From -- ./inp_files/4892.got.cif
#   From: 2010.05.17/outbox.cif.g08.bks.cpg/sg11_3_cif.got.tgz:4892.got - 2010.06.03 12:22:45.
