data_PCOD9163872
_publ_section_title
;
Structure prediction by ZEFSAII (Michael W. Deem and Ramdas Pophale) SiO2 
 PCOD9163872
Probable space group: P 21/M
;
_chemical_formula_sum "Si O2"
_cell_formula_units_Z 32
_cell_length_a 24.713149
_cell_length_b 7.850724
_cell_length_c 14.850673
_cell_angle_alpha 90.000000
_cell_angle_beta 32.940208
_cell_angle_gamma 90.000000
_cell_volume 1566.729455
_symmetry_space_group_name_H-M "P 21/M"
_symmetry_group_IT_number 11
_symmetry_cell_setting 'monoclinic'
loop_
_space_group_symop_operation_xyz
x,y,z
-x,1/2+y,-z
-x,-y,-z
x,1/2-y,z
loop_
_atom_site_type_symbol
_atom_site_label
_atom_site_fract_x
_atom_site_fract_y
_atom_site_fract_z
Si Si1 0.886452 0.455136 0.178108
Si Si2 0.438644 0.544609 0.174384
Si Si3 0.787776 0.047881 0.500044
Si Si4 0.703505 0.458516 0.315062
Si Si5 0.909786 0.952530 0.504555
Si Si6 0.315645 0.545418 0.862728
Si Si7 0.487179 0.544641 0.303805
Si Si8 0.868523 0.044045 0.761526
O O1 0.881768 0.250000 0.186275
O O2 0.845447 0.519972 0.331650
O O3 0.808726 0.512820 0.210096
O O4 0.000000 0.500000 0.000000
O O5 0.435542 0.750000 0.182099
O O6 0.324514 0.480343 0.332020
O O7 0.487670 0.484370 0.199693
O O8 0.500000 0.500000 0.000000
O O9 0.777042 0.250000 0.500050
O O10 0.851059 0.022430 0.501588
O O11 0.702629 0.250000 0.315670
O O12 0.686347 0.517868 0.237110
O O13 0.613429 0.513092 0.505626
O O14 0.914099 0.750000 0.488289
O O15 0.023457 0.017509 0.355019
O O16 0.858312 0.993601 0.671620
O O17 0.306479 0.750000 0.870966
O O18 0.417046 0.506020 0.772868
O O19 0.221591 0.481092 0.051349
O O20 0.484101 0.750000 0.306333
O O21 0.869897 0.250000 0.762857
#
# Coordination Sequence:
#
# PCOD9163872 Si02
#       8
#     4   4   4   4   4   4   4   4
#     4  10  21  38  61  86 115 152 190 231 280 336
#     4  10  22  39  59  83 113 151 191 231 282 338
#     4  10  21  39  60  84 116 155 189 227 286 347
#     4   9  18  37  61  80 108 149 185 221 275 341
#     4  10  21  36  58  83 110 147 189 232 276 326
#     4  10  21  35  57  84 108 142 186 227 276 333
#     4  10  20  38  59  81 110 144 184 229 278 332
#     4   9  20  38  55  79 113 148 183 226 281 338
#
# _framework density 20.424714000000002
#
# number of rings (size 3 to 8) (size 9 to 14) (size 15 to 20)
#    0.000    2.250    1.250    0.750    3.500    2.500 
#    0.000    1.250    0.000    0.000    0.000    0.000 
#    0.000    0.000    0.000    0.000    0.000    0.000 
#
# Total GULP energy -178702.752050 kJ/mol
# GULP energy per Si atom -5584.461002 kJ/mol
# Density = 2.037823 g / cm^3
# Si number density = 20.424714 Si / 1000 Ang^3
#
#
#
# Elastic Constant Matrix: (Units=GPa)
#
#
# Indices 1 2 3 4 5 6 
#
# 1 203.1120 0.9773 113.4201 0.0000 11.2056 0.0000
# 2 0.9773 20.7392 9.0119 0.0000 0.6410 0.0000
# 3 113.4201 9.0119 182.1679 0.0000 18.1832 0.0000
# 4 0.0000 0.0000 0.0000 4.7304 0.0000 -32.4009
# 5 11.2056 0.6410 18.1832 0.0000 17.4748 0.0000
# 6 0.0000 0.0000 0.0000 -32.4009 0.0000 -16.3544
#
#
#
# Elastic Compliance Matrix: (Units=1/GPa)
#
#
# Indices 1 2 3 4 5 6 
#
# 1 0.007608 0.001738 -0.004831 0.000000 0.000085 0.000000
# 2 0.001738 0.049685 -0.003623 0.000000 0.000833 0.000000
# 3 -0.004831 -0.003623 0.009323 0.000000 -0.006469 0.000000
# 4 0.000000 0.000000 0.000000 0.014509 0.000000 -0.028745
# 5 0.000085 0.000833 -0.006469 0.000000 0.063872 0.000000
# 6 0.000000 0.000000 0.000000 -0.028745 0.000000 -0.004197
#
#
# Mechanical properties :
#
#
# Convention : Reuss Voigt Hill
#
# Bulk Modulus (GPa) = 18.80319 72.53752 45.67036
# Shear Modulus (GPa) = 29.07645 20.01082 24.54363
#
# Velocity S-wave (km/s) = 3.77714 3.13347 3.47026
# Velocity P-wave (km/s) = 5.31493 6.97733 6.20208
#
# Compressibility (1/GPa) = 0.05318246
#
# Stress axis : x y z
#
# Youngs Moduli (GPa) = 131.43521 20.12694 107.26628
#
# Poissons Ratio (x) = -0.03499 0.51826
# Poissons Ratio (y) = -0.22848 0.38867
# Poissons Ratio (z) = 0.63503 0.07293
#
# Static dielectric constant tensor:
#      x y z
#    x 1.696940 0.000000 0.002220 
#    y 0.000000 1.753650 0.000000 
#    z 0.002220 0.000000 1.708160 
# 
# From -- ./inp_files/55586.got.cif
#   From: 2010.05.17/outbox.cif.g08.bks.cpg/sg11_28_cif.got.tgz:55586.got - 2010.06.03 12:22:45.
