data_PCOD9163403
_publ_section_title
;
Structure prediction by ZEFSAII (Michael W. Deem and Ramdas Pophale) SiO2 
 PCOD9163403
Probable space group: P 21/M
;
_chemical_formula_sum "Si O2"
_cell_formula_units_Z 32
_cell_length_a 12.451075
_cell_length_b 14.762239
_cell_length_c 18.415412
_cell_angle_alpha 90.000000
_cell_angle_beta 26.998801
_cell_angle_gamma 90.000000
_cell_volume 1536.630498
_symmetry_space_group_name_H-M "P 21/M"
_symmetry_group_IT_number 11
_symmetry_cell_setting 'monoclinic'
loop_
_space_group_symop_operation_xyz
x,y,z
-x,1/2+y,-z
-x,-y,-z
x,1/2-y,z
loop_
_atom_site_type_symbol
_atom_site_label
_atom_site_fract_x
_atom_site_fract_y
_atom_site_fract_z
Si Si1 0.660445 0.025584 0.236791
Si Si2 0.675890 0.533716 0.809384
Si Si3 0.124204 0.061528 0.027840
Si Si4 0.165639 0.552274 0.140069
Si Si5 0.496391 0.357073 0.581938
Si Si6 0.312530 0.355787 0.530916
Si Si7 0.571191 0.347996 0.789966
Si Si8 0.888101 0.147834 0.457244
O O1 0.427482 0.079831 0.400577
O O2 0.886782 0.081879 0.127811
O O3 0.660263 0.929317 0.279546
O O4 0.709454 0.001013 0.124159
O O5 0.757349 0.515534 0.842573
O O6 0.642970 0.435328 0.793102
O O7 0.898456 0.586494 0.644317
O O8 0.425870 0.586519 0.958094
O O9 0.062507 0.005015 0.136063
O O10 0.289597 0.144227 0.949844
O O11 0.961675 0.619107 0.289795
O O12 0.443540 0.250000 0.627661
O O13 0.455037 0.372262 0.521180
O O14 0.755508 0.374494 0.461151
O O15 0.335274 0.250000 0.499139
O O16 0.637810 0.250000 0.781517
O O17 0.689470 0.354177 0.639404
O O18 0.977444 0.250000 0.395974
#
# Coordination Sequence:
#
# PCOD9163403 Si02
#       8
#     4   4   4   4   4   4   4   4
#     4  11  21  38  64  93 128 162 211 251 309 383
#     4  10  22  39  63  88 120 165 215 258 313 367
#     4  10  22  37  62  94 122 165 201 259 319 364
#     4  10  22  41  61  86 123 161 210 254 313 369
#     4  10  20  36  63  96 124 161 206 253 311 371
#     4  11  24  40  62  92 128 170 208 253 311 378
#     4  10  21  39  62  92 125 160 210 263 315 370
#     4  10  20  36  62  93 123 160 208 260 311 371
#
# _framework density 20.824784000000001
#
# number of rings (size 3 to 8) (size 9 to 14) (size 15 to 20)
#    0.000    1.750    2.500    1.500    1.750    1.500 
#    0.000    7.500    0.000    0.000    0.000    0.000 
#    0.000    0.000    0.000    0.000    0.000    0.000 
#
# Total GULP energy -178472.959625 kJ/mol
# GULP energy per Si atom -5577.279988 kJ/mol
# Density = 2.077739 g / cm^3
# Si number density = 20.824784 Si / 1000 Ang^3
#
#
#
# Elastic Constant Matrix: (Units=GPa)
#
#
# Indices 1 2 3 4 5 6 
#
# 1 59.2756 16.5918 9.0981 0.0000 -5.0962 0.0000
# 2 16.5918 69.1461 36.9834 0.0000 -15.9126 0.0000
# 3 9.0981 36.9834 68.5133 0.0000 -18.9728 0.0000
# 4 0.0000 0.0000 0.0000 14.0301 0.0000 -8.2252
# 5 -5.0962 -15.9126 -18.9728 0.0000 33.4701 0.0000
# 6 0.0000 0.0000 0.0000 -8.2252 0.0000 19.3967
#
#
#
# Elastic Compliance Matrix: (Units=1/GPa)
#
#
# Indices 1 2 3 4 5 6 
#
# 1 0.018103 -0.004206 0.000090 0.000000 0.000808 0.000000
# 2 -0.004206 0.021792 -0.010098 0.000000 0.003996 0.000000
# 3 0.000090 -0.010098 0.022193 0.000000 0.007793 0.000000
# 4 0.000000 0.000000 0.000000 0.094857 0.000000 0.040224
# 5 0.000808 0.003996 0.007793 0.000000 0.036318 0.000000
# 6 0.000000 0.000000 0.000000 0.040224 0.000000 0.068612
#
#
# Mechanical properties :
#
#
# Convention : Reuss Voigt Hill
#
# Bulk Modulus (GPa) = 29.70920 35.80907 32.75913
# Shear Modulus (GPa) = 16.58242 22.33016 19.45629
#
# Velocity S-wave (km/s) = 2.82491 3.27813 3.05992
# Velocity P-wave (km/s) = 4.99374 5.61791 5.31499
#
# Compressibility (1/GPa) = 0.03365961
#
# Stress axis : x y z
#
# Youngs Moduli (GPa) = 55.23842 45.88802 45.05970
#
# Poissons Ratio (x) = 0.19302 -0.00407
# Poissons Ratio (y) = 0.23235 0.45503
# Poissons Ratio (z) = -0.00499 0.46339
#
# Static dielectric constant tensor:
#      x y z
#    x 1.749540 0.000000 -0.006660 
#    y 0.000000 1.749640 0.000000 
#    z -0.006660 0.000000 1.793670 
# 
# From -- ./inp_files/59469.got.cif
#   From: 2010.05.17/outbox.cif.g08.bks.cpg/sg11_30_cif.got.tgz:59469.got - 2010.06.03 12:22:45.
