data_PCOD9163224
_publ_section_title
;
Structure prediction by ZEFSAII (Michael W. Deem and Ramdas Pophale) SiO2 
 PCOD9163224
Probable space group: P 21/M
;
_chemical_formula_sum "Si O2"
_cell_formula_units_Z 28
_cell_length_a 5.469684
_cell_length_b 9.974271
_cell_length_c 30.214586
_cell_angle_alpha 90.000000
_cell_angle_beta 51.419263
_cell_angle_gamma 90.000000
_cell_volume 1288.596437
_symmetry_space_group_name_H-M "P 21/M"
_symmetry_group_IT_number 11
_symmetry_cell_setting 'monoclinic'
loop_
_space_group_symop_operation_xyz
x,y,z
-x,1/2+y,-z
-x,-y,-z
x,1/2-y,z
loop_
_atom_site_type_symbol
_atom_site_label
_atom_site_fract_x
_atom_site_fract_y
_atom_site_fract_z
Si Si1 0.268348 0.914059 0.056713
Si Si2 0.546177 0.910183 0.119707
Si Si3 0.805064 0.599218 0.335775
Si Si4 0.508472 0.100701 0.774957
Si Si5 0.602281 0.401013 0.282872
Si Si6 0.015248 0.977900 0.601948
Si Si7 0.697187 0.250000 0.490741
Si Si8 0.944815 0.250000 0.562930
O O1 0.302893 0.750000 0.048331
O O2 0.357952 0.953651 0.097342
O O3 0.912418 0.949507 0.082802
O O4 0.500000 0.000000 0.000000
O O5 0.547427 0.750000 0.115846
O O6 0.410080 0.937374 0.183947
O O7 0.684409 0.750000 0.343260
O O8 0.180692 0.615729 0.289234
O O9 0.735173 0.537368 0.391456
O O10 0.739792 0.492759 0.305636
O O11 0.351376 0.250000 0.793215
O O12 0.337583 0.980719 0.769348
O O13 0.720394 0.250000 0.268308
O O14 0.237846 0.399804 0.339471
O O15 0.161068 0.880225 0.549711
O O16 0.865334 0.109212 0.596104
O O17 0.326034 0.250000 0.523473
O O18 0.815686 0.250000 0.527806
#
# Coordination Sequence:
#
# PCOD9163224 Si02
#       8
#     4   4   4   4   4   4   2   2
#     4  10  20  36  59  89 123 169 217 261 313 368
#     4   9  19  35  62  90 125 162 211 269 312 367
#     4  10  22  38  65  92 121 162 212 259 304 385
#     4   9  20  39  61  93 119 160 214 262 321 368
#     4  11  24  39  63  91 127 166 204 254 318 396
#     4  11  25  43  65  92 127 165 208 255 318 373
#     4  12  28  46  68  98 130 164 206 256 325 372
#     4  12  28  46  70  96 126 164 214 264 301 376
#
# _framework density 21.729068000000002
#
# number of rings (size 3 to 8) (size 9 to 14) (size 15 to 20)
#    0.000    1.714    1.429    1.714    9.000    0.571 
#    0.000    1.429    0.000    0.000    0.000    0.000 
#    0.000    0.000    0.000    0.000    0.000    0.000 
#
# Total GULP energy -156249.352145 kJ/mol
# GULP energy per Si atom -5580.334005 kJ/mol
# Density = 2.167961 g / cm^3
# Si number density = 21.729068 Si / 1000 Ang^3
#
#
#
# Elastic Constant Matrix: (Units=GPa)
#
#
# Indices 1 2 3 4 5 6 
#
# 1 87.5521 33.3263 18.9781 0.0000 27.4267 0.0000
# 2 33.3263 145.6554 29.3227 0.0000 25.0609 0.0000
# 3 18.9781 29.3227 80.8656 0.0000 25.3440 0.0000
# 4 0.0000 0.0000 0.0000 27.6329 0.0000 -3.4886
# 5 27.4267 25.0609 25.3440 0.0000 43.8648 0.0000
# 6 0.0000 0.0000 0.0000 -3.4886 0.0000 16.7928
#
#
#
# Elastic Compliance Matrix: (Units=1/GPa)
#
#
# Indices 1 2 3 4 5 6 
#
# 1 0.014704 -0.001948 -0.000259 0.000000 -0.007931 0.000000
# 2 -0.001948 0.008070 -0.001717 0.000000 -0.002401 0.000000
# 3 -0.000259 -0.001717 0.015498 0.000000 -0.007812 0.000000
# 4 0.000000 0.000000 0.000000 0.037163 0.000000 0.007720
# 5 -0.007931 -0.002401 -0.007812 0.000000 0.033642 0.000000
# 6 0.000000 0.000000 0.000000 0.007720 0.000000 0.061153
#
#
# Mechanical properties :
#
#
# Convention : Reuss Voigt Hill
#
# Bulk Modulus (GPa) = 32.86743 53.03638 42.95190
# Shear Modulus (GPa) = 26.56507 33.15450 29.85978
#
# Velocity S-wave (km/s) = 3.50030 3.91040 3.71102
# Velocity P-wave (km/s) = 5.61204 6.69697 6.17837
#
# Compressibility (1/GPa) = 0.03042526
#
# Stress axis : x y z
#
# Youngs Moduli (GPa) = 68.00964 123.91881 64.52592
#
# Poissons Ratio (x) = 0.24133 0.01670
# Poissons Ratio (y) = 0.13245 0.11077
# Poissons Ratio (z) = 0.01760 0.21273
#
# Static dielectric constant tensor:
#      x y z
#    x 1.920940 0.000000 -0.052750 
#    y 0.000000 1.807690 0.000000 
#    z -0.052750 0.000000 1.811470 
# 
# From -- ./inp_files/9654.got.cif
#   From: 2010.05.17/outbox.cif.g08.bks.cpg/sg11_5_cif.got.tgz:9654.got - 2010.06.03 12:22:45.
