data_PCOD9163120
_publ_section_title
;
Structure prediction by ZEFSAII (Michael W. Deem and Ramdas Pophale) SiO2 
 PCOD9163120
Probable space group: P 21/M
;
_chemical_formula_sum "Si O2"
_cell_formula_units_Z 24
_cell_length_a 12.804186
_cell_length_b 15.565624
_cell_length_c 10.286661
_cell_angle_alpha 90.000000
_cell_angle_beta 146.181088
_cell_angle_gamma 90.000000
_cell_volume 1141.070907
_symmetry_space_group_name_H-M "P 21/M"
_symmetry_group_IT_number 11
_symmetry_cell_setting 'monoclinic'
loop_
_space_group_symop_operation_xyz
x,y,z
-x,1/2+y,-z
-x,-y,-z
x,1/2-y,z
loop_
_atom_site_type_symbol
_atom_site_label
_atom_site_fract_x
_atom_site_fract_y
_atom_site_fract_z
Si Si1 0.981732 0.944312 0.787986
Si Si2 0.740004 0.522268 0.106131
Si Si3 0.303128 0.548092 0.325935
Si Si4 0.857811 0.844405 0.431468
Si Si5 0.470875 0.653918 0.712543
Si Si6 0.290332 0.655601 0.808661
O O1 0.891220 0.865183 0.617074
O O2 0.057254 0.005081 0.748948
O O3 0.171154 0.928157 0.066940
O O4 0.827653 0.987239 0.719813
O O5 0.750762 0.580284 0.246231
O O6 0.655127 0.429121 0.053421
O O7 0.624728 0.579745 0.886643
O O8 0.500000 0.500000 0.500000
O O9 0.349739 0.630675 0.461860
O O10 0.774436 0.750000 0.324320
O O11 0.065194 0.844178 0.583842
O O12 0.550129 0.750000 0.785424
O O13 0.354639 0.648424 0.726489
O O14 0.350594 0.750000 0.921492
#
# Coordination Sequence:
#
# PCOD9163120 Si02
#       6
#     4   4   4   4   4   4
#     4  10  22  39  65  87 116 164 209 248 314 357
#     4  11  19  36  61  89 125 161 196 253 309 370
#     4  11  22  42  63  85 117 162 214 257 301 360
#     4  10  20  36  58  90 125 156 198 247 307 373
#     4  11  22  36  58  91 124 161 206 250 303 365
#     4   9  19  34  56  86 119 156 198 246 306 366
#
# _framework density 21.032872000000001
#
# number of rings (size 3 to 8) (size 9 to 14) (size 15 to 20)
#    0.000    1.667    1.667    5.000    0.000    0.667 
#    0.000    1.667    0.000    0.000    0.000    0.000 
#    0.000    0.000    0.000    0.000    0.000    0.000 
#
# Total GULP energy -133937.987511 kJ/mol
# GULP energy per Si atom -5580.749480 kJ/mol
# Density = 2.098500 g / cm^3
# Si number density = 21.032872 Si / 1000 Ang^3
#
#
#
# Elastic Constant Matrix: (Units=GPa)
#
#
# Indices 1 2 3 4 5 6 
#
# 1 76.7446 25.5440 20.9143 0.0000 4.4035 0.0000
# 2 25.5440 151.3546 46.8404 0.0000 -14.5861 0.0000
# 3 20.9143 46.8404 89.6711 0.0000 -11.2443 0.0000
# 4 0.0000 0.0000 0.0000 4.3318 0.0000 -8.2558
# 5 4.4035 -14.5861 -11.2443 0.0000 39.1756 0.0000
# 6 0.0000 0.0000 0.0000 -8.2558 0.0000 22.0040
#
#
#
# Elastic Compliance Matrix: (Units=1/GPa)
#
#
# Indices 1 2 3 4 5 6 
#
# 1 0.014610 -0.001900 -0.002811 0.000000 -0.003156 0.000000
# 2 -0.001900 0.008255 -0.003586 0.000000 0.002258 0.000000
# 3 -0.002811 -0.003586 0.014059 0.000000 0.003016 0.000000
# 4 0.000000 0.000000 0.000000 0.810167 0.000000 0.303971
# 5 -0.003156 0.002258 0.003016 0.000000 0.027587 0.000000
# 6 0.000000 0.000000 0.000000 0.303971 0.000000 0.159495
#
#
# Mechanical properties :
#
#
# Convention : Reuss Voigt Hill
#
# Bulk Modulus (GPa) = 49.18777 56.04089 52.61433
# Shear Modulus (GPa) = 4.72795 28.06706 16.39750
#
# Velocity S-wave (km/s) = 1.50092 3.65696 2.79518
# Velocity P-wave (km/s) = 5.14204 6.67334 5.95710
#
# Compressibility (1/GPa) = 0.02033026
#
# Stress axis : x y z
#
# Youngs Moduli (GPa) = 68.44751 121.13926 71.13041
#
# Poissons Ratio (x) = 0.23016 0.19993
# Poissons Ratio (y) = 0.13005 0.25506
# Poissons Ratio (z) = 0.19239 0.43438
#
# Static dielectric constant tensor:
#      x y z
#    x 1.747190 0.000000 -0.004440 
#    y 0.000000 1.786890 0.000000 
#    z -0.004440 0.000000 1.794070 
# 
# From -- ./inp_files/39704.got.cif
#   From: 2010.05.17/outbox.cif.g08.bks.cpg/sg11_20_cif.got.tgz:39704.got - 2010.06.03 12:22:45.
