data_PCOD9163413
_publ_section_title
;
Structure prediction by ZEFSAII (Michael W. Deem and Ramdas Pophale) SiO2 
 PCOD9163413
Probable space group: P 21/M
;
_chemical_formula_sum "Si O2"
_cell_formula_units_Z 26
_cell_length_a 7.853897
_cell_length_b 12.026947
_cell_length_c 12.765855
_cell_angle_alpha 90.000000
_cell_angle_beta 118.512133
_cell_angle_gamma 90.000000
_cell_volume 1059.592961
_symmetry_space_group_name_H-M "P 21/M"
_symmetry_group_IT_number 11
_symmetry_cell_setting 'monoclinic'
loop_
_space_group_symop_operation_xyz
x,y,z
-x,1/2+y,-z
-x,-y,-z
x,1/2-y,z
loop_
_atom_site_type_symbol
_atom_site_label
_atom_site_fract_x
_atom_site_fract_y
_atom_site_fract_z
Si Si1 0.284691 0.378276 0.231329
Si Si2 0.676702 0.250000 0.790520
Si Si3 0.267378 0.970895 0.057062
Si Si4 0.258935 0.250000 0.751023
Si Si5 0.717076 0.997259 0.169714
Si Si6 0.817653 0.250000 0.587893
Si Si7 0.046354 0.378531 0.379346
Si Si8 0.360289 0.972204 0.555270
O O1 0.333454 0.250000 0.226002
O O2 0.175144 0.432750 0.100977
O O3 0.163439 0.383183 0.303278
O O4 0.479900 0.449988 0.309585
O O5 0.736606 0.358707 0.875011
O O6 0.441080 0.250000 0.725284
O O7 0.754585 0.250000 0.693584
O O8 0.488485 0.017005 0.108023
O O9 0.207747 0.958096 0.919539
O O10 0.268443 0.363587 0.819997
O O11 0.046015 0.250000 0.643683
O O12 0.850353 0.052839 0.298620
O O13 0.737651 0.357594 0.506814
O O14 0.005266 0.250000 0.389647
O O15 0.192143 0.435024 0.505544
O O16 0.500000 0.000000 0.500000
#
# Coordination Sequence:
#
# PCOD9163413 Si02
#       8
#     4   2   4   2   4   2   4   4
#     4  10  21  39  59  90 124 155 206 257 300 371
#     4  10  22  40  60  93 128 159 210 260 303 380
#     4  10  23  40  61  87 121 165 205 253 317 369
#     4  10  22  40  63  93 125 157 218 263 301 376
#     4  10  22  41  62  84 122 165 203 258 315 368
#     4  12  20  40  71  88 119 176 202 249 328 364
#     4  10  21  37  60  90 123 155 199 255 308 368
#     4  10  20  36  63  88 121 160 208 247 307 376
#
# _framework density 24.537724000000001
#
# number of rings (size 3 to 8) (size 9 to 14) (size 15 to 20)
#    0.000    1.846    2.308    1.846    3.231    1.231 
#    1.385    0.769    6.769    0.000    0.000    0.000 
#    0.000    0.000    0.000    0.000    0.000    0.000 
#
# Total GULP energy -145468.471488 kJ/mol
# GULP energy per Si atom -5594.941211 kJ/mol
# Density = 2.448188 g / cm^3
# Si number density = 24.537724 Si / 1000 Ang^3
#
#
#
# Elastic Constant Matrix: (Units=GPa)
#
#
# Indices 1 2 3 4 5 6 
#
# 1 91.0444 20.4687 24.2348 0.0000 1.9881 0.0000
# 2 20.4687 110.9924 17.1774 0.0000 -5.5461 0.0000
# 3 24.2348 17.1774 96.0595 0.0000 -22.1145 0.0000
# 4 0.0000 0.0000 0.0000 24.4618 0.0000 -2.1437
# 5 1.9881 -5.5461 -22.1145 0.0000 48.1734 0.0000
# 6 0.0000 0.0000 0.0000 -2.1437 0.0000 27.8113
#
#
#
# Elastic Compliance Matrix: (Units=1/GPa)
#
#
# Indices 1 2 3 4 5 6 
#
# 1 0.012330 -0.001876 -0.003290 0.000000 -0.002235 0.000000
# 2 -0.001876 0.009557 -0.001078 0.000000 0.000683 0.000000
# 3 -0.003290 -0.001078 0.012787 0.000000 0.005882 0.000000
# 4 0.000000 0.000000 0.000000 0.041158 0.000000 0.003172
# 5 -0.002235 0.000683 0.005882 0.000000 0.023629 0.000000
# 6 0.000000 0.000000 0.000000 0.003172 0.000000 0.036201
#
#
# Mechanical properties :
#
#
# Convention : Reuss Voigt Hill
#
# Bulk Modulus (GPa) = 45.07610 46.87313 45.97461
# Shear Modulus (GPa) = 32.14482 35.83700 33.99091
#
# Velocity S-wave (km/s) = 3.62334 3.82578 3.72593
# Velocity P-wave (km/s) = 5.99290 6.21767 6.10632
#
# Compressibility (1/GPa) = 0.02218470
#
# Stress axis : x y z
#
# Youngs Moduli (GPa) = 81.10306 104.63905 78.20401
#
# Poissons Ratio (x) = 0.19634 0.25727
# Poissons Ratio (y) = 0.15218 0.08433
# Poissons Ratio (z) = 0.26681 0.11284
#
# Static dielectric constant tensor:
#      x y z
#    x 1.930670 0.000000 -0.041610 
#    y 0.000000 2.053150 0.000000 
#    z -0.041610 0.000000 1.915060 
# 
# From -- ./inp_files/46905.got.cif
#   From: 2010.05.17/outbox.cif.g08.bks.cpg/sg11_24_cif.got.tgz:46905.got - 2010.06.03 12:22:45.
