data_PCOD9163915
_publ_section_title
;
Structure prediction by ZEFSAII (Michael W. Deem and Ramdas Pophale) SiO2 
 PCOD9163915
Probable space group: P 21/M
;
_chemical_formula_sum "Si O2"
_cell_formula_units_Z 32
_cell_length_a 29.109986
_cell_length_b 7.708501
_cell_length_c 12.703669
_cell_angle_alpha 90.000000
_cell_angle_beta 30.554193
_cell_angle_gamma 90.000000
_cell_volume 1449.127437
_symmetry_space_group_name_H-M "P 21/M"
_symmetry_group_IT_number 11
_symmetry_cell_setting 'monoclinic'
loop_
_space_group_symop_operation_xyz
x,y,z
-x,1/2+y,-z
-x,-y,-z
x,1/2-y,z
loop_
_atom_site_type_symbol
_atom_site_label
_atom_site_fract_x
_atom_site_fract_y
_atom_site_fract_z
Si Si1 0.712630 0.451955 0.446710
Si Si2 0.470181 0.455690 0.441144
Si Si3 0.319428 0.038643 0.260745
Si Si4 0.283310 0.462429 0.888829
Si Si5 0.243340 0.047221 0.190311
Si Si6 0.861321 0.956252 0.984008
Si Si7 0.039723 0.542541 0.537619
Si Si8 0.489036 0.950081 0.179778
O O1 0.705602 0.250000 0.434144
O O2 0.728774 0.476596 0.538730
O O3 0.795963 0.517534 0.212345
O O4 0.611249 0.531354 0.630251
O O5 0.500000 0.500000 0.500000
O O6 0.476992 0.250000 0.412905
O O7 0.365438 0.511729 0.651861
O O8 0.515231 0.543199 0.252008
O O9 0.319994 0.250000 0.261312
O O10 0.271543 0.976422 0.247960
O O11 0.424297 0.976482 0.052012
O O12 0.132129 0.250000 0.042594
O O13 0.193038 0.524062 0.010528
O O14 0.292252 0.527857 0.990068
O O15 0.283069 0.250000 0.893083
O O16 0.137372 0.034268 0.371584
O O17 0.732526 0.750000 0.853200
O O18 0.963813 0.019519 0.771711
O O19 0.050475 0.750000 0.522350
O O20 0.000000 0.500000 0.500000
O O21 0.481119 0.750000 0.162973
#
# Coordination Sequence:
#
# PCOD9163915 Si02
#       8
#     4   4   4   4   4   4   4   4
#     4  11  23  38  60  89 120 149 194 255 290 323
#     4  11  21  33  52  79 115 156 193 235 284 343
#     4  10  22  40  62  83 115 162 199 232 287 358
#     4   9  17  33  56  80 111 151 188 226 280 348
#     4  10  20  38  61  86 116 152 196 240 286 345
#     4  10  20  38  61  84 113 152 193 228 282 356
#     4  11  22  37  61  90 119 152 189 236 290 351
#     4  10  21  38  58  84 115 152 198 243 286 339
#
# _framework density 22.082255
#
# number of rings (size 3 to 8) (size 9 to 14) (size 15 to 20)
#    0.000    1.750    2.500    2.250    0.000    4.500 
#    0.000    3.125    0.000    0.000    0.000    0.000 
#    0.000    0.000    0.000    0.000    0.000    0.000 
#
# Total GULP energy -178662.684022 kJ/mol
# GULP energy per Si atom -5583.208876 kJ/mol
# Density = 2.203200 g / cm^3
# Si number density = 22.082255 Si / 1000 Ang^3
#
#
#
# Elastic Constant Matrix: (Units=GPa)
#
#
# Indices 1 2 3 4 5 6 
#
# 1 78.3704 -7.2225 30.0489 0.0000 21.1608 0.0000
# 2 -7.2225 48.3611 -8.8050 0.0000 -1.4717 0.0000
# 3 30.0489 -8.8050 116.8811 0.0000 17.6561 0.0000
# 4 0.0000 0.0000 0.0000 17.1294 0.0000 1.9415
# 5 21.1608 -1.4717 17.6561 0.0000 36.5175 0.0000
# 6 0.0000 0.0000 0.0000 1.9415 0.0000 20.6437
#
#
#
# Elastic Compliance Matrix: (Units=1/GPa)
#
#
# Indices 1 2 3 4 5 6 
#
# 1 0.016134 0.001654 -0.002828 0.000000 -0.007915 0.000000
# 2 0.001654 0.021135 0.001276 0.000000 -0.000724 0.000000
# 3 -0.002828 0.001276 0.009842 0.000000 -0.003069 0.000000
# 4 0.000000 0.000000 0.000000 0.059008 0.000000 -0.005550
# 5 -0.007915 -0.000724 -0.003069 0.000000 0.033425 0.000000
# 6 0.000000 0.000000 0.000000 -0.005550 0.000000 0.048963
#
#
# Mechanical properties :
#
#
# Convention : Reuss Voigt Hill
#
# Bulk Modulus (GPa) = 21.13434 30.18393 25.65913
# Shear Modulus (GPa) = 24.50086 30.16420 27.33253
#
# Velocity S-wave (km/s) = 3.33457 3.69994 3.52200
# Velocity P-wave (km/s) = 4.94139 5.65255 5.30889
#
# Compressibility (1/GPa) = 0.04731636
#
# Stress axis : x y z
#
# Youngs Moduli (GPa) = 61.98220 47.31463 101.60168
#
# Poissons Ratio (x) = -0.07825 0.28728
# Poissons Ratio (y) = -0.10251 -0.12968
# Poissons Ratio (z) = 0.17526 -0.06039
#
# Static dielectric constant tensor:
#      x y z
#    x 1.856070 0.000000 -0.025160 
#    y 0.000000 1.799010 0.000000 
#    z -0.025160 0.000000 1.832970 
# 
# From -- ./inp_files/45146.got.cif
#   From: 2010.05.17/outbox.cif.g08.bks.cpg/sg11_23_cif.got.tgz:45146.got - 2010.06.03 12:22:45.
