data_PCOD9163908
_publ_section_title
;
Structure prediction by ZEFSAII (Michael W. Deem and Ramdas Pophale) SiO2 
 PCOD9163908
Probable space group: P 21/M
;
_chemical_formula_sum "Si O2"
_cell_formula_units_Z 22
_cell_length_a 21.310225
_cell_length_b 12.761414
_cell_length_c 9.292519
_cell_angle_alpha 90.000000
_cell_angle_beta 25.957130
_cell_angle_gamma 90.000000
_cell_volume 1106.102503
_symmetry_space_group_name_H-M "P 21/M"
_symmetry_group_IT_number 11
_symmetry_cell_setting 'monoclinic'
loop_
_space_group_symop_operation_xyz
x,y,z
-x,1/2+y,-z
-x,-y,-z
x,1/2-y,z
loop_
_atom_site_type_symbol
_atom_site_label
_atom_site_fract_x
_atom_site_fract_y
_atom_site_fract_z
Si Si1 0.775063 0.750000 0.147605
Si Si2 0.404684 0.368129 0.915679
Si Si3 0.454915 0.750000 0.867590
Si Si4 0.050688 0.456196 0.241286
Si Si5 0.264595 0.869537 0.787404
Si Si6 0.666690 0.750000 0.675455
Si Si7 0.262112 0.576045 0.128691
O O1 0.605016 0.750000 0.469870
O O2 0.778827 0.750000 0.315462
O O3 0.854176 0.853402 0.932579
O O4 0.400170 0.250000 0.859495
O O5 0.571841 0.394422 0.592022
O O6 0.330367 0.348927 0.223873
O O7 0.326500 0.459166 0.991993
O O8 0.513379 0.750000 0.909768
O O9 0.363316 0.648788 0.015921
O O10 0.000000 0.500000 0.500000
O O11 0.900189 0.427708 0.478284
O O12 0.150224 0.545977 0.967884
O O13 0.231104 0.750000 0.815375
O O14 0.262089 0.878024 0.967115
#
# Coordination Sequence:
#
# PCOD9163908 Si02
#       7
#     2   4   2   4   4   2   4
#     4  10  21  43  59  85 121 161 209 230 308 363
#     4   9  20  39  60  88 118 156 208 257 283 354
#     4  10  21  36  67  83 114 165 210 249 289 350
#     4  10  23  37  61  90 126 164 184 247 311 375
#     4  10  20  38  60  91 128 154 198 246 314 363
#     4   8  22  41  62  86 113 174 203 251 293 345
#     4  11  20  37  61  94 121 150 204 250 311 352
#
# _framework density 19.889658000000001
#
# number of rings (size 3 to 8) (size 9 to 14) (size 15 to 20)
#    1.091    1.091    0.909    2.182    3.818    2.909 
#    4.909    0.909    4.000    0.000    0.000    0.000 
#    0.000    0.000    0.000    0.000    0.000    0.000 
#
# Total GULP energy -122594.226805 kJ/mol
# GULP energy per Si atom -5572.464855 kJ/mol
# Density = 1.984439 g / cm^3
# Si number density = 19.889658 Si / 1000 Ang^3
#
#
#
# Elastic Constant Matrix: (Units=GPa)
#
#
# Indices 1 2 3 4 5 6 
#
# 1 -29.5721 15.1762 114.9304 0.0000 17.9879 0.0000
# 2 15.1762 117.1925 60.5584 0.0000 -30.6576 0.0000
# 3 114.9304 60.5584 -119.1946 0.0000 -63.5327 0.0000
# 4 0.0000 0.0000 0.0000 28.6438 0.0000 -11.1899
# 5 17.9879 -30.6576 -63.5327 0.0000 29.3905 0.0000
# 6 0.0000 0.0000 0.0000 -11.1899 0.0000 1.3241
#
#
#
# Elastic Compliance Matrix: (Units=1/GPa)
#
#
# Indices 1 2 3 4 5 6 
#
# 1 0.024549 -0.008778 0.014915 0.000000 0.008060 0.000000
# 2 -0.008778 0.014856 -0.005594 0.000000 0.008777 0.000000
# 3 0.014915 -0.005594 0.005169 0.000000 -0.003789 0.000000
# 4 0.000000 0.000000 0.000000 -0.015169 0.000000 -0.128197
# 5 0.008060 0.008777 -0.003789 0.000000 0.030056 0.000000
# 6 0.000000 0.000000 0.000000 -0.128197 0.000000 -0.328159
#
#
# Mechanical properties :
#
#
# Convention : Reuss Voigt Hill
#
# Bulk Modulus (GPa) = 21.90010 38.86176 30.38093
# Shear Modulus (GPa) = -19.64147 -2.94427 -11.29287
#
# Velocity S-wave (km/s) = -3.14590 -1.21800 -2.38539
# Velocity P-wave (km/s) = 1.46998 4.19560 2.77869
#
# Compressibility (1/GPa) = 0.04566189
#
# Stress axis : x y z
#
# Youngs Moduli (GPa) = 40.73426 67.31155 193.44551
#
# Poissons Ratio (x) = 0.59084 -2.88526
# Poissons Ratio (y) = 0.35756 1.08212
# Poissons Ratio (z) = -0.60756 0.37654
#
# Static dielectric constant tensor:
#      x y z
#    x 1.713920 0.000000 -0.009500 
#    y 0.000000 1.696590 0.000000 
#    z -0.009500 0.000000 1.716270 
# 
# From -- ./inp_files/44752.got.cif
#   From: 2010.05.17/outbox.cif.g08.bks.cpg/sg11_23_cif.got.tgz:44752.got - 2010.06.03 12:22:45.
