data_PCOD9163386
_publ_section_title
;
Structure prediction by ZEFSAII (Michael W. Deem and Ramdas Pophale) SiO2 
 PCOD9163386
Probable space group: P 21/M
;
_chemical_formula_sum "Si O2"
_cell_formula_units_Z 32
_cell_length_a 11.888548
_cell_length_b 14.891051
_cell_length_c 15.174352
_cell_angle_alpha 90.000000
_cell_angle_beta 41.969710
_cell_angle_gamma 90.000000
_cell_volume 1796.470501
_symmetry_space_group_name_H-M "P 21/M"
_symmetry_group_IT_number 11
_symmetry_cell_setting 'monoclinic'
loop_
_space_group_symop_operation_xyz
x,y,z
-x,1/2+y,-z
-x,-y,-z
x,1/2-y,z
loop_
_atom_site_type_symbol
_atom_site_label
_atom_site_fract_x
_atom_site_fract_y
_atom_site_fract_z
Si Si1 0.912789 0.914865 0.594385
Si Si2 0.298431 0.008501 0.606038
Si Si3 0.807504 0.515152 0.136019
Si Si4 0.470606 0.141445 0.784054
Si Si5 0.255573 0.346743 0.479849
Si Si6 0.607287 0.146963 0.172860
Si Si7 0.444142 0.015597 0.132199
Si Si8 0.221388 0.852562 0.531136
O O1 0.859385 0.858370 0.539595
O O2 0.746324 0.948105 0.743096
O O3 0.050758 0.869098 0.575913
O O4 0.000000 0.000000 0.500000
O O5 0.229773 0.914315 0.611215
O O6 0.500000 0.000000 0.500000
O O7 0.219611 0.033238 0.745076
O O8 0.248872 0.077069 0.557148
O O9 0.702561 0.594243 0.147605
O O10 0.726501 0.419747 0.156439
O O11 0.000000 0.500000 0.000000
O O12 0.457670 0.250000 0.806741
O O13 0.616310 0.126747 0.625283
O O14 0.530764 0.078671 0.830174
O O15 0.223686 0.250000 0.539918
O O16 0.440297 0.349402 0.329836
O O17 0.662668 0.250000 0.125355
O O18 0.557425 0.092372 0.113556
O O19 0.500000 0.000000 0.000000
O O20 0.233344 0.750000 0.549781
#
# Coordination Sequence:
#
# PCOD9163386 Si02
#       8
#     4   4   4   4   4   4   4   4
#     4  11  19  38  62  85 122 155 191 240 296 345
#     4  12  21  38  61  87 116 151 199 246 289 346
#     4  11  24  40  58  82 117 157 196 240 297 355
#     4  10  21  40  60  84 119 159 195 240 306 361
#     4  10  20  36  62  90 114 150 197 243 293 345
#     4   9  19  38  60  81 113 154 193 236 292 350
#     4  10  21  37  61  89 118 157 194 238 293 353
#     4  11  22  37  63  94 119 153 201 252 300 348
#
# _framework density 17.812705999999999
#
# number of rings (size 3 to 8) (size 9 to 14) (size 15 to 20)
#    0.000    1.500    5.000    1.125    0.000    5.000 
#    0.000    1.250    0.000    0.000    0.000    0.000 
#    0.000    0.000    0.000    0.000    0.000    0.000 
#
# Total GULP energy -178414.322147 kJ/mol
# GULP energy per Si atom -5575.447567 kJ/mol
# Density = 1.777216 g / cm^3
# Si number density = 17.812706 Si / 1000 Ang^3
#
#
#
# Elastic Constant Matrix: (Units=GPa)
#
#
# Indices 1 2 3 4 5 6 
#
# 1 78.7237 24.8286 29.2271 0.0000 -10.0229 0.0000
# 2 24.8286 108.4835 15.5477 0.0000 3.3661 0.0000
# 3 29.2271 15.5477 62.2248 0.0000 7.0602 0.0000
# 4 0.0000 0.0000 0.0000 8.6367 0.0000 -6.3882
# 5 -10.0229 3.3661 7.0602 0.0000 30.9746 0.0000
# 6 0.0000 0.0000 0.0000 -6.3882 0.0000 6.0427
#
#
#
# Elastic Compliance Matrix: (Units=1/GPa)
#
#
# Indices 1 2 3 4 5 6 
#
# 1 0.017883 -0.003120 -0.008536 0.000000 0.008072 0.000000
# 2 -0.003120 0.010112 -0.000844 0.000000 -0.001916 0.000000
# 3 -0.008536 -0.000844 0.021141 0.000000 -0.007489 0.000000
# 4 0.000000 0.000000 0.000000 0.531022 0.000000 0.561388
# 5 0.008072 -0.001916 -0.007489 0.000000 0.036812 0.000000
# 6 0.000000 0.000000 0.000000 0.561388 0.000000 0.758981
#
#
# Mechanical properties :
#
#
# Convention : Reuss Voigt Hill
#
# Bulk Modulus (GPa) = 41.43068 43.18210 42.30639
# Shear Modulus (GPa) = 3.54863 21.11938 12.33400
#
# Velocity S-wave (km/s) = 1.41298 3.44704 2.63426
# Velocity P-wave (km/s) = 5.09623 6.33543 5.74932
#
# Compressibility (1/GPa) = 0.02413670
#
# Stress axis : x y z
#
# Youngs Moduli (GPa) = 55.91755 98.88787 47.30188
#
# Poissons Ratio (x) = 0.30853 0.40378
# Poissons Ratio (y) = 0.17446 0.03992
# Poissons Ratio (z) = 0.47732 0.08345
#
# Static dielectric constant tensor:
#      x y z
#    x 1.388960 0.000000 0.034920 
#    y 0.000000 1.655010 0.000000 
#    z 0.034920 0.000000 1.570580 
# 
# From -- ./inp_files/39679.got.cif
#   From: 2010.05.17/outbox.cif.g08.bks.cpg/sg11_20_cif.got.tgz:39679.got - 2010.06.03 12:22:45.
