data_PCOD9163482
_publ_section_title
;
Structure prediction by ZEFSAII (Michael W. Deem and Ramdas Pophale) SiO2 
 PCOD9163482
Probable space group: P 21/M
;
_chemical_formula_sum "Si O2"
_cell_formula_units_Z 32
_cell_length_a 13.282480
_cell_length_b 18.687214
_cell_length_c 14.957903
_cell_angle_alpha 90.000000
_cell_angle_beta 27.378140
_cell_angle_gamma 90.000000
_cell_volume 1707.344046
_symmetry_space_group_name_H-M "P 21/M"
_symmetry_group_IT_number 11
_symmetry_cell_setting 'monoclinic'
loop_
_space_group_symop_operation_xyz
x,y,z
-x,1/2+y,-z
-x,-y,-z
x,1/2-y,z
loop_
_atom_site_type_symbol
_atom_site_label
_atom_site_fract_x
_atom_site_fract_y
_atom_site_fract_z
Si Si1 0.196446 0.579961 0.803890
Si Si2 0.304225 0.079961 0.196110
Si Si3 0.970282 0.949706 0.163671
Si Si4 0.953994 0.334460 0.583365
Si Si5 0.797625 0.050294 0.836329
Si Si6 0.754086 0.834734 0.111622
Si Si7 0.477330 0.165266 0.888378
Si Si8 0.620725 0.834460 0.416635
O O1 0.409064 0.627881 0.624557
O O2 0.197158 0.509010 0.742496
O O3 0.980467 0.623178 0.942997
O O4 0.149611 0.558624 0.943503
O O5 0.158178 0.127881 0.375443
O O6 0.182151 0.009010 0.257504
O O7 0.536617 0.058624 0.056497
O O8 0.366462 0.123178 0.057003
O O9 0.080141 0.970593 0.169859
O O10 0.837324 0.875911 0.277948
O O11 0.988194 0.250000 0.569362
O O12 0.893220 0.375911 0.722052
O O13 0.738115 0.344311 0.691501
O O14 0.801130 0.750000 0.066645
O O15 0.619404 0.857452 0.130596
O O16 0.621116 0.844311 0.308499
O O17 0.434419 0.250000 0.933356
O O18 0.626918 0.750000 0.430638
#
# Coordination Sequence:
#
# PCOD9163482 Si02
#       8
#     4   4   4   4   4   4   4   4
#     4  10  20  37  58  80 108 146 187 228 276 327
#     4  10  20  37  58  80 108 146 187 228 276 327
#     4  10  22  38  56  81 111 143 183 230 276 325
#     4  10  21  37  56  81 113 146 183 226 273 328
#     4  10  22  38  56  81 111 143 183 230 276 325
#     4   9  18  32  52  81 113 143 181 231 281 328
#     4   9  18  32  52  81 113 143 181 231 281 328
#     4  10  21  37  56  81 113 146 183 226 273 328
#
# _framework density 18.742560999999998
#
# number of rings (size 3 to 8) (size 9 to 14) (size 15 to 20)
#    0.000    2.250    0.000    2.250    0.000    4.500 
#    0.000    2.500    0.000    0.000    0.000    0.000 
#    0.000    0.000    0.000    0.000    0.000    0.000 
#
# Total GULP energy -178632.361141 kJ/mol
# GULP energy per Si atom -5582.261286 kJ/mol
# Density = 1.869990 g / cm^3
# Si number density = 18.742561 Si / 1000 Ang^3
#
#
#
# Elastic Constant Matrix: (Units=GPa)
#
#
# Indices 1 2 3 4 5 6 
#
# 1 60.0170 19.7756 16.8356 0.0000 -2.5819 0.0000
# 2 19.7756 87.6773 35.0854 0.0000 1.1114 0.0000
# 3 16.8356 35.0854 56.8485 0.0000 2.3519 0.0000
# 4 0.0000 0.0000 0.0000 42.4409 0.0000 1.6282
# 5 -2.5819 1.1114 2.3519 0.0000 4.1653 0.0000
# 6 0.0000 0.0000 0.0000 1.6282 0.0000 20.0113
#
#
#
# Elastic Compliance Matrix: (Units=1/GPa)
#
#
# Indices 1 2 3 4 5 6 
#
# 1 0.019558 -0.002700 -0.004768 0.000000 0.015536 0.000000
# 2 -0.002700 0.015525 -0.008746 0.000000 -0.000878 0.000000
# 3 -0.004768 -0.008746 0.025010 0.000000 -0.014744 0.000000
# 4 0.000000 0.000000 0.000000 0.023636 0.000000 -0.001923
# 5 0.015536 -0.000878 -0.014744 0.000000 0.258266 0.000000
# 6 0.000000 0.000000 0.000000 -0.001923 0.000000 0.050128
#
#
# Mechanical properties :
#
#
# Convention : Reuss Voigt Hill
#
# Bulk Modulus (GPa) = 36.14687 38.65954 37.40321
# Shear Modulus (GPa) = 11.52676 22.17992 16.85334
#
# Velocity S-wave (km/s) = 2.48262 3.44379 3.00192
# Velocity P-wave (km/s) = 5.24840 6.04022 5.65818
#
# Compressibility (1/GPa) = 0.02766491
#
# Stress axis : x y z
#
# Youngs Moduli (GPa) = 51.13120 64.41060 39.98327
#
# Poissons Ratio (x) = 0.17391 0.19065
# Poissons Ratio (y) = 0.13806 0.34969
# Poissons Ratio (z) = 0.24381 0.56333
#
# Static dielectric constant tensor:
#      x y z
#    x 1.619120 0.000000 0.000140 
#    y 0.000000 1.672610 0.000000 
#    z 0.000140 0.000000 1.621000 
# 
# From -- ./inp_files/50663.got.cif
#   From: 2010.05.17/outbox.cif.g08.bks.cpg/sg11_26_cif.got.tgz:50663.got - 2010.06.03 12:22:45.
