data_PCOD9163004
_publ_section_title
;
Structure prediction by ZEFSAII (Michael W. Deem and Ramdas Pophale) SiO2 
 PCOD9163004
Probable space group: P 21/M
;
_chemical_formula_sum "Si O2"
_cell_formula_units_Z 28
_cell_length_a 15.659142
_cell_length_b 9.023080
_cell_length_c 12.149563
_cell_angle_alpha 90.000000
_cell_angle_beta 119.230639
_cell_angle_gamma 90.000000
_cell_volume 1498.059384
_symmetry_space_group_name_H-M "P 21/M"
_symmetry_group_IT_number 11
_symmetry_cell_setting 'monoclinic'
loop_
_space_group_symop_operation_xyz
x,y,z
-x,1/2+y,-z
-x,-y,-z
x,1/2-y,z
loop_
_atom_site_type_symbol
_atom_site_label
_atom_site_fract_x
_atom_site_fract_y
_atom_site_fract_z
Si Si1 0.608581 0.430467 0.080637
Si Si2 0.504022 0.922204 0.620088
Si Si3 0.689652 0.419682 0.749165
Si Si4 0.193603 0.073430 0.369880
Si Si5 0.993686 0.430517 0.118481
Si Si6 0.696671 0.422673 0.372880
Si Si7 0.784946 0.078362 0.039285
O O1 0.597130 0.250000 0.068926
O O2 0.661310 0.469466 0.229569
O O3 0.689005 0.481287 0.040714
O O4 0.500000 0.500000 0.000000
O O5 0.528991 0.750000 0.624620
O O6 0.402053 0.934582 0.617320
O O7 0.500000 0.000000 0.500000
O O8 0.591119 0.008537 0.733971
O O9 0.671702 0.250000 0.704457
O O10 0.729727 0.508726 0.670652
O O11 0.765392 0.423063 0.896431
O O12 0.201532 0.250000 0.377711
O O13 0.087950 0.033198 0.252367
O O14 0.221138 0.009608 0.506884
O O15 0.989671 0.250000 0.104566
O O16 0.894364 0.483718 0.117120
O O17 0.000000 0.500000 0.000000
O O18 0.725309 0.250000 0.384978
O O19 0.790005 0.250000 0.079386
#
# Coordination Sequence:
#
# PCOD9163004 Si02
#       7
#     4   4   4   4   4   4   4
#     4  10  21  40  63  86 112 151 193 236 283 338
#     4  11  21  32  48  75 109 145 183 228 280 338
#     4  11  20  32  53  80 111 146 182 228 284 343
#     4  11  22  34  54  82 113 147 185 232 285 337
#     4  10  20  36  57  85 116 150 189 235 286 344
#     4  10  22  38  56  78 112 152 190 232 283 339
#     4   9  19  36  59  83 112 149 189 231 288 345
#
# _framework density 18.690847999999999
#
# number of rings (size 3 to 8) (size 9 to 14) (size 15 to 20)
#    0.000    1.714    2.857    2.143    0.000    1.714 
#    0.000    2.143    0.000    0.000    0.000    0.000 
#    0.000    0.000    0.000    0.000    0.000    0.000 
#
# Total GULP energy -156108.747253 kJ/mol
# GULP energy per Si atom -5575.312402 kJ/mol
# Density = 1.864831 g / cm^3
# Si number density = 18.690848 Si / 1000 Ang^3
#
#
#
# Elastic Constant Matrix: (Units=GPa)
#
#
# Indices 1 2 3 4 5 6 
#
# 1 99.0413 25.8159 52.5533 0.0000 15.0559 0.0000
# 2 25.8159 40.9905 43.0517 0.0000 13.8268 0.0000
# 3 52.5533 43.0517 131.0613 0.0000 13.4510 0.0000
# 4 0.0000 0.0000 0.0000 26.4419 0.0000 4.6852
# 5 15.0559 13.8268 13.4510 0.0000 36.9290 0.0000
# 6 0.0000 0.0000 0.0000 4.6852 0.0000 17.8067
#
#
#
# Elastic Compliance Matrix: (Units=1/GPa)
#
#
# Indices 1 2 3 4 5 6 
#
# 1 0.013538 -0.003332 -0.004047 0.000000 -0.002798 0.000000
# 2 -0.003332 0.041873 -0.011374 0.000000 -0.010177 0.000000
# 3 -0.004047 -0.011374 0.012863 0.000000 0.001223 0.000000
# 4 0.000000 0.000000 0.000000 0.039668 0.000000 -0.010437
# 5 -0.002798 -0.010177 0.001223 0.000000 0.031584 0.000000
# 6 0.000000 0.000000 0.000000 -0.010437 0.000000 0.058905
#
#
# Mechanical properties :
#
#
# Convention : Reuss Voigt Hill
#
# Bulk Modulus (GPa) = 32.50088 57.10385 44.80237
# Shear Modulus (GPa) = 20.30914 26.21367 23.26141
#
# Velocity S-wave (km/s) = 3.29991 3.74904 3.53162
# Velocity P-wave (km/s) = 5.65205 7.02556 6.37590
#
# Compressibility (1/GPa) = 0.03076839
#
# Stress axis : x y z
#
# Youngs Moduli (GPa) = 73.86633 23.88154 77.73999
#
# Poissons Ratio (x) = 0.07958 0.31459
# Poissons Ratio (y) = 0.24614 0.88423
# Poissons Ratio (z) = 0.29892 0.27163
#
# Static dielectric constant tensor:
#      x y z
#    x 1.665180 0.000000 0.024020 
#    y 0.000000 1.646220 0.000000 
#    z 0.024020 0.000000 1.683230 
# 
# From -- ./inp_files/38435.got.cif
#   From: 2010.05.17/outbox.cif.g08.bks.cpg/sg11_20_cif.got.tgz:38435.got - 2010.06.03 12:22:45.
