data_PCOD9163755
_publ_section_title
;
Structure prediction by ZEFSAII (Michael W. Deem and Ramdas Pophale) SiO2 
 PCOD9163755
Probable space group: P 21/M
;
_chemical_formula_sum "Si O2"
_cell_formula_units_Z 28
_cell_length_a 9.791833
_cell_length_b 8.608952
_cell_length_c 27.888026
_cell_angle_alpha 90.000000
_cell_angle_beta 40.459620
_cell_angle_gamma 90.000000
_cell_volume 1525.519809
_symmetry_space_group_name_H-M "P 21/M"
_symmetry_group_IT_number 11
_symmetry_cell_setting 'monoclinic'
loop_
_space_group_symop_operation_xyz
x,y,z
-x,1/2+y,-z
-x,-y,-z
x,1/2-y,z
loop_
_atom_site_type_symbol
_atom_site_label
_atom_site_fract_x
_atom_site_fract_y
_atom_site_fract_z
Si Si1 0.723197 0.073561 0.451272
Si Si2 0.355278 0.937635 0.081064
Si Si3 0.881038 0.067418 0.205528
Si Si4 0.475814 0.937739 0.261496
Si Si5 0.060652 0.934377 0.431684
Si Si6 0.032031 0.923577 0.713089
Si Si7 0.398441 0.570526 0.175328
O O1 0.702406 0.250000 0.475130
O O2 0.838228 0.077634 0.369568
O O3 0.500000 0.000000 0.500000
O O4 0.867887 0.977248 0.448490
O O5 0.351610 0.750000 0.082453
O O6 0.445194 0.992254 0.109284
O O7 0.116353 0.998359 0.137746
O O8 0.500000 0.000000 0.000000
O O9 0.886254 0.250000 0.192118
O O10 0.833697 0.051449 0.275008
O O11 0.697028 0.985873 0.225318
O O12 0.460326 0.750000 0.263676
O O13 0.276538 0.992223 0.347450
O O14 0.466795 0.997172 0.208576
O O15 0.081919 0.750000 0.430542
O O16 0.000000 0.000000 0.500000
O O17 0.932620 0.750000 0.745283
O O18 0.853755 0.052548 0.756618
O O19 0.464893 0.750000 0.157480
#
# Coordination Sequence:
#
# PCOD9163755 Si02
#       7
#     4   4   4   4   4   4   4
#     4  11  23  38  56  81 111 149 194 243 296 349
#     4  10  20  37  62  89 118 150 184 230 281 338
#     4  10  21  36  57  86 116 149 189 232 280 337
#     4  10  21  38  58  83 114 150 191 236 286 342
#     4  11  24  41  59  82 115 155 198 247 300 352
#     4   9  19  35  54  78 107 141 185 235 282 332
#     4   9  18  35  59  83 109 145 186 227 277 334
#
# _framework density 18.354398
#
# number of rings (size 3 to 8) (size 9 to 14) (size 15 to 20)
#    0.000    2.000    1.429    1.714    2.000    3.429 
#    0.000    0.714    0.000    0.000    0.000    0.000 
#    0.000    0.000    0.000    0.000    0.000    0.000 
#
# Total GULP energy -156015.382762 kJ/mol
# GULP energy per Si atom -5571.977956 kJ/mol
# Density = 1.831262 g / cm^3
# Si number density = 18.354398 Si / 1000 Ang^3
#
#
#
# Elastic Constant Matrix: (Units=GPa)
#
#
# Indices 1 2 3 4 5 6 
#
# 1 151.7060 15.1534 70.9219 0.0000 19.1658 0.0000
# 2 15.1534 26.4327 20.7794 0.0000 10.3999 0.0000
# 3 70.9219 20.7794 98.4226 0.0000 25.2961 0.0000
# 4 0.0000 0.0000 0.0000 24.5536 0.0000 -1.9858
# 5 19.1658 10.3999 25.2961 0.0000 28.0981 0.0000
# 6 0.0000 0.0000 0.0000 -1.9858 0.0000 27.1687
#
#
#
# Elastic Compliance Matrix: (Units=1/GPa)
#
#
# Indices 1 2 3 4 5 6 
#
# 1 0.009944 0.000019 -0.007058 0.000000 -0.000436 0.000000
# 2 0.000019 0.047938 -0.007248 0.000000 -0.011231 0.000000
# 3 -0.007058 -0.007248 0.019320 0.000000 -0.009896 0.000000
# 4 0.000000 0.000000 0.000000 0.040969 0.000000 0.002995
# 5 -0.000436 -0.011231 -0.009896 0.000000 0.048953 0.000000
# 6 0.000000 0.000000 0.000000 0.002995 0.000000 0.037026
#
#
# Mechanical properties :
#
#
# Convention : Reuss Voigt Hill
#
# Bulk Modulus (GPa) = 20.56416 54.47453 37.51934
# Shear Modulus (GPa) = 20.08573 27.27786 23.68179
#
# Velocity S-wave (km/s) = 3.31165 3.85928 3.59590
# Velocity P-wave (km/s) = 5.08439 7.04290 6.14221
#
# Compressibility (1/GPa) = 0.04862829
#
# Stress axis : x y z
#
# Youngs Moduli (GPa) = 100.55989 20.86043 51.76100
#
# Poissons Ratio (x) = -0.00039 0.36531
# Poissons Ratio (y) = -0.00190 0.37516
# Poissons Ratio (z) = 0.70971 0.15119
#
# Static dielectric constant tensor:
#      x y z
#    x 1.652250 0.000000 0.022390 
#    y 0.000000 1.658340 0.000000 
#    z 0.022390 0.000000 1.639020 
# 
# From -- ./inp_files/28469.got.cif
#   From: 2010.05.17/outbox.cif.g08.bks.cpg/sg11_15_cif.got.tgz:28469.got - 2010.06.03 12:22:45.
