data_PCOD9163967
_publ_section_title
;
Structure prediction by ZEFSAII (Michael W. Deem and Ramdas Pophale) SiO2 
 PCOD9163967
Probable space group: P 21/M
;
_chemical_formula_sum "Si O2"
_cell_formula_units_Z 28
_cell_length_a 11.191858
_cell_length_b 7.822637
_cell_length_c 14.509234
_cell_angle_alpha 90.000000
_cell_angle_beta 80.263024
_cell_angle_gamma 90.000000
_cell_volume 1251.982153
_symmetry_space_group_name_H-M "P 21/M"
_symmetry_group_IT_number 11
_symmetry_cell_setting 'monoclinic'
loop_
_space_group_symop_operation_xyz
x,y,z
-x,1/2+y,-z
-x,-y,-z
x,1/2-y,z
loop_
_atom_site_type_symbol
_atom_site_label
_atom_site_fract_x
_atom_site_fract_y
_atom_site_fract_z
Si Si1 0.932689 0.039525 0.229736
Si Si2 0.679102 0.053089 0.208199
Si Si3 0.542215 0.940061 0.394030
Si Si4 0.197417 0.043913 0.200802
Si Si5 0.890710 0.046015 0.445750
Si Si6 0.292700 0.052307 0.382723
Si Si7 0.463091 0.456590 0.108125
O O1 0.931808 0.250000 0.228891
O O2 0.814820 0.979264 0.188761
O O3 0.913142 0.986683 0.338934
O O4 0.067047 0.982198 0.182018
O O5 0.689916 0.250000 0.177958
O O6 0.570732 0.976920 0.160916
O O7 0.634149 0.047708 0.320430
O O8 0.591029 0.750000 0.393152
O O9 0.500000 0.000000 0.500000
O O10 0.413791 0.944978 0.357971
O O11 0.197206 0.250000 0.188236
O O12 0.203251 0.013110 0.310242
O O13 0.326162 0.979615 0.145790
O O14 0.879476 0.250000 0.444643
O O15 0.772167 0.974297 0.511689
O O16 0.000000 0.000000 0.500000
O O17 0.329657 0.250000 0.368403
O O18 0.458074 0.250000 0.121603
O O19 0.500000 0.500000 0.000000
#
# Coordination Sequence:
#
# PCOD9163967 Si02
#       7
#     4   4   4   4   4   4   4
#     4   9  18  33  56  82 112 153 198 240 288 346
#     4  10  20  38  62  87 116 152 198 251 301 355
#     4  12  24  37  55  82 119 161 203 245 295 354
#     4   9  17  34  58  83 110 147 188 233 293 355
#     4  11  20  31  49  79 117 161 206 247 293 351
#     4  11  20  35  56  79 112 152 202 251 295 347
#     4  10  21  39  64  89 115 149 192 245 308 370
#
# _framework density 22.364535
#
# number of rings (size 3 to 8) (size 9 to 14) (size 15 to 20)
#    0.000    1.714    2.857    3.000    0.000    1.714 
#    0.000    1.429    0.000    0.000    0.000    0.000 
#    0.000    0.000    0.000    0.000    0.000    0.000 
#
# Total GULP energy -156337.938243 kJ/mol
# GULP energy per Si atom -5583.497794 kJ/mol
# Density = 2.231363 g / cm^3
# Si number density = 22.364535 Si / 1000 Ang^3
#
#
#
# Elastic Constant Matrix: (Units=GPa)
#
#
# Indices 1 2 3 4 5 6 
#
# 1 215.4217 6.6167 60.5828 0.0000 -20.2222 0.0000
# 2 6.6167 39.9702 -2.8786 0.0000 0.3413 0.0000
# 3 60.5828 -2.8786 85.9471 0.0000 -9.2885 0.0000
# 4 0.0000 0.0000 0.0000 20.2774 0.0000 -2.3535
# 5 -20.2222 0.3413 -9.2885 0.0000 25.7004 0.0000
# 6 0.0000 0.0000 0.0000 -2.3535 0.0000 13.5670
#
#
#
# Elastic Compliance Matrix: (Units=1/GPa)
#
#
# Indices 1 2 3 4 5 6 
#
# 1 0.006125 -0.001331 -0.003995 0.000000 0.003393 0.000000
# 2 -0.001331 0.025368 0.001705 0.000000 -0.000768 0.000000
# 3 -0.003995 0.001705 0.014742 0.000000 0.002162 0.000000
# 4 0.000000 0.000000 0.000000 0.050329 0.000000 0.008731
# 5 0.003393 -0.000768 0.002162 0.000000 0.042371 0.000000
# 6 0.000000 0.000000 0.000000 0.008731 0.000000 0.075223
#
#
# Mechanical properties :
#
#
# Convention : Reuss Voigt Hill
#
# Bulk Modulus (GPa) = 25.64592 52.22011 38.93301
# Shear Modulus (GPa) = 21.33115 30.37683 25.85399
#
# Velocity S-wave (km/s) = 3.09170 3.68945 3.40373
# Velocity P-wave (km/s) = 4.92311 6.44590 5.73527
#
# Compressibility (1/GPa) = 0.03899256
#
# Stress axis : x y z
#
# Youngs Moduli (GPa) = 163.26391 39.41942 67.83341
#
# Poissons Ratio (x) = 0.05245 0.27102
# Poissons Ratio (y) = 0.21725 -0.11563
# Poissons Ratio (z) = 0.65229 -0.06720
#
# Static dielectric constant tensor:
#      x y z
#    x 1.904280 0.000000 0.012790 
#    y 0.000000 1.800820 0.000000 
#    z 0.012790 0.000000 1.790210 
# 
# From -- ./inp_files/48916.got.cif
#   From: 2010.05.17/outbox.cif.g08.bks.cpg/sg11_25_cif.got.tgz:48916.got - 2010.06.03 12:22:45.
