data_PCOD9163511
_publ_section_title
;
Structure prediction by ZEFSAII (Michael W. Deem and Ramdas Pophale) SiO2 
 PCOD9163511
Probable space group: P 21/M
;
_chemical_formula_sum "Si O2"
_cell_formula_units_Z 24
_cell_length_a 10.602326
_cell_length_b 11.114748
_cell_length_c 10.586713
_cell_angle_alpha 90.000000
_cell_angle_beta 85.766162
_cell_angle_gamma 90.000000
_cell_volume 1244.156824
_symmetry_space_group_name_H-M "P 21/M"
_symmetry_group_IT_number 11
_symmetry_cell_setting 'monoclinic'
loop_
_space_group_symop_operation_xyz
x,y,z
-x,1/2+y,-z
-x,-y,-z
x,1/2-y,z
loop_
_atom_site_type_symbol
_atom_site_label
_atom_site_fract_x
_atom_site_fract_y
_atom_site_fract_z
Si Si1 0.057796 0.385928 0.319366
Si Si2 0.384640 0.617092 0.127886
Si Si3 0.753398 0.387403 0.331016
Si Si4 0.923060 0.879325 0.975148
Si Si5 0.777966 0.392328 0.611286
Si Si6 0.330676 0.049316 0.892144
O O1 0.083987 0.250000 0.370334
O O2 0.117090 0.502758 0.381962
O O3 0.906245 0.398450 0.321150
O O4 0.107255 0.385426 0.171445
O O5 0.342542 0.750000 0.094038
O O6 0.317120 0.589052 0.265248
O O7 0.535748 0.614451 0.132571
O O8 0.347348 0.531039 0.016673
O O9 0.722746 0.250000 0.299579
O O10 0.714639 0.408729 0.478974
O O11 0.694553 0.472914 0.231461
O O12 0.991178 0.750000 0.990302
O O13 0.796936 0.879457 0.067780
O O14 0.000000 0.000000 0.000000
O O15 0.821562 0.250000 0.611913
#
# Coordination Sequence:
#
# PCOD9163511 Si02
#       6
#     4   4   4   4   4   4
#     4  10  20  37  58  86 120 152 191 236 287 344
#     4  10  22  38  58  82 112 150 195 244 285 337
#     4  10  21  37  59  85 117 153 191 239 290 342
#     4  11  22  36  59  89 119 150 189 241 291 344
#     4  10  21  39  60  86 117 153 196 236 284 342
#     4  11  21  38  58  83 115 151 194 236 289 345
#
# _framework density 19.290171999999998
#
# number of rings (size 3 to 8) (size 9 to 14) (size 15 to 20)
#    0.000    1.667    3.333    1.500    0.000    2.000 
#    0.000    2.500    0.000    0.000    0.000    0.000 
#    0.000    0.000    0.000    0.000    0.000    0.000 
#
# Total GULP energy -133805.953372 kJ/mol
# GULP energy per Si atom -5575.248057 kJ/mol
# Density = 1.924627 g / cm^3
# Si number density = 19.290172 Si / 1000 Ang^3
#
#
#
# Elastic Constant Matrix: (Units=GPa)
#
#
# Indices 1 2 3 4 5 6 
#
# 1 48.8692 39.2948 12.9287 0.0000 -3.4833 0.0000
# 2 39.2948 129.1750 56.7659 0.0000 11.8232 0.0000
# 3 12.9287 56.7659 100.1831 0.0000 -0.3834 0.0000
# 4 0.0000 0.0000 0.0000 6.7630 0.0000 -29.8962
# 5 -3.4833 11.8232 -0.3834 0.0000 22.4021 0.0000
# 6 0.0000 0.0000 0.0000 -29.8962 0.0000 -54.2709
#
#
#
# Elastic Compliance Matrix: (Units=1/GPa)
#
#
# Indices 1 2 3 4 5 6 
#
# 1 0.029373 -0.010970 0.002465 0.000000 0.010399 0.000000
# 2 -0.010970 0.015142 -0.007202 0.000000 -0.009821 0.000000
# 3 0.002465 -0.007202 0.013761 0.000000 0.004420 0.000000
# 4 0.000000 0.000000 0.000000 0.043044 0.000000 -0.023712
# 5 0.010399 -0.009821 0.004420 0.000000 0.051514 0.000000
# 6 0.000000 0.000000 0.000000 -0.023712 0.000000 -0.005364
#
#
# Mechanical properties :
#
#
# Convention : Reuss Voigt Hill
#
# Bulk Modulus (GPa) = 37.22656 55.13402 46.18029
# Shear Modulus (GPa) = 26.61852 6.26135 16.43993
#
# Velocity S-wave (km/s) = 3.71873 1.80359 2.92249
# Velocity P-wave (km/s) = 6.14644 5.74288 5.94808
#
# Compressibility (1/GPa) = 0.02686254
#
# Stress axis : x y z
#
# Youngs Moduli (GPa) = 34.04500 66.04009 72.66812
#
# Poissons Ratio (x) = 0.72448 -0.17915
# Poissons Ratio (y) = 0.37349 0.52334
# Poissons Ratio (z) = -0.08393 0.47561
#
# Static dielectric constant tensor:
#      x y z
#    x 1.667860 0.000000 -0.031820 
#    y 0.000000 1.711160 0.000000 
#    z -0.031820 0.000000 1.665880 
# 
# From -- ./inp_files/31140.got.cif
#   From: 2010.05.17/outbox.cif.g08.bks.cpg/sg11_16_cif.got.tgz:31140.got - 2010.06.03 12:22:45.
