data_PCOD9163976
_publ_section_title
;
Structure prediction by ZEFSAII (Michael W. Deem and Ramdas Pophale) SiO2 
 PCOD9163976
Probable space group: P 21/M
;
_chemical_formula_sum "Si O2"
_cell_formula_units_Z 32
_cell_length_a 14.853822
_cell_length_b 8.418924
_cell_length_c 12.827189
_cell_angle_alpha 90.000000
_cell_angle_beta 89.341096
_cell_angle_gamma 90.000000
_cell_volume 1603.974943
_symmetry_space_group_name_H-M "P 21/M"
_symmetry_group_IT_number 11
_symmetry_cell_setting 'monoclinic'
loop_
_space_group_symop_operation_xyz
x,y,z
-x,1/2+y,-z
-x,-y,-z
x,1/2-y,z
loop_
_atom_site_type_symbol
_atom_site_label
_atom_site_fract_x
_atom_site_fract_y
_atom_site_fract_z
Si Si1 0.268994 0.939952 0.178421
Si Si2 0.532917 0.941495 0.885306
Si Si3 0.211382 0.057970 0.619216
Si Si4 0.781256 0.057850 0.041203
Si Si5 0.646623 0.058515 0.213171
Si Si6 0.180041 0.061279 0.391283
Si Si7 0.992866 0.937293 0.331403
Si Si8 0.970884 0.439934 0.113086
O O1 0.263886 0.750000 0.180502
O O2 0.371163 0.990238 0.151187
O O3 0.229233 0.999519 0.287437
O O4 0.214253 0.001088 0.077093
O O5 0.537912 0.750000 0.889079
O O6 0.457055 0.987855 0.800390
O O7 0.500000 0.000000 0.000000
O O8 0.209928 0.250000 0.624755
O O9 0.224776 0.007127 0.499013
O O10 0.109217 0.002753 0.648734
O O11 0.290759 0.000884 0.693906
O O12 0.780067 0.250000 0.035219
O O13 0.693757 0.004955 0.104457
O O14 0.865289 0.017036 0.111927
O O15 0.649997 0.250000 0.216242
O O16 0.184317 0.250000 0.388578
O O17 0.074574 0.014223 0.393359
O O18 0.993949 0.750000 0.351033
O O19 0.014534 0.973311 0.209971
O O20 0.982251 0.250000 0.122172
O O21 0.000000 0.500000 0.000000
#
# Coordination Sequence:
#
# PCOD9163976 Si02
#       8
#     4   4   4   4   4   4   4   4
#     4  11  22  40  63  90 124 159 200 250 305 364
#     4  11  22  38  62  93 125 160 200 247 301 363
#     4  10  23  41  62  89 122 156 201 256 300 350
#     4   9  18  34  55  81 115 152 189 239 295 349
#     4  10  20  38  62  88 118 153 196 243 295 354
#     4  11  24  42  61  87 121 159 203 251 302 356
#     4  11  22  38  59  87 119 157 204 251 299 357
#     4  11  21  34  53  80 118 160 199 244 299 358
#
# _framework density 19.950436
#
# number of rings (size 3 to 8) (size 9 to 14) (size 15 to 20)
#    0.000    1.500    2.500    3.000    0.000    3.500 
#    0.000    2.500    0.000    0.000    0.000    0.000 
#    0.000    0.000    0.000    0.000    0.000    0.000 
#
# Total GULP energy -178639.479676 kJ/mol
# GULP energy per Si atom -5582.483740 kJ/mol
# Density = 1.990503 g / cm^3
# Si number density = 19.950436 Si / 1000 Ang^3
#
#
#
# Elastic Constant Matrix: (Units=GPa)
#
#
# Indices 1 2 3 4 5 6 
#
# 1 76.1159 13.4583 44.4970 0.0000 13.9332 0.0000
# 2 13.4583 32.5987 16.4934 0.0000 2.5188 0.0000
# 3 44.4970 16.4934 138.3957 0.0000 19.2199 0.0000
# 4 0.0000 0.0000 0.0000 26.0637 0.0000 1.9067
# 5 13.9332 2.5188 19.2199 0.0000 30.2265 0.0000
# 6 0.0000 0.0000 0.0000 1.9067 0.0000 30.0866
#
#
#
# Elastic Compliance Matrix: (Units=1/GPa)
#
#
# Indices 1 2 3 4 5 6 
#
# 1 0.017394 -0.004595 -0.004371 0.000000 -0.004856 0.000000
# 2 -0.004595 0.033860 -0.002699 0.000000 0.001012 0.000000
# 3 -0.004371 -0.002699 0.009478 0.000000 -0.003787 0.000000
# 4 0.000000 0.000000 0.000000 0.038546 0.000000 -0.002443
# 5 -0.004856 0.001012 -0.003787 0.000000 0.037646 0.000000
# 6 0.000000 0.000000 0.000000 -0.002443 0.000000 0.033392
#
#
# Mechanical properties :
#
#
# Convention : Reuss Voigt Hill
#
# Bulk Modulus (GPa) = 26.73436 44.00087 35.36762
# Shear Modulus (GPa) = 24.25851 28.78614 26.52233
#
# Velocity S-wave (km/s) = 3.49081 3.80265 3.65006
# Velocity P-wave (km/s) = 5.44768 6.43298 5.96072
#
# Compressibility (1/GPa) = 0.03740504
#
# Stress axis : x y z
#
# Youngs Moduli (GPa) = 57.49045 29.53329 105.50199
#
# Poissons Ratio (x) = 0.13569 0.46111
# Poissons Ratio (y) = 0.26415 0.28471
# Poissons Ratio (z) = 0.25127 0.07970
#
# Static dielectric constant tensor:
#      x y z
#    x 1.742290 0.000000 0.002130 
#    y 0.000000 1.681240 0.000000 
#    z 0.002130 0.000000 1.736550 
# 
# From -- ./inp_files/38227.got.cif
#   From: 2010.05.17/outbox.cif.g08.bks.cpg/sg11_20_cif.got.tgz:38227.got - 2010.06.03 12:22:45.
