data_PCOD9163939
_publ_section_title
;
Structure prediction by ZEFSAII (Michael W. Deem and Ramdas Pophale) SiO2 
 PCOD9163939
Probable space group: P 21/M
;
_chemical_formula_sum "Si O2"
_cell_formula_units_Z 28
_cell_length_a 12.384674
_cell_length_b 14.885466
_cell_length_c 8.850838
_cell_angle_alpha 90.000000
_cell_angle_beta 51.877185
_cell_angle_gamma 90.000000
_cell_volume 1283.614535
_symmetry_space_group_name_H-M "P 21/M"
_symmetry_group_IT_number 11
_symmetry_cell_setting 'monoclinic'
loop_
_space_group_symop_operation_xyz
x,y,z
-x,1/2+y,-z
-x,-y,-z
x,1/2-y,z
loop_
_atom_site_type_symbol
_atom_site_label
_atom_site_fract_x
_atom_site_fract_y
_atom_site_fract_z
Si Si1 0.810352 0.040093 0.740044
Si Si2 0.704568 0.649586 0.766229
Si Si3 0.335739 0.346522 0.844615
Si Si4 0.590175 0.352735 0.108388
Si Si5 0.078737 0.458710 0.070574
Si Si6 0.589514 0.089553 0.448358
Si Si7 0.153933 0.854879 0.588509
O O1 0.855065 0.108841 0.573809
O O2 0.794493 0.940345 0.682438
O O3 0.906543 0.027415 0.802584
O O4 0.667899 0.077431 0.933215
O O5 0.765709 0.750000 0.688555
O O6 0.573176 0.638999 0.772621
O O7 0.649695 0.649275 0.986786
O O8 0.273300 0.250000 0.859174
O O9 0.480800 0.353183 0.638828
O O10 0.229893 0.424970 0.895520
O O11 0.628130 0.250000 0.035326
O O12 0.623098 0.370790 0.254805
O O13 0.991156 0.375145 0.208072
O O14 0.000000 0.500000 0.000000
O O15 0.728243 0.088474 0.426240
O O16 0.500000 0.000000 0.500000
O O17 0.188453 0.750000 0.565142
#
# Coordination Sequence:
#
# PCOD9163939 Si02
#       7
#     4   4   4   4   4   4   4
#     4  11  22  40  63  89 123 169 216 263 318 391
#     4   9  19  35  59  88 122 160 203 256 319 382
#     4  10  20  38  61  87 118 158 202 251 313 381
#     4  11  21  35  57  92 130 162 202 260 320 379
#     4  11  24  43  64  89 124 168 215 269 325 381
#     4  12  23  38  63  94 127 163 208 262 318 379
#     4  12  25  43  66  95 131 174 218 265 323 393
#
# _framework density 21.813402
#
# number of rings (size 3 to 8) (size 9 to 14) (size 15 to 20)
#    0.000    1.143    0.000    8.143    0.000    1.714 
#    0.000    2.143    0.000    0.857    0.000    0.000 
#    0.000    0.000    0.000    0.000    0.000    0.000 
#
# Total GULP energy -156517.674967 kJ/mol
# GULP energy per Si atom -5589.916963 kJ/mol
# Density = 2.176375 g / cm^3
# Si number density = 21.813402 Si / 1000 Ang^3
#
#
#
# Elastic Constant Matrix: (Units=GPa)
#
#
# Indices 1 2 3 4 5 6 
#
# 1 90.0861 9.7589 -4.3604 0.0000 14.1799 0.0000
# 2 9.7589 82.6103 -2.1740 0.0000 7.0563 0.0000
# 3 -4.3604 -2.1740 42.4992 0.0000 -13.3462 0.0000
# 4 0.0000 0.0000 0.0000 17.5870 0.0000 -4.9212
# 5 14.1799 7.0563 -13.3462 0.0000 29.3416 0.0000
# 6 0.0000 0.0000 0.0000 -4.9212 0.0000 23.6634
#
#
#
# Elastic Compliance Matrix: (Units=1/GPa)
#
#
# Indices 1 2 3 4 5 6 
#
# 1 0.012103 -0.000941 -0.000667 0.000000 -0.005926 0.000000
# 2 -0.000941 0.012437 -0.000300 0.000000 -0.002672 0.000000
# 3 -0.000667 -0.000300 0.027498 0.000000 0.012902 0.000000
# 4 0.000000 0.000000 0.000000 0.060374 0.000000 0.012556
# 5 -0.005926 -0.002672 0.012902 0.000000 0.043457 0.000000
# 6 0.000000 0.000000 0.000000 0.012556 0.000000 0.044871
#
#
# Mechanical properties :
#
#
# Convention : Reuss Voigt Hill
#
# Bulk Modulus (GPa) = 20.73780 24.62717 22.68249
# Shear Modulus (GPa) = 22.66259 28.24980 25.45619
#
# Velocity S-wave (km/s) = 3.22674 3.60261 3.41984
# Velocity P-wave (km/s) = 4.83839 5.34972 5.10047
#
# Compressibility (1/GPa) = 0.04822112
#
# Stress axis : x y z
#
# Youngs Moduli (GPa) = 82.62451 80.40794 36.36654
#
# Poissons Ratio (x) = 0.07567 0.02427
# Poissons Ratio (y) = 0.07776 0.01089
# Poissons Ratio (z) = 0.05515 0.02409
#
# Static dielectric constant tensor:
#      x y z
#    x 1.779070 0.000000 -0.004690 
#    y 0.000000 1.849320 0.000000 
#    z -0.004690 0.000000 1.786580 
# 
# From -- ./inp_files/17940.got.cif
#   From: 2010.05.17/outbox.cif.g08.bks.cpg/sg11_9_cif.got.tgz:17940.got - 2010.06.03 12:22:45.
