data_PCOD9163547
_publ_section_title
;
Structure prediction by ZEFSAII (Michael W. Deem and Ramdas Pophale) SiO2 
 PCOD9163547
Probable space group: P 21/M
;
_chemical_formula_sum "Si O2"
_cell_formula_units_Z 32
_cell_length_a 14.757333
_cell_length_b 8.135502
_cell_length_c 22.672114
_cell_angle_alpha 90.000000
_cell_angle_beta 31.655805
_cell_angle_gamma 90.000000
_cell_volume 1428.534305
_symmetry_space_group_name_H-M "P 21/M"
_symmetry_group_IT_number 11
_symmetry_cell_setting 'monoclinic'
loop_
_space_group_symop_operation_xyz
x,y,z
-x,1/2+y,-z
-x,-y,-z
x,1/2-y,z
loop_
_atom_site_type_symbol
_atom_site_label
_atom_site_fract_x
_atom_site_fract_y
_atom_site_fract_z
Si Si1 0.013607 0.448499 0.678503
Si Si2 0.539907 0.550101 0.843801
Si Si3 0.627846 0.557495 0.480015
Si Si4 0.994340 0.940895 0.867308
Si Si5 0.740597 0.446452 0.100802
Si Si6 0.074634 0.446453 0.396170
Si Si7 0.348780 0.055182 0.718183
Si Si8 0.269666 0.941492 0.082858
O O1 0.007598 0.250000 0.687336
O O2 0.179319 0.513917 0.622439
O O3 0.034695 0.492106 0.598770
O O4 0.831969 0.515158 0.805102
O O5 0.544915 0.750000 0.845481
O O6 0.415925 0.512522 0.857188
O O7 0.731073 0.489736 0.724024
O O8 0.441773 0.486708 0.957163
O O9 0.500000 0.500000 0.500000
O O10 0.649233 0.750000 0.459792
O O11 0.525305 0.523003 0.597165
O O12 0.982848 0.750000 0.857520
O O13 0.877324 0.044571 0.886948
O O14 0.190836 0.996776 0.764331
O O15 0.907158 0.968576 0.979705
O O16 0.766881 0.250000 0.085522
O O17 0.695311 0.503058 0.191126
O O18 0.079824 0.250000 0.392332
O O19 0.000000 0.500000 0.500000
O O20 0.362320 0.250000 0.706541
O O21 0.305061 0.750000 0.075126
#
# Coordination Sequence:
#
# PCOD9163547 Si02
#       8
#     4   4   4   4   4   4   4   4
#     4  10  23  42  65  93 125 163 206 256 317 381
#     4   8  18  37  62  89 120 158 200 250 311 368
#     4  11  24  42  63  90 124 162 206 257 316 376
#     4  11  21  35  56  87 123 160 202 253 312 370
#     4  10  20  37  59  84 117 159 203 254 314 373
#     4  11  24  42  64  92 126 167 211 260 313 371
#     4  12  24  37  55  82 117 159 209 258 307 371
#     4   9  18  38  65  90 120 160 203 252 313 376
#
# _framework density 22.400580999999999
#
# number of rings (size 3 to 8) (size 9 to 14) (size 15 to 20)
#    0.000    1.750    0.000    5.250    1.750    3.000 
#    0.000    5.625    0.000    0.000    0.000    0.000 
#    0.000    0.000    0.000    0.000    0.000    0.000 
#
# Total GULP energy -178912.995145 kJ/mol
# GULP energy per Si atom -5591.031098 kJ/mol
# Density = 2.234960 g / cm^3
# Si number density = 22.400581 Si / 1000 Ang^3
#
#
#
# Elastic Constant Matrix: (Units=GPa)
#
#
# Indices 1 2 3 4 5 6 
#
# 1 72.9147 7.2584 53.5747 0.0000 10.0471 0.0000
# 2 7.2584 35.0765 -5.3101 0.0000 -11.1291 0.0000
# 3 53.5747 -5.3101 142.6437 0.0000 -0.9437 0.0000
# 4 0.0000 0.0000 0.0000 24.3942 0.0000 5.5530
# 5 10.0471 -11.1291 -0.9437 0.0000 41.7851 0.0000
# 6 0.0000 0.0000 0.0000 5.5530 0.0000 22.4797
#
#
#
# Elastic Compliance Matrix: (Units=1/GPa)
#
#
# Indices 1 2 3 4 5 6 
#
# 1 0.021899 -0.008261 -0.008583 0.000000 -0.007660 0.000000
# 2 -0.008261 0.034469 0.004460 0.000000 0.011268 0.000000
# 3 -0.008583 0.004460 0.010423 0.000000 0.003487 0.000000
# 4 0.000000 0.000000 0.000000 0.043436 0.000000 -0.010730
# 5 -0.007660 0.011268 0.003487 0.000000 0.028853 0.000000
# 6 0.000000 0.000000 0.000000 -0.010730 0.000000 0.047135
#
#
# Mechanical properties :
#
#
# Convention : Reuss Voigt Hill
#
# Bulk Modulus (GPa) = 23.79625 40.18675 31.99150
# Shear Modulus (GPa) = 22.22312 30.73929 26.48121
#
# Velocity S-wave (km/s) = 3.15314 3.70841 3.44199
# Velocity P-wave (km/s) = 4.88902 6.02623 5.48717
#
# Compressibility (1/GPa) = 0.04202343
#
# Stress axis : x y z
#
# Youngs Moduli (GPa) = 45.66419 29.01170 95.93910
#
# Poissons Ratio (x) = 0.23967 0.82346
# Poissons Ratio (y) = 0.37724 -0.42793
# Poissons Ratio (z) = 0.39194 -0.12941
#
# Static dielectric constant tensor:
#      x y z
#    x 1.840320 0.000000 -0.000380 
#    y 0.000000 1.784400 0.000000 
#    z -0.000380 0.000000 1.845680 
# 
# From -- ./inp_files/68999.got.cif
#   From: 2010.05.17/outbox.cif.g08.bks.cpg/sg11_35_cif.got.tgz:68999.got - 2010.06.03 12:22:45.
