data_PCOD9163218
_publ_section_title
;
Structure prediction by ZEFSAII (Michael W. Deem and Ramdas Pophale) SiO2 
 PCOD9163218
Probable space group: P 21/M
;
_chemical_formula_sum "Si O2"
_cell_formula_units_Z 32
_cell_length_a 21.389079
_cell_length_b 14.674729
_cell_length_c 15.027370
_cell_angle_alpha 90.000000
_cell_angle_beta 20.112608
_cell_angle_gamma 90.000000
_cell_volume 1621.940110
_symmetry_space_group_name_H-M "P 21/M"
_symmetry_group_IT_number 11
_symmetry_cell_setting 'monoclinic'
loop_
_space_group_symop_operation_xyz
x,y,z
-x,1/2+y,-z
-x,-y,-z
x,1/2-y,z
loop_
_atom_site_type_symbol
_atom_site_label
_atom_site_fract_x
_atom_site_fract_y
_atom_site_fract_z
Si Si1 0.271395 0.643353 0.008928
Si Si2 0.550186 0.521074 0.332636
Si Si3 0.557267 0.601907 0.946982
Si Si4 0.605594 0.852233 0.680982
Si Si5 0.206332 0.467034 0.719327
Si Si6 0.182784 0.354868 0.931731
Si Si7 0.842962 0.352420 0.499805
Si Si8 0.081761 0.033782 0.482224
O O1 0.276233 0.750000 0.978065
O O2 0.373939 0.572832 0.808334
O O3 0.393065 0.633788 0.936825
O O4 0.068581 0.604522 0.281530
O O5 0.500000 0.500000 0.500000
O O6 0.364211 0.541652 0.528439
O O7 0.705580 0.596274 0.137528
O O8 0.618864 0.641401 0.769235
O O9 0.730473 0.589285 0.778011
O O10 0.500000 0.500000 0.000000
O O11 0.373253 0.646210 0.228675
O O12 0.652944 0.750000 0.588772
O O13 0.732804 0.919959 0.454500
O O14 0.219073 0.398483 0.786867
O O15 0.000000 0.500000 0.000000
O O16 0.235885 0.250000 0.857568
O O17 0.971127 0.362132 0.242338
O O18 0.884161 0.250000 0.482982
O O19 0.886540 0.441978 0.501360
O O20 0.000000 0.000000 0.500000
#
# Coordination Sequence:
#
# PCOD9163218 Si02
#       8
#     4   4   4   4   4   4   4   4
#     4  10  20  36  59  88 120 157 204 254 305 359
#     4   9  19  36  58  86 119 159 201 247 301 361
#     4  10  22  36  58  85 118 155 201 243 304 363
#     4  10  21  39  61  86 120 160 202 250 305 366
#     4  10  22  36  62  91 124 157 203 260 313 365
#     4  10  20  39  63  87 122 168 209 248 305 376
#     4  10  21  39  62  86 124 167 207 248 303 373
#     4  11  23  39  60  90 123 157 201 255 311 365
#
# _framework density 19.729458000000001
#
# number of rings (size 3 to 8) (size 9 to 14) (size 15 to 20)
#    0.000    2.000    1.250    2.250    3.500    5.500 
#    0.000    1.250    0.000    3.750    0.000    0.000 
#    0.000    0.000    0.000    0.000    0.000    0.000 
#
# Total GULP energy -178221.582727 kJ/mol
# GULP energy per Si atom -5569.424460 kJ/mol
# Density = 1.968455 g / cm^3
# Si number density = 19.729458 Si / 1000 Ang^3
#
#
#
# Elastic Constant Matrix: (Units=GPa)
#
#
# Indices 1 2 3 4 5 6 
#
# 1 56.2888 16.0793 28.1013 0.0000 -13.9753 0.0000
# 2 16.0793 89.0744 23.2545 0.0000 -13.3832 0.0000
# 3 28.1013 23.2545 128.0608 0.0000 -25.4100 0.0000
# 4 0.0000 0.0000 0.0000 22.7704 0.0000 4.2246
# 5 -13.9753 -13.3832 -25.4100 0.0000 27.0286 0.0000
# 6 0.0000 0.0000 0.0000 4.2246 0.0000 23.5395
#
#
#
# Elastic Compliance Matrix: (Units=1/GPa)
#
#
# Indices 1 2 3 4 5 6 
#
# 1 0.021646 -0.002029 -0.002901 0.000000 0.007460 0.000000
# 2 -0.002029 0.012482 -0.000987 0.000000 0.004203 0.000000
# 3 -0.002901 -0.000987 0.010117 0.000000 0.007522 0.000000
# 4 0.000000 0.000000 0.000000 0.045429 0.000000 -0.008153
# 5 0.007460 0.004203 0.007522 0.000000 0.050008 0.000000
# 6 0.000000 0.000000 0.000000 -0.008153 0.000000 0.043945
#
#
# Mechanical properties :
#
#
# Convention : Reuss Voigt Hill
#
# Bulk Modulus (GPa) = 30.85496 45.36601 38.11049
# Shear Modulus (GPa) = 24.24053 28.40031 26.32042
#
# Velocity S-wave (km/s) = 3.50901 3.79817 3.65645
# Velocity P-wave (km/s) = 5.66485 6.50221 6.09792
#
# Compressibility (1/GPa) = 0.03240970
#
# Stress axis : x y z
#
# Youngs Moduli (GPa) = 46.19865 80.11447 98.84030
#
# Poissons Ratio (x) = 0.16256 0.28675
# Poissons Ratio (y) = 0.09374 0.09759
# Poissons Ratio (z) = 0.13403 0.07910
#
# Static dielectric constant tensor:
#      x y z
#    x 1.720880 0.000000 -0.033820 
#    y 0.000000 1.696790 0.000000 
#    z -0.033820 0.000000 1.757860 
# 
# From -- ./inp_files/55007.got.cif
#   From: 2010.05.17/outbox.cif.g08.bks.cpg/sg11_28_cif.got.tgz:55007.got - 2010.06.03 12:22:45.
