data_PCOD9163702
_publ_section_title
;
Structure prediction by ZEFSAII (Michael W. Deem and Ramdas Pophale) SiO2 
 PCOD9163702
Probable space group: P 21/M
;
_chemical_formula_sum "Si O2"
_cell_formula_units_Z 28
_cell_length_a 10.118160
_cell_length_b 14.545726
_cell_length_c 12.564101
_cell_angle_alpha 90.000000
_cell_angle_beta 128.008928
_cell_angle_gamma 90.000000
_cell_volume 1456.959997
_symmetry_space_group_name_H-M "P 21/M"
_symmetry_group_IT_number 11
_symmetry_cell_setting 'monoclinic'
loop_
_space_group_symop_operation_xyz
x,y,z
-x,1/2+y,-z
-x,-y,-z
x,1/2-y,z
loop_
_atom_site_type_symbol
_atom_site_label
_atom_site_fract_x
_atom_site_fract_y
_atom_site_fract_z
Si Si1 0.426618 0.456303 0.187792
Si Si2 0.681159 0.975200 0.638812
Si Si3 0.216323 0.639735 0.621434
Si Si4 0.873810 0.144442 0.670606
Si Si5 0.734960 0.855144 0.083816
Si Si6 0.129442 0.358831 0.445348
Si Si7 0.580374 0.644658 0.237586
O O1 0.348558 0.428413 0.262279
O O2 0.612118 0.412363 0.268504
O O3 0.451134 0.565843 0.203730
O O4 0.317981 0.423577 0.034863
O O5 0.786909 0.913079 0.609827
O O6 0.500000 0.000000 0.500000
O O7 0.778867 0.071238 0.695192
O O8 0.237674 0.750000 0.645488
O O9 0.169923 0.624031 0.474537
O O10 0.057145 0.610094 0.613696
O O11 0.823530 0.250000 0.666383
O O12 0.071629 0.136421 0.787227
O O13 0.707129 0.750000 0.032623
O O14 0.628250 0.867901 0.138066
O O15 0.121222 0.250000 0.417507
O O16 0.253023 0.368829 0.608010
O O17 0.524680 0.750000 0.226629
#
# Coordination Sequence:
#
# PCOD9163702 Si02
#       7
#     4   4   4   4   4   4   4
#     4  12  24  38  62  95 127 161 199 258 308 360
#     4  12  24  38  58  97 128 160 204 250 311 367
#     4  10  20  37  64  94 119 158 209 256 305 356
#     4  10  21  39  64  88 121 165 209 250 298 368
#     4  10  22  41  63  89 119 159 208 257 309 361
#     4  10  21  38  62  91 126 161 201 257 310 363
#     4  10  20  37  61  88 118 159 208 252 303 359
#
# _framework density 19.2181
#
# number of rings (size 3 to 8) (size 9 to 14) (size 15 to 20)
#    0.000    1.429    4.286    0.857    2.000    4.000 
#    0.000    0.000    0.000    0.000    0.000    0.000 
#    0.000    0.000    0.000    0.000    0.000    0.000 
#
# Total GULP energy -156480.787161 kJ/mol
# GULP energy per Si atom -5588.599541 kJ/mol
# Density = 1.917436 g / cm^3
# Si number density = 19.218100 Si / 1000 Ang^3
#
#
#
# Elastic Constant Matrix: (Units=GPa)
#
#
# Indices 1 2 3 4 5 6 
#
# 1 76.9880 28.1448 1.6481 0.0000 -14.4002 0.0000
# 2 28.1448 47.4176 14.4543 0.0000 -4.9679 0.0000
# 3 1.6481 14.4543 50.8324 0.0000 -8.5952 0.0000
# 4 0.0000 0.0000 0.0000 12.3943 0.0000 10.4960
# 5 -14.4002 -4.9679 -8.5952 0.0000 18.8416 0.0000
# 6 0.0000 0.0000 0.0000 10.4960 0.0000 21.6648
#
#
#
# Elastic Compliance Matrix: (Units=1/GPa)
#
#
# Indices 1 2 3 4 5 6 
#
# 1 0.019931 -0.011895 0.005181 0.000000 0.014460 0.000000
# 2 -0.011895 0.030386 -0.009142 0.000000 -0.005249 0.000000
# 3 0.005181 -0.009142 0.024236 0.000000 0.012605 0.000000
# 4 0.000000 0.000000 0.000000 0.136813 0.000000 -0.066282
# 5 0.014460 -0.005249 0.012605 0.000000 0.068492 0.000000
# 6 0.000000 0.000000 0.000000 -0.066282 0.000000 0.078270
#
#
# Mechanical properties :
#
#
# Convention : Reuss Voigt Hill
#
# Bulk Modulus (GPa) = 23.34198 29.30361 26.32279
# Shear Modulus (GPa) = 12.37259 19.31287 15.84273
#
# Velocity S-wave (km/s) = 2.54007 3.17350 2.87429
# Velocity P-wave (km/s) = 4.55794 5.35810 4.97413
#
# Compressibility (1/GPa) = 0.04284127
#
# Stress axis : x y z
#
# Youngs Moduli (GPa) = 50.17275 32.90980 41.26173
#
# Poissons Ratio (x) = 0.39145 -0.21378
# Poissons Ratio (y) = 0.59678 0.37723
# Poissons Ratio (z) = -0.25995 0.30087
#
# Static dielectric constant tensor:
#      x y z
#    x 1.673370 0.000000 -0.004810 
#    y 0.000000 1.696660 0.000000 
#    z -0.004810 0.000000 1.635510 
# 
# From -- ./inp_files/26947.got.cif
#   From: 2010.05.17/outbox.cif.g08.bks.cpg/sg11_14_cif.got.tgz:26947.got - 2010.06.03 12:22:45.
