data_PCOD9163233
_publ_section_title
;
Structure prediction by ZEFSAII (Michael W. Deem and Ramdas Pophale) SiO2 
 PCOD9163233
Probable space group: P 21/M
;
_chemical_formula_sum "Si O2"
_cell_formula_units_Z 32
_cell_length_a 20.334028
_cell_length_b 7.623240
_cell_length_c 26.378517
_cell_angle_alpha 90.000000
_cell_angle_beta 19.844201
_cell_angle_gamma 90.000000
_cell_volume 1388.055020
_symmetry_space_group_name_H-M "P 21/M"
_symmetry_group_IT_number 11
_symmetry_cell_setting 'monoclinic'
loop_
_space_group_symop_operation_xyz
x,y,z
-x,1/2+y,-z
-x,-y,-z
x,1/2-y,z
loop_
_atom_site_type_symbol
_atom_site_label
_atom_site_fract_x
_atom_site_fract_y
_atom_site_fract_z
Si Si1 0.771750 0.460787 0.660423
Si Si2 0.916668 0.549810 0.277796
Si Si3 0.899974 0.533911 0.179159
Si Si4 0.520305 0.951273 0.402612
Si Si5 0.313710 0.539938 0.168093
Si Si6 0.957739 0.963806 0.358309
Si Si7 0.254941 0.950752 0.859392
Si Si8 0.416738 0.955816 0.306825
O O1 0.754769 0.250000 0.670333
O O2 0.676520 0.526729 0.781543
O O3 0.671392 0.527505 0.681929
O O4 0.000000 0.500000 0.500000
O O5 0.987834 0.750000 0.224811
O O6 0.961702 0.472012 0.190169
O O7 0.682325 0.550389 0.452075
O O8 0.989533 0.471466 0.277853
O O9 0.900844 0.750000 0.178411
O O10 0.681105 0.480133 0.325194
O O11 0.049198 0.477380 0.027453
O O12 0.473141 0.750000 0.448843
O O13 0.632089 0.955581 0.267731
O O14 0.293424 0.750000 0.186120
O O15 0.123875 0.475222 0.276176
O O16 0.500000 0.500000 0.000000
O O17 0.955687 0.750000 0.358653
O O18 0.752845 0.023140 0.528764
O O19 0.229969 0.750000 0.861207
O O20 0.393603 0.955286 0.808097
O O21 0.460460 0.750000 0.269270
#
# Coordination Sequence:
#
# PCOD9163233 Si02
#       8
#     4   4   4   4   4   4   4   4
#     4  10  21  37  59  86 116 150 190 236 282 334
#     4  10  20  37  60  85 113 150 193 236 286 344
#     4   9  21  38  56  82 117 151 191 241 288 342
#     4  11  21  36  58  85 115 149 192 241 289 341
#     4  10  22  39  58  86 120 153 191 233 282 336
#     4  10  20  36  60  84 113 150 191 234 281 340
#     4  11  22  38  59  83 113 153 195 236 286 345
#     4  11  22  36  58  87 117 148 190 242 290 335
#
# _framework density 23.053840999999998
#
# number of rings (size 3 to 8) (size 9 to 14) (size 15 to 20)
#    0.000    1.750    2.500    1.875    0.000    2.500 
#    0.000    5.000    0.000    0.000    0.000    0.000 
#    0.000    0.000    0.000    0.000    0.000    0.000 
#
# Total GULP energy -178906.310212 kJ/mol
# GULP energy per Si atom -5590.822194 kJ/mol
# Density = 2.300137 g / cm^3
# Si number density = 23.053841 Si / 1000 Ang^3
#
#
#
# Elastic Constant Matrix: (Units=GPa)
#
#
# Indices 1 2 3 4 5 6 
#
# 1 115.6482 2.9368 -14.1570 0.0000 16.6424 0.0000
# 2 2.9368 59.6018 -9.0349 0.0000 -0.3332 0.0000
# 3 -14.1570 -9.0349 50.2737 0.0000 12.4983 0.0000
# 4 0.0000 0.0000 0.0000 11.8178 0.0000 1.2368
# 5 16.6424 -0.3332 12.4983 0.0000 41.2393 0.0000
# 6 0.0000 0.0000 0.0000 1.2368 0.0000 16.3170
#
#
#
# Elastic Compliance Matrix: (Units=1/GPa)
#
#
# Indices 1 2 3 4 5 6 
#
# 1 0.009902 0.000106 0.004110 0.000000 -0.005241 0.000000
# 2 0.000106 0.017278 0.003364 0.000000 -0.000923 0.000000
# 3 0.004110 0.003364 0.023856 0.000000 -0.008861 0.000000
# 4 0.000000 0.000000 0.000000 0.085295 0.000000 -0.006465
# 5 -0.005241 -0.000923 -0.008861 0.000000 0.029042 0.000000
# 6 0.000000 0.000000 0.000000 -0.006465 0.000000 0.061776
#
#
# Mechanical properties :
#
#
# Convention : Reuss Voigt Hill
#
# Bulk Modulus (GPa) = 15.10674 20.55707 17.83190
# Shear Modulus (GPa) = 21.36273 30.26007 25.81140
#
# Velocity S-wave (km/s) = 3.04739 3.62689 3.34969
# Velocity P-wave (km/s) = 4.35306 5.14543 4.76574
#
# Compressibility (1/GPa) = 0.06619563
#
# Stress axis : x y z
#
# Youngs Moduli (GPa) = 100.99467 57.87837 41.91796
#
# Poissons Ratio (x) = -0.00613 -0.17229
# Poissons Ratio (y) = -0.01069 -0.14102
# Poissons Ratio (z) = -0.41510 -0.19472
#
# Static dielectric constant tensor:
#      x y z
#    x 1.910790 0.000000 0.019160 
#    y 0.000000 1.870510 0.000000 
#    z 0.019160 0.000000 1.813210 
# 
# From -- ./inp_files/72104.got.cif
#   From: 2010.05.17/outbox.cif.g08.bks.cpg/sg11_37_cif.got.tgz:72104.got - 2010.06.03 12:22:45.
