data_PCOD9163545
_publ_section_title
;
Structure prediction by ZEFSAII (Michael W. Deem and Ramdas Pophale) SiO2 
 PCOD9163545
Probable space group: P 21/M
;
_chemical_formula_sum "Si O2"
_cell_formula_units_Z 32
_cell_length_a 12.344495
_cell_length_b 8.687951
_cell_length_c 31.778719
_cell_angle_alpha 90.000000
_cell_angle_beta 29.614862
_cell_angle_gamma 90.000000
_cell_volume 1684.229073
_symmetry_space_group_name_H-M "P 21/M"
_symmetry_group_IT_number 11
_symmetry_cell_setting 'monoclinic'
loop_
_space_group_symop_operation_xyz
x,y,z
-x,1/2+y,-z
-x,-y,-z
x,1/2-y,z
loop_
_atom_site_type_symbol
_atom_site_label
_atom_site_fract_x
_atom_site_fract_y
_atom_site_fract_z
Si Si1 0.550900 0.935336 0.029042
Si Si2 0.154069 0.434498 0.217295
Si Si3 0.832112 0.567203 0.617261
Si Si4 0.314788 0.932943 0.420012
Si Si5 0.320290 0.932355 0.243333
Si Si6 0.209631 0.564732 0.904635
Si Si7 0.947335 0.436586 0.132830
Si Si8 0.232169 0.936113 0.715511
O O1 0.541456 0.750000 0.031686
O O2 0.369232 0.000413 0.121602
O O3 0.798348 0.982210 0.957459
O O4 0.500000 0.000000 0.000000
O O5 0.164273 0.250000 0.214153
O O6 0.159728 0.497647 0.262510
O O7 0.943687 0.480565 0.260534
O O8 0.802774 0.750000 0.632818
O O9 0.701363 0.514015 0.620003
O O10 0.754502 0.481736 0.685034
O O11 0.087318 0.534113 0.520887
O O12 0.327707 0.750000 0.409598
O O13 0.528168 0.994407 0.371495
O O14 0.327507 0.750000 0.236750
O O15 0.563587 0.000110 0.154275
O O16 0.210105 0.750000 0.906583
O O17 0.185659 0.516503 0.863634
O O18 0.000000 0.500000 0.000000
O O19 0.943143 0.250000 0.135243
O O20 0.854342 0.488347 0.209202
O O21 0.245350 0.750000 0.711580
#
# Coordination Sequence:
#
# PCOD9163545 Si02
#       8
#     4   4   4   4   4   4   4   4
#     4  11  20  35  56  82 116 155 199 244 292 345
#     4  11  23  40  60  84 115 157 204 247 297 355
#     4  10  21  40  64  90 121 157 194 237 293 355
#     4  10  21  37  62  95 124 149 189 243 296 353
#     4  12  25  41  61  87 119 157 202 247 296 357
#     4  11  22  38  60  85 119 159 198 243 295 350
#     4   9  19  35  55  80 111 149 192 239 288 341
#     4  10  20  37  59  84 116 153 194 241 298 355
#
# _framework density 18.999790999999998
#
# number of rings (size 3 to 8) (size 9 to 14) (size 15 to 20)
#    0.000    1.500    1.250    4.500    0.000    4.500 
#    0.000    3.125    0.000    0.000    0.000    0.000 
#    0.000    0.000    0.000    0.000    0.000    0.000 
#
# Total GULP energy -178904.623469 kJ/mol
# GULP energy per Si atom -5590.769483 kJ/mol
# Density = 1.895655 g / cm^3
# Si number density = 18.999791 Si / 1000 Ang^3
#
#
#
# Elastic Constant Matrix: (Units=GPa)
#
#
# Indices 1 2 3 4 5 6 
#
# 1 114.9202 36.3129 35.7916 0.0000 -13.9392 0.0000
# 2 36.3129 64.8261 30.2500 0.0000 -4.8268 0.0000
# 3 35.7916 30.2500 59.5215 0.0000 -12.4209 0.0000
# 4 0.0000 0.0000 0.0000 32.1435 0.0000 0.9013
# 5 -13.9392 -4.8268 -12.4209 0.0000 32.1559 0.0000
# 6 0.0000 0.0000 0.0000 0.9013 0.0000 28.7422
#
#
#
# Elastic Compliance Matrix: (Units=1/GPa)
#
#
# Indices 1 2 3 4 5 6 
#
# 1 0.011752 -0.004391 -0.004253 0.000000 0.002793 0.000000
# 2 -0.004391 0.021892 -0.008916 0.000000 -0.002061 0.000000
# 3 -0.004253 -0.008916 0.025261 0.000000 0.006576 0.000000
# 4 0.000000 0.000000 0.000000 0.031138 0.000000 -0.000976
# 5 0.002793 -0.002061 0.006576 0.000000 0.034540 0.000000
# 6 0.000000 0.000000 0.000000 -0.000976 0.000000 0.034823
#
#
# Mechanical properties :
#
#
# Convention : Reuss Voigt Hill
#
# Bulk Modulus (GPa) = 42.03927 49.33075 45.68501
# Shear Modulus (GPa) = 24.69687 27.73586 26.21637
#
# Velocity S-wave (km/s) = 3.60925 3.82488 3.71863
# Velocity P-wave (km/s) = 6.28834 6.74733 6.52187
#
# Compressibility (1/GPa) = 0.02378728
#
# Stress axis : x y z
#
# Youngs Moduli (GPa) = 85.08940 45.67777 39.58599
#
# Poissons Ratio (x) = 0.20056 0.16835
# Poissons Ratio (y) = 0.37361 0.35295
# Poissons Ratio (z) = 0.36186 0.40726
#
# Static dielectric constant tensor:
#      x y z
#    x 1.650120 0.000000 -0.002890 
#    y 0.000000 1.634370 0.000000 
#    z -0.002890 0.000000 1.642850 
# 
# From -- ./inp_files/73065.got.cif
#   From: 2010.05.17/outbox.cif.g08.bks.cpg/sg11_37_cif.got.tgz:73065.got - 2010.06.03 12:22:45.
