data_PCOD9163460
_publ_section_title
;
Structure prediction by ZEFSAII (Michael W. Deem and Ramdas Pophale) SiO2 
 PCOD9163460
Probable space group: P 21/M
;
_chemical_formula_sum "Si O2"
_cell_formula_units_Z 32
_cell_length_a 16.209774
_cell_length_b 7.986117
_cell_length_c 25.013880
_cell_angle_alpha 90.000000
_cell_angle_beta 150.615230
_cell_angle_gamma 90.000000
_cell_volume 1588.858070
_symmetry_space_group_name_H-M "P 21/M"
_symmetry_group_IT_number 11
_symmetry_cell_setting 'monoclinic'
loop_
_space_group_symop_operation_xyz
x,y,z
-x,1/2+y,-z
-x,-y,-z
x,1/2-y,z
loop_
_atom_site_type_symbol
_atom_site_label
_atom_site_fract_x
_atom_site_fract_y
_atom_site_fract_z
Si Si1 0.943314 0.949333 0.647563
Si Si2 0.372087 0.559177 0.596428
Si Si3 0.732558 0.547595 0.839618
Si Si4 0.542648 0.051376 0.964554
Si Si5 0.815000 0.938553 0.409617
Si Si6 0.934334 0.047678 0.168165
Si Si7 0.041212 0.548021 0.938917
Si Si8 0.767121 0.058123 0.272034
O O1 0.971149 0.750000 0.665708
O O2 0.975830 0.014555 0.726390
O O3 0.084986 0.007981 0.684209
O O4 0.756917 0.981099 0.519307
O O5 0.399764 0.750000 0.594766
O O6 0.554356 0.484904 0.715445
O O7 0.270767 0.552240 0.594849
O O8 0.725025 0.750000 0.834878
O O9 0.882984 0.490867 0.885365
O O10 0.791192 0.498501 0.932668
O O11 0.515030 0.250000 0.940736
O O12 0.410064 0.946543 0.856663
O O13 0.736523 0.015905 0.063020
O O14 0.500000 0.000000 0.000000
O O15 0.812855 0.750000 0.429598
O O16 0.734744 0.950641 0.306390
O O17 0.000000 0.000000 0.500000
O O18 0.959969 0.250000 0.181785
O O19 0.976911 0.985948 0.132339
O O20 0.037902 0.750000 0.935245
O O21 0.810812 0.250000 0.311628
#
# Coordination Sequence:
#
# PCOD9163460 Si02
#       8
#     4   4   4   4   4   4   4   4
#     4  10  20  37  57  77 110 152 193 232 275 331
#     4  11  23  38  56  82 116 150 188 232 282 338
#     4   9  20  38  59  86 116 143 177 230 288 337
#     4  11  21  35  53  79 113 151 194 235 281 335
#     4  12  24  38  56  80 110 148 192 233 278 333
#     4   9  19  36  57  82 109 144 190 235 277 331
#     4   9  18  37  64  86 109 144 183 228 285 342
#     4  11  22  37  54  77 112 151 189 235 283 331
#
# _framework density 20.140252
#
# number of rings (size 3 to 8) (size 9 to 14) (size 15 to 20)
#    0.000    1.750    2.500    2.250    1.750    1.500 
#    0.000    1.875    0.000    0.000    0.000    0.000 
#    0.000    0.000    0.000    0.000    0.000    0.000 
#
# Total GULP energy -178424.789313 kJ/mol
# GULP energy per Si atom -5575.774666 kJ/mol
# Density = 2.009441 g / cm^3
# Si number density = 20.140252 Si / 1000 Ang^3
#
#
#
# Elastic Constant Matrix: (Units=GPa)
#
#
# Indices 1 2 3 4 5 6 
#
# 1 91.1612 0.7868 46.4552 0.0000 -20.5615 0.0000
# 2 0.7868 27.4645 7.7293 0.0000 0.0289 0.0000
# 3 46.4552 7.7293 138.7087 0.0000 -18.8724 0.0000
# 4 0.0000 0.0000 0.0000 29.1702 0.0000 -5.4719
# 5 -20.5615 0.0289 -18.8724 0.0000 32.9255 0.0000
# 6 0.0000 0.0000 0.0000 -5.4719 0.0000 13.4787
#
#
#
# Elastic Compliance Matrix: (Units=1/GPa)
#
#
# Indices 1 2 3 4 5 6 
#
# 1 0.014522 0.000697 -0.003979 0.000000 0.006788 0.000000
# 2 0.000697 0.037077 -0.002434 0.000000 -0.000993 0.000000
# 3 -0.003979 -0.002434 0.009045 0.000000 0.002702 0.000000
# 4 0.000000 0.000000 0.000000 0.037107 0.000000 0.015065
# 5 0.006788 -0.000993 0.002702 0.000000 0.036160 0.000000
# 6 0.000000 0.000000 0.000000 0.015065 0.000000 0.080307
#
#
# Mechanical properties :
#
#
# Convention : Reuss Voigt Hill
#
# Bulk Modulus (GPa) = 20.32078 40.80854 30.56466
# Shear Modulus (GPa) = 20.65638 28.60574 24.63106
#
# Velocity S-wave (km/s) = 3.20602 3.77281 3.50090
# Velocity P-wave (km/s) = 4.88019 6.26777 5.61699
#
# Compressibility (1/GPa) = 0.04921071
#
# Stress axis : x y z
#
# Youngs Moduli (GPa) = 68.86020 26.97097 110.55556
#
# Poissons Ratio (x) = -0.01879 0.43990
# Poissons Ratio (y) = -0.04797 0.26914
# Poissons Ratio (z) = 0.27399 0.06566
#
# Static dielectric constant tensor:
#      x y z
#    x 1.704360 0.000000 -0.024740 
#    y 0.000000 1.390170 0.000000 
#    z -0.024740 0.000000 1.727670 
# 
# From -- ./inp_files/69109.got.cif
#   From: 2010.05.17/outbox.cif.g08.bks.cpg/sg11_35_cif.got.tgz:69109.got - 2010.06.03 12:22:45.
