data_PCOD9163835
_publ_section_title
;
Structure prediction by ZEFSAII (Michael W. Deem and Ramdas Pophale) SiO2 
 PCOD9163835
Probable space group: P 21/M
;
_chemical_formula_sum "Si O2"
_cell_formula_units_Z 32
_cell_length_a 16.252686
_cell_length_b 14.143086
_cell_length_c 8.570526
_cell_angle_alpha 90.000000
_cell_angle_beta 122.985380
_cell_angle_gamma 90.000000
_cell_volume 1652.494992
_symmetry_space_group_name_H-M "P 21/M"
_symmetry_group_IT_number 11
_symmetry_cell_setting 'monoclinic'
loop_
_space_group_symop_operation_xyz
x,y,z
-x,1/2+y,-z
-x,-y,-z
x,1/2-y,z
loop_
_atom_site_type_symbol
_atom_site_label
_atom_site_fract_x
_atom_site_fract_y
_atom_site_fract_z
Si Si1 0.835688 0.502959 0.304466
Si Si2 0.571372 0.488367 0.719100
Si Si3 0.685026 0.360162 0.305769
Si Si4 0.722964 0.360817 0.703975
Si Si5 0.508896 0.858281 0.095321
Si Si6 0.015052 0.034695 0.274249
Si Si7 0.676086 0.860557 0.023472
Si Si8 0.955979 0.359849 0.914712
O O1 0.758018 0.425989 0.284459
O O2 0.916996 0.457403 0.275860
O O3 0.776930 0.584503 0.154523
O O4 0.893847 0.542814 0.514623
O O5 0.500000 0.500000 0.500000
O O6 0.663906 0.424496 0.763311
O O7 0.514053 0.433278 0.795755
O O8 0.613761 0.586579 0.826589
O O9 0.715745 0.250000 0.325321
O O10 0.688896 0.384610 0.492532
O O11 0.576892 0.367945 0.122275
O O12 0.701883 0.250000 0.710417
O O13 0.840024 0.373700 0.829713
O O14 0.504003 0.750000 0.149940
O O15 0.611867 0.871782 0.115236
O O16 0.017703 0.930615 0.198113
O O17 0.013214 0.107103 0.128586
O O18 0.687989 0.750000 0.004172
O O19 0.972162 0.250000 0.894603
#
# Coordination Sequence:
#
# PCOD9163835 Si02
#       8
#     4   4   4   4   4   4   4   4
#     4  11  22  40  65  86 122 159 206 258 299 359
#     4  12  24  36  62  90 124 160 197 246 305 360
#     4  10  20  37  65  93 117 150 199 256 308 353
#     4  10  21  38  61  92 121 152 197 251 306 358
#     4  10  22  40  62  90 120 153 201 254 298 354
#     4  10  23  39  60  93 119 156 208 253 301 364
#     4  11  25  43  61  87 125 168 209 246 298 364
#     4  10  21  39  61  86 123 158 193 250 312 360
#
# _framework density 19.364657999999999
#
# number of rings (size 3 to 8) (size 9 to 14) (size 15 to 20)
#    0.000    1.500    2.500    2.250    1.750    3.500 
#    0.000    2.500    0.000    0.000    0.000    0.000 
#    0.000    0.000    0.000    0.000    0.000    0.000 
#
# Total GULP energy -178917.029476 kJ/mol
# GULP energy per Si atom -5591.157171 kJ/mol
# Density = 1.932058 g / cm^3
# Si number density = 19.364658 Si / 1000 Ang^3
#
#
#
# Elastic Constant Matrix: (Units=GPa)
#
#
# Indices 1 2 3 4 5 6 
#
# 1 34.9759 11.9760 -16.9255 0.0000 4.2878 0.0000
# 2 11.9760 75.6726 14.6313 0.0000 -5.9145 0.0000
# 3 -16.9255 14.6313 94.9738 0.0000 1.1425 0.0000
# 4 0.0000 0.0000 0.0000 20.3288 0.0000 -1.8673
# 5 4.2878 -5.9145 1.1425 0.0000 22.9109 0.0000
# 6 0.0000 0.0000 0.0000 -1.8673 0.0000 25.6211
#
#
#
# Elastic Compliance Matrix: (Units=1/GPa)
#
#
# Indices 1 2 3 4 5 6 
#
# 1 0.036217 -0.007959 0.007791 0.000000 -0.009221 0.000000
# 2 -0.007959 0.015677 -0.003902 0.000000 0.005731 0.000000
# 3 0.007791 -0.003902 0.012556 0.000000 -0.003092 0.000000
# 4 0.000000 0.000000 0.000000 0.049523 0.000000 0.003609
# 5 -0.009221 0.005731 -0.003092 0.000000 0.047007 0.000000
# 6 0.000000 0.000000 0.000000 0.003609 0.000000 0.039293
#
#
# Mechanical properties :
#
#
# Convention : Reuss Voigt Hill
#
# Bulk Modulus (GPa) = 17.75873 24.99841 21.37857
# Shear Modulus (GPa) = 22.00866 26.83487 24.42177
#
# Velocity S-wave (km/s) = 3.37491 3.72663 3.55512
# Velocity P-wave (km/s) = 4.93734 5.60841 5.28354
#
# Compressibility (1/GPa) = 0.05631034
#
# Stress axis : x y z
#
# Youngs Moduli (GPa) = 27.61115 63.78813 79.64234
#
# Poissons Ratio (x) = 0.50769 -0.62053
# Poissons Ratio (y) = 0.21976 0.31080
# Poissons Ratio (z) = -0.21513 0.24893
#
# Static dielectric constant tensor:
#      x y z
#    x 1.650450 0.000000 0.002150 
#    y 0.000000 1.665030 0.000000 
#    z 0.002150 0.000000 1.670970 
# 
# From -- ./inp_files/22228.got.cif
#   From: 2010.05.17/outbox.cif.g08.bks.cpg/sg11_12_cif.got.tgz:22228.got - 2010.06.03 12:22:45.
