data_PCOD9163474
_publ_section_title
;
Structure prediction by ZEFSAII (Michael W. Deem and Ramdas Pophale) SiO2 
 PCOD9163474
Probable space group: P 21/M
;
_chemical_formula_sum "Si O2"
_cell_formula_units_Z 28
_cell_length_a 9.171483
_cell_length_b 22.096077
_cell_length_c 6.837366
_cell_angle_alpha 90.000000
_cell_angle_beta 94.023758
_cell_angle_gamma 90.000000
_cell_volume 1382.202671
_symmetry_space_group_name_H-M "P 21/M"
_symmetry_group_IT_number 11
_symmetry_cell_setting 'monoclinic'
loop_
_space_group_symop_operation_xyz
x,y,z
-x,1/2+y,-z
-x,-y,-z
x,1/2-y,z
loop_
_atom_site_type_symbol
_atom_site_label
_atom_site_fract_x
_atom_site_fract_y
_atom_site_fract_z
Si Si1 0.667656 0.921025 0.010682
Si Si2 0.924597 0.971772 0.803472
Si Si3 0.824892 0.680843 0.226055
Si Si4 0.749192 0.090987 0.745573
Si Si5 0.514925 0.507073 0.270623
Si Si6 0.897902 0.184295 0.032102
Si Si7 0.051881 0.628916 0.557304
O O1 0.690189 0.857791 0.125311
O O2 0.665268 0.971801 0.184162
O O3 0.807176 0.925873 0.883244
O O4 0.542760 0.948218 0.852924
O O5 0.020535 0.935335 0.659207
O O6 0.836979 0.028833 0.714651
O O7 0.000000 0.000000 0.000000
O O8 0.786561 0.750000 0.275853
O O9 0.912261 0.646963 0.409925
O O10 0.949983 0.683711 0.071262
O O11 0.588174 0.066353 0.771919
O O12 0.802068 0.128858 0.562409
O O13 0.805249 0.129033 0.935370
O O14 0.500000 0.500000 0.500000
O O15 0.828118 0.250000 0.989345
O O16 0.927317 0.174523 0.262110
#
# Coordination Sequence:
#
# PCOD9163474 Si02
#       7
#     4   4   4   4   4   4   4
#     4  10  22  39  57  83 117 151 192 239 287 339
#     4  11  19  33  56  89 119 145 179 238 294 345
#     4  10  21  37  59  88 119 152 189 235 288 349
#     4  10  22  35  54  85 115 148 187 234 283 341
#     4  10  24  39  60  80 113 156 195 240 288 337
#     4  10  20  37  57  84 120 152 186 231 288 350
#     4  11  20  33  57  90 120 147 181 228 294 349
#
# _framework density 20.25752
#
# number of rings (size 3 to 8) (size 9 to 14) (size 15 to 20)
#    0.000    1.714    2.857    1.714    6.000    1.714 
#    0.000    0.714    0.000    0.857    0.000    0.000 
#    0.000    0.000    0.000    0.000    0.000    0.000 
#
# Total GULP energy -155880.188806 kJ/mol
# GULP energy per Si atom -5567.149600 kJ/mol
# Density = 2.021141 g / cm^3
# Si number density = 20.257520 Si / 1000 Ang^3
#
#
#
# Elastic Constant Matrix: (Units=GPa)
#
#
# Indices 1 2 3 4 5 6 
#
# 1 30.8805 14.5107 14.6084 0.0000 -1.0190 0.0000
# 2 14.5107 110.2281 34.2303 0.0000 20.0767 0.0000
# 3 14.6084 34.2303 130.7862 0.0000 -10.0350 0.0000
# 4 0.0000 0.0000 0.0000 18.8415 0.0000 -0.0767
# 5 -1.0190 20.0767 -10.0350 0.0000 18.8706 0.0000
# 6 0.0000 0.0000 0.0000 -0.0767 0.0000 26.8599
#
#
#
# Elastic Compliance Matrix: (Units=1/GPa)
#
#
# Indices 1 2 3 4 5 6 
#
# 1 0.036080 -0.005234 -0.002172 0.000000 0.006361 0.000000
# 2 -0.005234 0.014497 -0.004603 0.000000 -0.018153 0.000000
# 3 -0.002172 -0.004603 0.009862 0.000000 0.010024 0.000000
# 4 0.000000 0.000000 0.000000 0.053075 0.000000 0.000151
# 5 0.006361 -0.018153 0.010024 0.000000 0.077980 0.000000
# 6 0.000000 0.000000 0.000000 0.000151 0.000000 0.037231
#
#
# Mechanical properties :
#
#
# Convention : Reuss Voigt Hill
#
# Bulk Modulus (GPa) = 27.45577 44.28819 35.87198
# Shear Modulus (GPa) = 18.87631 26.81742 22.84687
#
# Velocity S-wave (km/s) = 3.05588 3.64239 3.36195
# Velocity P-wave (km/s) = 5.10235 6.29280 5.72859
#
# Compressibility (1/GPa) = 0.03642221
#
# Stress axis : x y z
#
# Youngs Moduli (GPa) = 27.71645 68.98083 101.39512
#
# Poissons Ratio (x) = 0.36103 0.22024
# Poissons Ratio (y) = 0.14506 0.46667
# Poissons Ratio (z) = 0.06020 0.31748
#
# Static dielectric constant tensor:
#      x y z
#    x 1.735020 0.000000 0.036410 
#    y 0.000000 1.762390 0.000000 
#    z 0.036410 0.000000 1.731580 
# 
# From -- ./inp_files/5268.got.cif
#   From: 2010.05.17/outbox.cif.g08.bks.cpg/sg11_3_cif.got.tgz:5268.got - 2010.06.03 12:22:45.
