data_PCOD9163039
_publ_section_title
;
Structure prediction by ZEFSAII (Michael W. Deem and Ramdas Pophale) SiO2 
 PCOD9163039
Probable space group: P 21/M
;
_chemical_formula_sum "Si O2"
_cell_formula_units_Z 32
_cell_length_a 19.907210
_cell_length_b 14.713501
_cell_length_c 12.232969
_cell_angle_alpha 90.000000
_cell_angle_beta 151.811850
_cell_angle_gamma 90.000000
_cell_volume 1692.541042
_symmetry_space_group_name_H-M "P 21/M"
_symmetry_group_IT_number 11
_symmetry_cell_setting 'monoclinic'
loop_
_space_group_symop_operation_xyz
x,y,z
-x,1/2+y,-z
-x,-y,-z
x,1/2-y,z
loop_
_atom_site_type_symbol
_atom_site_label
_atom_site_fract_x
_atom_site_fract_y
_atom_site_fract_z
Si Si1 0.311835 0.144673 0.876541
Si Si2 0.166336 0.439389 0.456938
Si Si3 0.138323 0.007930 0.029513
Si Si4 0.371520 0.642568 0.344200
Si Si5 0.509999 0.353209 0.727082
Si Si6 0.311629 0.143176 0.124961
Si Si7 0.547836 0.015031 0.192370
Si Si8 0.174622 0.152143 0.249310
O O1 0.307730 0.250000 0.842115
O O2 0.225824 0.091330 0.659757
O O3 0.260747 0.132273 0.927253
O O4 0.473889 0.108973 0.115519
O O5 0.282439 0.507192 0.568480
O O6 0.165589 0.358462 0.366864
O O7 0.008546 0.477122 0.234631
O O8 0.220471 0.078061 0.069472
O O9 0.107281 0.066020 0.093781
O O10 0.244900 0.923144 0.199851
O O11 0.341208 0.750000 0.316788
O O12 0.403269 0.628904 0.259677
O O13 0.520964 0.620633 0.618217
O O14 0.545735 0.250000 0.817724
O O15 0.517486 0.434283 0.825909
O O16 0.341965 0.350528 0.458576
O O17 0.297915 0.250000 0.134901
O O18 0.500000 0.000000 0.000000
O O19 0.115828 0.250000 0.131073
#
# Coordination Sequence:
#
# PCOD9163039 Si02
#       8
#     4   4   4   4   4   4   4   4
#     4  10  21  39  62  81 109 152 195 238 286 341
#     4  10  23  38  55  83 116 154 197 231 284 342
#     4  12  22  35  60  87 120 153 184 238 295 349
#     4  10  21  35  55  88 118 148 193 243 290 340
#     4   9  17  33  58  84 110 146 192 240 283 329
#     4  10  21  37  59  86 114 150 193 239 294 343
#     4   9  19  35  56  81 109 144 194 239 276 335
#     4  10  20  36  58  81 114 154 193 231 281 347
#
# _framework density 18.906483999999999
#
# number of rings (size 3 to 8) (size 9 to 14) (size 15 to 20)
#    0.000    2.000    1.250    2.250    3.500    4.500 
#    0.000    1.250    0.000    4.500    0.000    0.000 
#    0.000    0.000    0.000    0.000    0.000    0.000 
#
# Total GULP energy -178433.288782 kJ/mol
# GULP energy per Si atom -5576.040274 kJ/mol
# Density = 1.886345 g / cm^3
# Si number density = 18.906484 Si / 1000 Ang^3
#
#
#
# Elastic Constant Matrix: (Units=GPa)
#
#
# Indices 1 2 3 4 5 6 
#
# 1 56.4727 34.0909 35.4983 0.0000 -16.2628 0.0000
# 2 34.0909 61.7550 57.2251 0.0000 -3.4835 0.0000
# 3 35.4983 57.2251 99.7910 0.0000 0.9477 0.0000
# 4 0.0000 0.0000 0.0000 18.8023 0.0000 -10.4720
# 5 -16.2628 -3.4835 0.9477 0.0000 24.8881 0.0000
# 6 0.0000 0.0000 0.0000 -10.4720 0.0000 10.0573
#
#
#
# Elastic Compliance Matrix: (Units=1/GPa)
#
#
# Indices 1 2 3 4 5 6 
#
# 1 0.035144 -0.013725 -0.004832 0.000000 0.021227 0.000000
# 2 -0.013725 0.040712 -0.018439 0.000000 -0.002568 0.000000
# 3 -0.004832 -0.018439 0.022377 0.000000 -0.006591 0.000000
# 4 0.000000 0.000000 0.000000 0.126608 0.000000 0.131829
# 5 0.021227 -0.002568 -0.006591 0.000000 0.053942 0.000000
# 6 0.000000 0.000000 0.000000 0.131829 0.000000 0.236695
#
#
# Mechanical properties :
#
#
# Convention : Reuss Voigt Hill
#
# Bulk Modulus (GPa) = 41.25733 52.40526 46.83130
# Shear Modulus (GPa) = 8.36750 16.82983 12.59866
#
# Velocity S-wave (km/s) = 2.10602 2.98679 2.58421
# Velocity P-wave (km/s) = 5.27095 6.29864 5.80757
#
# Compressibility (1/GPa) = 0.02423811
#
# Stress axis : x y z
#
# Youngs Moduli (GPa) = 28.45448 24.56299 44.68972
#
# Poissons Ratio (x) = 0.33713 0.21596
# Poissons Ratio (y) = 0.39055 0.82404
# Poissons Ratio (z) = 0.13750 0.45292
#
# Static dielectric constant tensor:
#      x y z
#    x 1.704590 0.000000 -0.010920 
#    y 0.000000 1.684790 0.000000 
#    z -0.010920 0.000000 1.629270 
# 
# From -- ./inp_files/41719.got.cif
#   From: 2010.05.17/outbox.cif.g08.bks.cpg/sg11_21_cif.got.tgz:41719.got - 2010.06.03 12:22:45.
