data_PCOD9163856
_publ_section_title
;
Structure prediction by ZEFSAII (Michael W. Deem and Ramdas Pophale) SiO2 
 PCOD9163856
Probable space group: P 21/M
;
_chemical_formula_sum "Si O2"
_cell_formula_units_Z 24
_cell_length_a 18.054102
_cell_length_b 14.402216
_cell_length_c 5.379864
_cell_angle_alpha 90.000000
_cell_angle_beta 52.740869
_cell_angle_gamma 90.000000
_cell_volume 1113.366195
_symmetry_space_group_name_H-M "P 21/M"
_symmetry_group_IT_number 11
_symmetry_cell_setting 'monoclinic'
loop_
_space_group_symop_operation_xyz
x,y,z
-x,1/2+y,-z
-x,-y,-z
x,1/2-y,z
loop_
_atom_site_type_symbol
_atom_site_label
_atom_site_fract_x
_atom_site_fract_y
_atom_site_fract_z
Si Si1 0.560594 0.908556 0.320428
Si Si2 0.224891 0.579511 0.582941
Si Si3 0.422624 0.750000 0.425254
Si Si4 0.932490 0.144194 0.717264
Si Si5 0.604996 0.963138 0.730822
Si Si6 0.922269 0.526729 0.356668
Si Si7 0.693590 0.250000 0.845991
O O1 0.489322 0.834895 0.357406
O O2 0.602060 0.890330 0.510038
O O3 0.500000 0.000000 0.500000
O O4 0.631619 0.927396 0.952028
O O5 0.323013 0.544089 0.492314
O O6 0.174650 0.486424 0.585975
O O7 0.250027 0.656027 0.324431
O O8 0.151071 0.628942 0.915024
O O9 0.384421 0.750000 0.219913
O O10 0.342945 0.750000 0.799049
O O11 0.928851 0.250000 0.631408
O O12 0.920381 0.058551 0.554108
O O13 0.035970 0.121167 0.616652
O O14 0.500000 0.000000 0.000000
O O15 0.000000 0.500000 0.000000
#
# Coordination Sequence:
#
# PCOD9163856 Si02
#       7
#     4   4   2   4   4   4   2
#     4  10  20  38  57  82 120 173 216 265 321 380
#     4  11  23  36  63  99 133 167 220 275 344 398
#     4  12  24  40  62  92 128 174 239 281 336 388
#     4  10  21  41  67  98 132 165 220 277 346 405
#     4  10  21  37  58  85 128 177 211 256 321 383
#     4   9  22  40  62  95 130 173 208 275 340 422
#     4  12  24  34  60 104 132 164 213 297 340 394
#
# _framework density 21.556249999999999
#
# number of rings (size 3 to 8) (size 9 to 14) (size 15 to 20)
#    0.000    1.667    0.833    5.000    5.833    0.667 
#    0.000    0.000    3.667    0.000    0.000    0.000 
#    0.000    0.000    0.000    0.000    0.000    0.000 
#
# Total GULP energy -133714.339023 kJ/mol
# GULP energy per Si atom -5571.430793 kJ/mol
# Density = 2.150719 g / cm^3
# Si number density = 21.556250 Si / 1000 Ang^3
#
#
#
# Elastic Constant Matrix: (Units=GPa)
#
#
# Indices 1 2 3 4 5 6 
#
# 1 69.1999 18.5649 14.6361 0.0000 -8.0617 0.0000
# 2 18.5649 74.3434 17.9711 0.0000 -17.1479 0.0000
# 3 14.6361 17.9711 87.1797 0.0000 4.4026 0.0000
# 4 0.0000 0.0000 0.0000 27.0629 0.0000 -7.0178
# 5 -8.0617 -17.1479 4.4026 0.0000 46.6082 0.0000
# 6 0.0000 0.0000 0.0000 -7.0178 0.0000 36.9068
#
#
#
# Elastic Compliance Matrix: (Units=1/GPa)
#
#
# Indices 1 2 3 4 5 6 
#
# 1 0.015933 -0.003036 -0.002142 0.000000 0.001841 0.000000
# 2 -0.003036 0.016299 -0.003141 0.000000 0.005768 0.000000
# 3 -0.002142 -0.003141 0.012615 0.000000 -0.002718 0.000000
# 4 0.000000 0.000000 0.000000 0.038867 0.000000 0.007391
# 5 0.001841 0.005768 -0.002718 0.000000 0.024153 0.000000
# 6 0.000000 0.000000 0.000000 0.007391 0.000000 0.028501
#
#
# Mechanical properties :
#
#
# Convention : Reuss Voigt Hill
#
# Bulk Modulus (GPa) = 35.45127 37.00746 36.22936
# Shear Modulus (GPa) = 30.78627 34.08565 32.43596
#
# Velocity S-wave (km/s) = 3.78323 3.98080 3.88327
# Velocity P-wave (km/s) = 5.96368 6.19146 6.07863
#
# Compressibility (1/GPa) = 0.02820773
#
# Stress axis : x y z
#
# Youngs Moduli (GPa) = 62.76286 61.35274 79.27086
#
# Poissons Ratio (x) = 0.18629 0.16980
# Poissons Ratio (y) = 0.19057 0.24902
# Poissons Ratio (z) = 0.13444 0.19274
#
# Static dielectric constant tensor:
#      x y z
#    x 1.873950 0.000000 -0.124290 
#    y 0.000000 1.838660 0.000000 
#    z -0.124290 0.000000 1.681420 
# 
# From -- ./inp_files/8991.got.cif
#   From: 2010.05.17/outbox.cif.g08.bks.cpg/sg11_5_cif.got.tgz:8991.got - 2010.06.03 12:22:45.
