data_PCOD9163984
_publ_section_title
;
Structure prediction by ZEFSAII (Michael W. Deem and Ramdas Pophale) SiO2 
 PCOD9163984
Probable space group: P 21/M
;
_chemical_formula_sum "Si O2"
_cell_formula_units_Z 28
_cell_length_a 21.849242
_cell_length_b 8.391522
_cell_length_c 14.994760
_cell_angle_alpha 90.000000
_cell_angle_beta 150.584208
_cell_angle_gamma 90.000000
_cell_volume 1350.284715
_symmetry_space_group_name_H-M "P 21/M"
_symmetry_group_IT_number 11
_symmetry_cell_setting 'monoclinic'
loop_
_space_group_symop_operation_xyz
x,y,z
-x,1/2+y,-z
-x,-y,-z
x,1/2-y,z
loop_
_atom_site_type_symbol
_atom_site_label
_atom_site_fract_x
_atom_site_fract_y
_atom_site_fract_z
Si Si1 0.399570 0.443593 0.946170
Si Si2 0.107317 0.437717 0.568027
Si Si3 0.891759 0.564880 0.798949
Si Si4 0.255218 0.442077 0.107923
Si Si5 0.654934 0.059924 0.596984
Si Si6 0.025959 0.561529 0.274353
Si Si7 0.569953 0.942459 0.816969
O O1 0.398874 0.250000 0.941226
O O2 0.252921 0.496302 0.755621
O O3 0.500000 0.500000 0.000000
O O4 0.445076 0.499725 0.101820
O O5 0.114675 0.250000 0.594520
O O6 0.062246 0.473803 0.410563
O O7 0.000000 0.500000 0.500000
O O8 0.913048 0.750000 0.808291
O O9 0.767273 0.535157 0.695396
O O10 0.886194 0.474720 0.697759
O O11 0.000000 0.500000 0.000000
O O12 0.264863 0.250000 0.128991
O O13 0.339294 0.517506 0.291650
O O14 0.301504 0.487526 0.068092
O O15 0.111457 0.488027 0.933743
O O16 0.672824 0.250000 0.610337
O O17 0.534892 0.013369 0.387377
O O18 0.022837 0.750000 0.288899
O O19 0.568630 0.750000 0.820910
#
# Coordination Sequence:
#
# PCOD9163984 Si02
#       7
#     4   4   4   4   4   4   4
#     4  10  23  44  66  92 125 166 214 271 327 385
#     4  11  24  43  68  98 131 168 218 273 326 386
#     4  12  24  40  60  87 124 163 208 257 308 371
#     4  10  20  38  62  88 122 163 202 249 306 369
#     4  11  22  36  59  90 123 160 203 250 304 370
#     4  11  23  39  64  93 125 166 208 255 316 373
#     4   9  20  39  62  87 119 160 204 250 309 371
#
# _framework density 20.736366
#
# number of rings (size 3 to 8) (size 9 to 14) (size 15 to 20)
#    0.000    1.429    1.429    3.857    2.000    4.000 
#    0.000    2.143    0.000    0.000    0.000    0.000 
#    0.000    0.000    0.000    0.000    0.000    0.000 
#
# Total GULP energy -156319.428802 kJ/mol
# GULP energy per Si atom -5582.836743 kJ/mol
# Density = 2.068917 g / cm^3
# Si number density = 20.736366 Si / 1000 Ang^3
#
#
#
# Elastic Constant Matrix: (Units=GPa)
#
#
# Indices 1 2 3 4 5 6 
#
# 1 156.7726 2.5162 44.9305 0.0000 -8.9211 0.0000
# 2 2.5162 25.6055 15.6762 0.0000 7.0571 0.0000
# 3 44.9305 15.6762 87.1061 0.0000 -4.8540 0.0000
# 4 0.0000 0.0000 0.0000 14.9603 0.0000 -5.8648
# 5 -8.9211 7.0571 -4.8540 0.0000 33.3065 0.0000
# 6 0.0000 0.0000 0.0000 -5.8648 0.0000 34.9159
#
#
#
# Elastic Compliance Matrix: (Units=1/GPa)
#
#
# Indices 1 2 3 4 5 6 
#
# 1 0.007600 0.001467 -0.004122 0.000000 0.001124 0.000000
# 2 0.001467 0.048175 -0.010055 0.000000 -0.011280 0.000000
# 3 -0.004122 -0.010055 0.015600 0.000000 0.003300 0.000000
# 4 0.000000 0.000000 0.000000 0.071555 0.000000 0.012019
# 5 0.001124 -0.011280 0.003300 0.000000 0.033196 0.000000
# 6 0.000000 0.000000 0.000000 0.012019 0.000000 0.030659
#
#
# Mechanical properties :
#
#
# Convention : Reuss Voigt Hill
#
# Bulk Modulus (GPa) = 21.76052 43.96999 32.86526
# Shear Modulus (GPa) = 20.20009 30.39396 25.29703
#
# Velocity S-wave (km/s) = 3.12451 3.83264 3.49655
# Velocity P-wave (km/s) = 4.85112 6.39029 5.67315
#
# Compressibility (1/GPa) = 0.04595478
#
# Stress axis : x y z
#
# Youngs Moduli (GPa) = 131.57274 20.75782 64.10376
#
# Poissons Ratio (x) = -0.03044 0.26421
# Poissons Ratio (y) = -0.19297 0.64456
# Poissons Ratio (z) = 0.54230 0.20872
#
# Static dielectric constant tensor:
#      x y z
#    x 1.705460 0.000000 0.023310 
#    y 0.000000 1.727450 0.000000 
#    z 0.023310 0.000000 1.760430 
# 
# From -- ./inp_files/49139.got.cif
#   From: 2010.05.17/outbox.cif.g08.bks.cpg/sg11_25_cif.got.tgz:49139.got - 2010.06.03 12:22:45.
