data_PCOD9163432
_publ_section_title
;
Structure prediction by ZEFSAII (Michael W. Deem and Ramdas Pophale) SiO2 
 PCOD9163432
Probable space group: P 21/M
;
_chemical_formula_sum "Si O2"
_cell_formula_units_Z 20
_cell_length_a 8.930886
_cell_length_b 9.939846
_cell_length_c 13.004229
_cell_angle_alpha 90.000000
_cell_angle_beta 64.920362
_cell_angle_gamma 90.000000
_cell_volume 1045.568586
_symmetry_space_group_name_H-M "P 21/M"
_symmetry_group_IT_number 11
_symmetry_cell_setting 'monoclinic'
loop_
_space_group_symop_operation_xyz
x,y,z
-x,1/2+y,-z
-x,-y,-z
x,1/2-y,z
loop_
_atom_site_type_symbol
_atom_site_label
_atom_site_fract_x
_atom_site_fract_y
_atom_site_fract_z
Si Si1 0.418129 0.470779 0.633070
Si Si2 0.588683 0.250000 0.091574
Si Si3 0.786302 0.750000 0.405653
Si Si4 0.878894 0.250000 0.777716
Si Si5 0.544940 0.250000 0.743377
Si Si6 0.319589 0.250000 0.998380
Si Si7 0.852842 0.030301 0.962097
Si Si8 0.488934 0.250000 0.333189
O O1 0.500000 0.500000 0.500000
O O2 0.264628 0.378393 0.648398
O O3 0.532631 0.380663 0.673916
O O4 0.400062 0.618508 0.682200
O O5 0.455473 0.250000 0.222003
O O6 0.484017 0.250000 0.018558
O O7 0.707871 0.119794 0.057192
O O8 0.669406 0.750000 0.542560
O O9 0.982301 0.750000 0.351705
O O10 0.704277 0.250000 0.769600
O O11 0.896435 0.121963 0.849863
O O12 0.382084 0.250000 0.862302
O O13 0.219359 0.385806 0.047967
O O14 0.000000 0.000000 0.000000
#
# Coordination Sequence:
#
# PCOD9163432 Si02
#       8
#     4   2   2   2   2   2   4   2
#     4   9  20  38  65  90 116 163 216 259 310 378
#     4  11  23  38  65  95 130 168 217 262 321 394
#     4   9  21  42  61  88 124 167 207 263 323 390
#     4  11  25  42  62  93 133 170 217 258 341 380
#     4  11  22  39  69  90 128 173 208 266 322 389
#     4  12  23  41  65  94 132 165 223 264 321 386
#     4  11  25  41  62  96 131 171 213 266 328 383
#     4  10  20  36  64  92 121 155 218 261 316 365
#
# _framework density 19.128347000000002
#
# number of rings (size 3 to 8) (size 9 to 14) (size 15 to 20)
#    0.000    1.600    2.000    3.600   11.200    0.000 
#    0.000    4.000    0.000    0.000    0.000    0.000 
#    0.000    0.000    0.000    0.000    0.000    0.000 
#
# Total GULP energy -111437.400411 kJ/mol
# GULP energy per Si atom -5571.870021 kJ/mol
# Density = 1.908481 g / cm^3
# Si number density = 19.128347 Si / 1000 Ang^3
#
#
#
# Elastic Constant Matrix: (Units=GPa)
#
#
# Indices 1 2 3 4 5 6 
#
# 1 97.3191 43.9688 27.3876 0.0000 7.3873 0.0000
# 2 43.9688 175.4162 31.8674 0.0000 4.1925 0.0000
# 3 27.3876 31.8674 108.0086 0.0000 0.2106 0.0000
# 4 0.0000 0.0000 0.0000 25.1277 0.0000 4.0021
# 5 7.3873 4.1925 0.2106 0.0000 32.3014 0.0000
# 6 0.0000 0.0000 0.0000 4.0021 0.0000 32.2015
#
#
#
# Elastic Compliance Matrix: (Units=1/GPa)
#
#
# Indices 1 2 3 4 5 6 
#
# 1 0.012296 -0.002597 -0.002347 0.000000 -0.002460 0.000000
# 2 -0.002597 0.006591 -0.001286 0.000000 -0.000253 0.000000
# 3 -0.002347 -0.001286 0.010232 0.000000 0.000637 0.000000
# 4 0.000000 0.000000 0.000000 0.040600 0.000000 -0.005046
# 5 -0.002460 -0.000253 0.000637 0.000000 0.031550 0.000000
# 6 0.000000 0.000000 0.000000 -0.005046 0.000000 0.031682
#
#
# Mechanical properties :
#
#
# Convention : Reuss Voigt Hill
#
# Bulk Modulus (GPa) = 60.02424 65.24349 62.63387
# Shear Modulus (GPa) = 33.12075 36.42747 34.77411
#
# Velocity S-wave (km/s) = 4.16565 4.36864 4.26835
# Velocity P-wave (km/s) = 7.38814 7.72199 7.55691
#
# Compressibility (1/GPa) = 0.01665993
#
# Stress axis : x y z
#
# Youngs Moduli (GPa) = 81.32785 151.71573 97.73522
#
# Poissons Ratio (x) = 0.39399 0.22937
# Poissons Ratio (y) = 0.21120 0.12566
# Poissons Ratio (z) = 0.19087 0.19507
#
# Static dielectric constant tensor:
#      x y z
#    x 1.645030 0.000000 0.017540 
#    y 0.000000 1.688370 0.000000 
#    z 0.017540 0.000000 1.747600 
# 
# From -- ./inp_files/27375.got.cif
#   From: 2010.05.17/outbox.cif.g08.bks.cpg/sg11_14_cif.got.tgz:27375.got - 2010.06.03 12:22:45.
