data_PCOD9163249
_publ_section_title
;
Structure prediction by ZEFSAII (Michael W. Deem and Ramdas Pophale) SiO2 
 PCOD9163249
Probable space group: P 21/M
;
_chemical_formula_sum "Si O2"
_cell_formula_units_Z 32
_cell_length_a 12.067115
_cell_length_b 9.086682
_cell_length_c 29.429078
_cell_angle_alpha 90.000000
_cell_angle_beta 148.321773
_cell_angle_gamma 90.000000
_cell_volume 1694.600764
_symmetry_space_group_name_H-M "P 21/M"
_symmetry_group_IT_number 11
_symmetry_cell_setting 'monoclinic'
loop_
_space_group_symop_operation_xyz
x,y,z
-x,1/2+y,-z
-x,-y,-z
x,1/2-y,z
loop_
_atom_site_type_symbol
_atom_site_label
_atom_site_fract_x
_atom_site_fract_y
_atom_site_fract_z
Si Si1 0.523313 0.576683 0.656992
Si Si2 0.316585 0.924657 0.133474
Si Si3 0.272313 0.573075 0.926781
Si Si4 0.659270 0.077558 0.307981
Si Si5 0.089370 0.925955 0.255822
Si Si6 0.095312 0.925462 0.453260
Si Si7 0.080500 0.925434 0.958681
Si Si8 0.728534 0.426141 0.582912
O O1 0.571196 0.750000 0.664889
O O2 0.477880 0.558925 0.694225
O O3 0.713117 0.477851 0.705674
O O4 0.307259 0.539923 0.555102
O O5 0.327349 0.750000 0.143241
O O6 0.535837 0.996526 0.224694
O O7 0.247849 0.954999 0.057521
O O8 0.130711 0.990187 0.100262
O O9 0.286797 0.750000 0.928958
O O10 0.172554 0.536392 0.941547
O O11 0.114578 0.508874 0.834060
O O12 0.500000 0.500000 0.000000
O O13 0.677164 0.250000 0.304771
O O14 0.888844 0.010421 0.396818
O O15 0.060761 0.750000 0.243193
O O16 0.151141 0.966590 0.328983
O O17 0.060221 0.750000 0.445200
O O18 0.141064 0.962435 0.416727
O O19 0.034830 0.750000 0.942996
O O20 0.500000 0.500000 0.500000
O O21 0.697681 0.250000 0.572576
#
# Coordination Sequence:
#
# PCOD9163249 Si02
#       8
#     4   4   4   4   4   4   4   4
#     4  10  21  38  59  82 114 154 194 236 285 342
#     4  10  20  36  60  86 112 147 188 234 286 345
#     4  11  24  42  62  85 118 156 194 242 293 347
#     4  11  23  36  53  83 119 151 189 236 286 342
#     4  11  23  38  61  92 119 150 194 242 291 348
#     4  10  21  38  58  80 111 153 194 235 286 339
#     4   9  20  39  61  84 112 147 189 236 287 340
#     4  10  21  38  61  86 115 150 193 242 286 338
#
# _framework density 18.883502
#
# number of rings (size 3 to 8) (size 9 to 14) (size 15 to 20)
#    0.000    1.750    1.250    2.625    0.000    8.000 
#    0.000    5.000    0.000    0.000    0.000    0.000 
#    0.000    0.000    0.000    0.000    0.000    0.000 
#
# Total GULP energy -178832.011658 kJ/mol
# GULP energy per Si atom -5588.500364 kJ/mol
# Density = 1.884052 g / cm^3
# Si number density = 18.883502 Si / 1000 Ang^3
#
#
#
# Elastic Constant Matrix: (Units=GPa)
#
#
# Indices 1 2 3 4 5 6 
#
# 1 38.4208 22.8646 24.7762 0.0000 -19.0189 0.0000
# 2 22.8646 41.5139 46.6093 0.0000 -9.6286 0.0000
# 3 24.7762 46.6093 122.2267 0.0000 -12.6985 0.0000
# 4 0.0000 0.0000 0.0000 35.7712 0.0000 2.9089
# 5 -19.0189 -9.6286 -12.6985 0.0000 17.9142 0.0000
# 6 0.0000 0.0000 0.0000 2.9089 0.0000 25.9848
#
#
#
# Elastic Compliance Matrix: (Units=1/GPa)
#
#
# Indices 1 2 3 4 5 6 
#
# 1 0.072792 -0.028237 0.002660 0.000000 0.063990 0.000000
# 2 -0.028237 0.055677 -0.016746 0.000000 -0.011923 0.000000
# 3 0.002660 -0.016746 0.014451 0.000000 0.004067 0.000000
# 4 0.000000 0.000000 0.000000 0.028212 0.000000 -0.003158
# 5 0.063990 -0.011923 0.004067 0.000000 0.120232 0.000000
# 6 0.000000 0.000000 0.000000 -0.003158 0.000000 0.038838
#
#
# Mechanical properties :
#
#
# Convention : Reuss Voigt Hill
#
# Bulk Modulus (GPa) = 17.16040 43.40685 30.28362
# Shear Modulus (GPa) = 11.51353 23.12814 17.32083
#
# Velocity S-wave (km/s) = 2.47192 3.50348 3.03189
# Velocity P-wave (km/s) = 4.15384 6.27713 5.32244
#
# Compressibility (1/GPa) = 0.05827370
#
# Stress axis : x y z
#
# Youngs Moduli (GPa) = 13.73775 17.96084 69.20048
#
# Poissons Ratio (x) = 0.50716 -0.18410
# Poissons Ratio (y) = 0.38791 1.15886
# Poissons Ratio (z) = -0.03655 0.30078
#
# Static dielectric constant tensor:
#      x y z
#    x 1.645820 0.000000 -0.024410 
#    y 0.000000 1.627860 0.000000 
#    z -0.024410 0.000000 1.648540 
# 
# From -- ./inp_files/73162.got.cif
#   From: 2010.05.17/outbox.cif.g08.bks.cpg/sg11_37_cif.got.tgz:73162.got - 2010.06.03 12:22:45.
