data_PCOD9163267
_publ_section_title
;
Structure prediction by ZEFSAII (Michael W. Deem and Ramdas Pophale) SiO2 
 PCOD9163267
Probable space group: P 21/M
;
_chemical_formula_sum "Si O2"
_cell_formula_units_Z 28
_cell_length_a 20.052590
_cell_length_b 7.872837
_cell_length_c 14.678560
_cell_angle_alpha 90.000000
_cell_angle_beta 147.038513
_cell_angle_gamma 90.000000
_cell_volume 1260.793895
_symmetry_space_group_name_H-M "P 21/M"
_symmetry_group_IT_number 11
_symmetry_cell_setting 'monoclinic'
loop_
_space_group_symop_operation_xyz
x,y,z
-x,1/2+y,-z
-x,-y,-z
x,1/2-y,z
loop_
_atom_site_type_symbol
_atom_site_label
_atom_site_fract_x
_atom_site_fract_y
_atom_site_fract_z
Si Si1 0.453250 0.050739 0.731253
Si Si2 0.597765 0.049098 0.533663
Si Si3 0.285110 0.956272 0.002120
Si Si4 0.205989 0.052132 0.101719
Si Si5 0.194681 0.460174 0.483485
Si Si6 0.020464 0.545884 0.627909
Si Si7 0.954712 0.560596 0.850771
O O1 0.459145 0.250000 0.759729
O O2 0.335377 0.982188 0.650401
O O3 0.424611 0.034727 0.589948
O O4 0.590287 0.981219 0.903164
O O5 0.592601 0.250000 0.514610
O O6 0.500000 0.000000 0.500000
O O7 0.726855 0.999430 0.728296
O O8 0.285756 0.750000 0.001851
O O9 0.154693 0.017014 0.813750
O O10 0.292097 0.015697 0.114753
O O11 0.174333 0.250000 0.068193
O O12 0.082895 0.946537 0.942893
O O13 0.193636 0.250000 0.481622
O O14 0.095259 0.514548 0.444371
O O15 0.143544 0.524646 0.327116
O O16 0.023267 0.750000 0.640171
O O17 0.000000 0.500000 0.500000
O O18 0.910695 0.750000 0.814043
O O19 0.000000 0.500000 0.000000
#
# Coordination Sequence:
#
# PCOD9163267 Si02
#       7
#     4   4   4   4   4   4   4
#     4  10  20  36  60  87 116 158 202 247 302 362
#     4  12  23  35  52  80 120 165 209 254 298 353
#     4  10  20  37  61  85 115 150 193 245 303 363
#     4  12  23  35  54  81 115 157 208 253 297 351
#     4   9  19  37  60  85 119 156 196 244 305 367
#     4  10  21  41  65  90 117 153 197 251 311 372
#     4  11  21  36  56  82 120 162 204 250 300 358
#
# _framework density 22.208227999999998
#
# number of rings (size 3 to 8) (size 9 to 14) (size 15 to 20)
#    0.000    1.429    2.857    3.857    0.000    1.714 
#    0.000    2.143    0.000    0.000    0.000    0.000 
#    0.000    0.000    0.000    0.000    0.000    0.000 
#
# Total GULP energy -156365.203584 kJ/mol
# GULP energy per Si atom -5584.471557 kJ/mol
# Density = 2.215768 g / cm^3
# Si number density = 22.208228 Si / 1000 Ang^3
#
#
#
# Elastic Constant Matrix: (Units=GPa)
#
#
# Indices 1 2 3 4 5 6 
#
# 1 133.0059 -1.6378 72.3031 0.0000 27.3001 0.0000
# 2 -1.6378 39.9774 -6.2447 0.0000 2.6671 0.0000
# 3 72.3031 -6.2447 104.0964 0.0000 28.6614 0.0000
# 4 0.0000 0.0000 0.0000 13.6927 0.0000 -6.7247
# 5 27.3001 2.6671 28.6614 0.0000 43.7475 0.0000
# 6 0.0000 0.0000 0.0000 -6.7247 0.0000 19.4787
#
#
#
# Elastic Compliance Matrix: (Units=1/GPa)
#
#
# Indices 1 2 3 4 5 6 
#
# 1 0.012318 -0.000566 -0.007910 0.000000 -0.002470 0.000000
# 2 -0.000566 0.025624 0.002761 0.000000 -0.003018 0.000000
# 3 -0.007910 0.002761 0.017024 0.000000 -0.006386 0.000000
# 4 0.000000 0.000000 0.000000 0.087942 0.000000 0.030360
# 5 -0.002470 -0.003018 -0.006386 0.000000 0.028768 0.000000
# 6 0.000000 0.000000 0.000000 0.030360 0.000000 0.061819
#
#
# Mechanical properties :
#
#
# Convention : Reuss Voigt Hill
#
# Bulk Modulus (GPa) = 22.96888 45.10234 34.03561
# Shear Modulus (GPa) = 19.27248 29.56107 24.41678
#
# Velocity S-wave (km/s) = 2.94905 3.65236 3.31939
# Velocity P-wave (km/s) = 4.68624 6.17570 5.48179
#
# Compressibility (1/GPa) = 0.04353718
#
# Stress axis : x y z
#
# Youngs Moduli (GPa) = 81.17911 39.02651 58.73913
#
# Poissons Ratio (x) = 0.02209 0.46462
# Poissons Ratio (y) = 0.04596 -0.16220
# Poissons Ratio (z) = 0.64212 -0.10777
#
# Static dielectric constant tensor:
#      x y z
#    x 1.892200 0.000000 0.061800 
#    y 0.000000 1.799430 0.000000 
#    z 0.061800 0.000000 1.864800 
# 
# From -- ./inp_files/54626.got.cif
#   From: 2010.05.17/outbox.cif.g08.bks.cpg/sg11_28_cif.got.tgz:54626.got - 2010.06.03 12:22:45.
