data_PCOD9163156
_publ_section_title
;
Structure prediction by ZEFSAII (Michael W. Deem and Ramdas Pophale) SiO2 
 PCOD9163156
Probable space group: P 21/M
;
_chemical_formula_sum "Si O2"
_cell_formula_units_Z 28
_cell_length_a 9.519787
_cell_length_b 9.065774
_cell_length_c 27.659246
_cell_angle_alpha 90.000000
_cell_angle_beta 39.528298
_cell_angle_gamma 90.000000
_cell_volume 1519.298309
_symmetry_space_group_name_H-M "P 21/M"
_symmetry_group_IT_number 11
_symmetry_cell_setting 'monoclinic'
loop_
_space_group_symop_operation_xyz
x,y,z
-x,1/2+y,-z
-x,-y,-z
x,1/2-y,z
loop_
_atom_site_type_symbol
_atom_site_label
_atom_site_fract_x
_atom_site_fract_y
_atom_site_fract_z
Si Si1 0.232325 0.418353 0.440615
Si Si2 0.475171 0.426960 0.715826
Si Si3 0.039323 0.571604 0.131850
Si Si4 0.324728 0.928737 0.149316
Si Si5 0.839921 0.928022 0.002481
Si Si6 0.716467 0.581594 0.458900
Si Si7 0.817951 0.430015 0.707266
O O1 0.208819 0.250000 0.430152
O O2 0.411768 0.498997 0.360241
O O3 0.288061 0.418193 0.482175
O O4 0.000000 0.500000 0.500000
O O5 0.497102 0.250000 0.705534
O O6 0.616001 0.472944 0.725759
O O7 0.217022 0.460510 0.788874
O O8 0.060542 0.750000 0.120068
O O9 0.193695 0.524481 0.135926
O O10 0.102412 0.490741 0.065665
O O11 0.312872 0.750000 0.152548
O O12 0.583291 0.967061 0.080192
O O13 0.217733 0.979770 0.228220
O O14 0.860684 0.750000 0.998425
O O15 0.000000 0.000000 0.000000
O O16 0.500000 0.500000 0.500000
O O17 0.705606 0.750000 0.444293
O O18 0.949373 0.520479 0.377241
O O19 0.818562 0.250000 0.707091
#
# Coordination Sequence:
#
# PCOD9163156 Si02
#       7
#     4   4   4   4   4   4   4
#     4  11  22  38  58  84 116 151 194 243 291 343
#     4  10  20  36  59  85 115 152 194 238 286 345
#     4  10  21  37  61  90 116 148 191 233 286 351
#     4   9  19  35  58  87 116 149 189 236 285 341
#     4  11  22  38  61  87 119 154 192 237 285 338
#     4  10  22  37  56  81 113 149 191 240 287 343
#     4   9  17  34  55  79 112 147 188 234 280 334
#
# _framework density 18.429561
#
# number of rings (size 3 to 8) (size 9 to 14) (size 15 to 20)
#    0.000    2.000    1.429    2.143    2.000    4.000 
#    0.000    0.714    0.000    2.571    0.000    0.000 
#    0.000    0.000    0.000    0.000    0.000    0.000 
#
# Total GULP energy -156257.523888 kJ/mol
# GULP energy per Si atom -5580.625853 kJ/mol
# Density = 1.838761 g / cm^3
# Si number density = 18.429561 Si / 1000 Ang^3
#
#
#
# Elastic Constant Matrix: (Units=GPa)
#
#
# Indices 1 2 3 4 5 6 
#
# 1 158.0735 42.8482 88.1169 0.0000 -10.7202 0.0000
# 2 42.8482 27.0166 31.9464 0.0000 -0.7874 0.0000
# 3 88.1169 31.9464 132.0386 0.0000 15.7938 0.0000
# 4 0.0000 0.0000 0.0000 31.3280 0.0000 2.4855
# 5 -10.7202 -0.7874 15.7938 0.0000 30.3195 0.0000
# 6 0.0000 0.0000 0.0000 2.4855 0.0000 27.3962
#
#
#
# Elastic Compliance Matrix: (Units=1/GPa)
#
#
# Indices 1 2 3 4 5 6 
#
# 1 0.015213 -0.014837 -0.007636 0.000000 0.008971 0.000000
# 2 -0.014837 0.068407 -0.006649 0.000000 -0.000006 0.000000
# 3 -0.007636 -0.006649 0.015593 0.000000 -0.010995 0.000000
# 4 0.000000 0.000000 0.000000 0.032152 0.000000 -0.002917
# 5 0.008971 -0.000006 -0.010995 0.000000 0.041881 0.000000
# 6 0.000000 0.000000 0.000000 -0.002917 0.000000 0.036766
#
#
# Mechanical properties :
#
#
# Convention : Reuss Voigt Hill
#
# Bulk Modulus (GPa) = 24.40784 71.43906 47.92345
# Shear Modulus (GPa) = 17.73608 28.08991 22.91299
#
# Velocity S-wave (km/s) = 3.10558 3.90831 3.52983
# Velocity P-wave (km/s) = 5.11195 7.69506 6.53246
#
# Compressibility (1/GPa) = 0.04097045
#
# Stress axis : x y z
#
# Youngs Moduli (GPa) = 65.73418 14.61836 64.13117
#
# Poissons Ratio (x) = 0.21689 0.48968
# Poissons Ratio (y) = 0.97529 0.42638
# Poissons Ratio (z) = 0.50192 0.09719
#
# Static dielectric constant tensor:
#      x y z
#    x 1.612960 0.000000 -0.000540 
#    y 0.000000 1.636320 0.000000 
#    z -0.000540 0.000000 1.615830 
# 
# From -- ./inp_files/70836.got.cif
#   From: 2010.05.17/outbox.cif.g08.bks.cpg/sg11_36_cif.got.tgz:70836.got - 2010.06.03 12:22:45.
