data_PCOD9163793
_publ_section_title
;
Structure prediction by ZEFSAII (Michael W. Deem and Ramdas Pophale) SiO2 
 PCOD9163793
Probable space group: P 21/M
;
_chemical_formula_sum "Si O2"
_cell_formula_units_Z 20
_cell_length_a 7.478691
_cell_length_b 16.545187
_cell_length_c 6.906896
_cell_angle_alpha 90.000000
_cell_angle_beta 60.208923
_cell_angle_gamma 90.000000
_cell_volume 741.688032
_symmetry_space_group_name_H-M "P 21/M"
_symmetry_group_IT_number 11
_symmetry_cell_setting 'monoclinic'
loop_
_space_group_symop_operation_xyz
x,y,z
-x,1/2+y,-z
-x,-y,-z
x,1/2-y,z
loop_
_atom_site_type_symbol
_atom_site_label
_atom_site_fract_x
_atom_site_fract_y
_atom_site_fract_z
Si Si1 0.688057 0.662820 0.303571
Si Si2 0.042340 0.840127 0.671517
Si Si3 0.636925 0.893322 0.752335
Si Si4 0.673598 0.340409 0.817152
Si Si5 0.252336 0.498736 0.612121
O O1 0.789993 0.750000 0.216951
O O2 0.616575 0.657890 0.566747
O O3 0.487465 0.657515 0.276326
O O4 0.815391 0.579060 0.226010
O O5 0.105422 0.750000 0.698258
O O6 0.109335 0.847788 0.407542
O O7 0.796934 0.849213 0.807768
O O8 0.148362 0.917062 0.710421
O O9 0.753917 0.973359 0.612280
O O10 0.420036 0.901319 0.975925
O O11 0.662760 0.250000 0.908914
O O12 0.500000 0.500000 0.500000
#
# Coordination Sequence:
#
# PCOD9163793 Si02
#       5
#     4   4   4   4   4
#     4   9  19  37  61  86 122 159 198 247 295 353
#     4  11  21  38  62  91 121 156 202 253 294 354
#     4  10  22  39  63  86 123 153 201 247 302 347
#     4  10  20  37  63  89 117 163 200 238 302 356
#     4  10  21  39  61  89 122 161 200 243 303 354
#
# _framework density 26.965516000000001
#
# number of rings (size 3 to 8) (size 9 to 14) (size 15 to 20)
#    1.200    0.800    2.000    2.400    0.000    0.800 
#    0.000    5.000    0.000    7.200    0.000    0.000 
#    0.000    0.000    0.000    0.000    0.000    0.000 
#
# Total GULP energy -111663.134892 kJ/mol
# GULP energy per Si atom -5583.156745 kJ/mol
# Density = 2.690414 g / cm^3
# Si number density = 26.965516 Si / 1000 Ang^3
#
#
#
# Elastic Constant Matrix: (Units=GPa)
#
#
# Indices 1 2 3 4 5 6 
#
# 1 63.1441 25.8632 17.4595 0.0000 0.3181 0.0000
# 2 25.8632 195.1597 5.1073 0.0000 1.3240 0.0000
# 3 17.4595 5.1073 121.9900 0.0000 -22.3900 0.0000
# 4 0.0000 0.0000 0.0000 12.1159 0.0000 -0.2826
# 5 0.3181 1.3240 -22.3900 0.0000 28.3704 0.0000
# 6 0.0000 0.0000 0.0000 -0.2826 0.0000 24.4496
#
#
#
# Elastic Compliance Matrix: (Units=1/GPa)
#
#
# Indices 1 2 3 4 5 6 
#
# 1 0.017552 -0.002236 -0.002848 0.000000 -0.002340 0.000000
# 2 -0.002236 0.005420 0.000060 0.000000 -0.000181 0.000000
# 3 -0.002848 0.000060 0.010066 0.000000 0.007973 0.000000
# 4 0.000000 0.000000 0.000000 0.082558 0.000000 0.000954
# 5 -0.002340 -0.000181 0.007973 0.000000 0.041575 0.000000
# 6 0.000000 0.000000 0.000000 0.000954 0.000000 0.040912
#
#
# Mechanical properties :
#
#
# Convention : Reuss Voigt Hill
#
# Bulk Modulus (GPa) = 43.49668 53.01709 48.25689
# Shear Modulus (GPa) = 23.17033 35.11144 29.14089
#
# Velocity S-wave (km/s) = 2.93449 3.61236 3.29092
# Velocity P-wave (km/s) = 5.25806 6.09119 5.68989
#
# Compressibility (1/GPa) = 0.02299026
#
# Stress axis : x y z
#
# Youngs Moduli (GPa) = 56.97453 184.50409 99.34557
#
# Poissons Ratio (x) = 0.41248 0.28293
# Poissons Ratio (y) = 0.12737 -0.00595
# Poissons Ratio (z) = 0.16226 -0.01105
#
# Static dielectric constant tensor:
#      x y z
#    x 2.117300 0.000000 0.048200 
#    y 0.000000 2.258760 0.000000 
#    z 0.048200 0.000000 2.090290 
# 
# From -- ./inp_files/12794.got.cif
#   From: 2010.05.17/outbox.cif.g08.bks.cpg/sg11_7_cif.got.tgz:12794.got - 2010.06.03 12:22:45.
