data_PCOD9163833
_publ_section_title
;
Structure prediction by ZEFSAII (Michael W. Deem and Ramdas Pophale) SiO2 
 PCOD9163833
Probable space group: P 21/M
;
_chemical_formula_sum "Si O2"
_cell_formula_units_Z 26
_cell_length_a 19.734268
_cell_length_b 8.584177
_cell_length_c 7.326167
_cell_angle_alpha 90.000000
_cell_angle_beta 58.697645
_cell_angle_gamma 90.000000
_cell_volume 1060.417261
_symmetry_space_group_name_H-M "P 21/M"
_symmetry_group_IT_number 11
_symmetry_cell_setting 'monoclinic'
loop_
_space_group_symop_operation_xyz
x,y,z
-x,1/2+y,-z
-x,-y,-z
x,1/2-y,z
loop_
_atom_site_type_symbol
_atom_site_label
_atom_site_fract_x
_atom_site_fract_y
_atom_site_fract_z
Si Si1 0.354005 0.461441 0.428169
Si Si2 0.855712 0.564436 0.036270
Si Si3 0.804786 0.428920 0.466775
Si Si4 0.391415 0.750000 0.885389
Si Si5 0.974667 0.062853 0.342192
Si Si6 0.700090 0.924987 0.079927
Si Si7 0.547179 0.250000 0.580169
Si Si8 0.469510 0.250000 0.044702
O O1 0.277585 0.480921 0.405567
O O2 0.324116 0.403460 0.669994
O O3 0.398418 0.609871 0.438847
O O4 0.420867 0.387324 0.206957
O O5 0.850788 0.750000 0.095462
O O6 0.821417 0.441771 0.227570
O O7 0.795807 0.548011 0.948993
O O8 0.948272 0.525656 0.886314
O O9 0.793362 0.250000 0.541106
O O10 0.886817 0.498721 0.424882
O O11 0.342915 0.586017 0.927220
O O12 0.459465 0.750000 0.628710
O O13 0.440846 0.750000 0.002482
O O14 0.967755 0.250000 0.349228
O O15 0.000000 0.000000 0.500000
O O16 0.688480 0.750000 0.014224
O O17 0.473675 0.250000 0.819976
#
# Coordination Sequence:
#
# PCOD9163833 Si02
#       8
#     4   4   4   2   4   4   2   2
#     4  10  20  40  62  88 126 159 211 268 321 390
#     4   9  19  35  62  90 122 160 210 261 306 377
#     4  10  20  37  65  89 118 166 210 254 315 380
#     4  10  24  42  68 101 131 172 227 275 340 400
#     4  10  22  40  57  89 130 164 206 260 314 378
#     4   9  18  38  63  93 132 172 211 271 330 390
#     4  10  22  42  68  88 129 166 207 284 332 390
#     4  12  24  42  66  97 126 166 226 271 336 410
#
# _framework density 24.518647000000001
#
# number of rings (size 3 to 8) (size 9 to 14) (size 15 to 20)
#    0.000    2.154    1.538    0.923    4.308    3.692 
#    4.154    0.000    3.385    0.000    0.000    0.000 
#    0.000    0.000    0.000    0.000    0.000    0.000 
#
# Total GULP energy -144917.015772 kJ/mol
# GULP energy per Si atom -5573.731376 kJ/mol
# Density = 2.446284 g / cm^3
# Si number density = 24.518647 Si / 1000 Ang^3
#
#
#
# Elastic Constant Matrix: (Units=GPa)
#
#
# Indices 1 2 3 4 5 6 
#
# 1 141.1373 14.8637 7.6931 0.0000 -34.8069 0.0000
# 2 14.8637 60.1700 19.1677 0.0000 -10.7753 0.0000
# 3 7.6931 19.1677 80.1417 0.0000 -5.6645 0.0000
# 4 0.0000 0.0000 0.0000 -24.3146 0.0000 -9.4720
# 5 -34.8069 -10.7753 -5.6645 0.0000 29.3785 0.0000
# 6 0.0000 0.0000 0.0000 -9.4720 0.0000 21.1656
#
#
#
# Elastic Compliance Matrix: (Units=1/GPa)
#
#
# Indices 1 2 3 4 5 6 
#
# 1 0.010018 -0.000360 -0.000047 0.000000 0.011728 0.000000
# 2 -0.000360 0.019052 -0.004115 0.000000 0.005769 0.000000
# 3 -0.000047 -0.004115 0.013540 0.000000 0.001046 0.000000
# 4 0.000000 0.000000 0.000000 -0.035022 0.000000 -0.015673
# 5 0.011728 0.005769 0.001046 0.000000 0.050251 0.000000
# 6 0.000000 0.000000 0.000000 -0.015673 0.000000 0.040233
#
#
# Mechanical properties :
#
#
# Convention : Reuss Voigt Hill
#
# Bulk Modulus (GPa) = 29.78925 40.54420 35.16673
# Shear Modulus (GPa) = 42.26408 21.22756 31.74582
#
# Velocity S-wave (km/s) = 4.15631 2.94559 3.60218
# Velocity P-wave (km/s) = 5.93374 5.30478 5.62805
#
# Compressibility (1/GPa) = 0.03356915
#
# Stress axis : x y z
#
# Youngs Moduli (GPa) = 99.81912 52.48751 73.85300
#
# Poissons Ratio (x) = 0.01887 0.00345
# Poissons Ratio (y) = 0.03589 0.30387
# Poissons Ratio (z) = 0.00466 0.21596
#
# Static dielectric constant tensor:
#      x y z
#    x 1.978410 0.000000 -0.037110 
#    y 0.000000 2.447040 0.000000 
#    z -0.037110 0.000000 2.012910 
# 
# From -- ./inp_files/26139.got.cif
#   From: 2010.05.17/outbox.cif.g08.bks.cpg/sg11_14_cif.got.tgz:26139.got - 2010.06.03 12:22:45.
