data_PCOD9163626
_publ_section_title
;
Structure prediction by ZEFSAII (Michael W. Deem and Ramdas Pophale) SiO2 
 PCOD9163626
Probable space group: P 21/M
;
_chemical_formula_sum "Si O2"
_cell_formula_units_Z 32
_cell_length_a 22.799916
_cell_length_b 8.960464
_cell_length_c 15.391143
_cell_angle_alpha 90.000000
_cell_angle_beta 148.170409
_cell_angle_gamma 90.000000
_cell_volume 1658.327675
_symmetry_space_group_name_H-M "P 21/M"
_symmetry_group_IT_number 11
_symmetry_cell_setting 'monoclinic'
loop_
_space_group_symop_operation_xyz
x,y,z
-x,1/2+y,-z
-x,-y,-z
x,1/2-y,z
loop_
_atom_site_type_symbol
_atom_site_label
_atom_site_fract_x
_atom_site_fract_y
_atom_site_fract_z
Si Si1 0.503823 0.071925 0.736276
Si Si2 0.286986 0.570196 0.385489
Si Si3 0.241739 0.929529 0.975607
Si Si4 0.911229 0.429720 0.733455
Si Si5 0.878018 0.927666 0.340708
Si Si6 0.805205 0.424305 0.422857
Si Si7 0.548212 0.076105 0.146360
Si Si8 0.145101 0.929373 0.041037
O O1 0.492343 0.250000 0.724891
O O2 0.404249 0.003520 0.554609
O O3 0.492133 0.006192 0.818298
O O4 0.626993 0.036204 0.856977
O O5 0.299507 0.750000 0.405826
O O6 0.194091 0.526624 0.340151
O O7 0.235530 0.529535 0.227544
O O8 0.230117 0.750000 0.949975
O O9 0.184776 0.009542 0.822602
O O10 0.185048 0.972415 0.995105
O O11 0.918035 0.250000 0.745052
O O12 0.887944 0.472715 0.603955
O O13 0.025755 0.499284 0.909608
O O14 0.886059 0.750000 0.346518
O O15 0.815589 0.979001 0.349739
O O16 0.000000 0.000000 0.500000
O O17 0.827560 0.250000 0.429288
O O18 0.681734 0.431489 0.306989
O O19 0.516248 0.250000 0.109706
O O20 0.500000 0.000000 0.000000
O O21 0.133996 0.750000 0.029904
#
# Coordination Sequence:
#
# PCOD9163626 Si02
#       8
#     4   4   4   4   4   4   4   4
#     4  11  23  39  61  88 122 161 204 251 301 359
#     4  10  21  40  62  88 122 159 198 248 310 365
#     4  10  23  43  61  86 123 161 203 255 304 354
#     4  10  20  37  60  88 122 155 193 245 308 366
#     4  12  25  40  61  89 120 160 205 249 298 359
#     4  10  21  38  59  84 118 157 193 242 301 354
#     4  11  22  38  59  86 120 155 196 244 298 356
#     4  10  22  39  62  88 117 157 203 251 305 362
#
# _framework density 19.296548000000001
#
# number of rings (size 3 to 8) (size 9 to 14) (size 15 to 20)
#    0.000    1.500    1.250    3.750    0.000    9.500 
#    0.000    0.000    0.000    0.000    0.000    0.000 
#    0.000    0.000    0.000    0.000    0.000    0.000 
#
# Total GULP energy -178922.715693 kJ/mol
# GULP energy per Si atom -5591.334865 kJ/mol
# Density = 1.925263 g / cm^3
# Si number density = 19.296548 Si / 1000 Ang^3
#
#
#
# Elastic Constant Matrix: (Units=GPa)
#
#
# Indices 1 2 3 4 5 6 
#
# 1 75.8479 34.3691 31.0591 0.0000 -0.7982 0.0000
# 2 34.3691 52.3604 48.9639 0.0000 2.6741 0.0000
# 3 31.0591 48.9639 133.0472 0.0000 -1.7513 0.0000
# 4 0.0000 0.0000 0.0000 34.9363 0.0000 5.5308
# 5 -0.7982 2.6741 -1.7513 0.0000 34.3102 0.0000
# 6 0.0000 0.0000 0.0000 5.5308 0.0000 16.5469
#
#
#
# Elastic Compliance Matrix: (Units=1/GPa)
#
#
# Indices 1 2 3 4 5 6 
#
# 1 0.018841 -0.012725 0.000304 0.000000 0.001446 0.000000
# 2 -0.012725 0.037989 -0.011060 0.000000 -0.003821 0.000000
# 3 0.000304 -0.011060 0.011535 0.000000 0.001458 0.000000
# 4 0.000000 0.000000 0.000000 0.030223 0.000000 -0.010102
# 5 0.001446 -0.003821 0.001458 0.000000 0.029552 0.000000
# 6 0.000000 0.000000 0.000000 -0.010102 0.000000 0.063811
#
#
# Mechanical properties :
#
#
# Convention : Reuss Voigt Hill
#
# Bulk Modulus (GPa) = 46.72536 54.44884 50.58710
# Shear Modulus (GPa) = 20.32121 26.94958 23.63539
#
# Velocity S-wave (km/s) = 3.24867 3.74117 3.50358
# Velocity P-wave (km/s) = 6.19183 6.85127 6.52988
#
# Compressibility (1/GPa) = 0.02140165
#
# Stress axis : x y z
#
# Youngs Moduli (GPa) = 53.07499 26.32327 86.69378
#
# Poissons Ratio (x) = 0.33497 -0.02633
# Poissons Ratio (y) = 0.67539 0.95887
# Poissons Ratio (z) = -0.01612 0.29115
#
# Static dielectric constant tensor:
#      x y z
#    x 1.669070 0.000000 0.005260 
#    y 0.000000 1.645990 0.000000 
#    z 0.005260 0.000000 1.661560 
# 
# From -- ./inp_files/55705.got.cif
#   From: 2010.05.17/outbox.cif.g08.bks.cpg/sg11_28_cif.got.tgz:55705.got - 2010.06.03 12:22:45.
