data_PCOD9163548
_publ_section_title
;
Structure prediction by ZEFSAII (Michael W. Deem and Ramdas Pophale) SiO2 
 PCOD9163548
Probable space group: P 21/M
;
_chemical_formula_sum "Si O2"
_cell_formula_units_Z 28
_cell_length_a 9.692433
_cell_length_b 8.696017
_cell_length_c 27.655563
_cell_angle_alpha 90.000000
_cell_angle_beta 139.617889
_cell_angle_gamma 90.000000
_cell_volume 1510.190289
_symmetry_space_group_name_H-M "P 21/M"
_symmetry_group_IT_number 11
_symmetry_cell_setting 'monoclinic'
loop_
_space_group_symop_operation_xyz
x,y,z
-x,1/2+y,-z
-x,-y,-z
x,1/2-y,z
loop_
_atom_site_type_symbol
_atom_site_label
_atom_site_fract_x
_atom_site_fract_y
_atom_site_fract_z
Si Si1 0.353675 0.436538 0.918360
Si Si2 0.887472 0.423097 0.688516
Si Si3 0.602175 0.576261 0.176386
Si Si4 0.937936 0.567595 0.431096
Si Si5 0.730146 0.571817 0.553862
Si Si6 0.122164 0.434483 0.213160
Si Si7 0.538900 0.067303 0.264168
O O1 0.345364 0.250000 0.916053
O O2 0.448804 0.485169 0.891035
O O3 0.113986 0.501569 0.860637
O O4 0.500000 0.500000 0.000000
O O5 0.806865 0.250000 0.655929
O O6 0.837653 0.545408 0.634272
O O7 0.807447 0.483262 0.718420
O O8 0.141902 0.413520 0.758229
O O9 0.516280 0.750000 0.158168
O O10 0.551315 0.486744 0.211839
O O11 0.919176 0.750000 0.429995
O O12 0.131286 0.521078 0.447562
O O13 0.000000 0.500000 0.500000
O O14 0.723392 0.505613 0.347424
O O15 0.500000 0.500000 0.500000
O O16 0.722531 0.750000 0.538334
O O17 0.109588 0.250000 0.216404
O O18 0.304647 0.467746 0.222739
O O19 0.571709 0.250000 0.274823
#
# Coordination Sequence:
#
# PCOD9163548 Si02
#       7
#     4   4   4   4   4   4   4
#     4  10  21  39  64  93 124 157 198 245 300 362
#     4  10  20  37  59  85 114 151 200 248 297 355
#     4   9  19  36  60  87 117 153 195 242 294 355
#     4  12  26  44  63  86 121 162 208 258 313 370
#     4  12  25  41  61  85 116 154 200 254 310 365
#     4  10  22  38  59  89 123 158 200 247 296 356
#     4  11  23  39  61  89 122 160 206 250 302 365
#
# _framework density 18.540709
#
# number of rings (size 3 to 8) (size 9 to 14) (size 15 to 20)
#    0.000    1.429    1.429    5.143    2.000    5.143 
#    0.000    0.714    0.000    0.000    0.000    0.000 
#    0.000    0.000    0.000    0.000    0.000    0.000 
#
# Total GULP energy -156263.460506 kJ/mol
# GULP energy per Si atom -5580.837875 kJ/mol
# Density = 1.849851 g / cm^3
# Si number density = 18.540709 Si / 1000 Ang^3
#
#
#
# Elastic Constant Matrix: (Units=GPa)
#
#
# Indices 1 2 3 4 5 6 
#
# 1 150.7884 62.5467 63.7616 0.0000 -16.8724 0.0000
# 2 62.5467 100.9540 33.8395 0.0000 -7.3293 0.0000
# 3 63.7616 33.8395 93.3360 0.0000 -23.4554 0.0000
# 4 0.0000 0.0000 0.0000 32.2656 0.0000 -2.6836
# 5 -16.8724 -7.3293 -23.4554 0.0000 27.6298 0.0000
# 6 0.0000 0.0000 0.0000 -2.6836 0.0000 32.3765
#
#
#
# Elastic Compliance Matrix: (Units=1/GPa)
#
#
# Indices 1 2 3 4 5 6 
#
# 1 0.011159 -0.004971 -0.005644 0.000000 0.000705 0.000000
# 2 -0.004971 0.013498 -0.001730 0.000000 -0.000924 0.000000
# 3 -0.005644 -0.001730 0.018071 0.000000 0.011435 0.000000
# 4 0.000000 0.000000 0.000000 0.031208 0.000000 0.002587
# 5 0.000705 -0.000924 0.011435 0.000000 0.046085 0.000000
# 6 0.000000 0.000000 0.000000 0.002587 0.000000 0.031101
#
#
# Mechanical properties :
#
#
# Convention : Reuss Voigt Hill
#
# Bulk Modulus (GPa) = 55.43917 73.93043 64.68480
# Shear Modulus (GPa) = 27.49909 30.78308 29.14108
#
# Velocity S-wave (km/s) = 3.85538 4.07909 3.96881
# Velocity P-wave (km/s) = 7.05584 7.88331 7.48102
#
# Compressibility (1/GPa) = 0.01803779
#
# Stress axis : x y z
#
# Youngs Moduli (GPa) = 89.61329 74.08494 55.33871
#
# Poissons Ratio (x) = 0.36825 0.31233
# Poissons Ratio (y) = 0.44544 0.09575
# Poissons Ratio (z) = 0.50578 0.12818
#
# Static dielectric constant tensor:
#      x y z
#    x 1.617690 0.000000 -0.048290 
#    y 0.000000 1.611960 0.000000 
#    z -0.048290 0.000000 1.600000 
# 
# From -- ./inp_files/70898.got.cif
#   From: 2010.05.17/outbox.cif.g08.bks.cpg/sg11_36_cif.got.tgz:70898.got - 2010.06.03 12:22:45.
