data_PCOD9163778
_publ_section_title
;
Structure prediction by ZEFSAII (Michael W. Deem and Ramdas Pophale) SiO2 
 PCOD9163778
Probable space group: P 21/M
;
_chemical_formula_sum "Si O2"
_cell_formula_units_Z 28
_cell_length_a 14.889897
_cell_length_b 17.455649
_cell_length_c 7.807067
_cell_angle_alpha 90.000000
_cell_angle_beta 35.859319
_cell_angle_gamma 90.000000
_cell_volume 1188.674079
_symmetry_space_group_name_H-M "P 21/M"
_symmetry_group_IT_number 11
_symmetry_cell_setting 'monoclinic'
loop_
_space_group_symop_operation_xyz
x,y,z
-x,1/2+y,-z
-x,-y,-z
x,1/2-y,z
loop_
_atom_site_type_symbol
_atom_site_label
_atom_site_fract_x
_atom_site_fract_y
_atom_site_fract_z
Si Si1 0.153923 0.038562 0.347887
Si Si2 0.726387 0.163559 0.406195
Si Si3 0.034552 0.839892 0.458430
Si Si4 0.550422 0.921343 0.334733
Si Si5 0.620007 0.840550 0.562987
Si Si6 0.317367 0.896224 0.172148
Si Si7 0.042770 0.342640 0.020176
O O1 0.078606 0.120450 0.501354
O O2 0.237684 0.977347 0.341315
O O3 0.295723 0.058810 0.004941
O O4 0.000000 0.000000 0.500000
O O5 0.716617 0.250000 0.351476
O O6 0.592053 0.109214 0.552988
O O7 0.706611 0.164800 0.642101
O O8 0.898399 0.130998 0.130644
O O9 0.030791 0.750000 0.444724
O O10 0.210802 0.868771 0.178072
O O11 0.978455 0.859413 0.742373
O O12 0.583297 0.854871 0.420715
O O13 0.500000 0.000000 0.500000
O O14 0.605547 0.750000 0.629021
O O15 0.495498 0.892377 0.853013
O O16 0.794814 0.868041 0.304593
O O17 0.041147 0.250000 0.014823
#
# Coordination Sequence:
#
# PCOD9163778 Si02
#       7
#     4   4   4   4   4   4   4
#     4  10  21  37  60  89 130 167 208 256 312 376
#     4  10  22  42  66  91 122 164 210 256 306 374
#     4   9  16  31  58  89 120 165 215 255 304 376
#     4  12  24  41  60  90 127 164 210 251 315 375
#     4  11  20  35  64  95 123 160 209 264 311 369
#     4  10  20  37  62  91 125 162 204 262 327 370
#     4   8  16  32  58  87 118 157 203 253 305 356
#
# _framework density 23.555658999999999
#
# number of rings (size 3 to 8) (size 9 to 14) (size 15 to 20)
#    0.000    2.000    2.857    2.571    0.000    1.143 
#    0.000    2.143    0.000    0.000    0.000    0.000 
#    0.000    0.000    0.000    0.000    0.000    0.000 
#
# Total GULP energy -156141.706408 kJ/mol
# GULP energy per Si atom -5576.489515 kJ/mol
# Density = 2.350205 g / cm^3
# Si number density = 23.555659 Si / 1000 Ang^3
#
#
#
# Elastic Constant Matrix: (Units=GPa)
#
#
# Indices 1 2 3 4 5 6 
#
# 1 61.7586 27.3873 46.3693 0.0000 -30.3416 0.0000
# 2 27.3873 81.1391 27.9645 0.0000 -21.0717 0.0000
# 3 46.3693 27.9645 166.4991 0.0000 -48.2029 0.0000
# 4 0.0000 0.0000 0.0000 25.7279 0.0000 -7.8150
# 5 -30.3416 -21.0717 -48.2029 0.0000 36.4904 0.0000
# 6 0.0000 0.0000 0.0000 -7.8150 0.0000 28.6106
#
#
#
# Elastic Compliance Matrix: (Units=1/GPa)
#
#
# Indices 1 2 3 4 5 6 
#
# 1 0.028789 -0.004115 -0.001756 0.000000 0.019242 0.000000
# 2 -0.004115 0.015087 0.000233 0.000000 0.005598 0.000000
# 3 -0.001756 0.000233 0.009832 0.000000 0.011663 0.000000
# 4 0.000000 0.000000 0.000000 0.042385 0.000000 0.011577
# 5 0.019242 0.005598 0.011663 0.000000 0.062043 0.000000
# 6 0.000000 0.000000 0.000000 0.011577 0.000000 0.038114
#
#
# Mechanical properties :
#
#
# Convention : Reuss Voigt Hill
#
# Bulk Modulus (GPa) = 23.56685 56.98210 40.27448
# Shear Modulus (GPa) = 22.55601 32.01084 27.28342
#
# Velocity S-wave (km/s) = 3.09781 3.69039 3.40700
# Velocity P-wave (km/s) = 4.77720 6.51165 5.71066
#
# Compressibility (1/GPa) = 0.04243248
#
# Stress axis : x y z
#
# Youngs Moduli (GPa) = 34.73607 66.28207 101.70444
#
# Poissons Ratio (x) = 0.27274 0.17855
# Poissons Ratio (y) = 0.14293 -0.02367
# Poissons Ratio (z) = 0.06098 -0.01542
#
# Static dielectric constant tensor:
#      x y z
#    x 1.947290 0.000000 -0.021350 
#    y 0.000000 1.935660 0.000000 
#    z -0.021350 0.000000 1.971540 
# 
# From -- ./inp_files/23199.got.cif
#   From: 2010.05.17/outbox.cif.g08.bks.cpg/sg11_12_cif.got.tgz:23199.got - 2010.06.03 12:22:45.
