data_PCOD9163760
_publ_section_title
;
Structure prediction by ZEFSAII (Michael W. Deem and Ramdas Pophale) SiO2 
 PCOD9163760
Probable space group: P 21/M
;
_chemical_formula_sum "Si O2"
_cell_formula_units_Z 32
_cell_length_a 24.396478
_cell_length_b 11.252289
_cell_length_c 11.853261
_cell_angle_alpha 90.000000
_cell_angle_beta 150.117218
_cell_angle_gamma 90.000000
_cell_volume 1621.187690
_symmetry_space_group_name_H-M "P 21/M"
_symmetry_group_IT_number 11
_symmetry_cell_setting 'monoclinic'
loop_
_space_group_symop_operation_xyz
x,y,z
-x,1/2+y,-z
-x,-y,-z
x,1/2-y,z
loop_
_atom_site_type_symbol
_atom_site_label
_atom_site_fract_x
_atom_site_fract_y
_atom_site_fract_z
Si Si1 0.036354 0.960048 0.750457
Si Si2 0.955443 0.614206 0.849320
Si Si3 0.707602 0.611267 0.336453
Si Si4 0.862789 0.116110 0.302407
Si Si5 0.241429 0.114523 0.188316
Si Si6 0.353270 0.504679 0.999099
Si Si7 0.431243 0.118609 0.344871
Si Si8 0.419168 0.392693 0.679661
O O1 0.936960 0.029912 0.512011
O O2 0.994958 0.893650 0.788792
O O3 0.093712 0.891073 0.748693
O O4 0.130343 0.047636 0.963965
O O5 0.981955 0.750000 0.937986
O O6 0.823406 0.602302 0.607545
O O7 0.000000 0.500000 0.000000
O O8 0.691151 0.750000 0.280116
O O9 0.610823 0.570736 0.247458
O O10 0.706052 0.538755 0.219315
O O11 0.876144 0.250000 0.367603
O O12 0.735704 0.077986 0.087681
O O13 0.214751 0.250000 0.172451
O O14 0.320203 0.116662 0.219958
O O15 0.321146 0.059718 0.425273
O O16 0.396225 0.397567 0.153282
O O17 0.462686 0.573168 0.156627
O O18 0.483164 0.250000 0.457485
O O19 0.500000 0.000000 0.500000
O O20 0.411509 0.250000 0.661554
#
# Coordination Sequence:
#
# PCOD9163760 Si02
#       8
#     4   4   4   4   4   4   4   4
#     4  11  22  42  62  92 127 169 218 265 323 385
#     4  11  24  44  70  96 131 173 220 271 322 384
#     4  10  22  41  62  88 120 164 217 264 312 377
#     4  11  24  38  60  94 131 169 210 267 331 386
#     4  10  20  37  62  89 122 167 215 256 311 390
#     4  12  21  40  61  92 127 167 207 265 321 387
#     4  11  23  40  63  94 128 169 214 261 322 387
#     4  10  21  37  62  89 120 161 210 263 317 376
#
# _framework density 19.738614999999999
#
# number of rings (size 3 to 8) (size 9 to 14) (size 15 to 20)
#    0.000    1.250    3.750    2.625    0.000    2.500 
#    0.000    0.000    0.000    2.250    0.000    0.000 
#    0.000    0.000    0.000    0.000    0.000    0.000 
#
# Total GULP energy -178522.102200 kJ/mol
# GULP energy per Si atom -5578.815694 kJ/mol
# Density = 1.969369 g / cm^3
# Si number density = 19.738615 Si / 1000 Ang^3
#
#
#
# Elastic Constant Matrix: (Units=GPa)
#
#
# Indices 1 2 3 4 5 6 
#
# 1 116.7023 31.5270 21.8802 0.0000 8.9846 0.0000
# 2 31.5270 88.6096 28.9986 0.0000 1.5482 0.0000
# 3 21.8802 28.9986 71.9893 0.0000 10.6121 0.0000
# 4 0.0000 0.0000 0.0000 182.9313 0.0000 14.1250
# 5 8.9846 1.5482 10.6121 0.0000 35.0854 0.0000
# 6 0.0000 0.0000 0.0000 14.1250 0.0000 21.7987
#
#
#
# Elastic Compliance Matrix: (Units=1/GPa)
#
#
# Indices 1 2 3 4 5 6 
#
# 1 0.009798 -0.002961 -0.001502 0.000000 -0.001924 0.000000
# 2 -0.002961 0.013932 -0.004954 0.000000 0.001642 0.000000
# 3 -0.001502 -0.004954 0.017013 0.000000 -0.004543 0.000000
# 4 0.000000 0.000000 0.000000 0.005754 0.000000 -0.003729
# 5 -0.001924 0.001642 -0.004543 0.000000 0.030296 0.000000
# 6 0.000000 0.000000 0.000000 -0.003729 0.000000 0.048290
#
#
# Mechanical properties :
#
#
# Convention : Reuss Voigt Hill
#
# Bulk Modulus (GPa) = 45.64320 49.12365 47.38343
# Shear Modulus (GPa) = 33.06440 60.95612 47.01026
#
# Velocity S-wave (km/s) = 4.09725 5.56316 4.88550
# Velocity P-wave (km/s) = 6.74962 8.13671 7.47541
#
# Compressibility (1/GPa) = 0.02190907
#
# Stress axis : x y z
#
# Youngs Moduli (GPa) = 102.05684 71.77929 58.78028
#
# Poissons Ratio (x) = 0.21255 0.08827
# Poissons Ratio (y) = 0.30221 0.29119
# Poissons Ratio (z) = 0.15325 0.35559
#
# Static dielectric constant tensor:
#      x y z
#    x 1.724930 0.000000 -0.016150 
#    y 0.000000 1.692530 0.000000 
#    z -0.016150 0.000000 1.682050 
# 
# From -- ./inp_files/44246.got.cif
#   From: 2010.05.17/outbox.cif.g08.bks.cpg/sg11_23_cif.got.tgz:44246.got - 2010.06.03 12:22:45.
