data_PCOD9163796
_publ_section_title
;
Structure prediction by ZEFSAII (Michael W. Deem and Ramdas Pophale) SiO2 
 PCOD9163796
Probable space group: P 21/M
;
_chemical_formula_sum "Si O2"
_cell_formula_units_Z 28
_cell_length_a 23.993287
_cell_length_b 9.016657
_cell_length_c 27.203497
_cell_angle_alpha 90.000000
_cell_angle_beta 14.637492
_cell_angle_gamma 90.000000
_cell_volume 1487.200866
_symmetry_space_group_name_H-M "P 21/M"
_symmetry_group_IT_number 11
_symmetry_cell_setting 'monoclinic'
loop_
_space_group_symop_operation_xyz
x,y,z
-x,1/2+y,-z
-x,-y,-z
x,1/2-y,z
loop_
_atom_site_type_symbol
_atom_site_label
_atom_site_fract_x
_atom_site_fract_y
_atom_site_fract_z
Si Si1 0.803122 0.071952 0.606428
Si Si2 0.111888 0.576253 0.078929
Si Si3 0.432607 0.926579 0.293278
Si Si4 0.689101 0.927272 0.805492
Si Si5 0.423919 0.424980 0.642855
Si Si6 0.336777 0.424372 0.476534
Si Si7 0.188975 0.427389 0.750069
O O1 0.778567 0.250000 0.633346
O O2 0.692306 0.026965 0.649762
O O3 0.064979 0.039238 0.383699
O O4 0.692777 0.991940 0.747146
O O5 0.172367 0.750000 0.030462
O O6 0.894258 0.553004 0.297752
O O7 0.034989 0.545009 0.088492
O O8 0.314024 0.478142 0.923567
O O9 0.418633 0.750000 0.308815
O O10 0.332970 0.998312 0.427285
O O11 0.661643 0.750000 0.827972
O O12 0.500000 0.000000 0.000000
O O13 0.429354 0.250000 0.647976
O O14 0.470709 0.511133 0.652947
O O15 0.215683 0.457480 0.785106
O O16 0.629197 0.474029 0.433052
O O17 0.371296 0.250000 0.441146
O O18 0.239133 0.250000 0.700095
#
# Coordination Sequence:
#
# PCOD9163796 Si02
#       7
#     4   4   4   4   4   4   4
#     4   9  21  40  58  82 117 151 183 222 266 313
#     4   9  19  36  55  77 107 143 183 227 278 332
#     4  11  23  38  57  81 111 147 186 227 269 316
#     4  10  20  37  63  91 118 147 180 220 265 314
#     4   9  15  26  48  75 101 132 176 227 278 332
#     4  10  21  37  55  76 107 145 184 228 278 332
#     4   8  15  28  47  72 102 136 174 222 280 335
#
# _framework density 18.827314999999999
#
# number of rings (size 3 to 8) (size 9 to 14) (size 15 to 20)
#    0.000    2.571    0.000    2.571    0.000    6.286 
#    0.000    5.000    0.000    0.000    0.000    0.000 
#    0.000    0.000    0.000    0.000    0.000    0.000 
#
# Total GULP energy -156193.210972 kJ/mol
# GULP energy per Si atom -5578.328963 kJ/mol
# Density = 1.878446 g / cm^3
# Si number density = 18.827315 Si / 1000 Ang^3
#
#
#
# Elastic Constant Matrix: (Units=GPa)
#
#
# Indices 1 2 3 4 5 6 
#
# 1 215.2623 82.3494 72.4303 0.0000 -5.1697 0.0000
# 2 82.3494 63.4719 51.0532 0.0000 2.7008 0.0000
# 3 72.4303 51.0532 92.2496 0.0000 14.2043 0.0000
# 4 0.0000 0.0000 0.0000 26.2254 0.0000 3.1546
# 5 -5.1697 2.7008 14.2043 0.0000 23.8834 0.0000
# 6 0.0000 0.0000 0.0000 3.1546 0.0000 32.8491
#
#
#
# Elastic Compliance Matrix: (Units=1/GPa)
#
#
# Indices 1 2 3 4 5 6 
#
# 1 0.009730 -0.010988 -0.002284 0.000000 0.004707 0.000000
# 2 -0.010988 0.041827 -0.014780 0.000000 0.001682 0.000000
# 3 -0.002284 -0.014780 0.022712 0.000000 -0.012330 0.000000
# 4 0.000000 0.000000 0.000000 0.038577 0.000000 -0.003705
# 5 0.004707 0.001682 -0.012330 0.000000 0.050032 0.000000
# 6 0.000000 0.000000 0.000000 -0.003705 0.000000 0.030798
#
#
# Mechanical properties :
#
#
# Convention : Reuss Voigt Hill
#
# Bulk Modulus (GPa) = 55.04797 86.96106 71.00452
# Shear Modulus (GPa) = 19.54388 27.60164 23.57276
#
# Velocity S-wave (km/s) = 3.22539 3.83305 3.54227
# Velocity P-wave (km/s) = 6.57059 8.11657 7.38415
#
# Compressibility (1/GPa) = 0.01816597
#
# Stress axis : x y z
#
# Youngs Moduli (GPa) = 102.77157 23.90778 44.03039
#
# Poissons Ratio (x) = 0.26269 0.10055
# Poissons Ratio (y) = 1.12922 0.65078
# Poissons Ratio (z) = 0.23470 0.35336
#
# Static dielectric constant tensor:
#      x y z
#    x 1.658000 0.000000 -0.002530 
#    y 0.000000 1.636810 0.000000 
#    z -0.002530 0.000000 1.672210 
# 
# From -- ./inp_files/69754.got.cif
#   From: 2010.05.17/outbox.cif.g08.bks.cpg/sg11_35_cif.got.tgz:69754.got - 2010.06.03 12:22:45.
