data_PCOD9163407
_publ_section_title
;
Structure prediction by ZEFSAII (Michael W. Deem and Ramdas Pophale) SiO2 
 PCOD9163407
Probable space group: P 21/M
;
_chemical_formula_sum "Si O2"
_cell_formula_units_Z 24
_cell_length_a 22.061321
_cell_length_b 8.736230
_cell_length_c 11.170369
_cell_angle_alpha 90.000000
_cell_angle_beta 32.622303
_cell_angle_gamma 90.000000
_cell_volume 1160.623499
_symmetry_space_group_name_H-M "P 21/M"
_symmetry_group_IT_number 11
_symmetry_cell_setting 'monoclinic'
loop_
_space_group_symop_operation_xyz
x,y,z
-x,1/2+y,-z
-x,-y,-z
x,1/2-y,z
loop_
_atom_site_type_symbol
_atom_site_label
_atom_site_fract_x
_atom_site_fract_y
_atom_site_fract_z
Si Si1 0.543472 0.568413 0.118221
Si Si2 0.125204 0.432088 0.791929
Si Si3 0.117961 0.929927 0.337379
Si Si4 0.679854 0.065227 0.393665
Si Si5 0.344254 0.568075 0.834382
Si Si6 0.748320 0.065914 0.647836
O O1 0.548795 0.750000 0.089480
O O2 0.413303 0.522838 0.351645
O O3 0.595943 0.526536 0.160966
O O4 0.621521 0.484909 0.891554
O O5 0.118788 0.250000 0.802209
O O6 0.201071 0.490205 0.776121
O O7 0.194218 0.492543 0.562511
O O8 0.000000 0.500000 0.000000
O O9 0.101353 0.750000 0.380708
O O10 0.175953 0.984345 0.363874
O O11 0.211364 0.951344 0.079799
O O12 0.000000 0.000000 0.500000
O O13 0.691155 0.250000 0.376004
O O14 0.634621 0.022211 0.337223
O O15 0.370075 0.750000 0.807588
O O16 0.749957 0.250000 0.634731
#
# Coordination Sequence:
#
# PCOD9163407 Si02
#       6
#     4   4   4   4   4   4
#     4  10  20  36  62  95 126 159 201 252 307 359
#     4  12  27  45  65  89 119 159 205 252 305 361
#     4   9  19  33  54  84 115 152 197 244 297 351
#     4  10  22  40  62  90 125 164 207 251 300 360
#     4   9  19  36  57  86 124 163 200 246 303 360
#     4  10  22  42  63  86 120 160 203 251 303 359
#
# _framework density 20.678539000000001
#
# number of rings (size 3 to 8) (size 9 to 14) (size 15 to 20)
#    0.000    2.000    0.000    4.000    2.333    6.000 
#    0.000    0.000    0.000    0.000    0.000    0.000 
#    0.000    0.000    0.000    0.000    0.000    0.000 
#
# Total GULP energy -134081.946488 kJ/mol
# GULP energy per Si atom -5586.747770 kJ/mol
# Density = 2.063147 g / cm^3
# Si number density = 20.678539 Si / 1000 Ang^3
#
#
#
# Elastic Constant Matrix: (Units=GPa)
#
#
# Indices 1 2 3 4 5 6 
#
# 1 50.0387 13.9058 32.5517 0.0000 -1.4844 0.0000
# 2 13.9058 45.0532 29.6251 0.0000 -4.4627 0.0000
# 3 32.5517 29.6251 78.9056 0.0000 -4.1188 0.0000
# 4 0.0000 0.0000 0.0000 31.1355 0.0000 1.3393
# 5 -1.4844 -4.4627 -4.1188 0.0000 41.6541 0.0000
# 6 0.0000 0.0000 0.0000 1.3393 0.0000 30.2452
#
#
#
# Elastic Compliance Matrix: (Units=1/GPa)
#
#
# Indices 1 2 3 4 5 6 
#
# 1 0.027380 -0.001380 -0.010790 0.000000 -0.000239 0.000000
# 2 -0.001380 0.029721 -0.010480 0.000000 0.002099 0.000000
# 3 -0.010790 -0.010480 0.021090 0.000000 0.000578 0.000000
# 4 0.000000 0.000000 0.000000 0.032179 0.000000 -0.001425
# 5 -0.000239 0.002099 0.000578 0.000000 0.024281 0.000000
# 6 0.000000 0.000000 0.000000 -0.001425 0.000000 0.033126
#
#
# Mechanical properties :
#
#
# Convention : Reuss Voigt Hill
#
# Bulk Modulus (GPa) = 30.40302 36.24029 33.32166
# Shear Modulus (GPa) = 22.31754 27.13463 24.72609
#
# Velocity S-wave (km/s) = 3.28877 3.62638 3.46169
# Velocity P-wave (km/s) = 5.39963 5.92434 5.66806
#
# Compressibility (1/GPa) = 0.03289147
#
# Stress axis : x y z
#
# Youngs Moduli (GPa) = 36.52308 33.64632 47.41693
#
# Poissons Ratio (x) = 0.04642 0.51162
# Poissons Ratio (y) = 0.05039 0.49693
# Poissons Ratio (z) = 0.39408 0.35261
#
# Static dielectric constant tensor:
#      x y z
#    x 1.793670 0.000000 -0.003300 
#    y 0.000000 1.690280 0.000000 
#    z -0.003300 0.000000 1.748170 
# 
# From -- ./inp_files/43882.got.cif
#   From: 2010.05.17/outbox.cif.g08.bks.cpg/sg11_22_cif.got.tgz:43882.got - 2010.06.03 12:22:45.
