data_PCOD9163115
_publ_section_title
;
Structure prediction by ZEFSAII (Michael W. Deem and Ramdas Pophale) SiO2 
 PCOD9163115
Probable space group: P 21/M
;
_chemical_formula_sum "Si O2"
_cell_formula_units_Z 32
_cell_length_a 11.362948
_cell_length_b 17.724735
_cell_length_c 10.043546
_cell_angle_alpha 90.000000
_cell_angle_beta 57.128092
_cell_angle_gamma 90.000000
_cell_volume 1698.940725
_symmetry_space_group_name_H-M "P 21/M"
_symmetry_group_IT_number 11
_symmetry_cell_setting 'monoclinic'
loop_
_space_group_symop_operation_xyz
x,y,z
-x,1/2+y,-z
-x,-y,-z
x,1/2-y,z
loop_
_atom_site_type_symbol
_atom_site_label
_atom_site_fract_x
_atom_site_fract_y
_atom_site_fract_z
Si Si1 0.480872 0.945703 0.138695
Si Si2 0.943797 0.464726 0.366360
Si Si3 0.437731 0.934754 0.695525
Si Si4 0.976888 0.166552 0.149087
Si Si5 0.161572 0.924066 0.284381
Si Si6 0.792413 0.336855 0.006983
Si Si7 0.706684 0.837562 0.121851
Si Si8 0.706184 0.939556 0.385340
O O1 0.322556 0.918744 0.226443
O O2 0.591567 0.879242 0.100045
O O3 0.498694 0.000215 0.252075
O O4 0.500000 0.000000 0.000000
O O5 0.921449 0.399889 0.273478
O O6 0.921233 0.426644 0.524782
O O7 0.837450 0.534354 0.396662
O O8 0.101144 0.498050 0.259342
O O9 0.336237 0.884309 0.849641
O O10 0.576499 0.900439 0.542923
O O11 0.350248 0.980407 0.638402
O O12 0.932010 0.250000 0.223019
O O13 0.916702 0.157099 0.037915
O O14 0.144048 0.163290 0.042696
O O15 0.151767 0.865654 0.169192
O O16 0.749200 0.250000 0.022710
O O17 0.668289 0.750000 0.173786
O O18 0.732061 0.886322 0.241417
#
# Coordination Sequence:
#
# PCOD9163115 Si02
#       8
#     4   4   4   4   4   4   4   4
#     4  11  20  37  60  83 116 157 196 244 294 361
#     4  11  22  39  63  91 120 162 206 253 307 360
#     4  10  20  36  58  88 117 152 204 252 296 357
#     4  10  22  40  62  88 119 157 208 257 305 363
#     4  11  24  37  59  92 122 157 204 246 301 371
#     4  11  23  39  61  90 125 161 200 253 312 367
#     4  10  23  39  60  89 119 155 201 256 311 360
#     4  10  20  36  63  88 117 153 204 257 303 352
#
# _framework density 18.835263999999999
#
# number of rings (size 3 to 8) (size 9 to 14) (size 15 to 20)
#    0.000    1.500    3.750    1.500    1.750    2.500 
#    0.000    1.250    0.000    0.750    0.000    0.000 
#    0.000    0.000    0.000    0.000    0.000    0.000 
#
# Total GULP energy -178207.899601 kJ/mol
# GULP energy per Si atom -5568.996863 kJ/mol
# Density = 1.879239 g / cm^3
# Si number density = 18.835264 Si / 1000 Ang^3
#
#
#
# Elastic Constant Matrix: (Units=GPa)
#
#
# Indices 1 2 3 4 5 6 
#
# 1 84.5208 37.7025 11.5117 0.0000 8.9193 0.0000
# 2 37.7025 90.9377 35.1723 0.0000 3.8412 0.0000
# 3 11.5117 35.1723 53.5851 0.0000 9.0967 0.0000
# 4 0.0000 0.0000 0.0000 7.4175 0.0000 0.2585
# 5 8.9193 3.8412 9.0967 0.0000 22.3721 0.0000
# 6 0.0000 0.0000 0.0000 0.2585 0.0000 27.9849
#
#
#
# Elastic Compliance Matrix: (Units=1/GPa)
#
#
# Indices 1 2 3 4 5 6 
#
# 1 0.015235 -0.006951 0.002275 0.000000 -0.005806 0.000000
# 2 -0.006951 0.017957 -0.011000 0.000000 0.004161 0.000000
# 3 0.002275 -0.011000 0.027097 0.000000 -0.010036 0.000000
# 4 0.000000 0.000000 0.000000 0.134860 0.000000 -0.001246
# 5 -0.005806 0.004161 -0.010036 0.000000 0.050380 0.000000
# 6 0.000000 0.000000 0.000000 -0.001246 0.000000 0.035745
#
#
# Mechanical properties :
#
#
# Convention : Reuss Voigt Hill
#
# Bulk Modulus (GPa) = 34.55702 44.20183 39.37943
# Shear Modulus (GPa) = 15.51492 21.19869 18.35681
#
# Velocity S-wave (km/s) = 2.87316 3.35846 3.12524
# Velocity P-wave (km/s) = 5.42158 6.20947 5.82885
#
# Compressibility (1/GPa) = 0.02893768
#
# Stress axis : x y z
#
# Youngs Moduli (GPa) = 65.63886 55.68827 36.90452
#
# Poissons Ratio (x) = 0.38709 -0.08397
# Poissons Ratio (y) = 0.45626 0.40594
# Poissons Ratio (z) = -0.14934 0.61256
#
# Static dielectric constant tensor:
#      x y z
#    x 1.554860 0.000000 -0.067840 
#    y 0.000000 1.644980 0.000000 
#    z -0.067840 0.000000 1.663600 
# 
# From -- ./inp_files/19379.got.cif
#   From: 2010.05.17/outbox.cif.g08.bks.cpg/sg11_10_cif.got.tgz:19379.got - 2010.06.03 12:22:45.
