data_PCOD9163985
_publ_section_title
;
Structure prediction by ZEFSAII (Michael W. Deem and Ramdas Pophale) SiO2 
 PCOD9163985
Probable space group: P 21/M
;
_chemical_formula_sum "Si O2"
_cell_formula_units_Z 26
_cell_length_a 9.150189
_cell_length_b 21.329616
_cell_length_c 6.348354
_cell_angle_alpha 90.000000
_cell_angle_beta 65.675628
_cell_angle_gamma 90.000000
_cell_volume 1129.019295
_symmetry_space_group_name_H-M "P 21/M"
_symmetry_group_IT_number 11
_symmetry_cell_setting 'monoclinic'
loop_
_space_group_symop_operation_xyz
x,y,z
-x,1/2+y,-z
-x,-y,-z
x,1/2-y,z
loop_
_atom_site_type_symbol
_atom_site_label
_atom_site_fract_x
_atom_site_fract_y
_atom_site_fract_z
Si Si1 0.957516 0.144720 0.901052
Si Si2 0.195470 0.871531 0.410731
Si Si3 0.889980 0.250000 0.289301
Si Si4 0.501661 0.398409 0.499438
Si Si5 0.632199 0.000288 0.106529
Si Si6 0.912782 0.572906 0.800587
Si Si7 0.760802 0.676799 0.591135
O O1 0.028175 0.089726 0.001426
O O2 0.101514 0.168409 0.666729
O O3 0.812427 0.127177 0.834354
O O4 0.904236 0.196030 0.098690
O O5 0.367596 0.872907 0.415321
O O6 0.123299 0.805236 0.525705
O O7 0.075827 0.925701 0.567776
O O8 0.391957 0.443152 0.710939
O O9 0.597168 0.440302 0.273648
O O10 0.399373 0.347349 0.431852
O O11 0.799248 0.986521 0.890849
O O12 0.500000 0.000000 0.000000
O O13 0.805791 0.629096 0.755619
O O14 0.752103 0.750000 0.664205
#
# Coordination Sequence:
#
# PCOD9163985 Si02
#       7
#     4   4   2   4   4   4   4
#     4  10  20  38  62  91 127 169 209 254 315 386
#     4  10  24  39  62  97 131 163 216 268 326 379
#     4  10  20  38  62  88 132 176 202 252 320 390
#     4  11  25  43  64  97 129 168 214 278 324 366
#     4  11  23  45  69  88 129 173 222 266 321 384
#     4  10  22  41  67  94 121 174 218 255 321 389
#     4  11  22  38  66  96 131 163 215 262 316 392
#
# _framework density 23.028835999999998
#
# number of rings (size 3 to 8) (size 9 to 14) (size 15 to 20)
#    0.000    1.538    3.846    0.462    9.692    3.077 
#    0.000    1.538    0.000    0.000    0.000    0.000 
#    0.000    0.000    0.000    0.000    0.000    0.000 
#
# Total GULP energy -144859.556148 kJ/mol
# GULP energy per Si atom -5571.521390 kJ/mol
# Density = 2.297642 g / cm^3
# Si number density = 23.028836 Si / 1000 Ang^3
#
#
#
# Elastic Constant Matrix: (Units=GPa)
#
#
# Indices 1 2 3 4 5 6 
#
# 1 107.0942 20.3392 31.7062 0.0000 36.7036 0.0000
# 2 20.3392 78.4853 37.3765 0.0000 3.4688 0.0000
# 3 31.7062 37.3765 116.2619 0.0000 17.8751 0.0000
# 4 0.0000 0.0000 0.0000 9.1504 0.0000 3.0299
# 5 36.7036 3.4688 17.8751 0.0000 46.9708 0.0000
# 6 0.0000 0.0000 0.0000 3.0299 0.0000 10.6611
#
#
#
# Elastic Compliance Matrix: (Units=1/GPa)
#
#
# Indices 1 2 3 4 5 6 
#
# 1 0.013616 -0.002418 -0.001410 0.000000 -0.009924 0.000000
# 2 -0.002418 0.015501 -0.004714 0.000000 0.002539 0.000000
# 3 -0.001410 -0.004714 0.010917 0.000000 -0.002705 0.000000
# 4 0.000000 0.000000 0.000000 0.120638 0.000000 -0.034285
# 5 -0.009924 0.002539 -0.002705 0.000000 0.029887 0.000000
# 6 0.000000 0.000000 0.000000 -0.034285 0.000000 0.103543
#
#
# Mechanical properties :
#
#
# Convention : Reuss Voigt Hill
#
# Bulk Modulus (GPa) = 43.57545 53.40948 48.49246
# Shear Modulus (GPa) = 15.68212 27.51777 21.59994
#
# Velocity S-wave (km/s) = 2.61239 3.46052 3.06592
# Velocity P-wave (km/s) = 5.29742 6.26177 5.79967
#
# Compressibility (1/GPa) = 0.02294870
#
# Stress axis : x y z
#
# Youngs Moduli (GPa) = 73.44566 64.51321 91.59929
#
# Poissons Ratio (x) = 0.15602 0.12914
# Poissons Ratio (y) = 0.17762 0.43181
# Poissons Ratio (z) = 0.10354 0.30412
#
# Static dielectric constant tensor:
#      x y z
#    x 1.950460 0.000000 -0.017630 
#    y 0.000000 2.626290 0.000000 
#    z -0.017630 0.000000 1.817110 
# 
# From -- ./inp_files/3016.got.cif
#   From: 2010.05.17/outbox.cif.g08.bks.cpg/sg11_2_cif.got.tgz:3016.got - 2010.06.03 12:22:45.
