data_PCOD9163402
_publ_section_title
;
Structure prediction by ZEFSAII (Michael W. Deem and Ramdas Pophale) SiO2 
 PCOD9163402
Probable space group: P 21/M
;
_chemical_formula_sum "Si O2"
_cell_formula_units_Z 32
_cell_length_a 31.895426
_cell_length_b 8.800469
_cell_length_c 12.292696
_cell_angle_alpha 90.000000
_cell_angle_beta 150.606189
_cell_angle_gamma 90.000000
_cell_volume 1693.536079
_symmetry_space_group_name_H-M "P 21/M"
_symmetry_group_IT_number 11
_symmetry_cell_setting 'monoclinic'
loop_
_space_group_symop_operation_xyz
x,y,z
-x,1/2+y,-z
-x,-y,-z
x,1/2-y,z
loop_
_atom_site_type_symbol
_atom_site_label
_atom_site_fract_x
_atom_site_fract_y
_atom_site_fract_z
Si Si1 0.405636 0.932310 0.299133
Si Si2 0.252566 0.932581 0.799476
Si Si3 0.277016 0.071596 0.626853
Si Si4 0.769279 0.429404 0.706457
Si Si5 0.479722 0.070046 0.071978
Si Si6 0.912706 0.929214 0.165223
Si Si7 0.627471 0.931136 0.545775
Si Si8 0.110590 0.568872 0.656598
O O1 0.410541 0.750000 0.315131
O O2 0.500000 0.000000 0.500000
O O3 0.364992 0.993827 0.318949
O O4 0.343419 0.974670 0.059001
O O5 0.251555 0.750000 0.782658
O O6 0.179671 0.971791 0.722127
O O7 0.239474 0.011557 0.654765
O O8 0.259962 0.250000 0.573393
O O9 0.244722 0.982714 0.448340
O O10 0.379413 0.050861 0.865678
O O11 0.756746 0.250000 0.687472
O O12 0.700338 0.512428 0.627981
O O13 0.861531 0.478250 0.959505
O O14 0.499762 0.250000 0.117805
O O15 0.537949 0.985917 0.291651
O O16 0.500000 0.000000 0.000000
O O17 0.898880 0.750000 0.118221
O O18 0.014182 0.959133 0.397072
O O19 0.878459 0.979645 0.206218
O O20 0.629508 0.750000 0.559070
O O21 0.118262 0.750000 0.696546
#
# Coordination Sequence:
#
# PCOD9163402 Si02
#       8
#     4   4   4   4   4   4   4   4
#     4  11  23  39  59  86 121 159 200 245 294 350
#     4  10  22  40  61  84 115 157 200 239 289 352
#     4  11  24  40  59  85 117 153 198 247 293 348
#     4  12  24  39  60  85 117 154 195 242 297 356
#     4  11  22  37  58  83 115 154 197 245 296 349
#     4  10  20  36  62  93 123 150 188 244 299 351
#     4  12  24  38  59  87 119 153 198 249 300 353
#     4   9  19  38  63  91 121 155 194 238 293 355
#
# _framework density 18.895375000000001
#
# number of rings (size 3 to 8) (size 9 to 14) (size 15 to 20)
#    0.000    1.250    1.250    5.250    0.000    6.500 
#    0.000    0.625    0.000    0.000    0.000    0.000 
#    0.000    0.000    0.000    0.000    0.000    0.000 
#
# Total GULP energy -179002.753937 kJ/mol
# GULP energy per Si atom -5593.836061 kJ/mol
# Density = 1.885237 g / cm^3
# Si number density = 18.895375 Si / 1000 Ang^3
#
#
#
# Elastic Constant Matrix: (Units=GPa)
#
#
# Indices 1 2 3 4 5 6 
#
# 1 92.4730 29.0119 29.2921 0.0000 -4.4208 0.0000
# 2 29.0119 76.1181 40.2834 0.0000 -5.7652 0.0000
# 3 29.2921 40.2834 70.2948 0.0000 -12.3691 0.0000
# 4 0.0000 0.0000 0.0000 30.9586 0.0000 -4.2920
# 5 -4.4208 -5.7652 -12.3691 0.0000 30.5476 0.0000
# 6 0.0000 0.0000 0.0000 -4.2920 0.0000 33.6893
#
#
#
# Elastic Compliance Matrix: (Units=1/GPa)
#
#
# Indices 1 2 3 4 5 6 
#
# 1 0.012913 -0.002972 -0.003712 0.000000 -0.000195 0.000000
# 2 -0.002972 0.019562 -0.010119 0.000000 -0.000835 0.000000
# 3 -0.003712 -0.010119 0.022763 0.000000 0.006770 0.000000
# 4 0.000000 0.000000 0.000000 0.032882 0.000000 0.004189
# 5 -0.000195 -0.000835 0.006770 0.000000 0.035291 0.000000
# 6 0.000000 0.000000 0.000000 0.004189 0.000000 0.030217
#
#
# Mechanical properties :
#
#
# Convention : Reuss Voigt Hill
#
# Bulk Modulus (GPa) = 46.22829 48.45119 47.33974
# Shear Modulus (GPa) = 25.71435 28.39233 27.05334
#
# Velocity S-wave (km/s) = 3.69301 3.88055 3.78794
# Velocity P-wave (km/s) = 6.53475 6.76578 6.65127
#
# Compressibility (1/GPa) = 0.02163178
#
# Stress axis : x y z
#
# Youngs Moduli (GPa) = 77.44208 51.11925 43.93157
#
# Poissons Ratio (x) = 0.15192 0.16308
# Poissons Ratio (y) = 0.23015 0.44454
# Poissons Ratio (z) = 0.28747 0.51727
#
# Static dielectric constant tensor:
#      x y z
#    x 1.631060 0.000000 0.009330 
#    y 0.000000 1.632840 0.000000 
#    z 0.009330 0.000000 1.655500 
# 
# From -- ./inp_files/45323.got.cif
#   From: 2010.05.17/outbox.cif.g08.bks.cpg/sg11_23_cif.got.tgz:45323.got - 2010.06.03 12:22:45.
