data_PCOD9163410
_publ_section_title
;
Structure prediction by ZEFSAII (Michael W. Deem and Ramdas Pophale) SiO2 
 PCOD9163410
Probable space group: P 21/M
;
_chemical_formula_sum "Si O2"
_cell_formula_units_Z 28
_cell_length_a 8.654674
_cell_length_b 17.780087
_cell_length_c 10.330554
_cell_angle_alpha 90.000000
_cell_angle_beta 39.198675
_cell_angle_gamma 90.000000
_cell_volume 1004.692376
_symmetry_space_group_name_H-M "P 21/M"
_symmetry_group_IT_number 11
_symmetry_cell_setting 'monoclinic'
loop_
_space_group_symop_operation_xyz
x,y,z
-x,1/2+y,-z
-x,-y,-z
x,1/2-y,z
loop_
_atom_site_type_symbol
_atom_site_label
_atom_site_fract_x
_atom_site_fract_y
_atom_site_fract_z
Si Si1 0.454664 0.166565 0.695203
Si Si2 0.134635 0.009976 0.257431
Si Si3 0.010427 0.831456 0.718831
Si Si4 0.521093 0.514692 0.196765
Si Si5 0.746511 0.119471 0.168950
Si Si6 0.481005 0.250000 0.176179
Si Si7 0.048605 0.750000 0.334432
Si Si8 0.143924 0.106961 0.692306
O O1 0.345356 0.250000 0.776817
O O2 0.744399 0.174988 0.526400
O O3 0.394639 0.099038 0.829436
O O4 0.396202 0.136933 0.588203
O O5 0.134006 0.099759 0.248760
O O6 0.754538 0.016951 0.679203
O O7 0.892893 0.971562 0.355830
O O8 0.328132 0.982953 0.022694
O O9 0.890742 0.750000 0.811163
O O10 0.126977 0.852827 0.781853
O O11 0.601765 0.459794 0.259863
O O12 0.581714 0.178987 0.195426
O O13 0.982641 0.105821 0.925802
O O14 0.176759 0.250000 0.399144
O O15 0.651521 0.250000 0.926968
O O16 0.966324 0.671674 0.326151
#
# Coordination Sequence:
#
# PCOD9163410 Si02
#       8
#     4   4   4   4   4   2   2   4
#     4  11  23  39  61  92 129 170 222 282 344 413
#     4  10  23  43  64  91 129 174 225 281 348 423
#     4  11  23  39  61  92 129 170 222 282 344 413
#     4  10  23  43  64  91 129 174 225 281 348 423
#     4  10  20  37  65  96 128 170 225 285 345 412
#     4  10  20  36  62  98 136 174 224 286 350 414
#     4  10  20  36  62  98 136 174 224 286 350 414
#     4  10  20  37  65  96 128 170 225 285 345 412
#
# _framework density 27.869225
#
# number of rings (size 3 to 8) (size 9 to 14) (size 15 to 20)
#    0.000    1.714    1.429    2.571    0.000    8.000 
#    2.571    0.000    0.000    0.000    0.000    0.000 
#    0.000    0.000    0.000    0.000    0.000    0.000 
#
# Total GULP energy -156214.799026 kJ/mol
# GULP energy per Si atom -5579.099965 kJ/mol
# Density = 2.780579 g / cm^3
# Si number density = 27.869225 Si / 1000 Ang^3
#
#
#
# Elastic Constant Matrix: (Units=GPa)
#
#
# Indices 1 2 3 4 5 6 
#
# 1 117.2933 80.8472 36.0117 0.0000 -7.7332 0.0000
# 2 80.8472 193.0886 1.0839 0.0000 -2.9646 0.0000
# 3 36.0117 1.0839 111.2031 0.0000 -7.6849 0.0000
# 4 0.0000 0.0000 0.0000 24.3578 0.0000 -31.4704
# 5 -7.7332 -2.9646 -7.6849 0.0000 51.5370 0.0000
# 6 0.0000 0.0000 0.0000 -31.4704 0.0000 -40.5057
#
#
#
# Elastic Compliance Matrix: (Units=1/GPa)
#
#
# Indices 1 2 3 4 5 6 
#
# 1 0.013937 -0.005794 -0.004380 0.000000 0.001105 0.000000
# 2 -0.005794 0.007592 0.001791 0.000000 -0.000166 0.000000
# 3 -0.004380 0.001791 0.010463 0.000000 0.001006 0.000000
# 4 0.000000 0.000000 0.000000 0.020488 0.000000 -0.015918
# 5 0.001105 -0.000166 0.001006 0.000000 0.019710 0.000000
# 6 0.000000 0.000000 0.000000 -0.015918 0.000000 -0.012320
#
#
# Mechanical properties :
#
#
# Convention : Reuss Voigt Hill
#
# Bulk Modulus (GPa) = 65.68006 73.05230 69.36618
# Shear Modulus (GPa) = 61.19027 27.32064 44.25545
#
# Velocity S-wave (km/s) = 4.69083 3.13440 3.98926
# Velocity P-wave (km/s) = 7.27715 6.27445 6.79432
#
# Compressibility (1/GPa) = 0.01522532
#
# Stress axis : x y z
#
# Youngs Moduli (GPa) = 71.75150 131.71203 95.57325
#
# Poissons Ratio (x) = 0.76313 0.41866
# Poissons Ratio (y) = 0.41572 -0.17116
# Poissons Ratio (z) = 0.31431 -0.23588
#
# Static dielectric constant tensor:
#      x y z
#    x 2.165220 0.000000 -0.014090 
#    y 0.000000 2.057400 0.000000 
#    z -0.014090 0.000000 2.494590 
# 
# From -- ./inp_files/66307.got.cif
#   From: 2010.05.17/outbox.cif.g08.bks.cpg/sg11_34_cif.got.tgz:66307.got - 2010.06.03 12:22:45.
