data_PCOD9163817
_publ_section_title
;
Structure prediction by ZEFSAII (Michael W. Deem and Ramdas Pophale) SiO2 
 PCOD9163817
Probable space group: P 21/M
;
_chemical_formula_sum "Si O2"
_cell_formula_units_Z 28
_cell_length_a 8.782878
_cell_length_b 14.654193
_cell_length_c 20.690431
_cell_angle_alpha 90.000000
_cell_angle_beta 146.057452
_cell_angle_gamma 90.000000
_cell_volume 1486.906375
_symmetry_space_group_name_H-M "P 21/M"
_symmetry_group_IT_number 11
_symmetry_cell_setting 'monoclinic'
loop_
_space_group_symop_operation_xyz
x,y,z
-x,1/2+y,-z
-x,-y,-z
x,1/2-y,z
loop_
_atom_site_type_symbol
_atom_site_label
_atom_site_fract_x
_atom_site_fract_y
_atom_site_fract_z
Si Si1 0.553690 0.355152 0.325650
Si Si2 0.815535 0.501732 0.633997
Si Si3 0.110208 0.507852 0.187711
Si Si4 0.970995 0.144449 0.586135
Si Si5 0.257252 0.857161 0.751091
Si Si6 0.280363 0.504800 0.055951
Si Si7 0.420582 0.855200 0.208183
O O1 0.462115 0.250000 0.298564
O O2 0.304191 0.423983 0.235541
O O3 0.739920 0.377370 0.452593
O O4 0.726875 0.362986 0.321162
O O5 0.500000 0.500000 0.500000
O O6 0.861773 0.482903 0.725936
O O7 0.951375 0.423465 0.638593
O O8 0.978731 0.595486 0.676704
O O9 0.227849 0.595977 0.191997
O O10 0.817250 0.488401 0.052302
O O11 0.937830 0.250000 0.594580
O O12 0.267924 0.136567 0.658658
O O13 0.278437 0.750000 0.776612
O O14 0.515595 0.919040 0.864539
O O15 0.412842 0.592428 0.136837
O O16 0.000000 0.500000 0.000000
O O17 0.348231 0.750000 0.174437
#
# Coordination Sequence:
#
# PCOD9163817 Si02
#       7
#     4   4   4   4   4   4   4
#     4  10  20  37  64  92 122 163 215 267 313 370
#     4  12  25  40  64  90 133 173 201 262 323 387
#     4  11  23  38  62  94 126 165 209 256 320 378
#     4  10  21  39  62  89 123 163 213 265 318 376
#     4  11  24  43  66  95 127 168 217 263 318 381
#     4  10  20  40  66  93 122 160 210 270 311 369
#     4  10  21  39  64  92 120 159 212 267 318 373
#
# _framework density 18.831043999999999
#
# number of rings (size 3 to 8) (size 9 to 14) (size 15 to 20)
#    0.000    1.429    5.714    0.000    2.000    6.286 
#    0.000    0.000    0.000    0.000    0.000    0.000 
#    0.000    0.000    0.000    0.000    0.000    0.000 
#
# Total GULP energy -156166.434427 kJ/mol
# GULP energy per Si atom -5577.372658 kJ/mol
# Density = 1.878818 g / cm^3
# Si number density = 18.831044 Si / 1000 Ang^3
#
#
#
# Elastic Constant Matrix: (Units=GPa)
#
#
# Indices 1 2 3 4 5 6 
#
# 1 65.0835 47.9013 39.2165 0.0000 -15.4086 0.0000
# 2 47.9013 127.4136 67.5318 0.0000 -7.1671 0.0000
# 3 39.2165 67.5318 101.2504 0.0000 -10.5196 0.0000
# 4 0.0000 0.0000 0.0000 -342.6037 0.0000 -228.0682
# 5 -15.4086 -7.1671 -10.5196 0.0000 35.9418 0.0000
# 6 0.0000 0.0000 0.0000 -228.0682 0.0000 -123.2557
#
#
#
# Elastic Compliance Matrix: (Units=1/GPa)
#
#
# Indices 1 2 3 4 5 6 
#
# 1 0.024695 -0.006505 -0.004395 0.000000 0.008004 0.000000
# 2 -0.006505 0.013853 -0.006934 0.000000 -0.002056 0.000000
# 3 -0.004395 -0.006934 0.016362 0.000000 0.001522 0.000000
# 4 0.000000 0.000000 0.000000 0.012594 0.000000 -0.023303
# 5 0.008004 -0.002056 0.001522 0.000000 0.031290 0.000000
# 6 0.000000 0.000000 0.000000 -0.023303 0.000000 0.035005
#
#
# Mechanical properties :
#
#
# Convention : Reuss Voigt Hill
#
# Bulk Modulus (GPa) = 51.96671 67.00519 59.48595
# Shear Modulus (GPa) = 28.42830 -76.71033 -24.14101
#
# Velocity S-wave (km/s) = 3.88964 -6.38941 -3.58436
# Velocity P-wave (km/s) = 6.91582 4.33280 3.81152
#
# Compressibility (1/GPa) = 0.01924309
#
# Stress axis : x y z
#
# Youngs Moduli (GPa) = 40.49330 72.18400 61.11765
#
# Poissons Ratio (x) = 0.46953 0.26862
# Poissons Ratio (y) = 0.26339 0.42380
# Poissons Ratio (z) = 0.17797 0.50054
#
# Static dielectric constant tensor:
#      x y z
#    x 1.664280 0.000000 0.021010 
#    y 0.000000 1.651070 0.000000 
#    z 0.021010 0.000000 1.702440 
# 
# From -- ./inp_files/22280.got.cif
#   From: 2010.05.17/outbox.cif.g08.bks.cpg/sg11_12_cif.got.tgz:22280.got - 2010.06.03 12:22:45.
