data_PCOD9163081
_publ_section_title
;
Structure prediction by ZEFSAII (Michael W. Deem and Ramdas Pophale) SiO2 
 PCOD9163081
Probable space group: P 21/M
;
_chemical_formula_sum "Si O2"
_cell_formula_units_Z 28
_cell_length_a 15.939790
_cell_length_b 8.855549
_cell_length_c 21.216921
_cell_angle_alpha 90.000000
_cell_angle_beta 28.666689
_cell_angle_gamma 90.000000
_cell_volume 1436.687606
_symmetry_space_group_name_H-M "P 21/M"
_symmetry_group_IT_number 11
_symmetry_cell_setting 'monoclinic'
loop_
_space_group_symop_operation_xyz
x,y,z
-x,1/2+y,-z
-x,-y,-z
x,1/2-y,z
loop_
_atom_site_type_symbol
_atom_site_label
_atom_site_fract_x
_atom_site_fract_y
_atom_site_fract_z
Si Si1 0.273454 0.924979 0.926600
Si Si2 0.428914 0.568830 0.351855
Si Si3 0.545644 0.423971 0.058252
Si Si4 0.541565 0.068874 0.404402
Si Si5 0.941782 0.069786 0.105027
Si Si6 0.923255 0.429296 0.486212
Si Si7 0.776430 0.426818 0.785979
O O1 0.255943 0.750000 0.918371
O O2 0.373813 0.931305 0.926277
O O3 0.392323 0.012216 0.798004
O O4 0.084364 0.999788 0.057956
O O5 0.426829 0.750000 0.357635
O O6 0.424898 0.498676 0.424491
O O7 0.267919 0.520646 0.412515
O O8 0.488974 0.250000 0.082957
O O9 0.381211 0.532311 0.157657
O O10 0.692640 0.460727 0.909277
O O11 0.522555 0.250000 0.418329
O O12 0.743588 0.032436 0.253980
O O13 0.500000 0.000000 0.500000
O O14 0.957870 0.250000 0.092084
O O15 0.000000 0.000000 0.000000
O O16 0.917885 0.250000 0.498579
O O17 0.000000 0.500000 0.500000
O O18 0.058716 0.475204 0.342263
O O19 0.819716 0.250000 0.753886
#
# Coordination Sequence:
#
# PCOD9163081 Si02
#       7
#     4   4   4   4   4   4   4
#     4  11  22  37  61  91 121 157 203 251 306 364
#     4  11  24  41  62  89 123 163 208 258 310 370
#     4   9  20  37  57  84 118 157 200 247 300 362
#     4  11  25  44  67  95 128 168 211 259 319 379
#     4  11  23  40  64  92 122 158 202 250 304 366
#     4  11  24  40  60  88 121 161 205 252 308 369
#     4  10  20  36  58  84 117 157 200 248 304 360
#
# _framework density 19.489276
#
# number of rings (size 3 to 8) (size 9 to 14) (size 15 to 20)
#    0.000    1.429    1.429    3.429    0.000    9.143 
#    0.000    2.857    0.000    0.000    0.000    0.000 
#    0.000    0.000    0.000    0.000    0.000    0.000 
#
# Total GULP energy -156465.129914 kJ/mol
# GULP energy per Si atom -5588.040354 kJ/mol
# Density = 1.944492 g / cm^3
# Si number density = 19.489276 Si / 1000 Ang^3
#
#
#
# Elastic Constant Matrix: (Units=GPa)
#
#
# Indices 1 2 3 4 5 6 
#
# 1 107.8561 44.2097 39.7427 0.0000 -3.3640 0.0000
# 2 44.2097 58.9571 39.3522 0.0000 -2.4828 0.0000
# 3 39.7427 39.3522 86.0158 0.0000 -8.1231 0.0000
# 4 0.0000 0.0000 0.0000 30.8255 0.0000 -0.2848
# 5 -3.3640 -2.4828 -8.1231 0.0000 22.0983 0.0000
# 6 0.0000 0.0000 0.0000 -0.2848 0.0000 33.6296
#
#
#
# Elastic Compliance Matrix: (Units=1/GPa)
#
#
# Indices 1 2 3 4 5 6 
#
# 1 0.013709 -0.008720 -0.002321 0.000000 0.000254 0.000000
# 2 -0.008720 0.030007 -0.009848 0.000000 -0.001576 0.000000
# 3 -0.002321 -0.009848 0.017679 0.000000 0.005039 0.000000
# 4 0.000000 0.000000 0.000000 0.032443 0.000000 0.000275
# 5 0.000254 -0.001576 0.005039 0.000000 0.046966 0.000000
# 6 0.000000 0.000000 0.000000 0.000275 0.000000 0.029738
#
#
# Mechanical properties :
#
#
# Convention : Reuss Voigt Hill
#
# Bulk Modulus (GPa) = 50.97394 55.49315 53.23354
# Shear Modulus (GPa) = 22.84557 25.94563 24.39560
#
# Velocity S-wave (km/s) = 3.42747 3.65263 3.54184
# Velocity P-wave (km/s) = 6.47110 6.80620 6.64076
#
# Compressibility (1/GPa) = 0.01961787
#
# Stress axis : x y z
#
# Youngs Moduli (GPa) = 72.94466 33.32501 56.56305
#
# Poissons Ratio (x) = 0.29060 0.13126
# Poissons Ratio (y) = 0.63610 0.55704
# Poissons Ratio (z) = 0.16928 0.32819
#
# Static dielectric constant tensor:
#      x y z
#    x 1.708450 0.000000 -0.010590 
#    y 0.000000 1.663240 0.000000 
#    z -0.010590 0.000000 1.670790 
# 
# From -- ./inp_files/65345.got.cif
#   From: 2010.05.17/outbox.cif.g08.bks.cpg/sg11_33_cif.got.tgz:65345.got - 2010.06.03 12:22:45.
