data_PCOD9163550
_publ_section_title
;
Structure prediction by ZEFSAII (Michael W. Deem and Ramdas Pophale) SiO2 
 PCOD9163550
Probable space group: P 21/M
;
_chemical_formula_sum "Si O2"
_cell_formula_units_Z 28
_cell_length_a 7.718470
_cell_length_b 30.729961
_cell_length_c 8.128636
_cell_angle_alpha 90.000000
_cell_angle_beta 132.917255
_cell_angle_gamma 90.000000
_cell_volume 1411.960000
_symmetry_space_group_name_H-M "P 21/M"
_symmetry_group_IT_number 11
_symmetry_cell_setting 'monoclinic'
loop_
_space_group_symop_operation_xyz
x,y,z
-x,1/2+y,-z
-x,-y,-z
x,1/2-y,z
loop_
_atom_site_type_symbol
_atom_site_label
_atom_site_fract_x
_atom_site_fract_y
_atom_site_fract_z
Si Si1 0.762971 0.653615 0.190005
Si Si2 0.993148 0.130617 0.337175
Si Si3 0.613271 0.989366 0.750729
Si Si4 0.682753 0.301213 0.959323
Si Si5 0.753897 0.354424 0.675294
Si Si6 0.082704 0.934029 0.997974
Si Si7 0.457600 0.900200 0.754024
O O1 0.551639 0.688225 0.082127
O O2 0.800381 0.636689 0.399676
O O3 0.019602 0.665790 0.278119
O O4 0.664468 0.616417 0.006026
O O5 0.015782 0.094209 0.215178
O O6 0.778816 0.113612 0.308577
O O7 0.902256 0.174705 0.191601
O O8 0.452894 0.952002 0.726841
O O9 0.860658 0.963373 0.901591
O O10 0.500000 0.000000 0.500000
O O11 0.690734 0.034580 0.886676
O O12 0.715361 0.250000 0.967848
O O13 0.672849 0.322971 0.770726
O O14 0.551447 0.371172 0.418666
O O15 0.840687 0.399263 0.815925
#
# Coordination Sequence:
#
# PCOD9163550 Si02
#       7
#     4   4   4   4   4   4   4
#     4  10  21  39  61  85 119 160 189 239 296 354
#     4   9  22  39  60  83 116 156 195 243 294 361
#     4  11  21  33  57  85 120 156 200 253 281 340
#     4  10  23  40  62  92 115 145 196 245 298 359
#     4  10  20  38  62  86 119 158 197 239 296 359
#     4  10  21  35  55  86 115 159 203 240 295 339
#     4  10  20  37  59  85 116 158 202 235 294 350
#
# _framework density 19.830590000000001
#
# number of rings (size 3 to 8) (size 9 to 14) (size 15 to 20)
#    0.000    2.000    2.857    0.000    2.000    2.857 
#    0.000    7.143    0.000    0.000    0.000    0.000 
#    0.000    0.000    0.000    0.000    0.000    0.000 
#
# Total GULP energy -155950.492495 kJ/mol
# GULP energy per Si atom -5569.660446 kJ/mol
# Density = 1.978546 g / cm^3
# Si number density = 19.830590 Si / 1000 Ang^3
#
#
#
# Elastic Constant Matrix: (Units=GPa)
#
#
# Indices 1 2 3 4 5 6 
#
# 1 44.3914 27.3739 1.6467 0.0000 -11.4963 0.0000
# 2 27.3739 117.8855 29.9998 0.0000 -8.6093 0.0000
# 3 1.6467 29.9998 84.9120 0.0000 -26.7870 0.0000
# 4 0.0000 0.0000 0.0000 5.7792 0.0000 -1.7342
# 5 -11.4963 -8.6093 -26.7870 0.0000 20.9466 0.0000
# 6 0.0000 0.0000 0.0000 -1.7342 0.0000 18.6637
#
#
#
# Elastic Compliance Matrix: (Units=1/GPa)
#
#
# Indices 1 2 3 4 5 6 
#
# 1 0.036176 -0.009292 0.012807 0.000000 0.032413 0.000000
# 2 -0.009292 0.011713 -0.006786 0.000000 -0.008964 0.000000
# 3 0.012807 -0.006786 0.025585 0.000000 0.036959 0.000000
# 4 0.000000 0.000000 0.000000 0.177997 0.000000 0.016539
# 5 0.032413 -0.008964 0.036959 0.000000 0.109109 0.000000
# 6 0.000000 0.000000 0.000000 0.016539 0.000000 0.055117
#
#
# Mechanical properties :
#
#
# Convention : Reuss Voigt Hill
#
# Bulk Modulus (GPa) = 14.94065 40.58108 27.76086
# Shear Modulus (GPa) = 11.24733 21.62247 16.43490
#
# Velocity S-wave (km/s) = 2.38412 3.30564 2.88195
# Velocity P-wave (km/s) = 3.88963 5.92267 5.01035
#
# Compressibility (1/GPa) = 0.06693149
#
# Stress axis : x y z
#
# Youngs Moduli (GPa) = 27.64265 85.37700 39.08502
#
# Poissons Ratio (x) = 0.79335 -0.50055
# Poissons Ratio (y) = 0.25686 0.26522
# Poissons Ratio (z) = -0.35401 0.57934
#
# Static dielectric constant tensor:
#      x y z
#    x 1.771250 0.000000 0.000540 
#    y 0.000000 1.723660 0.000000 
#    z 0.000540 0.000000 1.803160 
# 
# From -- ./inp_files/3274.got.cif
#   From: 2010.05.17/outbox.cif.g08.bks.cpg/sg11_2_cif.got.tgz:3274.got - 2010.06.03 12:22:45.
