data_PCOD9163509
_publ_section_title
;
Structure prediction by ZEFSAII (Michael W. Deem and Ramdas Pophale) SiO2 
 PCOD9163509
Probable space group: P 21/M
;
_chemical_formula_sum "Si O2"
_cell_formula_units_Z 32
_cell_length_a 9.379392
_cell_length_b 14.437522
_cell_length_c 18.526741
_cell_angle_alpha 90.000000
_cell_angle_beta 144.161214
_cell_angle_gamma 90.000000
_cell_volume 1468.920055
_symmetry_space_group_name_H-M "P 21/M"
_symmetry_group_IT_number 11
_symmetry_cell_setting 'monoclinic'
loop_
_space_group_symop_operation_xyz
x,y,z
-x,1/2+y,-z
-x,-y,-z
x,1/2-y,z
loop_
_atom_site_type_symbol
_atom_site_label
_atom_site_fract_x
_atom_site_fract_y
_atom_site_fract_z
Si Si1 0.358168 0.347410 0.816108
Si Si2 0.508583 0.104987 0.031963
Si Si3 0.900321 0.860376 0.013994
Si Si4 0.051979 0.856244 0.683694
Si Si5 0.745482 0.990615 0.335652
Si Si6 0.317400 0.139001 0.356020
Si Si7 0.873077 0.354432 0.550934
Si Si8 0.745017 0.527847 0.807100
O O1 0.418376 0.250000 0.802923
O O2 0.464291 0.345414 0.938254
O O3 0.420602 0.435123 0.792944
O O4 0.063187 0.354029 0.696159
O O5 0.304544 0.127419 0.008042
O O6 0.759579 0.131741 0.172859
O O7 0.500000 0.000000 0.000000
O O8 0.956008 0.750000 0.030325
O O9 0.804575 0.903034 0.898538
O O10 0.116312 0.930729 0.125452
O O11 0.044719 0.750000 0.657846
O O12 0.794448 0.885118 0.612173
O O13 0.151033 0.920694 0.661976
O O14 0.975044 0.921710 0.440060
O O15 0.546070 0.011244 0.313128
O O16 0.275494 0.250000 0.328583
O O17 0.605796 0.122914 0.468054
O O18 0.192164 0.080132 0.241199
O O19 0.863835 0.250000 0.516859
#
# Coordination Sequence:
#
# PCOD9163509 Si02
#       8
#     4   4   4   4   4   4   4   4
#     4   9  18  33  57  84 111 149 187 229 289 346
#     4  12  19  35  58  85 119 151 189 238 297 355
#     4  11  24  39  56  86 127 160 194 246 298 354
#     4  11  22  35  56  85 116 151 193 243 292 347
#     4  10  20  37  58  86 114 148 193 245 288 348
#     4  10  22  40  61  85 115 155 201 247 291 347
#     4   8  18  38  60  84 115 151 195 245 293 340
#     4  11  23  38  60  87 116 162 198 239 295 361
#
# _framework density 21.784711000000001
#
# number of rings (size 3 to 8) (size 9 to 14) (size 15 to 20)
#    0.750    1.000    2.500    2.250    0.000    3.500 
#    0.000    0.000    0.000    0.750    0.000    0.000 
#    0.000    0.000    0.000    0.000    0.000    0.000 
#
# Total GULP energy -178494.486479 kJ/mol
# GULP energy per Si atom -5577.952702 kJ/mol
# Density = 2.173513 g / cm^3
# Si number density = 21.784711 Si / 1000 Ang^3
#
#
#
# Elastic Constant Matrix: (Units=GPa)
#
#
# Indices 1 2 3 4 5 6 
#
# 1 70.0399 28.5651 5.2519 0.0000 22.3823 0.0000
# 2 28.5651 122.9755 4.7543 0.0000 13.1940 0.0000
# 3 5.2519 4.7543 54.4820 0.0000 9.3744 0.0000
# 4 0.0000 0.0000 0.0000 13.0604 0.0000 16.8947
# 5 22.3823 13.1940 9.3744 0.0000 35.3749 0.0000
# 6 0.0000 0.0000 0.0000 16.8947 0.0000 -3.1390
#
#
#
# Elastic Compliance Matrix: (Units=1/GPa)
#
#
# Indices 1 2 3 4 5 6 
#
# 1 0.019084 -0.003272 0.000328 0.000000 -0.010941 0.000000
# 2 -0.003272 0.009034 -0.000261 0.000000 -0.001230 0.000000
# 3 0.000328 -0.000261 0.019242 0.000000 -0.005210 0.000000
# 4 0.000000 0.000000 0.000000 0.009616 0.000000 0.051756
# 5 -0.010941 -0.001230 -0.005210 0.000000 0.037031 0.000000
# 6 0.000000 0.000000 0.000000 0.051756 0.000000 -0.040010
#
#
# Mechanical properties :
#
#
# Convention : Reuss Voigt Hill
#
# Bulk Modulus (GPa) = 24.41953 36.07111 30.24532
# Shear Modulus (GPa) = 67.51659 22.98767 45.25213
#
# Velocity S-wave (km/s) = 5.57314 3.25194 4.56262
# Velocity P-wave (km/s) = 7.25583 5.54022 6.45527
#
# Compressibility (1/GPa) = 0.04095084
#
# Stress axis : x y z
#
# Youngs Moduli (GPa) = 52.40070 110.69637 51.96912
#
# Poissons Ratio (x) = 0.36216 -0.01707
# Poissons Ratio (y) = 0.17143 0.01358
# Poissons Ratio (z) = -0.01721 0.02892
#
# Static dielectric constant tensor:
#      x y z
#    x 1.773640 0.000000 -0.013470 
#    y 0.000000 1.891110 0.000000 
#    z -0.013470 0.000000 1.859200 
# 
# From -- ./inp_files/63834.got.cif
#   From: 2010.05.17/outbox.cif.g08.bks.cpg/sg11_32_cif.got.tgz:63834.got - 2010.06.03 12:22:45.
