data_PCOD9163478
_publ_section_title
;
Structure prediction by ZEFSAII (Michael W. Deem and Ramdas Pophale) SiO2 
 PCOD9163478
Probable space group: P 21/M
;
_chemical_formula_sum "Si O2"
_cell_formula_units_Z 28
_cell_length_a 7.910606
_cell_length_b 13.818439
_cell_length_c 16.510393
_cell_angle_alpha 90.000000
_cell_angle_beta 47.012222
_cell_angle_gamma 90.000000
_cell_volume 1320.200782
_symmetry_space_group_name_H-M "P 21/M"
_symmetry_group_IT_number 11
_symmetry_cell_setting 'monoclinic'
loop_
_space_group_symop_operation_xyz
x,y,z
-x,1/2+y,-z
-x,-y,-z
x,1/2-y,z
loop_
_atom_site_type_symbol
_atom_site_label
_atom_site_fract_x
_atom_site_fract_y
_atom_site_fract_z
Si Si1 0.259254 0.993274 0.310821
Si Si2 0.848832 0.357004 0.011648
Si Si3 0.387223 0.420468 0.095466
Si Si4 0.896586 0.355169 0.242393
Si Si5 0.750058 0.559365 0.514601
Si Si6 0.621155 0.143971 0.485411
Si Si7 0.242756 0.481473 0.820456
O O1 0.018761 0.937378 0.400294
O O2 0.288951 0.033617 0.210783
O O3 0.258557 0.072334 0.385063
O O4 0.504421 0.940039 0.245092
O O5 0.912893 0.250000 0.018712
O O6 0.046135 0.401341 0.889827
O O7 0.602320 0.354452 0.048526
O O8 0.813868 0.435716 0.093919
O O9 0.163884 0.368347 0.131814
O O10 0.500000 0.500000 0.000000
O O11 0.810453 0.250000 0.240123
O O12 0.846857 0.352317 0.354150
O O13 0.771242 0.452598 0.254414
O O14 0.590613 0.624150 0.508308
O O15 0.662065 0.448813 0.527675
O O16 0.591188 0.250000 0.533561
#
# Coordination Sequence:
#
# PCOD9163478 Si02
#       7
#     4   4   4   4   4   4   4
#     4  10  21  37  61  87 114 167 188 240 308 343
#     4  10  21  37  58  83 115 159 201 247 295 355
#     4  11  21  37  60  87 121 157 204 248 296 352
#     4  11  20  35  58  89 118 151 198 249 298 345
#     4  10  20  40  63  85 124 148 194 246 299 359
#     4  10  21  38  64  91 114 152 197 246 300 352
#     4  10  20  37  57  85 120 152 200 243 301 354
#
# _framework density 21.208894000000001
#
# number of rings (size 3 to 8) (size 9 to 14) (size 15 to 20)
#    0.000    1.714    4.286    0.857    0.000    0.000 
#    0.000    5.714    0.000    2.571    0.000    0.000 
#    0.000    0.000    0.000    0.000    0.000    0.000 
#
# Total GULP energy -156046.272759 kJ/mol
# GULP energy per Si atom -5573.081170 kJ/mol
# Density = 2.116062 g / cm^3
# Si number density = 21.208894 Si / 1000 Ang^3
#
#
#
# Elastic Constant Matrix: (Units=GPa)
#
#
# Indices 1 2 3 4 5 6 
#
# 1 58.3395 9.7883 25.9493 0.0000 -18.4217 0.0000
# 2 9.7883 81.9226 28.4674 0.0000 -0.0404 0.0000
# 3 25.9493 28.4674 108.7394 0.0000 -12.0097 0.0000
# 4 0.0000 0.0000 0.0000 14.0283 0.0000 1.0495
# 5 -18.4217 -0.0404 -12.0097 0.0000 49.5824 0.0000
# 6 0.0000 0.0000 0.0000 1.0495 0.0000 3.8240
#
#
#
# Elastic Compliance Matrix: (Units=1/GPa)
#
#
# Indices 1 2 3 4 5 6 
#
# 1 0.021314 -0.001147 -0.004019 0.000000 0.006945 0.000000
# 2 -0.001147 0.013526 -0.003404 0.000000 -0.001240 0.000000
# 3 -0.004019 -0.003404 0.011181 0.000000 0.001212 0.000000
# 4 0.000000 0.000000 0.000000 0.072779 0.000000 -0.019974
# 5 0.006945 -0.001240 0.001212 0.000000 0.023041 0.000000
# 6 0.000000 0.000000 0.000000 -0.019974 0.000000 0.266990
#
#
# Mechanical properties :
#
#
# Convention : Reuss Voigt Hill
#
# Bulk Modulus (GPa) = 34.62559 41.93460 38.28010
# Shear Modulus (GPa) = 11.47848 25.80670 18.64259
#
# Velocity S-wave (km/s) = 2.32892 3.49203 2.96801
# Velocity P-wave (km/s) = 4.85729 6.00618 5.46202
#
# Compressibility (1/GPa) = 0.02888038
#
# Stress axis : x y z
#
# Youngs Moduli (GPa) = 46.91754 73.93162 89.44130
#
# Poissons Ratio (x) = 0.08477 0.35948
# Poissons Ratio (y) = 0.05380 0.30449
# Poissons Ratio (z) = 0.18857 0.25169
#
# Static dielectric constant tensor:
#      x y z
#    x 1.845620 0.000000 0.025740 
#    y 0.000000 1.840510 0.000000 
#    z 0.025740 0.000000 1.806790 
# 
# From -- ./inp_files/58094.got.cif
#   From: 2010.05.17/outbox.cif.g08.bks.cpg/sg11_30_cif.got.tgz:58094.got - 2010.06.03 12:22:45.
