data_PCOD9163367
_publ_section_title
;
Structure prediction by ZEFSAII (Michael W. Deem and Ramdas Pophale) SiO2 
 PCOD9163367
Probable space group: P 21/M
;
_chemical_formula_sum "Si O2"
_cell_formula_units_Z 32
_cell_length_a 12.097256
_cell_length_b 13.708136
_cell_length_c 18.526923
_cell_angle_alpha 90.000000
_cell_angle_beta 150.804358
_cell_angle_gamma 90.000000
_cell_volume 1498.664325
_symmetry_space_group_name_H-M "P 21/M"
_symmetry_group_IT_number 11
_symmetry_cell_setting 'monoclinic'
loop_
_space_group_symop_operation_xyz
x,y,z
-x,1/2+y,-z
-x,-y,-z
x,1/2-y,z
loop_
_atom_site_type_symbol
_atom_site_label
_atom_site_fract_x
_atom_site_fract_y
_atom_site_fract_z
Si Si1 0.755178 0.132461 0.871512
Si Si2 0.556636 0.360115 0.162253
Si Si3 0.698514 0.634920 0.474592
Si Si4 0.995630 0.361503 0.491035
Si Si5 0.975054 0.635432 0.107967
Si Si6 0.066315 0.994997 0.287151
Si Si7 0.279503 0.862191 0.984372
Si Si8 0.754349 0.557286 0.231570
O O1 0.757547 0.250000 0.880043
O O2 0.528772 0.109377 0.698154
O O3 0.741407 0.097311 0.945505
O O4 0.962556 0.105220 0.937941
O O5 0.591960 0.250000 0.152753
O O6 0.640148 0.450061 0.162001
O O7 0.724713 0.367419 0.327216
O O8 0.292844 0.372110 0.029372
O O9 0.690934 0.750000 0.492112
O O10 0.897447 0.625459 0.527845
O O11 0.744126 0.558246 0.564135
O O12 0.053471 0.250000 0.545129
O O13 0.112982 0.428583 0.617282
O O14 0.035889 0.750000 0.150099
O O15 0.113481 0.571954 0.244903
O O16 0.933508 0.929703 0.270251
O O17 0.885896 0.074611 0.157672
O O18 0.210233 0.750000 0.942545
O O19 0.540068 0.871822 0.109619
#
# Coordination Sequence:
#
# PCOD9163367 Si02
#       8
#     4   4   4   4   4   4   4   4
#     4   9  20  42  69  87 114 163 214 255 293 352
#     4  10  21  37  59  86 121 160 201 250 302 357
#     4  10  20  38  64  93 122 158 204 258 306 351
#     4  10  20  36  61  91 120 158 204 252 305 355
#     4  10  23  43  62  86 123 167 209 246 301 370
#     4  12  25  37  58  95 130 162 192 250 319 370
#     4  11  23  40  63  93 122 157 207 258 302 356
#     4  12  22  37  59  92 126 160 199 249 304 375
#
# _framework density 21.352347000000002
#
# number of rings (size 3 to 8) (size 9 to 14) (size 15 to 20)
#    0.000    1.500    3.750    1.500    0.000    2.500 
#    0.000    0.000    2.750    0.000    0.000    0.000 
#    0.000    0.000    0.000    0.000    0.000    0.000 
#
# Total GULP energy -178803.020111 kJ/mol
# GULP energy per Si atom -5587.594378 kJ/mol
# Density = 2.130375 g / cm^3
# Si number density = 21.352347 Si / 1000 Ang^3
#
#
#
# Elastic Constant Matrix: (Units=GPa)
#
#
# Indices 1 2 3 4 5 6 
#
# 1 36.8752 14.3861 4.9655 0.0000 -3.4784 0.0000
# 2 14.3861 85.1607 8.3645 0.0000 -11.7318 0.0000
# 3 4.9655 8.3645 51.7050 0.0000 -9.2634 0.0000
# 4 0.0000 0.0000 0.0000 25.6076 0.0000 -8.3367
# 5 -3.4784 -11.7318 -9.2634 0.0000 22.2296 0.0000
# 6 0.0000 0.0000 0.0000 -8.3367 0.0000 27.1069
#
#
#
# Elastic Compliance Matrix: (Units=1/GPa)
#
#
# Indices 1 2 3 4 5 6 
#
# 1 0.029281 -0.004573 -0.001820 0.000000 0.001410 0.000000
# 2 -0.004573 0.013418 -0.000639 0.000000 0.006100 0.000000
# 3 -0.001820 -0.000639 0.021081 0.000000 0.008163 0.000000
# 4 0.000000 0.000000 0.000000 0.043396 0.000000 0.013346
# 5 0.001410 0.006100 0.008163 0.000000 0.051826 0.000000
# 6 0.000000 0.000000 0.000000 0.013346 0.000000 0.040996
#
#
# Mechanical properties :
#
#
# Convention : Reuss Voigt Hill
#
# Bulk Modulus (GPa) = 20.11400 25.46366 22.78883
# Shear Modulus (GPa) = 21.67948 24.72383 23.20165
#
# Velocity S-wave (km/s) = 3.18987 3.40648 3.29995
# Velocity P-wave (km/s) = 4.79661 5.23675 5.02150
#
# Compressibility (1/GPa) = 0.04971661
#
# Stress axis : x y z
#
# Youngs Moduli (GPa) = 34.15217 74.52617 47.43612
#
# Poissons Ratio (x) = 0.34084 0.08631
# Poissons Ratio (y) = 0.15619 0.03030
# Poissons Ratio (z) = 0.06214 0.04760
#
# Static dielectric constant tensor:
#      x y z
#    x 1.789900 0.000000 0.008430 
#    y 0.000000 1.833260 0.000000 
#    z 0.008430 0.000000 1.758780 
# 
# From -- ./inp_files/41664.got.cif
#   From: 2010.05.17/outbox.cif.g08.bks.cpg/sg11_21_cif.got.tgz:41664.got - 2010.06.03 12:22:45.
