data_PCOD9163182
_publ_section_title
;
Structure prediction by ZEFSAII (Michael W. Deem and Ramdas Pophale) SiO2 
 PCOD9163182
Probable space group: P 21/M
;
_chemical_formula_sum "Si O2"
_cell_formula_units_Z 24
_cell_length_a 15.528788
_cell_length_b 8.074590
_cell_length_c 15.290989
_cell_angle_alpha 90.000000
_cell_angle_beta 39.754471
_cell_angle_gamma 90.000000
_cell_volume 1226.121430
_symmetry_space_group_name_H-M "P 21/M"
_symmetry_group_IT_number 11
_symmetry_cell_setting 'monoclinic'
loop_
_space_group_symop_operation_xyz
x,y,z
-x,1/2+y,-z
-x,-y,-z
x,1/2-y,z
loop_
_atom_site_type_symbol
_atom_site_label
_atom_site_fract_x
_atom_site_fract_y
_atom_site_fract_z
Si Si1 0.373350 0.952750 0.834671
Si Si2 0.354337 0.950090 0.650583
Si Si3 0.320702 0.447159 0.369584
Si Si4 0.855725 0.054704 0.329140
Si Si5 0.855698 0.448922 0.651776
Si Si6 0.151188 0.947081 0.144278
O O1 0.371108 0.750000 0.836548
O O2 0.340774 0.006478 0.761249
O O3 0.525337 0.003113 0.739824
O O4 0.264656 0.012629 0.989921
O O5 0.349462 0.750000 0.653876
O O6 0.237031 0.010855 0.677528
O O7 0.500000 0.000000 0.500000
O O8 0.316182 0.250000 0.387283
O O9 0.227145 0.526792 0.516902
O O10 0.259002 0.486590 0.323502
O O11 0.875387 0.250000 0.301185
O O12 0.001937 0.975533 0.223998
O O13 0.850844 0.250000 0.656463
O O14 0.841889 0.512571 0.761857
O O15 0.000000 0.500000 0.500000
O O16 0.172499 0.750000 0.133837
#
# Coordination Sequence:
#
# PCOD9163182 Si02
#       6
#     4   4   4   4   4   4
#     4   9  20  39  60  84 116 152 192 235 284 344
#     4  10  20  36  59  86 116 150 190 236 283 336
#     4  11  21  36  61  86 112 152 194 236 287 341
#     4  11  22  35  57  88 118 148 190 241 285 335
#     4  11  22  36  58  86 116 150 195 240 284 340
#     4  10  22  40  60  82 114 156 193 232 287 345
#
# _framework density 19.573917999999999
#
# number of rings (size 3 to 8) (size 9 to 14) (size 15 to 20)
#    0.000    1.667    3.333    1.500    0.000    2.667 
#    0.000    2.500    0.000    0.000    0.000    0.000 
#    0.000    0.000    0.000    0.000    0.000    0.000 
#
# Total GULP energy -134082.753708 kJ/mol
# GULP energy per Si atom -5586.781405 kJ/mol
# Density = 1.952937 g / cm^3
# Si number density = 19.573918 Si / 1000 Ang^3
#
#
#
# Elastic Constant Matrix: (Units=GPa)
#
#
# Indices 1 2 3 4 5 6 
#
# 1 150.2212 -9.8354 51.9781 0.0000 11.4979 0.0000
# 2 -9.8354 8.8437 -8.2700 0.0000 6.0715 0.0000
# 3 51.9781 -8.2700 134.9304 0.0000 11.1485 0.0000
# 4 0.0000 0.0000 0.0000 5.3481 0.0000 5.1525
# 5 11.4979 6.0715 11.1485 0.0000 31.0960 0.0000
# 6 0.0000 0.0000 0.0000 5.1525 0.0000 20.4450
#
#
#
# Elastic Compliance Matrix: (Units=1/GPa)
#
#
# Indices 1 2 3 4 5 6 
#
# 1 0.008441 0.010218 -0.002270 0.000000 -0.004302 0.000000
# 2 0.010218 0.158898 0.008943 0.000000 -0.038010 0.000000
# 3 -0.002270 0.008943 0.009181 0.000000 -0.004198 0.000000
# 4 0.000000 0.000000 0.000000 0.246939 0.000000 -0.062233
# 5 -0.004302 -0.038010 -0.004198 0.000000 0.042676 0.000000
# 6 0.000000 0.000000 0.000000 -0.062233 0.000000 0.064595
#
#
# Mechanical properties :
#
#
# Convention : Reuss Voigt Hill
#
# Bulk Modulus (GPa) = 4.75506 40.19340 22.47423
# Shear Modulus (GPa) = 8.81762 28.71933 18.76847
#
# Velocity S-wave (km/s) = 2.12475 3.83459 3.09989
# Velocity P-wave (km/s) = 2.90757 6.33910 4.93144
#
# Compressibility (1/GPa) = 0.21030244
#
# Stress axis : x y z
#
# Youngs Moduli (GPa) = 118.47618 6.29335 108.92555
#
# Poissons Ratio (x) = -0.06431 0.24723
# Poissons Ratio (y) = -1.21063 -0.97414
# Poissons Ratio (z) = 0.26891 -0.05628
#
# Static dielectric constant tensor:
#      x y z
#    x 1.680530 0.000000 0.017490 
#    y 0.000000 1.706380 0.000000 
#    z 0.017490 0.000000 1.650150 
# 
# From -- ./inp_files/20636.got.cif
#   From: 2010.05.17/outbox.cif.g08.bks.cpg/sg11_11_cif.got.tgz:20636.got - 2010.06.03 12:22:45.
