data_PCOD9163128
_publ_section_title
;
Structure prediction by ZEFSAII (Michael W. Deem and Ramdas Pophale) SiO2 
 PCOD9163128
Probable space group: P 21/M
;
_chemical_formula_sum "Si O2"
_cell_formula_units_Z 28
_cell_length_a 15.065695
_cell_length_b 8.491856
_cell_length_c 21.225012
_cell_angle_alpha 90.000000
_cell_angle_beta 148.008278
_cell_angle_gamma 90.000000
_cell_volume 1438.629672
_symmetry_space_group_name_H-M "P 21/M"
_symmetry_group_IT_number 11
_symmetry_cell_setting 'monoclinic'
loop_
_space_group_symop_operation_xyz
x,y,z
-x,1/2+y,-z
-x,-y,-z
x,1/2-y,z
loop_
_atom_site_type_symbol
_atom_site_label
_atom_site_fract_x
_atom_site_fract_y
_atom_site_fract_z
Si Si1 0.343613 0.060274 0.755020
Si Si2 0.895823 0.557768 0.280904
Si Si3 0.291441 0.938750 0.070776
Si Si4 0.335696 0.937819 0.366347
Si Si5 0.029642 0.440635 0.813660
Si Si6 0.400603 0.438433 0.267807
Si Si7 0.230399 0.560022 0.555872
O O1 0.343969 0.250000 0.755742
O O2 0.258042 0.005045 0.768010
O O3 0.533938 0.007416 0.857050
O O4 0.236436 0.005571 0.630228
O O5 0.894874 0.750000 0.279708
O O6 0.896827 0.505535 0.209242
O O7 0.068539 0.509576 0.419134
O O8 0.291821 0.750000 0.073971
O O9 0.296895 0.005162 0.144743
O O10 0.138300 0.996978 0.936835
O O11 0.339144 0.750000 0.371329
O O12 0.163423 0.991161 0.295463
O O13 0.500000 0.000000 0.500000
O O14 0.338141 0.991396 0.295479
O O15 0.033536 0.250000 0.817174
O O16 0.396252 0.250000 0.268840
O O17 0.594353 0.487174 0.371518
O O18 0.228705 0.750000 0.558127
#
# Coordination Sequence:
#
# PCOD9163128 Si02
#       7
#     4   4   4   4   4   4   4
#     4   9  18  32  52  78 108 141 176 219 268 316
#     4   9  17  32  53  76 106 143 179 218 266 317
#     4  10  21  37  55  80 111 141 180 227 272 317
#     4  11  23  39  60  86 113 141 176 219 269 323
#     4  10  22  39  57  77 105 144 185 222 264 321
#     4  10  20  36  59  83 109 145 184 222 268 321
#     4   9  17  31  53  80 108 139 177 219 265 322
#
# _framework density 19.462966999999999
#
# number of rings (size 3 to 8) (size 9 to 14) (size 15 to 20)
#    0.000    2.286    0.000    2.571    0.000    5.714 
#    0.000    1.429    0.000    0.000    0.000    0.000 
#    0.000    0.000    0.000    0.000    0.000    0.000 
#
# Total GULP energy -156359.201824 kJ/mol
# GULP energy per Si atom -5584.257208 kJ/mol
# Density = 1.941867 g / cm^3
# Si number density = 19.462967 Si / 1000 Ang^3
#
#
#
# Elastic Constant Matrix: (Units=GPa)
#
#
# Indices 1 2 3 4 5 6 
#
# 1 97.2560 13.3846 9.9627 0.0000 -19.7413 0.0000
# 2 13.3846 11.7526 10.4584 0.0000 0.0721 0.0000
# 3 9.9627 10.4584 82.1811 0.0000 -14.0811 0.0000
# 4 0.0000 0.0000 0.0000 26.2898 0.0000 -7.8754
# 5 -19.7413 0.0721 -14.0811 0.0000 16.0925 0.0000
# 6 0.0000 0.0000 0.0000 -7.8754 0.0000 22.7779
#
#
#
# Elastic Compliance Matrix: (Units=1/GPa)
#
#
# Indices 1 2 3 4 5 6 
#
# 1 0.019462 -0.027896 0.006238 0.000000 0.029458 0.000000
# 2 -0.027896 0.138336 -0.023754 0.000000 -0.055626 0.000000
# 3 0.006238 -0.023754 0.018545 0.000000 0.023986 0.000000
# 4 0.000000 0.000000 0.000000 0.042432 0.000000 0.014671
# 5 0.029458 -0.055626 0.023986 0.000000 0.119515 0.000000
# 6 0.000000 0.000000 0.000000 0.014671 0.000000 0.048975
#
#
# Mechanical properties :
#
#
# Convention : Reuss Voigt Hill
#
# Bulk Modulus (GPa) = 11.69331 28.75569 20.22450
# Shear Modulus (GPa) = 9.86982 23.52430 16.69706
#
# Velocity S-wave (km/s) = 2.25435 3.48036 2.93215
# Velocity P-wave (km/s) = 3.57731 5.56392 4.67730
#
# Compressibility (1/GPa) = 0.08551899
#
# Stress axis : x y z
#
# Youngs Moduli (GPa) = 51.38307 7.22876 53.92373
#
# Poissons Ratio (x) = 0.20165 -0.33638
# Poissons Ratio (y) = 1.43338 1.28090
# Poissons Ratio (z) = -0.32053 0.17171
#
# Static dielectric constant tensor:
#      x y z
#    x 1.687510 0.000000 0.025590 
#    y 0.000000 1.661800 0.000000 
#    z 0.025590 0.000000 1.653470 
# 
# From -- ./inp_files/38447.got.cif
#   From: 2010.05.17/outbox.cif.g08.bks.cpg/sg11_20_cif.got.tgz:38447.got - 2010.06.03 12:22:45.
