data_PCOD9163790
_publ_section_title
;
Structure prediction by ZEFSAII (Michael W. Deem and Ramdas Pophale) SiO2 
 PCOD9163790
Probable space group: P 21/M
;
_chemical_formula_sum "Si O2"
_cell_formula_units_Z 30
_cell_length_a 11.853516
_cell_length_b 7.466345
_cell_length_c 31.068420
_cell_angle_alpha 90.000000
_cell_angle_beta 24.178227
_cell_angle_gamma 90.000000
_cell_volume 1126.183926
_symmetry_space_group_name_H-M "P 21/M"
_symmetry_group_IT_number 11
_symmetry_cell_setting 'monoclinic'
loop_
_space_group_symop_operation_xyz
x,y,z
-x,1/2+y,-z
-x,-y,-z
x,1/2-y,z
loop_
_atom_site_type_symbol
_atom_site_label
_atom_site_fract_x
_atom_site_fract_y
_atom_site_fract_z
Si Si1 0.050159 0.458180 0.664879
Si Si2 0.407518 0.032135 0.782463
Si Si3 0.523878 0.533594 0.556148
Si Si4 0.236994 0.750000 0.767396
Si Si5 0.415997 0.959055 0.968115
Si Si6 0.022286 0.038069 0.542210
Si Si7 0.570194 0.965381 0.129699
Si Si8 0.043496 0.545355 0.177236
O O1 0.011831 0.250000 0.667837
O O2 0.218844 0.468108 0.650776
O O3 0.267367 0.530785 0.554799
O O4 0.744696 0.535649 0.767046
O O5 0.366744 0.250000 0.790408
O O6 0.320186 0.980703 0.861643
O O7 0.737921 0.994646 0.664918
O O8 0.290000 0.908742 0.785656
O O9 0.514514 0.750000 0.556486
O O10 0.699292 0.462220 0.535097
O O11 0.198682 0.904541 0.742410
O O12 0.448188 0.750000 0.965074
O O13 0.717593 0.042138 0.869673
O O14 0.294570 0.983142 0.962849
O O15 0.222509 0.030333 0.073286
O O16 0.051676 0.250000 0.536572
O O17 0.000000 0.000000 0.500000
O O18 0.569542 0.750000 0.130588
O O19 0.038643 0.250000 0.801326
#
# Coordination Sequence:
#
# PCOD9163790 Si02
#       8
#     4   4   4   2   4   4   4   4
#     4   9  17  32  53  82 113 148 193 252 313 364
#     4  10  23  44  64  89 130 178 220 268 319 377
#     4   9  17  33  53  77 111 151 194 249 311 364
#     4  12  24  42  70  98 128 170 220 268 318 380
#     4  10  21  39  68 101 127 165 212 258 325 395
#     4  10  21  39  60  81 117 168 218 261 310 377
#     4  10  20  37  63  88 127 172 216 265 327 387
#     4  10  22  43  69  97 133 168 206 263 325 392
#
# _framework density 26.638634
#
# number of rings (size 3 to 8) (size 9 to 14) (size 15 to 20)
#    0.000    2.133    2.000    0.800    3.733    1.067 
#    2.400    0.667    0.000    0.000    0.000    0.000 
#    0.000    0.000    0.000    0.000    0.000    0.000 
#
# Total GULP energy -167335.567545 kJ/mol
# GULP energy per Si atom -5577.852252 kJ/mol
# Density = 2.657800 g / cm^3
# Si number density = 26.638634 Si / 1000 Ang^3
#
#
#
# Elastic Constant Matrix: (Units=GPa)
#
#
# Indices 1 2 3 4 5 6 
#
# 1 156.7796 21.5079 17.2146 0.0000 0.2368 0.0000
# 2 21.5079 123.6186 0.2358 0.0000 -5.1842 0.0000
# 3 17.2146 0.2358 48.7075 0.0000 -1.0550 0.0000
# 4 0.0000 0.0000 0.0000 -8.1625 0.0000 7.7371
# 5 0.2368 -5.1842 -1.0550 0.0000 39.5378 0.0000
# 6 0.0000 0.0000 0.0000 7.7371 0.0000 53.6313
#
#
#
# Elastic Compliance Matrix: (Units=1/GPa)
#
#
# Indices 1 2 3 4 5 6 
#
# 1 0.006806 -0.001191 -0.002405 0.000000 -0.000261 0.000000
# 2 -0.001191 0.008342 0.000404 0.000000 0.001112 0.000000
# 3 -0.002405 0.000404 0.021393 0.000000 0.000638 0.000000
# 4 0.000000 0.000000 0.000000 -0.107774 0.000000 0.015548
# 5 -0.000261 0.001112 0.000638 0.000000 0.025457 0.000000
# 6 0.000000 0.000000 0.000000 0.015548 0.000000 0.016403
#
#
# Mechanical properties :
#
#
# Convention : Reuss Voigt Hill
#
# Bulk Modulus (GPa) = 33.15829 45.22472 39.19151
# Shear Modulus (GPa) = -386.47865 36.34449 -175.06708
#
# Velocity S-wave (km/s) = -12.05807 3.69772 -8.11554
# Velocity P-wave (km/s) = 13.46804 5.93674 8.54820
#
# Compressibility (1/GPa) = 0.03015837
#
# Stress axis : x y z
#
# Youngs Moduli (GPa) = 146.92452 119.86974 46.74483
#
# Poissons Ratio (x) = 0.14271 0.11244
# Poissons Ratio (y) = 0.17492 -0.01891
# Poissons Ratio (z) = 0.35341 -0.04848
#
# Static dielectric constant tensor:
#      x y z
#    x 2.107570 0.000000 0.016800 
#    y 0.000000 1.974840 0.000000 
#    z 0.016800 0.000000 2.302330 
# 
# From -- ./inp_files/72959.got.cif
#   From: 2010.05.17/outbox.cif.g08.bks.cpg/sg11_37_cif.got.tgz:72959.got - 2010.06.03 12:22:45.
