data_PCOD9163043
_publ_section_title
;
Structure prediction by ZEFSAII (Michael W. Deem and Ramdas Pophale) SiO2 
 PCOD9163043
Probable space group: P 21/M
;
_chemical_formula_sum "Si O2"
_cell_formula_units_Z 24
_cell_length_a 12.849510
_cell_length_b 7.887031
_cell_length_c 24.586932
_cell_angle_alpha 90.000000
_cell_angle_beta 29.790486
_cell_angle_gamma 90.000000
_cell_volume 1237.975772
_symmetry_space_group_name_H-M "P 21/M"
_symmetry_group_IT_number 11
_symmetry_cell_setting 'monoclinic'
loop_
_space_group_symop_operation_xyz
x,y,z
-x,1/2+y,-z
-x,-y,-z
x,1/2-y,z
loop_
_atom_site_type_symbol
_atom_site_label
_atom_site_fract_x
_atom_site_fract_y
_atom_site_fract_z
Si Si1 0.285491 0.951091 0.240380
Si Si2 0.137447 0.947847 0.626973
Si Si3 0.757715 0.453996 0.618287
Si Si4 0.527002 0.458591 0.614391
Si Si5 0.379017 0.953366 0.999567
Si Si6 0.912673 0.948602 0.227689
O O1 0.243403 0.750000 0.260865
O O2 0.309628 0.013568 0.291283
O O3 0.487334 0.982387 0.111844
O O4 0.083440 0.033965 0.303801
O O5 0.176622 0.750000 0.620168
O O6 0.319110 0.011781 0.504409
O O7 0.123893 0.037221 0.691111
O O8 0.741042 0.250000 0.625467
O O9 0.622428 0.515971 0.628526
O O10 0.000000 0.500000 0.500000
O O11 0.528707 0.250000 0.613228
O O12 0.291748 0.518791 0.709685
O O13 0.372715 0.750000 0.999905
O O14 0.141280 0.021164 0.110198
O O15 0.500000 0.000000 0.000000
O O16 0.921657 0.750000 0.209470
#
# Coordination Sequence:
#
# PCOD9163043 Si02
#       6
#     4   4   4   4   4   4
#     4  11  22  35  55  83 113 145 184 228 274 327
#     4  11  20  32  56  84 113 144 178 227 278 330
#     4  10  20  36  58  82 110 145 184 227 273 326
#     4   9  19  36  56  81 112 146 181 223 279 333
#     4  11  22  36  57  81 110 146 186 232 275 325
#     4  10  21  37  56  79 111 147 183 225 278 334
#
# _framework density 19.386486000000001
#
# number of rings (size 3 to 8) (size 9 to 14) (size 15 to 20)
#    0.000    1.667    3.333    2.000    0.000    1.333 
#    0.000    2.500    0.000    0.000    0.000    0.000 
#    0.000    0.000    0.000    0.000    0.000    0.000 
#
# Total GULP energy -134058.163256 kJ/mol
# GULP energy per Si atom -5585.756802 kJ/mol
# Density = 1.934236 g / cm^3
# Si number density = 19.386486 Si / 1000 Ang^3
#
#
#
# Elastic Constant Matrix: (Units=GPa)
#
#
# Indices 1 2 3 4 5 6 
#
# 1 109.5406 -16.5574 95.9316 0.0000 -12.5068 0.0000
# 2 -16.5574 18.9739 -8.7660 0.0000 -1.1286 0.0000
# 3 95.9316 -8.7660 163.8097 0.0000 -6.3029 0.0000
# 4 0.0000 0.0000 0.0000 17.4028 0.0000 -3.1468
# 5 -12.5068 -1.1286 -6.3029 0.0000 39.3148 0.0000
# 6 0.0000 0.0000 0.0000 -3.1468 0.0000 0.4796
#
#
#
# Elastic Compliance Matrix: (Units=1/GPa)
#
#
# Indices 1 2 3 4 5 6 
#
# 1 0.022788 0.014518 -0.012350 0.000000 0.005686 0.000000
# 2 0.014518 0.063451 -0.004889 0.000000 0.005656 0.000000
# 3 -0.012350 -0.004889 0.012999 0.000000 -0.001985 0.000000
# 4 0.000000 0.000000 0.000000 -0.308050 0.000000 -2.021364
# 5 0.005686 0.005656 -0.001985 0.000000 0.027089 0.000000
# 6 0.000000 0.000000 0.000000 -2.021364 0.000000-11.178607
#
#
# Mechanical properties :
#
#
# Convention : Reuss Voigt Hill
#
# Bulk Modulus (GPa) = 10.66133 48.17120 29.41626
# Shear Modulus (GPa) = -0.44155 26.22049 12.88947
#
# Velocity S-wave (km/s) = -0.47776 3.68164 2.58130
# Velocity P-wave (km/s) = 2.28188 6.55549 4.90823
#
# Compressibility (1/GPa) = 0.09379696
#
# Stress axis : x y z
#
# Youngs Moduli (GPa) = 43.88241 15.76021 76.92925
#
# Poissons Ratio (x) = -0.22881 0.95005
# Poissons Ratio (y) = -0.63711 0.37613
# Poissons Ratio (z) = 0.54193 0.07706
#
# Static dielectric constant tensor:
#      x y z
#    x 1.659780 0.000000 -0.008540 
#    y 0.000000 1.698330 0.000000 
#    z -0.008540 0.000000 1.663320 
# 
# From -- ./inp_files/33679.got.cif
#   From: 2010.05.17/outbox.cif.g08.bks.cpg/sg11_17_cif.got.tgz:33679.got - 2010.06.03 12:22:45.
