data_PCOD9163974
_publ_section_title
;
Structure prediction by ZEFSAII (Michael W. Deem and Ramdas Pophale) SiO2 
 PCOD9163974
Probable space group: P 21/M
;
_chemical_formula_sum "Si O2"
_cell_formula_units_Z 32
_cell_length_a 29.564827
_cell_length_b 7.888077
_cell_length_c 12.474678
_cell_angle_alpha 90.000000
_cell_angle_beta 32.796187
_cell_angle_gamma 90.000000
_cell_volume 1575.782943
_symmetry_space_group_name_H-M "P 21/M"
_symmetry_group_IT_number 11
_symmetry_cell_setting 'monoclinic'
loop_
_space_group_symop_operation_xyz
x,y,z
-x,1/2+y,-z
-x,-y,-z
x,1/2-y,z
loop_
_atom_site_type_symbol
_atom_site_label
_atom_site_fract_x
_atom_site_fract_y
_atom_site_fract_z
Si Si1 0.596208 0.046377 0.305809
Si Si2 0.159368 0.551428 0.919432
Si Si3 0.849007 0.952532 0.525092
Si Si4 0.653335 0.041678 0.424742
Si Si5 0.998476 0.044930 0.628606
Si Si6 0.096307 0.453190 0.815301
Si Si7 0.497377 0.451753 0.880251
Si Si8 0.339858 0.952458 0.048555
O O1 0.604826 0.250000 0.287210
O O2 0.634784 0.987259 0.340339
O O3 0.500000 0.000000 0.500000
O O4 0.634051 0.978875 0.120181
O O5 0.166202 0.750000 0.934458
O O6 0.253111 0.480906 0.737607
O O7 0.131070 0.534073 0.853620
O O8 0.085869 0.481921 0.143056
O O9 0.861026 0.750000 0.497197
O O10 0.919195 0.016063 0.469655
O O11 0.864237 0.016632 0.374259
O O12 0.753491 0.987371 0.743016
O O13 0.652350 0.250000 0.431370
O O14 0.578817 0.983093 0.652170
O O15 0.998133 0.250000 0.636062
O O16 0.000000 0.000000 0.500000
O O17 0.106782 0.250000 0.802247
O O18 0.000000 0.500000 0.000000
O O19 0.500915 0.250000 0.867646
O O20 0.500000 0.500000 0.000000
O O21 0.411494 0.503345 0.992139
O O22 0.337547 0.750000 0.048398
#
# Coordination Sequence:
#
# PCOD9163974 Si02
#       8
#     4   4   4   4   4   4   4   4
#     4  10  20  38  62  88 117 153 200 247 295 355
#     4  10  21  40  63  88 120 157 198 249 298 350
#     4  10  23  42  60  86 123 162 199 246 304 357
#     4   9  20  38  62  87 116 157 196 237 300 354
#     4  10  22  40  61  86 122 160 198 243 300 356
#     4  11  22  40  64  89 118 155 200 248 301 355
#     4  11  23  41  62  87 124 162 199 247 302 361
#     4  11  24  39  62  93 119 156 206 251 300 359
#
# _framework density 20.307365000000001
#
# number of rings (size 3 to 8) (size 9 to 14) (size 15 to 20)
#    0.000    1.750    2.500    1.125    3.500    2.500 
#    0.000    1.250    0.000    0.000    0.000    0.000 
#    0.000    0.000    0.000    0.000    0.000    0.000 
#
# Total GULP energy -178642.332950 kJ/mol
# GULP energy per Si atom -5582.572905 kJ/mol
# Density = 2.026114 g / cm^3
# Si number density = 20.307365 Si / 1000 Ang^3
#
#
#
# Elastic Constant Matrix: (Units=GPa)
#
#
# Indices 1 2 3 4 5 6 
#
# 1 162.1813 -15.4975 98.1393 0.0000 -0.9094 0.0000
# 2 -15.4975 16.7406 -8.5479 0.0000 1.8018 0.0000
# 3 98.1393 -8.5479 194.1495 0.0000 3.9879 0.0000
# 4 0.0000 0.0000 0.0000 12.7873 0.0000 6.6515
# 5 -0.9094 1.8018 3.9879 0.0000 43.3945 0.0000
# 6 0.0000 0.0000 0.0000 6.6515 0.0000 23.1617
#
#
#
# Elastic Compliance Matrix: (Units=1/GPa)
#
#
# Indices 1 2 3 4 5 6 
#
# 1 0.009534 0.006470 -0.004542 0.000000 0.000349 0.000000
# 2 0.006470 0.065838 -0.000319 0.000000 -0.002569 0.000000
# 3 -0.004542 -0.000319 0.007448 0.000000 -0.000766 0.000000
# 4 0.000000 0.000000 0.000000 0.091936 0.000000 -0.026402
# 5 0.000349 -0.002569 -0.000766 0.000000 0.023229 0.000000
# 6 0.000000 0.000000 0.000000 -0.026402 0.000000 0.050757
#
#
# Mechanical properties :
#
#
# Convention : Reuss Voigt Hill
#
# Bulk Modulus (GPa) = 11.62266 57.91770 34.77018
# Shear Modulus (GPa) = 18.23464 35.80053 27.01758
#
# Velocity S-wave (km/s) = 2.99980 4.20328 3.65147
# Velocity P-wave (km/s) = 4.21120 7.22075 5.91073
#
# Compressibility (1/GPa) = 0.08603880
#
# Stress axis : x y z
#
# Youngs Moduli (GPa) = 104.88234 15.18879 134.26078
#
# Poissons Ratio (x) = -0.09827 0.60979
# Poissons Ratio (y) = -0.67857 0.04283
# Poissons Ratio (z) = 0.47636 0.00484
#
# Static dielectric constant tensor:
#      x y z
#    x 2.053890 0.000000 0.070170 
#    y 0.000000 1.740030 0.000000 
#    z 0.070170 0.000000 1.742460 
# 
# From -- ./inp_files/38212.got.cif
#   From: 2010.05.17/outbox.cif.g08.bks.cpg/sg11_20_cif.got.tgz:38212.got - 2010.06.03 12:22:45.
