data_PCOD9163963
_publ_section_title
;
Structure prediction by ZEFSAII (Michael W. Deem and Ramdas Pophale) SiO2 
 PCOD9163963
Probable space group: P 21/M
;
_chemical_formula_sum "Si O2"
_cell_formula_units_Z 24
_cell_length_a 10.373234
_cell_length_b 17.410543
_cell_length_c 17.472676
_cell_angle_alpha 90.000000
_cell_angle_beta 26.040684
_cell_angle_gamma 90.000000
_cell_volume 1385.350221
_symmetry_space_group_name_H-M "P 21/M"
_symmetry_group_IT_number 11
_symmetry_cell_setting 'monoclinic'
loop_
_space_group_symop_operation_xyz
x,y,z
-x,1/2+y,-z
-x,-y,-z
x,1/2-y,z
loop_
_atom_site_type_symbol
_atom_site_label
_atom_site_fract_x
_atom_site_fract_y
_atom_site_fract_z
Si Si1 0.825052 0.919927 0.108138
Si Si2 0.849939 0.454931 0.511064
Si Si3 0.670350 0.942676 0.466010
Si Si4 0.634861 0.840509 0.760369
Si Si5 0.027428 0.657230 0.158029
Si Si6 0.313980 0.840208 0.770015
O O1 0.478993 0.932777 0.288068
O O2 0.883819 0.882766 0.159997
O O3 0.978227 0.861791 0.967350
O O4 0.000000 0.000000 0.000000
O O5 0.826208 0.506521 0.447890
O O6 0.000000 0.500000 0.500000
O O7 0.066740 0.384001 0.381481
O O8 0.438176 0.889885 0.634883
O O9 0.890246 0.886854 0.303015
O O10 0.500000 0.000000 0.500000
O O11 0.686422 0.750000 0.731207
O O12 0.497110 0.860654 0.750071
O O13 0.375172 0.855768 0.959710
O O14 0.977820 0.750000 0.185290
O O15 0.347710 0.750000 0.738784
#
# Coordination Sequence:
#
# PCOD9163963 Si02
#       6
#     4   4   4   4   4   4
#     4  11  19  37  61  88 117 153 206 240 287 355
#     4  12  22  37  62  88 120 154 196 247 300 347
#     4  12  22  38  60  90 119 154 198 249 295 358
#     4   9  20  38  59  86 119 156 198 244 299 359
#     4  10  21  39  61  85 120 162 198 243 303 360
#     4  10  20  38  62  86 118 161 201 241 292 361
#
# _framework density 17.32414
#
# number of rings (size 3 to 8) (size 9 to 14) (size 15 to 20)
#    0.000    1.333    5.000    3.000    0.000    2.000 
#    0.000    0.000    0.000    2.000    0.000    0.000 
#    0.000    0.000    0.000    0.000    0.000    0.000 
#
# Total GULP energy -133898.385641 kJ/mol
# GULP energy per Si atom -5579.099402 kJ/mol
# Density = 1.728471 g / cm^3
# Si number density = 17.324140 Si / 1000 Ang^3
#
#
#
# Elastic Constant Matrix: (Units=GPa)
#
#
# Indices 1 2 3 4 5 6 
#
# 1 89.9080 56.8585 70.6198 0.0000 0.9709 0.0000
# 2 56.8585 103.2025 80.8220 0.0000 -1.4319 0.0000
# 3 70.6198 80.8220 173.5084 0.0000 -3.5393 0.0000
# 4 0.0000 0.0000 0.0000 43.6092 0.0000 2.7377
# 5 0.9709 -1.4319 -3.5393 0.0000 37.1799 0.0000
# 6 0.0000 0.0000 0.0000 2.7377 0.0000 31.3544
#
#
#
# Elastic Compliance Matrix: (Units=1/GPa)
#
#
# Indices 1 2 3 4 5 6 
#
# 1 0.019136 -0.006991 -0.004556 0.000000 -0.001203 0.000000
# 2 -0.006991 0.017809 -0.005443 0.000000 0.000350 0.000000
# 3 -0.004556 -0.005443 0.010171 0.000000 0.000878 0.000000
# 4 0.000000 0.000000 0.000000 0.023057 0.000000 -0.002013
# 5 -0.001203 0.000350 0.000878 0.000000 0.027025 0.000000
# 6 0.000000 0.000000 0.000000 -0.002013 0.000000 0.032069
#
#
# Mechanical properties :
#
#
# Convention : Reuss Voigt Hill
#
# Bulk Modulus (GPa) = 76.13352 87.02440 81.57896
# Shear Modulus (GPa) = 29.82837 32.98327 31.40582
#
# Velocity S-wave (km/s) = 4.15394 4.36809 4.26236
# Velocity P-wave (km/s) = 8.18833 8.70531 8.45078
#
# Compressibility (1/GPa) = 0.01313482
#
# Stress axis : x y z
#
# Youngs Moduli (GPa) = 52.25887 56.15230 98.31644
#
# Poissons Ratio (x) = 0.39255 0.44798
# Poissons Ratio (y) = 0.36534 0.53513
# Poissons Ratio (z) = 0.23812 0.30564
#
# Static dielectric constant tensor:
#      x y z
#    x 1.586350 0.000000 0.006060 
#    y 0.000000 1.606700 0.000000 
#    z 0.006060 0.000000 1.596160 
# 
# From -- ./inp_files/14224.got.cif
#   From: 2010.05.17/outbox.cif.g08.bks.cpg/sg11_8_cif.got.tgz:14224.got - 2010.06.03 12:22:45.
