data_PCOD9163451
_publ_section_title
;
Structure prediction by ZEFSAII (Michael W. Deem and Ramdas Pophale) SiO2 
 PCOD9163451
Probable space group: P 21/M
;
_chemical_formula_sum "Si O2"
_cell_formula_units_Z 28
_cell_length_a 15.371526
_cell_length_b 7.602752
_cell_length_c 12.378554
_cell_angle_alpha 90.000000
_cell_angle_beta 62.346583
_cell_angle_gamma 90.000000
_cell_volume 1281.384038
_symmetry_space_group_name_H-M "P 21/M"
_symmetry_group_IT_number 11
_symmetry_cell_setting 'monoclinic'
loop_
_space_group_symop_operation_xyz
x,y,z
-x,1/2+y,-z
-x,-y,-z
x,1/2-y,z
loop_
_atom_site_type_symbol
_atom_site_label
_atom_site_fract_x
_atom_site_fract_y
_atom_site_fract_z
Si Si1 0.019284 0.959025 0.613710
Si Si2 0.315948 0.466549 0.374382
Si Si3 0.501937 0.953901 0.871014
Si Si4 0.885036 0.961961 0.088224
Si Si5 0.795306 0.550892 0.363041
Si Si6 0.715327 0.962256 0.023522
Si Si7 0.193389 0.036277 0.244685
O O1 0.033414 0.750000 0.619809
O O2 0.916052 0.014864 0.725648
O O3 0.110817 0.054972 0.611966
O O4 0.000000 0.000000 0.500000
O O5 0.315506 0.250000 0.380313
O O6 0.414398 0.529710 0.256781
O O7 0.289346 0.527983 0.510811
O O8 0.229791 0.521807 0.340683
O O9 0.525707 0.750000 0.858947
O O10 0.394217 0.983025 0.883338
O O11 0.500000 0.000000 0.000000
O O12 0.880913 0.750000 0.093612
O O13 0.839633 0.029715 0.227938
O O14 0.807238 0.022172 0.042339
O O15 0.000000 0.000000 0.000000
O O16 0.763980 0.750000 0.353395
O O17 0.716841 0.750000 0.023307
O O18 0.732966 0.021688 0.890447
O O19 0.193284 0.250000 0.248235
#
# Coordination Sequence:
#
# PCOD9163451 Si02
#       7
#     4   4   4   4   4   4   4
#     4  11  20  31  50  78 110 144 181 225 279 337
#     4   9  17  32  53  76 106 143 178 217 274 335
#     4  11  21  35  57  84 112 147 186 233 284 335
#     4  10  22  39  62  85 112 151 191 236 280 333
#     4  10  20  37  56  77 108 147 190 229 275 337
#     4  10  20  37  57  80 110 146 188 229 280 336
#     4   9  16  29  50  73 104 144 175 212 270 337
#
# _framework density 21.851371
#
# number of rings (size 3 to 8) (size 9 to 14) (size 15 to 20)
#    0.000    2.000    2.857    1.714    0.000    2.286 
#    0.000    5.000    0.000    0.000    0.000    0.000 
#    0.000    0.000    0.000    0.000    0.000    0.000 
#
# Total GULP energy -156138.536867 kJ/mol
# GULP energy per Si atom -5576.376317 kJ/mol
# Density = 2.180164 g / cm^3
# Si number density = 21.851371 Si / 1000 Ang^3
#
#
#
# Elastic Constant Matrix: (Units=GPa)
#
#
# Indices 1 2 3 4 5 6 
#
# 1 74.0020 -7.4477 49.7341 0.0000 -18.0320 0.0000
# 2 -7.4477 51.8092 5.2854 0.0000 -1.5460 0.0000
# 3 49.7341 5.2854 177.5283 0.0000 -16.3192 0.0000
# 4 0.0000 0.0000 0.0000 11.3792 0.0000 -5.9968
# 5 -18.0320 -1.5460 -16.3192 0.0000 40.7829 0.0000
# 6 0.0000 0.0000 0.0000 -5.9968 0.0000 17.9061
#
#
#
# Elastic Compliance Matrix: (Units=1/GPa)
#
#
# Indices 1 2 3 4 5 6 
#
# 1 0.018593 0.003347 -0.004714 0.000000 0.006461 0.000000
# 2 0.003347 0.019973 -0.001377 0.000000 0.001686 0.000000
# 3 -0.004714 -0.001377 0.007058 0.000000 0.000688 0.000000
# 4 0.000000 0.000000 0.000000 0.106713 0.000000 0.035738
# 5 0.006461 0.001686 0.000688 0.000000 0.027716 0.000000
# 6 0.000000 0.000000 0.000000 0.035738 0.000000 0.067816
#
#
# Mechanical properties :
#
#
# Convention : Reuss Voigt Hill
#
# Bulk Modulus (GPa) = 24.91667 44.27588 34.59628
# Shear Modulus (GPa) = 18.74507 31.06485 24.90496
#
# Velocity S-wave (km/s) = 2.93207 3.77456 3.37967
# Velocity P-wave (km/s) = 4.78438 6.26918 5.57642
#
# Compressibility (1/GPa) = 0.04013377
#
# Stress axis : x y z
#
# Youngs Moduli (GPa) = 53.78463 50.06647 141.68660
#
# Poissons Ratio (x) = -0.16755 0.66797
# Poissons Ratio (y) = -0.17999 0.19513
# Poissons Ratio (z) = 0.25356 0.06895
#
# Static dielectric constant tensor:
#      x y z
#    x 1.775680 0.000000 -0.032740 
#    y 0.000000 1.849170 0.000000 
#    z -0.032740 0.000000 1.893010 
# 
# From -- ./inp_files/37922.got.cif
#   From: 2010.05.17/outbox.cif.g08.bks.cpg/sg11_19_cif.got.tgz:37922.got - 2010.06.03 12:22:45.
