data_PCOD9163040
_publ_section_title
;
Structure prediction by ZEFSAII (Michael W. Deem and Ramdas Pophale) SiO2 
 PCOD9163040
Probable space group: P 21/M
;
_chemical_formula_sum "Si O2"
_cell_formula_units_Z 32
_cell_length_a 25.975231
_cell_length_b 8.838636
_cell_length_c 16.132169
_cell_angle_alpha 90.000000
_cell_angle_beta 150.166468
_cell_angle_gamma 90.000000
_cell_volume 1842.529994
_symmetry_space_group_name_H-M "P 21/M"
_symmetry_group_IT_number 11
_symmetry_cell_setting 'monoclinic'
loop_
_space_group_symop_operation_xyz
x,y,z
-x,1/2+y,-z
-x,-y,-z
x,1/2-y,z
loop_
_atom_site_type_symbol
_atom_site_label
_atom_site_fract_x
_atom_site_fract_y
_atom_site_fract_z
Si Si1 0.277083 0.569755 0.026132
Si Si2 0.550498 0.430990 0.151598
Si Si3 0.015272 0.568331 0.264353
Si Si4 0.804798 0.431170 0.906109
Si Si5 0.303629 0.069419 0.405847
Si Si6 0.953427 0.431601 0.351510
Si Si7 0.517350 0.930913 0.760704
Si Si8 0.228732 0.932234 0.471179
O O1 0.294216 0.750000 0.041558
O O2 0.168812 0.532462 0.829433
O O3 0.257772 0.536935 0.096270
O O4 0.374321 0.482446 0.125556
O O5 0.546330 0.250000 0.138819
O O6 0.492499 0.474022 0.155924
O O7 0.670523 0.473920 0.333619
O O8 0.500000 0.500000 0.000000
O O9 0.006558 0.750000 0.256827
O O10 0.008222 0.499690 0.346651
O O11 0.122664 0.530136 0.369192
O O12 0.918216 0.501310 0.078520
O O13 0.813196 0.250000 0.909787
O O14 0.748640 0.501223 0.748803
O O15 0.303337 0.250000 0.402408
O O16 0.420569 0.008366 0.579714
O O17 0.242753 0.011349 0.402245
O O18 0.963519 0.250000 0.364842
O O19 0.000000 0.500000 0.500000
O O20 0.505088 0.750000 0.737942
O O21 0.232442 0.750000 0.463582
#
# Coordination Sequence:
#
# PCOD9163040 Si02
#       8
#     4   4   4   4   4   4   4   4
#     4   9  20  37  56  79 106 140 181 222 266 317
#     4   9  19  35  53  76 105 138 174 213 262 313
#     4  10  20  36  58  82 108 141 182 226 272 323
#     4  10  21  38  57  79 111 144 176 221 271 321
#     4  11  22  36  57  82 107 140 182 223 265 319
#     4  10  21  37  56  80 112 147 184 227 272 320
#     4  10  21  37  56  79 109 142 176 220 272 322
#     4   9  20  38  56  77 109 144 178 221 271 321
#
# _framework density 17.367425999999998
#
# number of rings (size 3 to 8) (size 9 to 14) (size 15 to 20)
#    0.000    2.250    0.000    4.125    0.000    8.500 
#    0.000    3.750    0.000    0.000    0.000    0.000 
#    0.000    0.000    0.000    0.000    0.000    0.000 
#
# Total GULP energy -178639.176051 kJ/mol
# GULP energy per Si atom -5582.474252 kJ/mol
# Density = 1.732790 g / cm^3
# Si number density = 17.367426 Si / 1000 Ang^3
#
#
#
# Elastic Constant Matrix: (Units=GPa)
#
#
# Indices 1 2 3 4 5 6 
#
# 1 139.7370 78.1851 128.7178 0.0000 8.2854 0.0000
# 2 78.1851 78.1042 77.6008 0.0000 1.8341 0.0000
# 3 128.7178 77.6008 158.0064 0.0000 -18.9107 0.0000
# 4 0.0000 0.0000 0.0000 35.1108 0.0000 -2.0123
# 5 8.2854 1.8341 -18.9107 0.0000 38.1594 0.0000
# 6 0.0000 0.0000 0.0000 -2.0123 0.0000 34.5145
#
#
#
# Elastic Compliance Matrix: (Units=1/GPa)
#
#
# Indices 1 2 3 4 5 6 
#
# 1 0.056654 -0.011826 -0.044381 0.000000 -0.033727 0.000000
# 2 -0.011826 0.029831 -0.005189 0.000000 -0.001438 0.000000
# 3 -0.044381 -0.005189 0.049129 0.000000 0.034233 0.000000
# 4 0.000000 0.000000 0.000000 0.028577 0.000000 0.001666
# 5 -0.033727 -0.001438 0.034233 0.000000 0.050563 0.000000
# 6 0.000000 0.000000 0.000000 0.001666 0.000000 0.029070
#
#
# Mechanical properties :
#
#
# Convention : Reuss Voigt Hill
#
# Bulk Modulus (GPa) = 77.99110 104.98388 91.48749
# Shear Modulus (GPa) = 13.48111 27.64655 20.56383
#
# Velocity S-wave (km/s) = 2.78911 3.99414 3.44473
# Velocity P-wave (km/s) = 7.44152 9.04715 8.28333
#
# Compressibility (1/GPa) = 0.01282198
#
# Stress axis : x y z
#
# Youngs Moduli (GPa) = 17.65095 33.52262 20.35461
#
# Poissons Ratio (x) = 0.39643 0.90336
# Poissons Ratio (y) = 0.20873 0.10562
# Poissons Ratio (z) = 0.78337 0.17395
#
# Static dielectric constant tensor:
#      x y z
#    x 1.567320 0.000000 0.004060 
#    y 0.000000 1.582780 0.000000 
#    z 0.004060 0.000000 1.565450 
# 
# From -- ./inp_files/55668.got.cif
#   From: 2010.05.17/outbox.cif.g08.bks.cpg/sg11_28_cif.got.tgz:55668.got - 2010.06.03 12:22:45.
