data_PCOD9163962
_publ_section_title
;
Structure prediction by ZEFSAII (Michael W. Deem and Ramdas Pophale) SiO2 
 PCOD9163962
Probable space group: P 21/M
;
_chemical_formula_sum "Si O2"
_cell_formula_units_Z 32
_cell_length_a 11.662974
_cell_length_b 17.586314
_cell_length_c 13.632362
_cell_angle_alpha 90.000000
_cell_angle_beta 31.687445
_cell_angle_gamma 90.000000
_cell_volume 1468.758552
_symmetry_space_group_name_H-M "P 21/M"
_symmetry_group_IT_number 11
_symmetry_cell_setting 'monoclinic'
loop_
_space_group_symop_operation_xyz
x,y,z
-x,1/2+y,-z
-x,-y,-z
x,1/2-y,z
loop_
_atom_site_type_symbol
_atom_site_label
_atom_site_fract_x
_atom_site_fract_y
_atom_site_fract_z
Si Si1 0.517760 0.837815 0.795684
Si Si2 0.466615 0.585928 0.403834
Si Si3 0.098240 0.337290 0.950140
Si Si4 0.075481 0.915888 0.114013
Si Si5 0.968512 0.335216 0.262944
Si Si6 0.406723 0.090326 0.463391
Si Si7 0.314146 0.051402 0.017690
Si Si8 0.245024 0.482933 0.290428
O O1 0.563611 0.750000 0.783488
O O2 0.525265 0.853771 0.672908
O O3 0.678534 0.899740 0.727450
O O4 0.273235 0.862403 0.005096
O O5 0.657726 0.630916 0.209642
O O6 0.507905 0.606293 0.489145
O O7 0.483665 0.495245 0.382625
O O8 0.222853 0.612229 0.556685
O O9 0.111455 0.250000 0.904237
O O10 0.990657 0.390134 0.946644
O O11 0.963599 0.336809 0.148157
O O12 0.856032 0.910102 0.336803
O O13 0.166168 0.001500 0.051977
O O14 0.936750 0.250000 0.320817
O O15 0.209476 0.366609 0.108292
O O16 0.268636 0.012621 0.156221
O O17 0.566845 0.040548 0.807954
O O18 0.000000 0.500000 0.500000
#
# Coordination Sequence:
#
# PCOD9163962 Si02
#       8
#     4   4   4   4   4   4   4   4
#     4  11  24  39  63  93 119 153 197 252 311 356
#     4  10  21  35  57  85 125 166 202 236 287 346
#     4  10  22  35  54  89 128 165 202 245 294 344
#     4  10  20  38  62  85 121 161 200 244 294 352
#     4  11  23  38  58  87 127 163 202 247 290 352
#     4  10  21  36  58  90 120 161 204 240 284 356
#     4  10  22  40  61  89 110 151 206 242 303 362
#     4  10  23  43  65  85 116 148 193 257 306 364
#
# _framework density 21.787108
#
# number of rings (size 3 to 8) (size 9 to 14) (size 15 to 20)
#    0.000    1.750    1.250    2.250    3.500    5.000 
#    0.000    0.625    0.000    0.000    0.000    0.000 
#    0.000    0.000    0.000    0.000    0.000    0.000 
#
# Total GULP energy -178884.574413 kJ/mol
# GULP energy per Si atom -5590.142950 kJ/mol
# Density = 2.173752 g / cm^3
# Si number density = 21.787108 Si / 1000 Ang^3
#
#
#
# Elastic Constant Matrix: (Units=GPa)
#
#
# Indices 1 2 3 4 5 6 
#
# 1 40.5975 11.3193 16.2102 0.0000 -8.3953 0.0000
# 2 11.3193 73.2946 17.7790 0.0000 -14.2016 0.0000
# 3 16.2102 17.7790 134.2629 0.0000 -24.4515 0.0000
# 4 0.0000 0.0000 0.0000 21.9371 0.0000 4.5053
# 5 -8.3953 -14.2016 -24.4515 0.0000 34.1340 0.0000
# 6 0.0000 0.0000 0.0000 4.5053 0.0000 18.4716
#
#
#
# Elastic Compliance Matrix: (Units=1/GPa)
#
#
# Indices 1 2 3 4 5 6 
#
# 1 0.027118 -0.002904 -0.002179 0.000000 0.003901 0.000000
# 2 -0.002904 0.015261 -0.000741 0.000000 0.005105 0.000000
# 3 -0.002179 -0.000741 0.008804 0.000000 0.005463 0.000000
# 4 0.000000 0.000000 0.000000 0.047989 0.000000 -0.011705
# 5 0.003901 0.005105 0.005463 0.000000 0.036292 0.000000
# 6 0.000000 0.000000 0.000000 -0.011705 0.000000 0.056992
#
#
# Mechanical properties :
#
#
# Convention : Reuss Voigt Hill
#
# Bulk Modulus (GPa) = 25.29329 37.64134 31.46731
# Shear Modulus (GPa) = 23.01157 28.43166 25.72161
#
# Velocity S-wave (km/s) = 3.25345 3.61636 3.43970
# Velocity P-wave (km/s) = 5.07422 5.89507 5.49998
#
# Compressibility (1/GPa) = 0.03953618
#
# Stress axis : x y z
#
# Youngs Moduli (GPa) = 36.87532 65.52780 113.58367
#
# Poissons Ratio (x) = 0.19027 0.24753
# Poissons Ratio (y) = 0.10707 0.08412
# Poissons Ratio (z) = 0.08036 0.04853
#
# Static dielectric constant tensor:
#      x y z
#    x 1.858890 0.000000 0.001180 
#    y 0.000000 1.788430 0.000000 
#    z 0.001180 0.000000 1.797970 
# 
# From -- ./inp_files/50667.got.cif
#   From: 2010.05.17/outbox.cif.g08.bks.cpg/sg11_26_cif.got.tgz:50667.got - 2010.06.03 12:22:45.
