data_PCOD9163706
_publ_section_title
;
Structure prediction by ZEFSAII (Michael W. Deem and Ramdas Pophale) SiO2 
 PCOD9163706
Probable space group: P 21/M
;
_chemical_formula_sum "Si O2"
_cell_formula_units_Z 28
_cell_length_a 14.063874
_cell_length_b 8.524605
_cell_length_c 20.708683
_cell_angle_alpha 90.000000
_cell_angle_beta 145.628329
_cell_angle_gamma 90.000000
_cell_volume 1401.654654
_symmetry_space_group_name_H-M "P 21/M"
_symmetry_group_IT_number 11
_symmetry_cell_setting 'monoclinic'
loop_
_space_group_symop_operation_xyz
x,y,z
-x,1/2+y,-z
-x,-y,-z
x,1/2-y,z
loop_
_atom_site_type_symbol
_atom_site_label
_atom_site_fract_x
_atom_site_fract_y
_atom_site_fract_z
Si Si1 0.814451 0.432827 0.885888
Si Si2 0.531223 0.562353 0.822383
Si Si3 0.834171 0.938340 0.370585
Si Si4 0.659513 0.565203 0.675139
Si Si5 0.364847 0.439637 0.975762
Si Si6 0.075188 0.059549 0.721563
Si Si7 0.714236 0.061278 0.563579
O O1 0.814418 0.250000 0.900666
O O2 0.672962 0.513761 0.850853
O O3 0.763847 0.464871 0.783805
O O4 0.000000 0.500000 0.000000
O O5 0.519280 0.750000 0.816826
O O6 0.345221 0.496485 0.703419
O O7 0.590476 0.506382 0.927075
O O8 0.836871 0.750000 0.373644
O O9 0.846925 0.992757 0.302739
O O10 0.000000 0.000000 0.500000
O O11 0.685559 0.750000 0.701568
O O12 0.460497 0.529406 0.570584
O O13 0.705879 0.522582 0.627916
O O14 0.368062 0.250000 0.978363
O O15 0.500000 0.500000 0.000000
O O16 0.185375 0.489941 0.845107
O O17 0.078400 0.250000 0.722290
O O18 0.881544 0.011938 0.620027
O O19 0.720357 0.250000 0.577705
#
# Coordination Sequence:
#
# PCOD9163706 Si02
#       7
#     4   4   4   4   4   4   4
#     4  12  27  46  67  92 124 165 212 264 319 383
#     4  11  24  42  65  94 127 167 210 260 317 379
#     4  11  23  40  63  92 129 171 215 263 313 376
#     4  10  21  39  62  92 125 160 206 260 316 375
#     4  10  20  37  61  88 121 158 202 250 302 363
#     4   9  19  36  60  89 119 161 206 253 311 365
#     4   9  19  37  63  90 122 164 207 258 314 368
#
# _framework density 19.976391
#
# number of rings (size 3 to 8) (size 9 to 14) (size 15 to 20)
#    0.000    1.714    1.429    2.571    4.000    1.143 
#    0.000    2.143    0.000    0.000    0.000    0.000 
#    0.000    0.000    0.000    0.000    0.000    0.000 
#
# Total GULP energy -156434.869223 kJ/mol
# GULP energy per Si atom -5586.959615 kJ/mol
# Density = 1.993092 g / cm^3
# Si number density = 19.976391 Si / 1000 Ang^3
#
#
#
# Elastic Constant Matrix: (Units=GPa)
#
#
# Indices 1 2 3 4 5 6 
#
# 1 59.2388 14.1547 33.8879 0.0000 27.2949 0.0000
# 2 14.1547 46.5292 31.5300 0.0000 5.8567 0.0000
# 3 33.8879 31.5300 118.9165 0.0000 15.4244 0.0000
# 4 0.0000 0.0000 0.0000 27.0649 0.0000 1.3822
# 5 27.2949 5.8567 15.4244 0.0000 36.2741 0.0000
# 6 0.0000 0.0000 0.0000 1.3822 0.0000 29.2986
#
#
#
# Elastic Compliance Matrix: (Units=1/GPa)
#
#
# Indices 1 2 3 4 5 6 
#
# 1 0.029530 -0.003093 -0.005057 0.000000 -0.019571 0.000000
# 2 -0.003093 0.026586 -0.006258 0.000000 0.000696 0.000000
# 3 -0.005057 -0.006258 0.011520 0.000000 -0.000083 0.000000
# 4 0.000000 0.000000 0.000000 0.037037 0.000000 -0.001747
# 5 -0.019571 0.000696 -0.000083 0.000000 0.042217 0.000000
# 6 0.000000 0.000000 0.000000 -0.001747 0.000000 0.034214
#
#
# Mechanical properties :
#
#
# Convention : Reuss Voigt Hill
#
# Bulk Modulus (GPa) = 25.75963 42.64775 34.20369
# Shear Modulus (GPa) = 22.43558 28.20164 25.31861
#
# Velocity S-wave (km/s) = 3.35491 3.76140 3.56396
# Velocity P-wave (km/s) = 5.28491 6.34505 5.83909
#
# Compressibility (1/GPa) = 0.03882044
#
# Stress axis : x y z
#
# Youngs Moduli (GPa) = 33.86388 37.61400 86.80341
#
# Poissons Ratio (x) = 0.11636 0.43893
# Poissons Ratio (y) = 0.10476 0.54320
# Poissons Ratio (z) = 0.17123 0.23538
#
# Static dielectric constant tensor:
#      x y z
#    x 1.642170 0.000000 -0.004370 
#    y 0.000000 1.684280 0.000000 
#    z -0.004370 0.000000 1.707510 
# 
# From -- ./inp_files/38499.got.cif
#   From: 2010.05.17/outbox.cif.g08.bks.cpg/sg11_20_cif.got.tgz:38499.got - 2010.06.03 12:22:45.
