data_PCOD9163313
_publ_section_title
;
Structure prediction by ZEFSAII (Michael W. Deem and Ramdas Pophale) SiO2 
 PCOD9163313
Probable space group: P 21/M
;
_chemical_formula_sum "Si O2"
_cell_formula_units_Z 32
_cell_length_a 22.162445
_cell_length_b 13.925995
_cell_length_c 15.408676
_cell_angle_alpha 90.000000
_cell_angle_beta 18.568498
_cell_angle_gamma 90.000000
_cell_volume 1514.378174
_symmetry_space_group_name_H-M "P 21/M"
_symmetry_group_IT_number 11
_symmetry_cell_setting 'monoclinic'
loop_
_space_group_symop_operation_xyz
x,y,z
-x,1/2+y,-z
-x,-y,-z
x,1/2-y,z
loop_
_atom_site_type_symbol
_atom_site_label
_atom_site_fract_x
_atom_site_fract_y
_atom_site_fract_z
Si Si1 0.010399 0.355717 0.816642
Si Si2 0.294075 0.861504 0.908633
Si Si3 0.900775 0.635244 0.766028
Si Si4 0.515564 0.975063 0.266532
Si Si5 0.048871 0.134771 0.495201
Si Si6 0.903196 0.100693 0.149213
Si Si7 0.460095 0.048619 0.961889
Si Si8 0.869085 0.427423 0.381573
O O1 0.083671 0.250000 0.684208
O O2 0.124496 0.455207 0.642285
O O3 0.807508 0.370542 0.045763
O O4 0.974515 0.345441 0.967603
O O5 0.343000 0.750000 0.855914
O O6 0.124194 0.890814 0.206430
O O7 0.463191 0.933027 0.700330
O O8 0.901107 0.750000 0.770812
O O9 0.688291 0.595585 0.052431
O O10 0.989698 0.606081 0.551840
O O11 0.012992 0.593728 0.693902
O O12 0.321294 0.918582 0.544854
O O13 0.536809 0.006009 0.135995
O O14 0.061571 0.250000 0.479370
O O15 0.253635 0.096477 0.245604
O O16 0.950773 0.123879 0.184142
O O17 0.000000 0.000000 0.000000
O O18 0.653833 0.109285 0.686726
O O19 0.500000 0.000000 0.000000
#
# Coordination Sequence:
#
# PCOD9163313 Si02
#       8
#     4   4   4   4   4   4   4   4
#     4  10  20  37  62  85 114 157 196 242 306 359
#     4  10  20  36  60  90 118 153 200 244 289 345
#     4  10  21  36  59  87 118 158 199 244 293 341
#     4  10  21  38  60  84 119 153 191 250 290 353
#     4   9  20  37  57  85 121 161 204 238 282 354
#     4   9  21  40  59  83 115 151 193 238 302 350
#     4  10  21  33  56  86 119 162 197 228 297 349
#     4  10  20  38  57  91 122 150 202 252 288 347
#
# _framework density 21.130786000000001
#
# number of rings (size 3 to 8) (size 9 to 14) (size 15 to 20)
#    0.000    2.250    1.250    0.750    1.750    3.000 
#    0.000    8.750    0.000    0.000    0.000    0.000 
#    0.000    0.000    0.000    0.000    0.000    0.000 
#
# Total GULP energy -178367.178546 kJ/mol
# GULP energy per Si atom -5573.974330 kJ/mol
# Density = 2.108269 g / cm^3
# Si number density = 21.130786 Si / 1000 Ang^3
#
#
#
# Elastic Constant Matrix: (Units=GPa)
#
#
# Indices 1 2 3 4 5 6 
#
# 1 148.9243 23.5269 18.0424 0.0000 -4.1901 0.0000
# 2 23.5269 85.0838 3.6798 0.0000 -4.4203 0.0000
# 3 18.0424 3.6798 37.2023 0.0000 -7.6227 0.0000
# 4 0.0000 0.0000 0.0000 -3.0360 0.0000 7.9085
# 5 -4.1901 -4.4203 -7.6227 0.0000 28.8567 0.0000
# 6 0.0000 0.0000 0.0000 7.9085 0.0000 21.5921
#
#
#
# Elastic Compliance Matrix: (Units=1/GPa)
#
#
# Indices 1 2 3 4 5 6 
#
# 1 0.007430 -0.001912 -0.003439 0.000000 -0.000123 0.000000
# 2 -0.001912 0.012365 0.000038 0.000000 0.001626 0.000000
# 3 -0.003439 0.000038 0.030071 0.000000 0.007450 0.000000
# 4 0.000000 0.000000 0.000000 -0.168559 0.000000 0.061738
# 5 -0.000123 0.001626 0.007450 0.000000 0.036853 0.000000
# 6 0.000000 0.000000 0.000000 0.061738 0.000000 0.023701
#
#
# Mechanical properties :
#
#
# Convention : Reuss Voigt Hill
#
# Bulk Modulus (GPa) = 25.48576 40.18986 32.83781
# Shear Modulus (GPa) = -145.21257 24.54662 -60.33297
#
# Velocity S-wave (km/s) = -8.29880 3.41200 -5.34922
# Velocity P-wave (km/s) = 8.92970 5.88075 4.75165
#
# Compressibility (1/GPa) = 0.03923759
#
# Stress axis : x y z
#
# Youngs Moduli (GPa) = 134.58678 80.87523 33.25476
#
# Poissons Ratio (x) = 0.15465 0.11438
# Poissons Ratio (y) = 0.25735 -0.00125
# Poissons Ratio (z) = 0.46291 -0.00304
#
# Static dielectric constant tensor:
#      x y z
#    x 1.800750 0.000000 0.039230 
#    y 0.000000 1.815020 0.000000 
#    z 0.039230 0.000000 1.741700 
# 
# From -- ./inp_files/54984.got.cif
#   From: 2010.05.17/outbox.cif.g08.bks.cpg/sg11_28_cif.got.tgz:54984.got - 2010.06.03 12:22:45.
