data_PCOD9163236
_publ_section_title
;
Structure prediction by ZEFSAII (Michael W. Deem and Ramdas Pophale) SiO2 
 PCOD9163236
Probable space group: P 21/M
;
_chemical_formula_sum "Si O2"
_cell_formula_units_Z 32
_cell_length_a 29.595702
_cell_length_b 9.456930
_cell_length_c 5.343100
_cell_angle_alpha 90.000000
_cell_angle_beta 102.557930
_cell_angle_gamma 90.000000
_cell_volume 1459.674618
_symmetry_space_group_name_H-M "P 21/M"
_symmetry_group_IT_number 11
_symmetry_cell_setting 'monoclinic'
loop_
_space_group_symop_operation_xyz
x,y,z
-x,1/2+y,-z
-x,-y,-z
x,1/2-y,z
loop_
_atom_site_type_symbol
_atom_site_label
_atom_site_fract_x
_atom_site_fract_y
_atom_site_fract_z
Si Si1 0.855076 0.597416 0.695683
Si Si2 0.520177 0.075960 0.774193
Si Si3 0.242619 0.406493 0.680511
Si Si4 0.984663 0.083346 0.228805
Si Si5 0.101381 0.900238 0.579748
Si Si6 0.194883 0.904754 0.969547
Si Si7 0.316635 0.921781 0.498584
Si Si8 0.629416 0.080393 0.932117
O O1 0.865859 0.750000 0.823016
O O2 0.810563 0.615497 0.462974
O O3 0.898668 0.533517 0.602163
O O4 0.834296 0.488777 0.864799
O O5 0.513180 0.250000 0.765772
O O6 0.575336 0.047768 0.843117
O O7 0.500000 0.000000 0.500000
O O8 0.500000 0.000000 0.000000
O O9 0.262586 0.250000 0.747896
O O10 0.269789 0.494612 0.504785
O O11 0.237571 0.506767 0.914483
O O12 0.998401 0.250000 0.240668
O O13 0.929081 0.082089 0.209464
O O14 0.000000 0.000000 0.500000
O O15 0.000000 0.000000 0.000000
O O16 0.085927 0.750000 0.443909
O O17 0.155365 0.886263 0.710299
O O18 0.209724 0.750000 0.072867
O O19 0.310416 0.750000 0.491605
O O20 0.341268 0.968351 0.272483
O O21 0.349149 0.961142 0.775566
O O22 0.632717 0.250000 0.929155
#
# Coordination Sequence:
#
# PCOD9163236 Si02
#       8
#     4   4   4   4   4   4   4   4
#     4  10  21  36  57  85 118 151 191 246 308 363
#     4  11  22  40  66  96 130 167 211 267 325 384
#     4  10  22  38  53  80 118 154 192 245 308 359
#     4  11  25  45  68  97 132 170 213 263 319 384
#     4   9  21  40  60  84 116 155 200 250 302 360
#     4  10  20  36  60  85 111 150 200 248 295 357
#     4  10  20  37  60  85 113 158 211 253 295 360
#     4   9  20  38  60  86 120 160 207 255 305 364
#
# _framework density 21.922694
#
# number of rings (size 3 to 8) (size 9 to 14) (size 15 to 20)
#    0.000    2.000    0.000    2.625    3.500    5.000 
#    0.000    3.750    0.000    0.000    0.000    0.000 
#    0.000    0.000    0.000    0.000    0.000    0.000 
#
# Total GULP energy -178457.004169 kJ/mol
# GULP energy per Si atom -5576.781380 kJ/mol
# Density = 2.187280 g / cm^3
# Si number density = 21.922694 Si / 1000 Ang^3
#
#
#
# Elastic Constant Matrix: (Units=GPa)
#
#
# Indices 1 2 3 4 5 6 
#
# 1 96.5371 40.6103 41.7578 0.0000 -23.5134 0.0000
# 2 40.6103 165.7651 60.3150 0.0000 -28.5767 0.0000
# 3 41.7578 60.3150 116.0311 0.0000 -22.6336 0.0000
# 4 0.0000 0.0000 0.0000 21.9694 0.0000 -0.1552
# 5 -23.5134 -28.5767 -22.6336 0.0000 44.0213 0.0000
# 6 0.0000 0.0000 0.0000 -0.1552 0.0000 16.7511
#
#
#
# Elastic Compliance Matrix: (Units=1/GPa)
#
#
# Indices 1 2 3 4 5 6 
#
# 1 0.013451 -0.001308 -0.003251 0.000000 0.004664 0.000000
# 2 -0.001308 0.007984 -0.003117 0.000000 0.002881 0.000000
# 3 -0.003251 -0.003117 0.011865 0.000000 0.002340 0.000000
# 4 0.000000 0.000000 0.000000 0.045521 0.000000 0.000422
# 5 0.004664 0.002881 0.002340 0.000000 0.028281 0.000000
# 6 0.000000 0.000000 0.000000 0.000422 0.000000 0.059702
#
#
# Mechanical properties :
#
#
# Convention : Reuss Voigt Hill
#
# Bulk Modulus (GPa) = 55.71890 73.74439 64.73165
# Shear Modulus (GPa) = 26.57586 32.25836 29.41711
#
# Velocity S-wave (km/s) = 3.48552 3.84012 3.66711
# Velocity P-wave (km/s) = 6.45521 7.30571 6.89359
#
# Compressibility (1/GPa) = 0.01794723
#
# Stress axis : x y z
#
# Youngs Moduli (GPa) = 74.34167 125.24750 84.27889
#
# Poissons Ratio (x) = 0.16388 0.27399
# Poissons Ratio (y) = 0.09727 0.26273
# Poissons Ratio (z) = 0.24169 0.39044
#
# Static dielectric constant tensor:
#      x y z
#    x 1.831900 0.000000 0.071430 
#    y 0.000000 1.944690 0.000000 
#    z 0.071430 0.000000 1.866600 
# 
# From -- ./inp_files/9675.got.cif
#   From: 2010.05.17/outbox.cif.g08.bks.cpg/sg11_5_cif.got.tgz:9675.got - 2010.06.03 12:22:45.
