data_PCOD9163226
_publ_section_title
;
Structure prediction by ZEFSAII (Michael W. Deem and Ramdas Pophale) SiO2 
 PCOD9163226
Probable space group: P 21/M
;
_chemical_formula_sum "Si O2"
_cell_formula_units_Z 24
_cell_length_a 7.738969
_cell_length_b 18.868900
_cell_length_c 8.850638
_cell_angle_alpha 90.000000
_cell_angle_beta 131.028070
_cell_angle_gamma 90.000000
_cell_volume 974.987581
_symmetry_space_group_name_H-M "P 21/M"
_symmetry_group_IT_number 11
_symmetry_cell_setting 'monoclinic'
loop_
_space_group_symop_operation_xyz
x,y,z
-x,1/2+y,-z
-x,-y,-z
x,1/2-y,z
loop_
_atom_site_type_symbol
_atom_site_label
_atom_site_fract_x
_atom_site_fract_y
_atom_site_fract_z
Si Si1 0.753188 0.832392 0.806897
Si Si2 0.211375 0.905028 0.011946
Si Si3 0.893856 0.543523 0.576221
Si Si4 0.344275 0.919732 0.430208
Si Si5 0.488109 0.330427 0.035930
Si Si6 0.943083 0.331126 0.502807
O O1 0.689330 0.750000 0.753720
O O2 0.017388 0.843770 0.917638
O O3 0.582640 0.880150 0.608155
O O4 0.704118 0.852285 0.953918
O O5 0.072789 0.956818 0.819630
O O6 0.441260 0.880876 0.059105
O O7 0.273834 0.926529 0.215957
O O8 0.680554 0.495865 0.502929
O O9 0.881973 0.622044 0.496541
O O10 0.000000 0.500000 0.500000
O O11 0.149640 0.870397 0.401203
O O12 0.449468 0.250000 0.962844
O O13 0.717494 0.330051 0.268652
O O14 0.010409 0.250000 0.567859
#
# Coordination Sequence:
#
# PCOD9163226 Si02
#       6
#     4   4   4   4   4   4
#     4  10  22  39  60  90 127 167 209 253 309 371
#     4  11  21  36  63  90 119 162 208 255 311 364
#     4   9  19  37  61  88 123 165 205 249 309 371
#     4  10  20  36  59  90 123 158 206 262 308 363
#     4   8  16  33  54  80 118 156 194 246 301 357
#     4   8  15  31  57  84 116 161 201 244 308 368
#
# _framework density 24.615696
#
# number of rings (size 3 to 8) (size 9 to 14) (size 15 to 20)
#    0.000    2.667    0.000    3.500    0.000    4.000 
#    0.000    6.667    0.000   27.000    0.000    0.000 
#    0.000    0.000    0.000    0.000    0.000    0.000 
#
# Total GULP energy -134145.207152 kJ/mol
# GULP energy per Si atom -5589.383631 kJ/mol
# Density = 2.455967 g / cm^3
# Si number density = 24.615696 Si / 1000 Ang^3
#
#
#
# Elastic Constant Matrix: (Units=GPa)
#
#
# Indices 1 2 3 4 5 6 
#
# 1 93.7986 36.8153 46.4132 0.0000 -30.8564 0.0000
# 2 36.8153 126.3079 40.8898 0.0000 -11.1943 0.0000
# 3 46.4132 40.8898 138.7026 0.0000 7.6270 0.0000
# 4 0.0000 0.0000 0.0000 -49.6734 0.0000 -15.0437
# 5 -30.8564 -11.1943 7.6270 0.0000 40.9743 0.0000
# 6 0.0000 0.0000 0.0000 -15.0437 0.0000 42.8500
#
#
#
# Elastic Compliance Matrix: (Units=1/GPa)
#
#
# Indices 1 2 3 4 5 6 
#
# 1 0.020234 -0.002222 -0.006992 0.000000 0.015932 0.000000
# 2 -0.002222 0.009352 -0.002083 0.000000 0.001269 0.000000
# 3 -0.006992 -0.002083 0.010593 0.000000 -0.007806 0.000000
# 4 0.000000 0.000000 0.000000 -0.018197 0.000000 -0.006388
# 5 0.015932 0.001269 -0.007806 0.000000 0.038203 0.000000
# 6 0.000000 0.000000 0.000000 -0.006388 0.000000 0.021094
#
#
# Mechanical properties :
#
#
# Convention : Reuss Voigt Hill
#
# Bulk Modulus (GPa) = 56.86911 67.44955 62.15933
# Shear Modulus (GPa) = 45.56454 22.47624 34.02039
#
# Velocity S-wave (km/s) = 4.30703 3.02501 3.72164
# Velocity P-wave (km/s) = 6.92004 6.29773 6.61621
#
# Compressibility (1/GPa) = 0.01758424
#
# Stress axis : x y z
#
# Youngs Moduli (GPa) = 49.42181 106.93214 94.40545
#
# Poissons Ratio (x) = 0.23763 0.66006
# Poissons Ratio (y) = 0.10983 0.19665
# Poissons Ratio (z) = 0.34554 0.22275
#
# Static dielectric constant tensor:
#      x y z
#    x 2.040940 0.000000 0.008340 
#    y 0.000000 1.941490 0.000000 
#    z 0.008340 0.000000 1.921810 
# 
# From -- ./inp_files/14392.got.cif
#   From: 2010.05.17/outbox.cif.g08.bks.cpg/sg11_8_cif.got.tgz:14392.got - 2010.06.03 12:22:45.
