data_PCOD9163897
_publ_section_title
;
Structure prediction by ZEFSAII (Michael W. Deem and Ramdas Pophale) SiO2 
 PCOD9163897
Probable space group: P 21/M
;
_chemical_formula_sum "Si O2"
_cell_formula_units_Z 24
_cell_length_a 12.798550
_cell_length_b 8.583323
_cell_length_c 24.550995
_cell_angle_alpha 90.000000
_cell_angle_beta 29.684481
_cell_angle_gamma 90.000000
_cell_volume 1335.630902
_symmetry_space_group_name_H-M "P 21/M"
_symmetry_group_IT_number 11
_symmetry_cell_setting 'monoclinic'
loop_
_space_group_symop_operation_xyz
x,y,z
-x,1/2+y,-z
-x,-y,-z
x,1/2-y,z
loop_
_atom_site_type_symbol
_atom_site_label
_atom_site_fract_x
_atom_site_fract_y
_atom_site_fract_z
Si Si1 0.736479 0.436413 0.885485
Si Si2 0.366660 0.939434 0.877498
Si Si3 0.879670 0.063086 0.501292
Si Si4 0.803956 0.938221 0.737095
Si Si5 0.417228 0.563187 0.729690
Si Si6 0.992336 0.061485 0.876877
O O1 0.726243 0.250000 0.890930
O O2 0.823226 0.493658 0.788436
O O3 0.881270 0.485961 0.870774
O O4 0.500000 0.500000 0.000000
O O5 0.365847 0.750000 0.877665
O O6 0.579501 0.987110 0.812565
O O7 0.375116 0.991024 0.811139
O O8 0.161866 0.990003 0.003967
O O9 0.880279 0.250000 0.503416
O O10 0.011910 0.015535 0.387987
O O11 0.641950 0.001769 0.609166
O O12 0.000000 0.000000 0.500000
O O13 0.801341 0.750000 0.741921
O O14 0.426837 0.750000 0.725652
O O15 0.223150 0.506451 0.781279
O O16 0.003364 0.250000 0.872897
#
# Coordination Sequence:
#
# PCOD9163897 Si02
#       6
#     4   4   4   4   4   4
#     4  11  22  37  60  87 117 153 195 240 286 345
#     4   9  17  34  57  83 118 151 181 232 293 342
#     4  11  22  38  61  86 117 155 193 238 290 344
#     4  10  20  38  60  85 117 150 190 241 291 337
#     4  11  22  37  58  86 119 153 194 238 287 348
#     4  10  21  38  57  81 118 156 189 233 290 345
#
# _framework density 17.969035999999999
#
# number of rings (size 3 to 8) (size 9 to 14) (size 15 to 20)
#    0.000    1.667    3.333    2.000    0.000    2.667 
#    0.000    1.667    0.000    0.000    0.000    0.000 
#    0.000    0.000    0.000    0.000    0.000    0.000 
#
# Total GULP energy -134071.084907 kJ/mol
# GULP energy per Si atom -5586.295204 kJ/mol
# Density = 1.792814 g / cm^3
# Si number density = 17.969036 Si / 1000 Ang^3
#
#
#
# Elastic Constant Matrix: (Units=GPa)
#
#
# Indices 1 2 3 4 5 6 
#
# 1 113.5602 30.3619 87.0439 0.0000 -5.6106 0.0000
# 2 30.3619 29.2896 37.5382 0.0000 -0.0303 0.0000
# 3 87.0439 37.5382 171.7714 0.0000 -7.5015 0.0000
# 4 0.0000 0.0000 0.0000 28.2404 0.0000 0.1942
# 5 -5.6106 -0.0303 -7.5015 0.0000 36.9531 0.0000
# 6 0.0000 0.0000 0.0000 0.1942 0.0000 29.5786
#
#
#
# Elastic Compliance Matrix: (Units=1/GPa)
#
#
# Indices 1 2 3 4 5 6 
#
# 1 0.015834 -0.008603 -0.006093 0.000000 0.001160 0.000000
# 2 -0.008603 0.052259 -0.007180 0.000000 -0.002721 0.000000
# 3 -0.006093 -0.007180 0.010531 0.000000 0.001207 0.000000
# 4 0.000000 0.000000 0.000000 0.035412 0.000000 -0.000233
# 5 0.001160 -0.002721 0.001207 0.000000 0.027480 0.000000
# 6 0.000000 0.000000 0.000000 -0.000233 0.000000 0.033810
#
#
# Mechanical properties :
#
#
# Convention : Reuss Voigt Hill
#
# Bulk Modulus (GPa) = 28.67642 69.38990 49.03316
# Shear Modulus (GPa) = 21.67315 29.59958 25.63636
#
# Velocity S-wave (km/s) = 3.47672 4.06304 3.78126
# Velocity P-wave (km/s) = 5.66659 7.79174 6.81254
#
# Compressibility (1/GPa) = 0.03487185
#
# Stress axis : x y z
#
# Youngs Moduli (GPa) = 63.15718 19.13552 94.95958
#
# Poissons Ratio (x) = 0.16463 0.57856
# Poissons Ratio (y) = 0.54337 0.68176
# Poissons Ratio (z) = 0.38480 0.13738
#
# Static dielectric constant tensor:
#      x y z
#    x 1.596110 0.000000 0.010590 
#    y 0.000000 1.615860 0.000000 
#    z 0.010590 0.000000 1.595830 
# 
# From -- ./inp_files/33692.got.cif
#   From: 2010.05.17/outbox.cif.g08.bks.cpg/sg11_17_cif.got.tgz:33692.got - 2010.06.03 12:22:45.
