data_PCOD9163134
_publ_section_title
;
Structure prediction by ZEFSAII (Michael W. Deem and Ramdas Pophale) SiO2 
 PCOD9163134
Probable space group: P 21/M
;
_chemical_formula_sum "Si O2"
_cell_formula_units_Z 32
_cell_length_a 31.599928
_cell_length_b 8.939972
_cell_length_c 12.174587
_cell_angle_alpha 90.000000
_cell_angle_beta 149.627267
_cell_angle_gamma 90.000000
_cell_volume 1739.015746
_symmetry_space_group_name_H-M "P 21/M"
_symmetry_group_IT_number 11
_symmetry_cell_setting 'monoclinic'
loop_
_space_group_symop_operation_xyz
x,y,z
-x,1/2+y,-z
-x,-y,-z
x,1/2-y,z
loop_
_atom_site_type_symbol
_atom_site_label
_atom_site_fract_x
_atom_site_fract_y
_atom_site_fract_z
Si Si1 0.893964 0.928286 0.872041
Si Si2 0.469638 0.428270 0.546319
Si Si3 0.070102 0.429438 0.300204
Si Si4 0.591678 0.572703 0.203400
Si Si5 0.711846 0.428137 0.842134
Si Si6 0.615723 0.572728 0.005081
Si Si7 0.227077 0.070067 0.799015
Si Si8 0.257496 0.572113 0.334638
O O1 0.888548 0.750000 0.871273
O O2 0.895822 0.963794 0.745955
O O3 0.816442 0.003430 0.758848
O O4 0.981933 0.988445 0.115708
O O5 0.500000 0.500000 0.500000
O O6 0.466970 0.250000 0.531267
O O7 0.378281 0.493018 0.364646
O O8 0.536117 0.479906 0.786193
O O9 0.056908 0.250000 0.275441
O O10 0.140366 0.470543 0.545875
O O11 0.585217 0.750000 0.209198
O O12 0.654752 0.498296 0.430279
O O13 0.500000 0.500000 0.000000
O O14 0.628995 0.550771 0.164242
O O15 0.700083 0.250000 0.826910
O O16 0.756080 0.457904 0.824918
O O17 0.758891 0.491202 0.053669
O O18 0.598611 0.750000 0.949768
O O19 0.695930 0.533117 0.110643
O O20 0.228693 0.250000 0.817280
O O21 0.261366 0.750000 0.358915
#
# Coordination Sequence:
#
# PCOD9163134 Si02
#       8
#     4   4   4   4   4   4   4   4
#     4  10  20  37  63  92 118 151 191 233 285 347
#     4  12  23  36  56  82 112 151 195 238 286 340
#     4   9  19  37  61  91 123 150 181 232 293 346
#     4  11  23  39  59  85 118 153 193 240 289 345
#     4  11  24  40  57  81 114 153 197 245 290 337
#     4  10  21  37  57  83 115 149 188 239 292 339
#     4  10  20  36  59  84 112 149 188 233 292 345
#     4  11  24  41  60  83 117 158 197 240 291 345
#
# _framework density 18.401212999999998
#
# number of rings (size 3 to 8) (size 9 to 14) (size 15 to 20)
#    0.000    1.500    1.250    4.125    0.000    9.000 
#    0.000    1.875    0.000    0.000    0.000    0.000 
#    0.000    0.000    0.000    0.000    0.000    0.000 
#
# Total GULP energy -178887.744426 kJ/mol
# GULP energy per Si atom -5590.242013 kJ/mol
# Density = 1.835933 g / cm^3
# Si number density = 18.401213 Si / 1000 Ang^3
#
#
#
# Elastic Constant Matrix: (Units=GPa)
#
#
# Indices 1 2 3 4 5 6 
#
# 1 93.2360 52.3007 55.4066 0.0000 1.5949 0.0000
# 2 52.3007 67.0236 57.6797 0.0000 -4.6935 0.0000
# 3 55.4066 57.6797 135.1748 0.0000 -6.9125 0.0000
# 4 0.0000 0.0000 0.0000 34.6026 0.0000 -0.3394
# 5 1.5949 -4.6935 -6.9125 0.0000 26.6964 0.0000
# 6 0.0000 0.0000 0.0000 -0.3394 0.0000 30.8617
#
#
#
# Elastic Compliance Matrix: (Units=1/GPa)
#
#
# Indices 1 2 3 4 5 6 
#
# 1 0.020015 -0.013700 -0.002576 0.000000 -0.004271 0.000000
# 2 -0.013700 0.033021 -0.008245 0.000000 0.004489 0.000000
# 3 -0.002576 -0.008245 0.012066 0.000000 0.001828 0.000000
# 4 0.000000 0.000000 0.000000 0.028903 0.000000 0.000318
# 5 -0.004271 0.004489 0.001828 0.000000 0.038976 0.000000
# 6 0.000000 0.000000 0.000000 0.000318 0.000000 0.032406
#
#
# Mechanical properties :
#
#
# Convention : Reuss Voigt Hill
#
# Bulk Modulus (GPa) = 62.27418 69.57872 65.92645
# Shear Modulus (GPa) = 22.74995 27.10196 24.92595
#
# Velocity S-wave (km/s) = 3.51996 3.84192 3.68446
# Velocity P-wave (km/s) = 7.10184 7.58779 7.34883
#
# Compressibility (1/GPa) = 0.01605802
#
# Stress axis : x y z
#
# Youngs Moduli (GPa) = 49.96368 30.28420 82.88077
#
# Poissons Ratio (x) = 0.41489 0.21353
# Poissons Ratio (y) = 0.68450 0.68335
# Poissons Ratio (z) = 0.12872 0.24969
#
# Static dielectric constant tensor:
#      x y z
#    x 1.630830 0.000000 -0.015640 
#    y 0.000000 1.612750 0.000000 
#    z -0.015640 0.000000 1.610010 
# 
# From -- ./inp_files/45284.got.cif
#   From: 2010.05.17/outbox.cif.g08.bks.cpg/sg11_23_cif.got.tgz:45284.got - 2010.06.03 12:22:45.
