data_PCOD9163530
_publ_section_title
;
Structure prediction by ZEFSAII (Michael W. Deem and Ramdas Pophale) SiO2 
 PCOD9163530
Probable space group: P 21/M
;
_chemical_formula_sum "Si O2"
_cell_formula_units_Z 24
_cell_length_a 9.472587
_cell_length_b 8.720075
_cell_length_c 15.876988
_cell_angle_alpha 90.000000
_cell_angle_beta 89.812865
_cell_angle_gamma 90.000000
_cell_volume 1311.458714
_symmetry_space_group_name_H-M "P 21/M"
_symmetry_group_IT_number 11
_symmetry_cell_setting 'monoclinic'
loop_
_space_group_symop_operation_xyz
x,y,z
-x,1/2+y,-z
-x,-y,-z
x,1/2-y,z
loop_
_atom_site_type_symbol
_atom_site_label
_atom_site_fract_x
_atom_site_fract_y
_atom_site_fract_z
Si Si1 0.409086 0.065024 0.234703
Si Si2 0.917094 0.933739 0.579261
Si Si3 0.906728 0.065648 0.759341
Si Si4 0.584307 0.934611 0.079536
Si Si5 0.586689 0.933165 0.576660
Si Si6 0.912147 0.565236 0.078175
O O1 0.407612 0.250000 0.229788
O O2 0.457441 0.018329 0.328931
O O3 0.248462 0.005562 0.224803
O O4 0.508589 0.996086 0.163367
O O5 0.931098 0.750000 0.583131
O O6 0.751755 0.972439 0.568432
O O7 0.959843 0.005105 0.668942
O O8 0.000000 0.000000 0.500000
O O9 0.894814 0.250000 0.756956
O O10 0.011049 0.021380 0.834879
O O11 0.578633 0.750000 0.078244
O O12 0.748492 0.982940 0.076057
O O13 0.500000 0.000000 0.000000
O O14 0.574862 0.750000 0.573790
O O15 0.500000 0.000000 0.500000
O O16 0.914790 0.750000 0.073197
O O17 0.000000 0.500000 0.000000
#
# Coordination Sequence:
#
# PCOD9163530 Si02
#       6
#     4   4   4   4   4   4
#     4  10  21  38  57  82 113 146 184 228 273 325
#     4  10  21  37  56  82 113 147 185 229 276 327
#     4  10  20  37  59  83 110 145 185 228 276 327
#     4  11  23  39  58  83 112 145 182 226 275 327
#     4   9  20  36  55  80 111 144 183 227 273 323
#     4  10  23  39  57  82 112 143 181 226 274 325
#
# _framework density 18.300231
#
# number of rings (size 3 to 8) (size 9 to 14) (size 15 to 20)
#    0.000    2.000    0.000    4.000    0.000   10.667 
#    0.000    5.000    0.000    0.000    0.000    0.000 
#    0.000    0.000    0.000    0.000    0.000    0.000 
#
# Total GULP energy -134040.115218 kJ/mol
# GULP energy per Si atom -5585.004801 kJ/mol
# Density = 1.825858 g / cm^3
# Si number density = 18.300231 Si / 1000 Ang^3
#
#
#
# Elastic Constant Matrix: (Units=GPa)
#
#
# Indices 1 2 3 4 5 6 
#
# 1 123.4453 44.6782 124.4028 0.0000 0.4933 0.0000
# 2 44.6782 50.0662 58.5164 0.0000 -0.0522 0.0000
# 3 124.4028 58.5164 221.9728 0.0000 -0.2572 0.0000
# 4 0.0000 0.0000 0.0000 39.5081 0.0000 -2.1100
# 5 0.4933 -0.0522 -0.2572 0.0000 43.1686 0.0000
# 6 0.0000 0.0000 0.0000 -2.1100 0.0000 31.2717
#
#
#
# Elastic Compliance Matrix: (Units=1/GPa)
#
#
# Indices 1 2 3 4 5 6 
#
# 1 0.020145 -0.006911 -0.009469 0.000000 -0.000295 0.000000
# 2 -0.006911 0.031239 -0.004362 0.000000 0.000091 0.000000
# 3 -0.009469 -0.004362 0.010962 0.000000 0.000168 0.000000
# 4 0.000000 0.000000 0.000000 0.025403 0.000000 0.001714
# 5 -0.000295 0.000091 0.000168 0.000000 0.023169 0.000000
# 6 0.000000 0.000000 0.000000 0.001714 0.000000 0.032093
#
#
# Mechanical properties :
#
#
# Convention : Reuss Voigt Hill
#
# Bulk Modulus (GPa) = 47.93172 94.51988 71.22580
# Shear Modulus (GPa) = 26.11656 33.98215 30.04935
#
# Velocity S-wave (km/s) = 3.78182 4.31388 4.05658
# Velocity P-wave (km/s) = 6.73188 8.75068 7.80681
#
# Compressibility (1/GPa) = 0.02086301
#
# Stress axis : x y z
#
# Youngs Moduli (GPa) = 49.63912 32.01139 91.22491
#
# Poissons Ratio (x) = 0.22122 0.86380
# Poissons Ratio (y) = 0.34304 0.39793
# Poissons Ratio (z) = 0.47003 0.13963
#
# Static dielectric constant tensor:
#      x y z
#    x 1.611500 0.000000 0.009860 
#    y 0.000000 1.618320 0.000000 
#    z 0.009860 0.000000 1.616060 
# 
# From -- ./inp_files/20550.got.cif
#   From: 2010.05.17/outbox.cif.g08.bks.cpg/sg11_11_cif.got.tgz:20550.got - 2010.06.03 12:22:45.
