data_PCOD9163082
_publ_section_title
;
Structure prediction by ZEFSAII (Michael W. Deem and Ramdas Pophale) SiO2 
 PCOD9163082
Probable space group: P 21/M
;
_chemical_formula_sum "Si O2"
_cell_formula_units_Z 24
_cell_length_a 10.379150
_cell_length_b 19.498679
_cell_length_c 10.379175
_cell_angle_alpha 90.000000
_cell_angle_beta 137.383853
_cell_angle_gamma 90.000000
_cell_volume 1422.236996
_symmetry_space_group_name_H-M "P 21/M"
_symmetry_group_IT_number 11
_symmetry_cell_setting 'monoclinic'
loop_
_space_group_symop_operation_xyz
x,y,z
-x,1/2+y,-z
-x,-y,-z
x,1/2-y,z
loop_
_atom_site_type_symbol
_atom_site_label
_atom_site_fract_x
_atom_site_fract_y
_atom_site_fract_z
Si Si1 0.404966 0.327385 0.676497
Si Si2 0.466400 0.471348 0.617829
Si Si3 0.924315 0.034237 0.575686
Si Si4 0.882171 0.028652 0.033601
Si Si5 0.176502 0.672615 0.904968
Si Si6 0.996465 0.171671 0.503530
O O1 0.392372 0.250000 0.612047
O O2 0.420284 0.389854 0.587740
O O3 0.216402 0.338000 0.622877
O O4 0.597173 0.330140 0.902823
O O5 0.500000 0.500000 0.500000
O O6 0.288394 0.509272 0.551055
O O7 0.659918 0.481425 0.840083
O O8 0.937368 0.115263 0.562634
O O9 0.000000 0.000000 0.500000
O O10 0.051054 0.009272 0.788394
O O11 0.912258 0.110146 0.079716
O O12 0.000000 0.000000 0.000000
O O13 0.112049 0.750000 0.892369
O O14 0.122888 0.661999 0.716408
O O15 0.971608 0.250000 0.528386
#
# Coordination Sequence:
#
# PCOD9163082 Si02
#       6
#     4   4   4   4   4   4
#     4   9  18  33  55  83 111 147 196 236 282 347
#     4  11  22  37  59  85 120 155 191 240 293 344
#     4  12  22  38  60  90 117 146 199 238 288 344
#     4  11  22  37  59  85 120 155 191 240 293 344
#     4   9  18  33  55  83 111 147 196 236 282 347
#     4  10  20  36  58  84 118 152 188 240 290 338
#
# _framework density 16.874825999999999
#
# number of rings (size 3 to 8) (size 9 to 14) (size 15 to 20)
#    0.000    1.667    5.000    0.000    0.000    2.000 
#    0.000    1.667    0.000    2.000    0.000    0.000 
#    0.000    0.000    0.000    0.000    0.000    0.000 
#
# Total GULP energy -133851.342079 kJ/mol
# GULP energy per Si atom -5577.139253 kJ/mol
# Density = 1.683642 g / cm^3
# Si number density = 16.874826 Si / 1000 Ang^3
#
#
#
# Elastic Constant Matrix: (Units=GPa)
#
#
# Indices 1 2 3 4 5 6 
#
# 1 105.3823 73.7531 50.0598 0.0000 -2.0570 0.0000
# 2 73.7531 175.0645 66.7611 0.0000 -4.1673 0.0000
# 3 50.0598 66.7611 94.6665 0.0000 -4.3311 0.0000
# 4 0.0000 0.0000 0.0000 26.7084 0.0000 -0.6299
# 5 -2.0570 -4.1673 -4.3311 0.0000 24.5807 0.0000
# 6 0.0000 0.0000 0.0000 -0.6299 0.0000 27.7649
#
#
#
# Elastic Compliance Matrix: (Units=1/GPa)
#
#
# Indices 1 2 3 4 5 6 
#
# 1 0.014849 -0.004464 -0.004720 0.000000 -0.000346 0.000000
# 2 -0.004464 0.009159 -0.004077 0.000000 0.000461 0.000000
# 3 -0.004720 -0.004077 0.016014 0.000000 0.001735 0.000000
# 4 0.000000 0.000000 0.000000 0.037461 0.000000 0.000850
# 5 -0.000346 0.000461 0.001735 0.000000 0.041037 0.000000
# 6 0.000000 0.000000 0.000000 0.000850 0.000000 0.036036
#
#
# Mechanical properties :
#
#
# Convention : Reuss Voigt Hill
#
# Bulk Modulus (GPa) = 74.07745 84.02903 79.05324
# Shear Modulus (GPa) = 26.94289 28.11343 27.52816
#
# Velocity S-wave (km/s) = 4.00012 4.08609 4.04334
# Velocity P-wave (km/s) = 8.08258 8.49501 8.29136
#
# Compressibility (1/GPa) = 0.01349938
#
# Stress axis : x y z
#
# Youngs Moduli (GPa) = 67.34600 109.18642 62.44544
#
# Poissons Ratio (x) = 0.48741 0.29473
# Poissons Ratio (y) = 0.30063 0.25461
# Poissons Ratio (z) = 0.31786 0.44518
#
# Static dielectric constant tensor:
#      x y z
#    x 1.527180 0.000000 0.027290 
#    y 0.000000 1.608640 0.000000 
#    z 0.027290 0.000000 1.572980 
# 
# From -- ./inp_files/14218.got.cif
#   From: 2010.05.17/outbox.cif.g08.bks.cpg/sg11_8_cif.got.tgz:14218.got - 2010.06.03 12:22:45.
