data_PCOD9163397
_publ_section_title
;
Structure prediction by ZEFSAII (Michael W. Deem and Ramdas Pophale) SiO2 
 PCOD9163397
Probable space group: P 21/M
;
_chemical_formula_sum "Si O2"
_cell_formula_units_Z 32
_cell_length_a 12.217052
_cell_length_b 8.828340
_cell_length_c 31.889465
_cell_angle_alpha 90.000000
_cell_angle_beta 29.815648
_cell_angle_gamma 90.000000
_cell_volume 1710.146750
_symmetry_space_group_name_H-M "P 21/M"
_symmetry_group_IT_number 11
_symmetry_cell_setting 'monoclinic'
loop_
_space_group_symop_operation_xyz
x,y,z
-x,1/2+y,-z
-x,-y,-z
x,1/2-y,z
loop_
_atom_site_type_symbol
_atom_site_label
_atom_site_fract_x
_atom_site_fract_y
_atom_site_fract_z
Si Si1 0.197404 0.930069 0.407159
Si Si2 0.335542 0.931446 0.739284
Si Si3 0.120359 0.568356 0.899025
Si Si4 0.852478 0.430165 0.285470
Si Si5 0.538483 0.070972 0.532929
Si Si6 0.941954 0.571368 0.632926
Si Si7 0.325289 0.930200 0.920256
Si Si8 0.206479 0.569971 0.229254
O O1 0.183671 0.750000 0.413531
O O2 0.433546 0.986242 0.344810
O O3 0.171966 0.988485 0.367977
O O4 0.000000 0.000000 0.500000
O O5 0.375740 0.750000 0.726384
O O6 0.235632 0.975230 0.817393
O O7 0.168070 0.962995 0.757029
O O8 0.353853 0.750000 0.914918
O O9 0.273017 0.535516 0.888627
O O10 0.889525 0.485421 0.983382
O O11 0.874944 0.250000 0.284098
O O12 0.624204 0.485745 0.381768
O O13 0.046968 0.512358 0.245519
O O14 0.486503 0.250000 0.549433
O O15 0.794569 0.054352 0.459273
O O16 0.500000 0.000000 0.500000
O O17 0.887778 0.750000 0.649875
O O18 0.872913 0.504182 0.700605
O O19 0.916940 0.250000 0.088996
O O20 0.544920 0.015348 0.860723
O O21 0.194246 0.750000 0.236792
#
# Coordination Sequence:
#
# PCOD9163397 Si02
#       8
#     4   4   4   4   4   4   4   4
#     4  12  25  40  60  87 121 159 201 247 296 351
#     4  10  22  41  64  87 118 160 202 245 296 356
#     4   9  19  38  63  91 120 152 190 237 294 355
#     4  11  23  39  59  84 117 157 202 248 297 354
#     4  11  22  36  57  82 113 153 197 245 295 350
#     4  11  23  39  60  86 118 154 197 247 300 354
#     4  10  20  36  62  92 123 153 188 240 297 355
#     4  12  24  38  59  87 119 154 196 245 299 355
#
# _framework density 18.711845
#
# number of rings (size 3 to 8) (size 9 to 14) (size 15 to 20)
#    0.000    1.250    1.250    5.250    0.000    6.500 
#    0.000    0.625    0.000    0.000    0.000    0.000 
#    0.000    0.000    0.000    0.000    0.000    0.000 
#
# Total GULP energy -178987.189119 kJ/mol
# GULP energy per Si atom -5593.349660 kJ/mol
# Density = 1.866926 g / cm^3
# Si number density = 18.711845 Si / 1000 Ang^3
#
#
#
# Elastic Constant Matrix: (Units=GPa)
#
#
# Indices 1 2 3 4 5 6 
#
# 1 104.8132 56.3440 48.5152 0.0000 -5.2795 0.0000
# 2 56.3440 92.6853 47.3434 0.0000 -9.8571 0.0000
# 3 48.5152 47.3434 89.6988 0.0000 -0.7238 0.0000
# 4 0.0000 0.0000 0.0000 31.0787 0.0000 -6.5865
# 5 -5.2795 -9.8571 -0.7238 0.0000 27.8381 0.0000
# 6 0.0000 0.0000 0.0000 -6.5865 0.0000 28.7573
#
#
#
# Elastic Compliance Matrix: (Units=1/GPa)
#
#
# Indices 1 2 3 4 5 6 
#
# 1 0.015479 -0.006980 -0.004685 0.000000 0.000342 0.000000
# 2 -0.006980 0.018658 -0.006031 0.000000 0.005126 0.000000
# 3 -0.004685 -0.006031 0.016845 0.000000 -0.002586 0.000000
# 4 0.000000 0.000000 0.000000 0.033818 0.000000 0.007746
# 5 0.000342 0.005126 -0.002586 0.000000 0.037735 0.000000
# 6 0.000000 0.000000 0.000000 0.007746 0.000000 0.036548
#
#
# Mechanical properties :
#
#
# Convention : Reuss Voigt Hill
#
# Bulk Modulus (GPa) = 64.14741 65.73362 64.94051
# Shear Modulus (GPa) = 25.04102 26.53445 25.78774
#
# Velocity S-wave (km/s) = 3.66217 3.76979 3.71637
# Velocity P-wave (km/s) = 7.22759 7.35895 7.29357
#
# Compressibility (1/GPa) = 0.01558910
#
# Stress axis : x y z
#
# Youngs Moduli (GPa) = 64.60372 53.59502 59.36512
#
# Poissons Ratio (x) = 0.37411 0.27813
# Poissons Ratio (y) = 0.45095 0.35805
# Poissons Ratio (z) = 0.30268 0.32325
#
# Static dielectric constant tensor:
#      x y z
#    x 1.643680 0.000000 0.003920 
#    y 0.000000 1.622480 0.000000 
#    z 0.003920 0.000000 1.623330 
# 
# From -- ./inp_files/73051.got.cif
#   From: 2010.05.17/outbox.cif.g08.bks.cpg/sg11_37_cif.got.tgz:73051.got - 2010.06.03 12:22:45.
