data_PCOD9163961
_publ_section_title
;
Structure prediction by ZEFSAII (Michael W. Deem and Ramdas Pophale) SiO2 
 PCOD9163961
Probable space group: P 21/M
;
_chemical_formula_sum "Si O2"
_cell_formula_units_Z 24
_cell_length_a 9.242677
_cell_length_b 15.167563
_cell_length_c 16.561037
_cell_angle_alpha 90.000000
_cell_angle_beta 35.031659
_cell_angle_gamma 90.000000
_cell_volume 1332.707756
_symmetry_space_group_name_H-M "P 21/M"
_symmetry_group_IT_number 11
_symmetry_cell_setting 'monoclinic'
loop_
_space_group_symop_operation_xyz
x,y,z
-x,1/2+y,-z
-x,-y,-z
x,1/2-y,z
loop_
_atom_site_type_symbol
_atom_site_label
_atom_site_fract_x
_atom_site_fract_y
_atom_site_fract_z
Si Si1 0.206197 0.984376 0.642038
Si Si2 0.857179 0.523899 0.647702
Si Si3 0.620811 0.144878 0.149048
Si Si4 0.096761 0.849491 0.146368
Si Si5 0.043252 0.644170 0.851208
Si Si6 0.487564 0.922902 0.075763
O O1 0.066273 0.963810 0.621775
O O2 0.163960 0.900831 0.718299
O O3 0.500000 0.000000 0.500000
O O4 0.081652 0.072367 0.739204
O O5 0.655970 0.602261 0.726500
O O6 0.674432 0.451594 0.772791
O O7 0.000000 0.500000 0.500000
O O8 0.592264 0.250000 0.164698
O O9 0.787968 0.117030 0.149221
O O10 0.783098 0.124648 0.994715
O O11 0.987830 0.750000 0.190922
O O12 0.331617 0.848579 0.100597
O O13 0.037363 0.750000 0.850271
O O14 0.760234 0.606741 0.979951
O O15 0.500000 0.000000 0.000000
#
# Coordination Sequence:
#
# PCOD9163961 Si02
#       6
#     4   4   4   4   4   4
#     4  11  23  39  58  86 121 160 203 244 299 363
#     4  11  22  38  58  86 119 158 194 245 304 354
#     4  10  21  37  59  89 118 153 201 248 298 352
#     4  10  20  38  62  85 115 154 199 249 297 355
#     4  11  22  37  61  89 119 157 202 251 294 353
#     4  11  19  39  61  89 113 152 204 238 298 356
#
# _framework density 18.00845
#
# number of rings (size 3 to 8) (size 9 to 14) (size 15 to 20)
#    0.000    1.333    5.000    1.500    0.000    6.667 
#    0.000    5.833    0.000    0.000    0.000    0.000 
#    0.000    0.000    0.000    0.000    0.000    0.000 
#
# Total GULP energy -133831.203627 kJ/mol
# GULP energy per Si atom -5576.300151 kJ/mol
# Density = 1.796746 g / cm^3
# Si number density = 18.008450 Si / 1000 Ang^3
#
#
#
# Elastic Constant Matrix: (Units=GPa)
#
#
# Indices 1 2 3 4 5 6 
#
# 1 172.9052 53.3401 93.1977 0.0000 -6.4596 0.0000
# 2 53.3401 74.8384 42.2083 0.0000 2.6648 0.0000
# 3 93.1977 42.2083 143.7279 0.0000 3.9518 0.0000
# 4 0.0000 0.0000 0.0000 18.8228 0.0000 -1.6665
# 5 -6.4596 2.6648 3.9518 0.0000 42.1808 0.0000
# 6 0.0000 0.0000 0.0000 -1.6665 0.0000 30.2904
#
#
#
# Elastic Compliance Matrix: (Units=1/GPa)
#
#
# Indices 1 2 3 4 5 6 
#
# 1 0.010055 -0.004237 -0.005339 0.000000 0.002308 0.000000
# 2 -0.004237 0.017814 -0.002441 0.000000 -0.001546 0.000000
# 3 -0.005339 -0.002441 0.011183 0.000000 -0.001711 0.000000
# 4 0.000000 0.000000 0.000000 0.053387 0.000000 0.002937
# 5 0.002308 -0.001546 -0.001711 0.000000 0.024319 0.000000
# 6 0.000000 0.000000 0.000000 0.002937 0.000000 0.033175
#
#
# Mechanical properties :
#
#
# Convention : Reuss Voigt Hill
#
# Bulk Modulus (GPa) = 66.59019 85.44040 76.01530
# Shear Modulus (GPa) = 27.93701 31.77384 29.85543
#
# Velocity S-wave (km/s) = 3.94296 4.20502 4.07610
# Velocity P-wave (km/s) = 7.60176 8.43349 8.02840
#
# Compressibility (1/GPa) = 0.01501723
#
# Stress axis : x y z
#
# Youngs Moduli (GPa) = 99.45701 56.13505 89.41838
#
# Poissons Ratio (x) = 0.23787 0.47738
# Poissons Ratio (y) = 0.42144 0.21829
# Poissons Ratio (z) = 0.53098 0.13704
#
# Static dielectric constant tensor:
#      x y z
#    x 1.587000 0.000000 0.036940 
#    y 0.000000 0.387080 0.000000 
#    z 0.036940 0.000000 1.581960 
# 
# From -- ./inp_files/21997.got.cif
#   From: 2010.05.17/outbox.cif.g08.bks.cpg/sg11_11_cif.got.tgz:21997.got - 2010.06.03 12:22:45.
