data_PCOD9163387
_publ_section_title
;
Structure prediction by ZEFSAII (Michael W. Deem and Ramdas Pophale) SiO2 
 PCOD9163387
Probable space group: P 21/M
;
_chemical_formula_sum "Si O2"
_cell_formula_units_Z 24
_cell_length_a 14.188224
_cell_length_b 13.995929
_cell_length_c 8.554506
_cell_angle_alpha 90.000000
_cell_angle_beta 138.384427
_cell_angle_gamma 90.000000
_cell_volume 1128.177501
_symmetry_space_group_name_H-M "P 21/M"
_symmetry_group_IT_number 11
_symmetry_cell_setting 'monoclinic'
loop_
_space_group_symop_operation_xyz
x,y,z
-x,1/2+y,-z
-x,-y,-z
x,1/2-y,z
loop_
_atom_site_type_symbol
_atom_site_label
_atom_site_fract_x
_atom_site_fract_y
_atom_site_fract_z
Si Si1 0.740614 0.644465 0.058745
Si Si2 0.232592 0.999658 0.413620
Si Si3 0.562532 0.139436 0.147251
Si Si4 0.488278 0.362799 0.693330
Si Si5 0.968446 0.914132 0.579271
Si Si6 0.771923 0.056776 0.924941
O O1 0.739418 0.750000 0.980551
O O2 0.857977 0.647283 0.342503
O O3 0.587267 0.628449 0.948734
O O4 0.771100 0.552295 0.989779
O O5 0.321340 0.928854 0.634486
O O6 0.180358 0.945496 0.195039
O O7 0.343762 0.079581 0.493041
O O8 0.112494 0.046923 0.369245
O O9 0.605692 0.250000 0.215574
O O10 0.536991 0.119001 0.933100
O O11 0.469003 0.250000 0.648765
O O12 0.613522 0.402164 0.740216
O O13 0.000000 0.000000 0.500000
O O14 0.121618 0.882198 0.833335
#
# Coordination Sequence:
#
# PCOD9163387 Si02
#       6
#     4   4   4   4   4   4
#     4  10  20  38  63  90 121 164 209 251 300 361
#     4  12  22  40  63  92 129 160 203 256 315 370
#     4  10  20  36  62  90 118 160 210 256 299 354
#     4  11  23  39  62  92 123 163 213 258 304 361
#     4  10  22  40  64  87 120 163 209 248 301 366
#     4  11  24  40  59  95 128 167 194 255 316 372
#
# _framework density 21.273250000000001
#
# number of rings (size 3 to 8) (size 9 to 14) (size 15 to 20)
#    0.000    1.333    3.333    3.500    0.000    2.000 
#    0.000    5.000    0.000    6.000    0.000    0.000 
#    0.000    0.000    0.000    0.000    0.000    0.000 
#
# Total GULP energy -134149.389955 kJ/mol
# GULP energy per Si atom -5589.557915 kJ/mol
# Density = 2.122483 g / cm^3
# Si number density = 21.273250 Si / 1000 Ang^3
#
#
#
# Elastic Constant Matrix: (Units=GPa)
#
#
# Indices 1 2 3 4 5 6 
#
# 1 55.7117 -12.9790 8.7410 0.0000 5.8876 0.0000
# 2 -12.9790 53.6716 14.2777 0.0000 -2.3474 0.0000
# 3 8.7410 14.2777 52.5833 0.0000 -2.1925 0.0000
# 4 0.0000 0.0000 0.0000 -7.4759 0.0000 -19.6366
# 5 5.8876 -2.3474 -2.1925 0.0000 32.0062 0.0000
# 6 0.0000 0.0000 0.0000 -19.6366 0.0000 1.2082
#
#
#
# Elastic Compliance Matrix: (Units=1/GPa)
#
#
# Indices 1 2 3 4 5 6 
#
# 1 0.020618 0.006227 -0.005272 0.000000 -0.003697 0.000000
# 2 0.006227 0.022002 -0.007010 0.000000 -0.000012 0.000000
# 3 -0.005272 -0.007010 0.021879 0.000000 0.001954 0.000000
# 4 0.000000 0.000000 0.000000 -0.003062 0.000000 -0.049760
# 5 -0.003697 -0.000012 0.001954 0.000000 0.032057 0.000000
# 6 0.000000 0.000000 0.000000 -0.049760 0.000000 0.018944
#
#
# Mechanical properties :
#
#
# Convention : Reuss Voigt Hill
#
# Bulk Modulus (GPa) = 19.08824 20.22733 19.65779
# Shear Modulus (GPa) = 35.20847 15.27615 25.24231
#
# Velocity S-wave (km/s) = 4.07265 2.68263 3.44841
# Velocity P-wave (km/s) = 5.57743 4.37314 5.01159
#
# Compressibility (1/GPa) = 0.05238828
#
# Stress axis : x y z
#
# Youngs Moduli (GPa) = 48.50101 45.45085 45.70669
#
# Poissons Ratio (x) = -0.28301 0.24098
# Poissons Ratio (y) = -0.30200 0.32039
# Poissons Ratio (z) = 0.25571 0.31859
#
# Static dielectric constant tensor:
#      x y z
#    x 1.733030 0.000000 -0.002200 
#    y 0.000000 1.768140 0.000000 
#    z -0.002200 0.000000 1.837010 
# 
# From -- ./inp_files/12613.got.cif
#   From: 2010.05.17/outbox.cif.g08.bks.cpg/sg11_7_cif.got.tgz:12613.got - 2010.06.03 12:22:45.
