data_PCOD9163221
_publ_section_title
;
Structure prediction by ZEFSAII (Michael W. Deem and Ramdas Pophale) SiO2 
 PCOD9163221
Probable space group: P 21/M
;
_chemical_formula_sum "Si O2"
_cell_formula_units_Z 28
_cell_length_a 19.377548
_cell_length_b 12.087622
_cell_length_c 6.208689
_cell_angle_alpha 90.000000
_cell_angle_beta 66.446630
_cell_angle_gamma 90.000000
_cell_volume 1333.095499
_symmetry_space_group_name_H-M "P 21/M"
_symmetry_group_IT_number 11
_symmetry_cell_setting 'monoclinic'
loop_
_space_group_symop_operation_xyz
x,y,z
-x,1/2+y,-z
-x,-y,-z
x,1/2-y,z
loop_
_atom_site_type_symbol
_atom_site_label
_atom_site_fract_x
_atom_site_fract_y
_atom_site_fract_z
Si Si1 0.321819 0.031727 0.945380
Si Si2 0.923996 0.873175 0.164254
Si Si3 0.585580 0.128101 0.863173
Si Si4 0.057254 0.540449 0.244246
Si Si5 0.184877 0.992498 0.388905
Si Si6 0.472269 0.119526 0.647729
Si Si7 0.277135 0.872497 0.629082
O O1 0.381403 0.115954 0.768760
O O2 0.282108 0.962714 0.806995
O O3 0.377776 0.952675 0.011588
O O4 0.253549 0.059324 0.191990
O O5 0.900127 0.750000 0.147743
O O6 0.008072 0.876273 0.161899
O O7 0.868601 0.928035 0.406451
O O8 0.924409 0.943067 0.945796
O O9 0.585764 0.250000 0.961773
O O10 0.505959 0.109732 0.847992
O O11 0.641989 0.127690 0.588884
O O12 0.133579 0.568645 0.274183
O O13 0.000000 0.500000 0.500000
O O14 0.219552 0.906074 0.514015
O O15 0.492954 0.250000 0.552383
O O16 0.500000 0.000000 0.500000
O O17 0.261328 0.750000 0.733539
#
# Coordination Sequence:
#
# PCOD9163221 Si02
#       7
#     4   4   4   4   4   4   4
#     4  11  21  37  63  90 129 166 213 266 327 387
#     4  10  21  40  66  91 123 166 205 252 310 374
#     4   9  19  36  60  88 119 162 215 268 329 387
#     4   9  20  40  63  91 122 158 203 248 296 367
#     4  10  22  39  60  91 132 164 206 259 318 379
#     4  11  23  41  65  93 127 170 222 279 333 393
#     4  10  20  36  59  88 123 166 212 261 318 379
#
# _framework density 21.003748000000002
#
# number of rings (size 3 to 8) (size 9 to 14) (size 15 to 20)
#    0.000    2.000    1.429    1.714    0.000    4.571 
#    0.000   12.857    0.000    0.000    0.000    0.000 
#    0.000    0.000    0.000    0.000    0.000    0.000 
#
# Total GULP energy -155948.805221 kJ/mol
# GULP energy per Si atom -5569.600186 kJ/mol
# Density = 2.095594 g / cm^3
# Si number density = 21.003748 Si / 1000 Ang^3
#
#
#
# Elastic Constant Matrix: (Units=GPa)
#
#
# Indices 1 2 3 4 5 6 
#
# 1 121.7541 19.2908 31.0054 0.0000 2.5714 0.0000
# 2 19.2908 80.8809 29.9698 0.0000 -1.8442 0.0000
# 3 31.0054 29.9698 89.7367 0.0000 -0.8006 0.0000
# 4 0.0000 0.0000 0.0000 4.8141 0.0000 -10.1703
# 5 2.5714 -1.8442 -0.8006 0.0000 34.8713 0.0000
# 6 0.0000 0.0000 0.0000 -10.1703 0.0000 2.8926
#
#
#
# Elastic Compliance Matrix: (Units=1/GPa)
#
#
# Indices 1 2 3 4 5 6 
#
# 1 0.009120 -0.001168 -0.002768 0.000000 -0.000798 0.000000
# 2 -0.001168 0.014274 -0.004357 0.000000 0.000741 0.000000
# 3 -0.002768 -0.004357 0.013558 0.000000 0.000285 0.000000
# 4 0.000000 0.000000 0.000000 -0.032317 0.000000 -0.113623
# 5 -0.000798 0.000741 0.000285 0.000000 0.028781 0.000000
# 6 0.000000 0.000000 0.000000 -0.113623 0.000000 -0.053784
#
#
# Mechanical properties :
#
#
# Convention : Reuss Voigt Hill
#
# Bulk Modulus (GPa) = 49.10196 50.32263 49.71230
# Shear Modulus (GPa) = 1662.74462 22.65599 842.70031
#
# Velocity S-wave (km/s) = 28.16665 3.28787 20.05206
# Velocity P-wave (km/s) = 32.88225 6.19873 23.66080
#
# Compressibility (1/GPa) = 0.02036579
#
# Stress axis : x y z
#
# Youngs Moduli (GPa) = 109.64810 70.05886 73.75786
#
# Poissons Ratio (x) = 0.08180 0.20418
# Poissons Ratio (y) = 0.12803 0.32136
# Poissons Ratio (z) = 0.30354 0.30525
#
# Static dielectric constant tensor:
#      x y z
#    x 1.802190 0.000000 -0.035460 
#    y 0.000000 1.856810 0.000000 
#    z -0.035460 0.000000 1.770480 
# 
# From -- ./inp_files/8752.got.cif
#   From: 2010.05.17/outbox.cif.g08.bks.cpg/sg11_5_cif.got.tgz:8752.got - 2010.06.03 12:22:45.
