data_PCOD9163711
_publ_section_title
;
Structure prediction by ZEFSAII (Michael W. Deem and Ramdas Pophale) SiO2 
 PCOD9163711
Probable space group: P 21/M
;
_chemical_formula_sum "Si O2"
_cell_formula_units_Z 32
_cell_length_a 11.554073
_cell_length_b 21.223917
_cell_length_c 8.820212
_cell_angle_alpha 90.000000
_cell_angle_beta 49.406226
_cell_angle_gamma 90.000000
_cell_volume 1642.393063
_symmetry_space_group_name_H-M "P 21/M"
_symmetry_group_IT_number 11
_symmetry_cell_setting 'monoclinic'
loop_
_space_group_symop_operation_xyz
x,y,z
-x,1/2+y,-z
-x,-y,-z
x,1/2-y,z
loop_
_atom_site_type_symbol
_atom_site_label
_atom_site_fract_x
_atom_site_fract_y
_atom_site_fract_z
Si Si1 0.364788 0.321461 0.461728
Si Si2 0.017022 0.179287 0.683777
Si Si3 0.488177 0.377235 0.059121
Si Si4 0.203347 0.566982 0.162139
Si Si5 0.020213 0.318827 0.316317
Si Si6 0.288148 0.624150 0.386623
Si Si7 0.234569 0.069371 0.059128
Si Si8 0.524739 0.569255 0.413206
O O1 0.400125 0.250000 0.481598
O O2 0.181672 0.329572 0.618284
O O3 0.421187 0.331047 0.240700
O O4 0.440755 0.376264 0.494960
O O5 0.959334 0.250000 0.769675
O O6 0.042330 0.178161 0.479855
O O7 0.898250 0.123512 0.817436
O O8 0.353872 0.416753 0.094896
O O9 0.617248 0.421505 0.026252
O O10 0.586472 0.346687 0.837162
O O11 0.202064 0.575467 0.346204
O O12 0.157646 0.498006 0.151450
O O13 0.069860 0.250000 0.221066
O O14 0.115398 0.374129 0.160381
O O15 0.840164 0.328952 0.446653
O O16 0.377829 0.589589 0.441193
O O17 0.334000 0.067777 0.823253
O O18 0.500000 0.500000 0.500000
#
# Coordination Sequence:
#
# PCOD9163711 Si02
#       8
#     4   4   4   4   4   4   4   4
#     4  11  23  39  60  87 121 160 201 245 300 364
#     4   9  19  37  58  88 122 154 191 249 305 352
#     4   9  19  35  59  89 115 148 197 251 291 352
#     4   9  19  35  61  91 117 147 198 253 298 351
#     4  10  20  37  61  89 118 150 201 255 300 349
#     4   8  21  38  61  89 117 155 194 247 308 346
#     4  11  21  37  63  90 118 156 206 249 299 354
#     4  11  25  41  61  87 127 166 197 250 301 367
#
# _framework density 19.483764999999998
#
# number of rings (size 3 to 8) (size 9 to 14) (size 15 to 20)
#    0.750    1.500    1.250    1.125    1.750    5.000 
#    0.000    6.250    0.000    0.000    0.000    0.000 
#    0.000    0.000    0.000    0.000    0.000    0.000 
#
# Total GULP energy -178356.809863 kJ/mol
# GULP energy per Si atom -5573.650308 kJ/mol
# Density = 1.943942 g / cm^3
# Si number density = 19.483765 Si / 1000 Ang^3
#
#
#
# Elastic Constant Matrix: (Units=GPa)
#
#
# Indices 1 2 3 4 5 6 
#
# 1 59.5496 60.3144 18.2544 0.0000 -3.0728 0.0000
# 2 60.3144 173.8662 58.1186 0.0000 -8.8823 0.0000
# 3 18.2544 58.1186 45.8302 0.0000 -3.6138 0.0000
# 4 0.0000 0.0000 0.0000 13.2305 0.0000 -9.7839
# 5 -3.0728 -8.8823 -3.6138 0.0000 20.6613 0.0000
# 6 0.0000 0.0000 0.0000 -9.7839 0.0000 18.4996
#
#
#
# Elastic Compliance Matrix: (Units=1/GPa)
#
#
# Indices 1 2 3 4 5 6 
#
# 1 0.025982 -0.009638 0.001878 0.000000 0.000049 0.000000
# 2 -0.009638 0.013650 -0.013305 0.000000 0.002108 0.000000
# 3 0.001878 -0.013305 0.038040 0.000000 0.001213 0.000000
# 4 0.000000 0.000000 0.000000 0.124130 0.000000 0.065649
# 5 0.000049 0.002108 0.001213 0.000000 0.049525 0.000000
# 6 0.000000 0.000000 0.000000 0.065649 0.000000 0.088775
#
#
# Mechanical properties :
#
#
# Convention : Reuss Voigt Hill
#
# Bulk Modulus (GPa) = 28.13674 61.40231 44.76952
# Shear Modulus (GPa) = 12.68776 19.98218 16.33497
#
# Velocity S-wave (km/s) = 2.55462 3.20594 2.89864
# Velocity P-wave (km/s) = 4.81393 6.72957 5.85069
#
# Compressibility (1/GPa) = 0.03554072
#
# Stress axis : x y z
#
# Youngs Moduli (GPa) = 38.48870 73.25849 26.28809
#
# Poissons Ratio (x) = 0.70608 -0.04936
# Poissons Ratio (y) = 0.37096 0.34977
# Poissons Ratio (z) = -0.07227 0.97472
#
# Static dielectric constant tensor:
#      x y z
#    x 1.681370 0.000000 -0.009160 
#    y 0.000000 1.684480 0.000000 
#    z -0.009160 0.000000 1.700370 
# 
# From -- ./inp_files/19377.got.cif
#   From: 2010.05.17/outbox.cif.g08.bks.cpg/sg11_10_cif.got.tgz:19377.got - 2010.06.03 12:22:45.
