data_PCOD9163860
_publ_section_title
;
Structure prediction by ZEFSAII (Michael W. Deem and Ramdas Pophale) SiO2 
 PCOD9163860
Probable space group: P 21/M
;
_chemical_formula_sum "Si O2"
_cell_formula_units_Z 32
_cell_length_a 23.106336
_cell_length_b 16.702073
_cell_length_c 10.268961
_cell_angle_alpha 90.000000
_cell_angle_beta 154.853507
_cell_angle_gamma 90.000000
_cell_volume 1684.028986
_symmetry_space_group_name_H-M "P 21/M"
_symmetry_group_IT_number 11
_symmetry_cell_setting 'monoclinic'
loop_
_space_group_symop_operation_xyz
x,y,z
-x,1/2+y,-z
-x,-y,-z
x,1/2-y,z
loop_
_atom_site_type_symbol
_atom_site_label
_atom_site_fract_x
_atom_site_fract_y
_atom_site_fract_z
Si Si1 0.485824 0.582498 0.289430
Si Si2 0.432113 0.586587 0.886942
Si Si3 0.222275 0.654177 0.259024
Si Si4 0.223663 0.345029 0.188125
Si Si5 0.095064 0.153574 0.440533
Si Si6 0.717670 0.844614 0.410208
Si Si7 0.364426 0.567223 0.311127
Si Si8 0.872564 0.942968 0.232147
O O1 0.625605 0.631526 0.554703
O O2 0.418788 0.607366 0.289690
O O3 0.522855 0.488167 0.386568
O O4 0.409168 0.593783 0.995884
O O5 0.300040 0.607305 0.533051
O O6 0.500000 0.500000 0.000000
O O7 0.556075 0.643076 0.091182
O O8 0.237088 0.750000 0.306902
O O9 0.294807 0.625521 0.273141
O O10 0.061070 0.635727 0.919163
O O11 0.206119 0.250000 0.149929
O O12 0.219237 0.376720 0.326657
O O13 0.121506 0.388920 0.884451
O O14 0.104840 0.250000 0.473310
O O15 0.203493 0.123634 0.554232
O O16 0.130556 0.112936 0.648827
O O17 0.742925 0.750000 0.461974
O O18 0.256297 0.500999 0.043437
O O19 0.000000 0.000000 0.500000
#
# Coordination Sequence:
#
# PCOD9163860 Si02
#       8
#     4   4   4   4   4   4   4   4
#     4   9  20  36  60  85 120 142 189 243 293 346
#     4  11  21  36  60  88 119 154 193 243 296 349
#     4  11  23  40  59  84 121 158 194 242 300 354
#     4   9  19  37  60  83 110 149 193 244 291 342
#     4  10  22  40  60  86 120 158 200 245 292 353
#     4   9  20  39  61  86 115 152 199 242 287 349
#     4  10  20  38  57  87 113 153 189 240 292 351
#     4  11  21  36  58  82 117 152 196 238 290 348
#
# _framework density 19.002047999999998
#
# number of rings (size 3 to 8) (size 9 to 14) (size 15 to 20)
#    0.000    2.000    2.500    0.750    1.750    2.000 
#    2.250    1.250    0.000    0.000    0.000    0.000 
#    0.000    0.000    0.000    0.000    0.000    0.000 
#
# Total GULP energy -178481.205713 kJ/mol
# GULP energy per Si atom -5577.537679 kJ/mol
# Density = 1.895880 g / cm^3
# Si number density = 19.002048 Si / 1000 Ang^3
#
#
#
# Elastic Constant Matrix: (Units=GPa)
#
#
# Indices 1 2 3 4 5 6 
#
# 1 78.6464 -4.5173 8.7501 0.0000 -14.2488 0.0000
# 2 -4.5173 34.4880 8.4503 0.0000 -9.3872 0.0000
# 3 8.7501 8.4503 62.8189 0.0000 -26.8412 0.0000
# 4 0.0000 0.0000 0.0000 29.6997 0.0000 0.4496
# 5 -14.2488 -9.3872 -26.8412 0.0000 21.5903 0.0000
# 6 0.0000 0.0000 0.0000 0.4496 0.0000 21.7071
#
#
#
# Elastic Compliance Matrix: (Units=1/GPa)
#
#
# Indices 1 2 3 4 5 6 
#
# 1 0.016138 0.006279 0.005599 0.000000 0.020341 0.000000
# 2 0.006279 0.035716 0.005816 0.000000 0.026903 0.000000
# 3 0.005599 0.005816 0.036296 0.000000 0.051348 0.000000
# 4 0.000000 0.000000 0.000000 0.033681 0.000000 -0.000698
# 5 0.020341 0.026903 0.051348 0.000000 0.135274 0.000000
# 6 0.000000 0.000000 0.000000 -0.000698 0.000000 0.046082
#
#
# Mechanical properties :
#
#
# Convention : Reuss Voigt Hill
#
# Bulk Modulus (GPa) = 8.09474 22.36882 15.23178
# Shear Modulus (GPa) = 16.18230 25.48409 20.83320
#
# Velocity S-wave (km/s) = 2.92140 3.66611 3.31473
# Velocity P-wave (km/s) = 3.95583 5.45140 4.76269
#
# Compressibility (1/GPa) = 0.12353695
#
# Stress axis : x y z
#
# Youngs Moduli (GPa) = 61.96505 27.99899 27.55102
#
# Poissons Ratio (x) = -0.17579 -0.15425
# Poissons Ratio (y) = -0.38905 -0.16024
# Poissons Ratio (z) = -0.34693 -0.16285
#
# Static dielectric constant tensor:
#      x y z
#    x 1.681990 0.000000 -0.005600 
#    y 0.000000 1.639350 0.000000 
#    z -0.005600 0.000000 1.722840 
# 
# From -- ./inp_files/27071.got.cif
#   From: 2010.05.17/outbox.cif.g08.bks.cpg/sg11_14_cif.got.tgz:27071.got - 2010.06.03 12:22:45.
