data_PCOD9163879
_publ_section_title
;
Structure prediction by ZEFSAII (Michael W. Deem and Ramdas Pophale) SiO2 
 PCOD9163879
Probable space group: P 21/M
;
_chemical_formula_sum "Si O2"
_cell_formula_units_Z 20
_cell_length_a 10.327424
_cell_length_b 17.008402
_cell_length_c 13.146258
_cell_angle_alpha 90.000000
_cell_angle_beta 22.071408
_cell_angle_gamma 90.000000
_cell_volume 867.701529
_symmetry_space_group_name_H-M "P 21/M"
_symmetry_group_IT_number 11
_symmetry_cell_setting 'monoclinic'
loop_
_space_group_symop_operation_xyz
x,y,z
-x,1/2+y,-z
-x,-y,-z
x,1/2-y,z
loop_
_atom_site_type_symbol
_atom_site_label
_atom_site_fract_x
_atom_site_fract_y
_atom_site_fract_z
Si Si1 0.661904 0.561269 0.112917
Si Si2 0.161454 0.654647 0.331479
Si Si3 0.387474 0.655547 0.943934
Si Si4 0.269127 0.030139 0.573980
Si Si5 0.221642 0.657603 0.835957
O O1 0.444827 0.618251 0.199150
O O2 0.409838 0.514505 0.371684
O O3 0.891419 0.501928 0.877856
O O4 0.925025 0.611450 0.991743
O O5 0.171827 0.750000 0.327976
O O6 0.781306 0.628205 0.642288
O O7 0.238500 0.627813 0.160105
O O8 0.406291 0.750000 0.941066
O O9 0.193171 0.645338 0.977856
O O10 0.410867 0.119218 0.459630
O O11 0.500000 0.000000 0.500000
O O12 0.214967 0.750000 0.818413
#
# Coordination Sequence:
#
# PCOD9163879 Si02
#       5
#     4   4   4   4   4
#     4  11  22  40  63  88 117 155 196 241 292 347
#     4  10  20  38  59  86 120 157 195 242 292 342
#     4   9  20  36  57  84 120 153 190 244 297 336
#     4  10  22  40  59  87 124 153 184 246 305 336
#     4  10  21  40  64  89 113 154 203 239 281 353
#
# _framework density 23.049401
#
# number of rings (size 3 to 8) (size 9 to 14) (size 15 to 20)
#    0.000    2.000    0.000    4.200    0.000    4.800 
#    0.000   26.000    0.000    0.000    0.000    0.000 
#    0.000    0.000    0.000    0.000    0.000    0.000 
#
# Total GULP energy -111897.875643 kJ/mol
# GULP energy per Si atom -5594.893782 kJ/mol
# Density = 2.299694 g / cm^3
# Si number density = 23.049401 Si / 1000 Ang^3
#
#
#
# Elastic Constant Matrix: (Units=GPa)
#
#
# Indices 1 2 3 4 5 6 
#
# 1 127.9825 25.7369 65.5595 0.0000 -5.7496 0.0000
# 2 25.7369 114.3160 50.3513 0.0000 5.9414 0.0000
# 3 65.5595 50.3513 172.5442 0.0000 25.4463 0.0000
# 4 0.0000 0.0000 0.0000 22.1506 0.0000 -1.3258
# 5 -5.7496 5.9414 25.4463 0.0000 43.7312 0.0000
# 6 0.0000 0.0000 0.0000 -1.3258 0.0000 45.8359
#
#
#
# Elastic Compliance Matrix: (Units=1/GPa)
#
#
# Indices 1 2 3 4 5 6 
#
# 1 0.010335 -0.000626 -0.004328 0.000000 0.003962 0.000000
# 2 -0.000626 0.010081 -0.002724 0.000000 0.000133 0.000000
# 3 -0.004328 -0.002724 0.009040 0.000000 -0.005459 0.000000
# 4 0.000000 0.000000 0.000000 0.045224 0.000000 0.001308
# 5 0.003962 0.000133 -0.005459 0.000000 0.026547 0.000000
# 6 0.000000 0.000000 0.000000 0.001308 0.000000 0.021855
#
#
# Mechanical properties :
#
#
# Convention : Reuss Voigt Hill
#
# Bulk Modulus (GPa) = 70.92245 77.57088 74.24666
# Shear Modulus (GPa) = 34.93142 40.55655 37.74399
#
# Velocity S-wave (km/s) = 3.89717 4.19925 4.05103
# Velocity P-wave (km/s) = 7.14753 7.56563 7.35955
#
# Compressibility (1/GPa) = 0.01409991
#
# Stress axis : x y z
#
# Youngs Moduli (GPa) = 96.76101 99.19281 110.61790
#
# Poissons Ratio (x) = 0.06212 0.47880
# Poissons Ratio (y) = 0.06059 0.30127
# Poissons Ratio (z) = 0.41882 0.27016
#
# Static dielectric constant tensor:
#      x y z
#    x 1.824420 0.000000 -0.020430 
#    y 0.000000 1.913430 0.000000 
#    z -0.020430 0.000000 1.950220 
# 
# From -- ./inp_files/50517.got.cif
#   From: 2010.05.17/outbox.cif.g08.bks.cpg/sg11_26_cif.got.tgz:50517.got - 2010.06.03 12:22:45.
