data_PCOD9163355
_publ_section_title
;
Structure prediction by ZEFSAII (Michael W. Deem and Ramdas Pophale) SiO2 
 PCOD9163355
Probable space group: P 21/M
;
_chemical_formula_sum "Si O2"
_cell_formula_units_Z 28
_cell_length_a 22.848064
_cell_length_b 9.035615
_cell_length_c 25.225999
_cell_angle_alpha 90.000000
_cell_angle_beta 16.714878
_cell_angle_gamma 90.000000
_cell_volume 1497.815481
_symmetry_space_group_name_H-M "P 21/M"
_symmetry_group_IT_number 11
_symmetry_cell_setting 'monoclinic'
loop_
_space_group_symop_operation_xyz
x,y,z
-x,1/2+y,-z
-x,-y,-z
x,1/2-y,z
loop_
_atom_site_type_symbol
_atom_site_label
_atom_site_fract_x
_atom_site_fract_y
_atom_site_fract_z
Si Si1 0.849312 0.427395 0.061177
Si Si2 0.309115 0.072717 0.695889
Si Si3 0.853960 0.928486 0.835519
Si Si4 0.062931 0.917161 0.498710
Si Si5 0.371504 0.415617 0.067641
Si Si6 0.233028 0.425356 0.448163
Si Si7 0.697293 0.074141 0.076076
O O1 0.825168 0.250000 0.089396
O O2 0.724631 0.509151 0.215624
O O3 0.770730 0.466918 0.071042
O O4 0.090402 0.460483 0.857892
O O5 0.334741 0.250000 0.674842
O O6 0.500000 0.000000 0.500000
O O7 0.862237 0.750000 0.825507
O O8 0.671297 0.978356 0.953835
O O9 0.062470 0.997301 0.632410
O O10 0.809118 0.984464 0.933025
O O11 0.133419 0.750000 0.427287
O O12 0.854968 0.907848 0.712321
O O13 0.213954 0.006087 0.405822
O O14 0.000000 0.000000 0.500000
O O15 0.454661 0.250000 0.990939
O O16 0.500000 0.500000 0.000000
O O17 0.192432 0.250000 0.480675
O O18 0.456449 0.449564 0.277795
O O19 0.736753 0.250000 0.034533
#
# Coordination Sequence:
#
# PCOD9163355 Si02
#       7
#     4   4   4   4   4   4   4
#     4   9  20  39  59  85 119 154 197 241 279 333
#     4  10  20  36  61  89 121 158 193 235 286 333
#     4  10  22  39  56  80 113 148 187 235 290 346
#     4  10  21  36  53  77 106 138 179 227 284 345
#     4   9  20  35  51  74 101 133 175 223 278 336
#     4  10  21  38  58  81 109 145 189 236 286 342
#     4  10  22  39  61  85 113 154 197 237 285 341
#
# _framework density 18.693892000000002
#
# number of rings (size 3 to 8) (size 9 to 14) (size 15 to 20)
#    0.000    2.286    0.000    2.571    2.000    6.857 
#    0.000    5.714    0.000    0.000    0.000    0.000 
#    0.000    0.000    0.000    0.000    0.000    0.000 
#
# Total GULP energy -156243.952999 kJ/mol
# GULP energy per Si atom -5580.141179 kJ/mol
# Density = 1.865134 g / cm^3
# Si number density = 18.693892 Si / 1000 Ang^3
#
#
#
# Elastic Constant Matrix: (Units=GPa)
#
#
# Indices 1 2 3 4 5 6 
#
# 1 191.9717 78.1493 69.7344 0.0000 2.3048 0.0000
# 2 78.1493 86.9873 59.0087 0.0000 4.3783 0.0000
# 3 69.7344 59.0087 109.4740 0.0000 17.0061 0.0000
# 4 0.0000 0.0000 0.0000 24.4694 0.0000 3.7384
# 5 2.3048 4.3783 17.0061 0.0000 23.3567 0.0000
# 6 0.0000 0.0000 0.0000 3.7384 0.0000 33.7464
#
#
#
# Elastic Compliance Matrix: (Units=1/GPa)
#
#
# Indices 1 2 3 4 5 6 
#
# 1 0.008584 -0.006126 -0.002495 0.000000 0.002118 0.000000
# 2 -0.006126 0.022865 -0.008852 0.000000 0.002764 0.000000
# 3 -0.002495 -0.008852 0.017137 0.000000 -0.010572 0.000000
# 4 0.000000 0.000000 0.000000 0.041571 0.000000 -0.004605
# 5 0.002118 0.002764 -0.010572 0.000000 0.049785 0.000000
# 6 0.000000 0.000000 0.000000 -0.004605 0.000000 0.030143
#
#
# Mechanical properties :
#
#
# Convention : Reuss Voigt Hill
#
# Bulk Modulus (GPa) = 73.30750 89.13532 81.22141
# Shear Modulus (GPa) = 23.85757 28.41721 26.13739
#
# Velocity S-wave (km/s) = 3.57630 3.90312 3.74328
# Velocity P-wave (km/s) = 7.50687 8.25212 7.88830
#
# Compressibility (1/GPa) = 0.01364117
#
# Stress axis : x y z
#
# Youngs Moduli (GPa) = 116.50061 43.73501 58.35157
#
# Poissons Ratio (x) = 0.26791 0.14558
# Poissons Ratio (y) = 0.71365 0.51652
# Poissons Ratio (z) = 0.29065 0.38714
#
# Static dielectric constant tensor:
#      x y z
#    x 1.647290 0.000000 -0.002630 
#    y 0.000000 1.722610 0.000000 
#    z -0.002630 0.000000 1.643850 
# 
# From -- ./inp_files/69787.got.cif
#   From: 2010.05.17/outbox.cif.g08.bks.cpg/sg11_35_cif.got.tgz:69787.got - 2010.06.03 12:22:45.
