data_PCOD9163556
_publ_section_title
;
Structure prediction by ZEFSAII (Michael W. Deem and Ramdas Pophale) SiO2 
 PCOD9163556
Probable space group: P 21/M
;
_chemical_formula_sum "Si O2"
_cell_formula_units_Z 32
_cell_length_a 8.791155
_cell_length_b 13.752495
_cell_length_c 25.017410
_cell_angle_alpha 90.000000
_cell_angle_beta 33.756935
_cell_angle_gamma 90.000000
_cell_volume 1680.689197
_symmetry_space_group_name_H-M "P 21/M"
_symmetry_group_IT_number 11
_symmetry_cell_setting 'monoclinic'
loop_
_space_group_symop_operation_xyz
x,y,z
-x,1/2+y,-z
-x,-y,-z
x,1/2-y,z
loop_
_atom_site_type_symbol
_atom_site_label
_atom_site_fract_x
_atom_site_fract_y
_atom_site_fract_z
Si Si1 0.014959 0.490640 0.246569
Si Si2 0.845273 0.362416 0.087094
Si Si3 0.799431 0.963559 0.604052
Si Si4 0.104016 0.865580 0.615133
Si Si5 0.279643 0.363176 0.597937
Si Si6 0.263081 0.638782 0.755584
Si Si7 0.289190 0.637979 0.298753
Si Si8 0.413828 0.051525 0.889157
O O1 0.010347 0.416187 0.298280
O O2 0.792046 0.570345 0.330412
O O3 0.935887 0.433746 0.216864
O O4 0.312149 0.539189 0.156477
O O5 0.802048 0.250000 0.083000
O O6 0.755024 0.370479 0.175157
O O7 0.686802 0.444051 0.099310
O O8 0.163854 0.391921 0.989023
O O9 0.568422 0.891765 0.649706
O O10 0.955116 0.909394 0.606842
O O11 0.664092 0.059937 0.668856
O O12 0.000000 0.000000 0.500000
O O13 0.063269 0.750000 0.629261
O O14 0.428928 0.885875 0.513881
O O15 0.286234 0.250000 0.611454
O O16 0.022639 0.375451 0.632514
O O17 0.205149 0.750000 0.757895
O O18 0.321829 0.750000 0.304939
O O19 0.488321 0.610005 0.191927
#
# Coordination Sequence:
#
# PCOD9163556 Si02
#       8
#     4   4   4   4   4   4   4   4
#     4  11  21  37  60  84 117 155 197 242 289 349
#     4  10  21  39  65  90 118 150 188 243 300 353
#     4  12  24  38  56  85 121 162 197 245 297 345
#     4  11  21  36  57  82 114 158 207 244 286 343
#     4   9  19  34  56  83 112 152 200 246 285 335
#     4  11  24  40  58  87 123 156 195 242 298 346
#     4  10  20  37  59  86 116 152 199 244 293 349
#     4  10  20  39  65  90 113 150 197 243 293 353
#
# _framework density 19.039808000000001
#
# number of rings (size 3 to 8) (size 9 to 14) (size 15 to 20)
#    0.000    1.500    3.750    2.250    1.750    4.000 
#    0.000    0.625    0.000    0.000    0.000    0.000 
#    0.000    0.000    0.000    0.000    0.000    0.000 
#
# Total GULP energy -178767.474689 kJ/mol
# GULP energy per Si atom -5586.483584 kJ/mol
# Density = 1.899647 g / cm^3
# Si number density = 19.039808 Si / 1000 Ang^3
#
#
#
# Elastic Constant Matrix: (Units=GPa)
#
#
# Indices 1 2 3 4 5 6 
#
# 1 10.4822 -4.3637 -8.1854 0.0000 0.6056 0.0000
# 2 -4.3637 80.5321 -12.9793 0.0000 1.6458 0.0000
# 3 -8.1854 -12.9793 60.5641 0.0000 -15.0620 0.0000
# 4 0.0000 0.0000 0.0000 25.4313 0.0000 -0.4856
# 5 0.6056 1.6458 -15.0620 0.0000 19.1115 0.0000
# 6 0.0000 0.0000 0.0000 -0.4856 0.0000 22.8067
#
#
#
# Elastic Compliance Matrix: (Units=1/GPa)
#
#
# Indices 1 2 3 4 5 6 
#
# 1 0.114457 0.009242 0.020336 0.000000 0.011604 0.000000
# 2 0.009242 0.013635 0.004734 0.000000 0.002264 0.000000
# 3 0.020336 0.004734 0.024891 0.000000 0.018565 0.000000
# 4 0.000000 0.000000 0.000000 0.039338 0.000000 0.000838
# 5 0.011604 0.002264 0.018565 0.000000 0.066393 0.000000
# 6 0.000000 0.000000 0.000000 0.000838 0.000000 0.043865
#
#
# Mechanical properties :
#
#
# Convention : Reuss Voigt Hill
#
# Bulk Modulus (GPa) = 4.51249 11.16906 7.84077
# Shear Modulus (GPa) = 16.24310 25.27702 20.76006
#
# Velocity S-wave (km/s) = 2.92398 3.64756 3.30563
# Velocity P-wave (km/s) = 3.71143 4.85989 4.32396
#
# Compressibility (1/GPa) = 0.22160720
#
# Stress axis : x y z
#
# Youngs Moduli (GPa) = 8.73694 73.34085 40.17444
#
# Poissons Ratio (x) = -0.67784 -0.81697
# Poissons Ratio (y) = -0.08075 -0.19020
# Poissons Ratio (z) = -0.17767 -0.34721
#
# Static dielectric constant tensor:
#      x y z
#    x 1.654290 0.000000 -0.024150 
#    y 0.000000 1.668190 0.000000 
#    z -0.024150 0.000000 1.654020 
# 
# From -- ./inp_files/68133.got.cif
#   From: 2010.05.17/outbox.cif.g08.bks.cpg/sg11_35_cif.got.tgz:68133.got - 2010.06.03 12:22:45.
