data_PCOD9163404
_publ_section_title
;
Structure prediction by ZEFSAII (Michael W. Deem and Ramdas Pophale) SiO2 
 PCOD9163404
Probable space group: P 21/M
;
_chemical_formula_sum "Si O2"
_cell_formula_units_Z 28
_cell_length_a 15.524403
_cell_length_b 11.290920
_cell_length_c 8.403166
_cell_angle_alpha 90.000000
_cell_angle_beta 73.158259
_cell_angle_gamma 90.000000
_cell_volume 1409.770555
_symmetry_space_group_name_H-M "P 21/M"
_symmetry_group_IT_number 11
_symmetry_cell_setting 'monoclinic'
loop_
_space_group_symop_operation_xyz
x,y,z
-x,1/2+y,-z
-x,-y,-z
x,1/2-y,z
loop_
_atom_site_type_symbol
_atom_site_label
_atom_site_fract_x
_atom_site_fract_y
_atom_site_fract_z
Si Si1 0.048396 0.127476 0.473021
Si Si2 0.893354 0.948463 0.884793
Si Si3 0.243949 0.886398 0.198955
Si Si4 0.236909 0.609919 0.569819
Si Si5 0.447074 0.884045 0.968961
Si Si6 0.438201 0.610697 0.590890
Si Si7 0.092773 0.441065 0.779558
O O1 0.991574 0.250000 0.502862
O O2 0.101177 0.126448 0.279223
O O3 0.101994 0.128405 0.609580
O O4 0.000000 0.000000 0.500000
O O5 0.812921 0.038480 0.894760
O O6 0.885016 0.887693 0.060523
O O7 0.988463 0.018834 0.840722
O O8 0.215156 0.750000 0.203995
O O9 0.228999 0.927687 0.388862
O O10 0.348797 0.891049 0.100671
O O11 0.224272 0.750000 0.581002
O O12 0.337591 0.587024 0.579227
O O13 0.160304 0.550141 0.716679
O O14 0.483381 0.750000 0.987900
O O15 0.438653 0.890145 0.782426
O O16 0.500000 0.000000 0.000000
O O17 0.500000 0.500000 0.500000
O O18 0.461724 0.750000 0.531171
#
# Coordination Sequence:
#
# PCOD9163404 Si02
#       7
#     4   4   4   4   4   4   4
#     4  10  22  40  60  86 120 160 206 256 310 372
#     4  10  21  37  58  87 123 163 207 259 316 367
#     4  10  20  36  62  93 124 163 212 263 316 379
#     4  10  20  36  62  93 124 163 212 263 316 379
#     4  10  21  38  62  93 127 163 207 260 318 381
#     4  10  21  38  62  93 127 163 207 260 318 381
#     4  10  21  37  58  87 123 163 207 259 316 367
#
# _framework density 19.861388000000002
#
# number of rings (size 3 to 8) (size 9 to 14) (size 15 to 20)
#    0.000    2.000    1.429    1.714    0.000    8.571 
#    0.000    7.143    0.000    3.429    0.000    0.000 
#    0.000    0.000    0.000    0.000    0.000    0.000 
#
# Total GULP energy -155932.191356 kJ/mol
# GULP energy per Si atom -5569.006834 kJ/mol
# Density = 1.981618 g / cm^3
# Si number density = 19.861388 Si / 1000 Ang^3
#
#
#
# Elastic Constant Matrix: (Units=GPa)
#
#
# Indices 1 2 3 4 5 6 
#
# 1 76.2658 46.4927 9.3316 0.0000 16.0982 0.0000
# 2 46.4927 121.3446 21.9676 0.0000 9.0475 0.0000
# 3 9.3316 21.9676 111.2637 0.0000 38.6796 0.0000
# 4 0.0000 0.0000 0.0000 7.7185 0.0000 -4.1385
# 5 16.0982 9.0475 38.6796 0.0000 37.4524 0.0000
# 6 0.0000 0.0000 0.0000 -4.1385 0.0000 13.1116
#
#
#
# Elastic Compliance Matrix: (Units=1/GPa)
#
#
# Indices 1 2 3 4 5 6 
#
# 1 0.019186 -0.007203 0.003237 0.000000 -0.009850 0.000000
# 2 -0.007203 0.011256 -0.002729 0.000000 0.003195 0.000000
# 3 0.003237 -0.002729 0.014836 0.000000 -0.016054 0.000000
# 4 0.000000 0.000000 0.000000 0.155952 0.000000 0.049224
# 5 -0.009850 0.003195 -0.016054 0.000000 0.046743 0.000000
# 6 0.000000 0.000000 0.000000 0.049224 0.000000 0.091806
#
#
# Mechanical properties :
#
#
# Convention : Reuss Voigt Hill
#
# Bulk Modulus (GPa) = 31.35842 51.60645 41.48244
# Shear Modulus (GPa) = 13.74388 27.06197 20.40293
#
# Velocity S-wave (km/s) = 2.63342 3.69527 3.20858
# Velocity P-wave (km/s) = 5.00694 6.65179 5.88710
#
# Compressibility (1/GPa) = 0.03188936
#
# Stress axis : x y z
#
# Youngs Moduli (GPa) = 52.12153 88.83765 67.40307
#
# Poissons Ratio (x) = 0.63987 -0.21820
# Poissons Ratio (y) = 0.37541 0.18395
# Poissons Ratio (z) = -0.16873 0.24245
#
# Static dielectric constant tensor:
#      x y z
#    x 1.685320 0.000000 0.015300 
#    y 0.000000 1.767320 0.000000 
#    z 0.015300 0.000000 1.746570 
# 
# From -- ./inp_files/21142.got.cif
#   From: 2010.05.17/outbox.cif.g08.bks.cpg/sg11_11_cif.got.tgz:21142.got - 2010.06.03 12:22:45.
