data_PCOD9163329
_publ_section_title
;
Structure prediction by ZEFSAII (Michael W. Deem and Ramdas Pophale) SiO2 
 PCOD9163329
Probable space group: P 21/M
;
_chemical_formula_sum "Si O2"
_cell_formula_units_Z 26
_cell_length_a 8.508231
_cell_length_b 17.907698
_cell_length_c 9.206435
_cell_angle_alpha 90.000000
_cell_angle_beta 96.892792
_cell_angle_gamma 90.000000
_cell_volume 1392.580281
_symmetry_space_group_name_H-M "P 21/M"
_symmetry_group_IT_number 11
_symmetry_cell_setting 'monoclinic'
loop_
_space_group_symop_operation_xyz
x,y,z
-x,1/2+y,-z
-x,-y,-z
x,1/2-y,z
loop_
_atom_site_type_symbol
_atom_site_label
_atom_site_fract_x
_atom_site_fract_y
_atom_site_fract_z
Si Si1 0.468906 0.014480 0.166635
Si Si2 0.641852 0.750000 0.026637
Si Si3 0.187067 0.097667 0.019287
Si Si4 0.258138 0.901194 0.635401
Si Si5 0.308632 0.750000 0.135689
Si Si6 0.667290 0.250000 0.189293
Si Si7 0.968583 0.483620 0.200408
Si Si8 0.745564 0.098707 0.708511
O O1 0.404993 0.940356 0.234292
O O2 0.326586 0.073974 0.143868
O O3 0.606731 0.047966 0.277910
O O4 0.500000 0.000000 0.000000
O O5 0.755459 0.677154 0.035766
O O6 0.521486 0.750000 0.873078
O O7 0.503856 0.750000 0.137533
O O8 0.028310 0.081005 0.095374
O O9 0.165146 0.034735 0.891969
O O10 0.280497 0.822233 0.716737
O O11 0.096748 0.941950 0.666226
O O12 0.272556 0.893478 0.465406
O O13 0.243976 0.677864 0.211202
O O14 0.255193 0.750000 0.962157
O O15 0.108008 0.542792 0.245727
#
# Coordination Sequence:
#
# PCOD9163329 Si02
#       8
#     4   2   4   4   2   2   4   4
#     4  11  19  37  64  90 117 157 218 257 295 360
#     4  10  20  38  64  92 120 156 212 264 301 359
#     4  10  20  36  60  93 120 156 213 259 294 364
#     4  12  22  40  63  91 130 163 203 261 320 372
#     4  10  23  40  63  90 121 163 213 266 299 371
#     4  10  23  36  65  92 115 163 209 264 304 360
#     4  10  24  37  61  92 127 166 203 254 313 384
#     4  11  24  40  60  93 129 166 203 256 323 373
#
# _framework density 18.670376000000001
#
# number of rings (size 3 to 8) (size 9 to 14) (size 15 to 20)
#    0.462    0.923    3.077    3.231    4.308    1.231 
#    0.000    0.000    0.000    0.000    0.000    0.000 
#    0.000    0.000    0.000    0.000    0.000    0.000 
#
# Total GULP energy -144866.886256 kJ/mol
# GULP energy per Si atom -5571.803318 kJ/mol
# Density = 1.862788 g / cm^3
# Si number density = 18.670376 Si / 1000 Ang^3
#
#
#
# Elastic Constant Matrix: (Units=GPa)
#
#
# Indices 1 2 3 4 5 6 
#
# 1 65.1321 55.1551 39.3727 0.0000 -4.1692 0.0000
# 2 55.1551 103.3946 39.6518 0.0000 -16.3715 0.0000
# 3 39.3727 39.6518 144.7610 0.0000 -23.3646 0.0000
# 4 0.0000 0.0000 0.0000 32.4586 0.0000 -1.7908
# 5 -4.1692 -16.3715 -23.3646 0.0000 28.8941 0.0000
# 6 0.0000 0.0000 0.0000 -1.7908 0.0000 32.1277
#
#
#
# Elastic Compliance Matrix: (Units=1/GPa)
#
#
# Indices 1 2 3 4 5 6 
#
# 1 0.032124 -0.016407 -0.005745 0.000000 -0.009307 0.000000
# 2 -0.016407 0.019669 0.000565 0.000000 0.009234 0.000000
# 3 -0.005745 0.000565 0.009470 0.000000 0.007149 0.000000
# 4 0.000000 0.000000 0.000000 0.030904 0.000000 0.001723
# 5 -0.009307 0.009234 0.007149 0.000000 0.044279 0.000000
# 6 0.000000 0.000000 0.000000 0.001723 0.000000 0.031222
#
#
# Mechanical properties :
#
#
# Convention : Reuss Voigt Hill
#
# Bulk Modulus (GPa) = 55.28194 64.62744 59.95469
# Shear Modulus (GPa) = 23.05516 30.63660 26.84588
#
# Velocity S-wave (km/s) = 3.51786 4.05522 3.79606
# Velocity P-wave (km/s) = 6.79516 7.52440 7.16906
#
# Compressibility (1/GPa) = 0.01808909
#
# Stress axis : x y z
#
# Youngs Moduli (GPa) = 31.12904 50.84101 105.60133
#
# Poissons Ratio (x) = 0.83414 0.60672
# Poissons Ratio (y) = 0.51073 -0.05968
# Poissons Ratio (z) = 0.17885 -0.02873
#
# Static dielectric constant tensor:
#      x y z
#    x 1.740350 0.000000 -0.019820 
#    y 0.000000 1.701900 0.000000 
#    z -0.019820 0.000000 1.621640 
# 
# From -- ./inp_files/13511.got.cif
#   From: 2010.05.17/outbox.cif.g08.bks.cpg/sg11_7_cif.got.tgz:13511.got - 2010.06.03 12:22:45.
