data_PCOD9163640
_publ_section_title
;
Structure prediction by ZEFSAII (Michael W. Deem and Ramdas Pophale) SiO2 
 PCOD9163640
Probable space group: P 21/M
;
_chemical_formula_sum "Si O2"
_cell_formula_units_Z 22
_cell_length_a 17.041392
_cell_length_b 7.362798
_cell_length_c 18.938452
_cell_angle_alpha 90.000000
_cell_angle_beta 158.782997
_cell_angle_gamma 90.000000
_cell_volume 859.968389
_symmetry_space_group_name_H-M "P 21/M"
_symmetry_group_IT_number 11
_symmetry_cell_setting 'monoclinic'
loop_
_space_group_symop_operation_xyz
x,y,z
-x,1/2+y,-z
-x,-y,-z
x,1/2-y,z
loop_
_atom_site_type_symbol
_atom_site_label
_atom_site_fract_x
_atom_site_fract_y
_atom_site_fract_z
Si Si1 0.738450 0.963993 0.669949
Si Si2 0.354209 0.961352 0.091548
Si Si3 0.671049 0.031813 0.238280
Si Si4 0.051982 0.250000 0.916925
Si Si5 0.225736 0.468829 0.461111
Si Si6 0.916476 0.459805 0.315667
O O1 0.782119 0.750000 0.710215
O O2 0.735449 0.032345 0.585424
O O3 0.500000 0.000000 0.500000
O O4 0.924865 0.090656 0.856377
O O5 0.294304 0.750000 0.050341
O O6 0.563807 0.006768 0.315796
O O7 0.448624 0.983215 0.091208
O O8 0.175447 0.091902 0.973093
O O9 0.685393 0.250000 0.249088
O O10 0.729673 0.960682 0.209114
O O11 0.868523 0.962848 0.453369
O O12 0.205248 0.250000 0.441129
O O13 0.015513 0.539341 0.326861
O O14 0.863065 0.250000 0.257689
#
# Coordination Sequence:
#
# PCOD9163640 Si02
#       6
#     4   4   4   2   4   4
#     4  11  23  44  68  87 115 152 200 245 292 357
#     4  10  20  37  60  90 126 155 190 241 299 345
#     4   9  14  24  45  81 122 153 188 237 285 338
#     4  12  24  40  64  92 116 158 192 238 302 364
#     4   8  17  35  62  89 118 156 198 249 288 341
#     4   8  14  25  46  80 116 153 196 237 284 327
#
# _framework density 25.582336999999999
#
# number of rings (size 3 to 8) (size 9 to 14) (size 15 to 20)
#    0.000    2.545    1.818    2.182    0.000    1.455 
#    1.636    0.909    0.000    1.091    0.000    0.000 
#    0.000    0.000    0.000    0.000    0.000    0.000 
#
# Total GULP energy -122543.935194 kJ/mol
# GULP energy per Si atom -5570.178872 kJ/mol
# Density = 2.552411 g / cm^3
# Si number density = 25.582337 Si / 1000 Ang^3
#
#
#
# Elastic Constant Matrix: (Units=GPa)
#
#
# Indices 1 2 3 4 5 6 
#
# 1 110.9713 13.3301 58.4360 0.0000 36.2585 0.0000
# 2 13.3301 189.5494 36.2885 0.0000 24.2151 0.0000
# 3 58.4360 36.2885 138.4554 0.0000 52.4981 0.0000
# 4 0.0000 0.0000 0.0000 2.5494 0.0000 20.7766
# 5 36.2585 24.2151 52.4981 0.0000 55.2668 0.0000
# 6 0.0000 0.0000 0.0000 20.7766 0.0000 16.0067
#
#
#
# Elastic Compliance Matrix: (Units=1/GPa)
#
#
# Indices 1 2 3 4 5 6 
#
# 1 0.012427 0.000432 -0.003431 0.000000 -0.005083 0.000000
# 2 0.000432 0.005666 -0.000967 0.000000 -0.001848 0.000000
# 3 -0.003431 -0.000967 0.012363 0.000000 -0.009069 0.000000
# 4 0.000000 0.000000 0.000000 -0.040953 0.000000 0.053156
# 5 -0.005083 -0.001848 -0.009069 0.000000 0.030853 0.000000
# 6 0.000000 0.000000 0.000000 0.053156 0.000000 -0.006523
#
#
# Mechanical properties :
#
#
# Convention : Reuss Voigt Hill
#
# Bulk Modulus (GPa) = 44.39472 72.78727 58.59099
# Shear Modulus (GPa) = 170.80635 36.82602 103.81619
#
# Velocity S-wave (km/s) = 8.17999 3.79820 6.37725
# Velocity P-wave (km/s) = 10.32510 6.91007 8.78512
#
# Compressibility (1/GPa) = 0.02252520
#
# Stress axis : x y z
#
# Youngs Moduli (GPa) = 80.47062 176.47731 80.88953
#
# Poissons Ratio (x) = -0.07629 0.27751
# Poissons Ratio (y) = -0.03479 0.07822
# Poissons Ratio (z) = 0.27607 0.17064
#
# Static dielectric constant tensor:
#      x y z
#    x 2.080470 0.000000 -0.081540 
#    y 0.000000 1.943840 0.000000 
#    z -0.081540 0.000000 2.117380 
# 
# From -- ./inp_files/69482.got.cif
#   From: 2010.05.17/outbox.cif.g08.bks.cpg/sg11_35_cif.got.tgz:69482.got - 2010.06.03 12:22:45.
