data_PCOD9163537
_publ_section_title
;
Structure prediction by ZEFSAII (Michael W. Deem and Ramdas Pophale) SiO2 
 PCOD9163537
Probable space group: P 21/M
;
_chemical_formula_sum "Si O2"
_cell_formula_units_Z 28
_cell_length_a 10.433159
_cell_length_b 7.831228
_cell_length_c 20.552017
_cell_angle_alpha 90.000000
_cell_angle_beta 127.603628
_cell_angle_gamma 90.000000
_cell_volume 1330.340905
_symmetry_space_group_name_H-M "P 21/M"
_symmetry_group_IT_number 11
_symmetry_cell_setting 'monoclinic'
loop_
_space_group_symop_operation_xyz
x,y,z
-x,1/2+y,-z
-x,-y,-z
x,1/2-y,z
loop_
_atom_site_type_symbol
_atom_site_label
_atom_site_fract_x
_atom_site_fract_y
_atom_site_fract_z
Si Si1 0.965087 0.449927 0.301728
Si Si2 0.959716 0.044739 0.061227
Si Si3 0.868288 0.455311 0.513953
Si Si4 0.404201 0.955923 0.035557
Si Si5 0.394846 0.051456 0.778357
Si Si6 0.458320 0.549491 0.651500
Si Si7 0.820268 0.959808 0.753288
O O1 0.930037 0.250000 0.280432
O O2 0.072152 0.471116 0.399428
O O3 0.066792 0.513343 0.271588
O O4 0.792505 0.537026 0.259414
O O5 0.956350 0.250000 0.065612
O O6 0.095153 0.983861 0.153659
O O7 0.780335 0.981320 0.023544
O O8 0.000000 0.000000 0.000000
O O9 0.863073 0.250000 0.518048
O O10 0.694137 0.521547 0.435585
O O11 0.000000 0.500000 0.500000
O O12 0.400898 0.750000 0.038837
O O13 0.495899 0.018737 0.128860
O O14 0.500000 0.000000 0.000000
O O15 0.435793 0.250000 0.781800
O O16 0.422926 0.965611 0.717441
O O17 0.464140 0.750000 0.637274
O O18 0.635952 0.478242 0.691633
O O19 0.816018 0.750000 0.751682
#
# Coordination Sequence:
#
# PCOD9163537 Si02
#       7
#     4   4   4   4   4   4   4
#     4  11  22  38  61  85 114 154 193 235 289 343
#     4  10  20  37  59  83 114 150 190 236 284 339
#     4  11  22  37  59  87 118 149 191 237 283 340
#     4  10  22  37  55  83 115 149 190 238 286 337
#     4  11  22  36  56  84 116 148 191 241 285 335
#     4  10  21  38  60  84 111 148 192 233 280 342
#     4   9  20  38  59  84 114 150 192 234 282 342
#
# _framework density 21.047236999999999
#
# number of rings (size 3 to 8) (size 9 to 14) (size 15 to 20)
#    0.000    1.714    1.429    3.000    0.000    4.000 
#    0.000    2.857    0.000    0.000    0.000    0.000 
#    0.000    0.000    0.000    0.000    0.000    0.000 
#
# Total GULP energy -156514.231810 kJ/mol
# GULP energy per Si atom -5589.793993 kJ/mol
# Density = 2.099933 g / cm^3
# Si number density = 21.047237 Si / 1000 Ang^3
#
#
#
# Elastic Constant Matrix: (Units=GPa)
#
#
# Indices 1 2 3 4 5 6 
#
# 1 84.3963 -11.9645 -1.1350 0.0000 13.1570 0.0000
# 2 -11.9645 26.4621 -7.2649 0.0000 5.1775 0.0000
# 3 -1.1350 -7.2649 86.1403 0.0000 15.3450 0.0000
# 4 0.0000 0.0000 0.0000 11.8549 0.0000 0.9694
# 5 13.1570 5.1775 15.3450 0.0000 39.7174 0.0000
# 6 0.0000 0.0000 0.0000 0.9694 0.0000 5.7483
#
#
#
# Elastic Compliance Matrix: (Units=1/GPa)
#
#
# Indices 1 2 3 4 5 6 
#
# 1 0.014051 0.008185 0.002035 0.000000 -0.006508 0.000000
# 2 0.008185 0.045226 0.005859 0.000000 -0.010870 0.000000
# 3 0.002035 0.005859 0.013301 0.000000 -0.006577 0.000000
# 4 0.000000 0.000000 0.000000 0.085532 0.000000 -0.014424
# 5 -0.006508 -0.010870 -0.006577 0.000000 0.031292 0.000000
# 6 0.000000 0.000000 0.000000 -0.014424 0.000000 0.176395
#
#
# Mechanical properties :
#
#
# Convention : Reuss Voigt Hill
#
# Bulk Modulus (GPa) = 9.54794 17.36334 13.45564
# Shear Modulus (GPa) = 13.56657 25.95502 19.76079
#
# Velocity S-wave (km/s) = 2.54161 3.51548 3.06744
# Velocity P-wave (km/s) = 3.62757 4.97450 4.35345
#
# Compressibility (1/GPa) = 0.10473463
#
# Stress axis : x y z
#
# Youngs Moduli (GPa) = 71.16894 22.11126 75.17973
#
# Poissons Ratio (x) = -0.18098 -0.15297
# Poissons Ratio (y) = -0.58251 -0.44044
# Poissons Ratio (z) = -0.14481 -0.12954
#
# Static dielectric constant tensor:
#      x y z
#    x 1.731500 0.000000 0.032440 
#    y 0.000000 1.776320 0.000000 
#    z 0.032440 0.000000 1.750490 
# 
# From -- ./inp_files/28301.got.cif
#   From: 2010.05.17/outbox.cif.g08.bks.cpg/sg11_15_cif.got.tgz:28301.got - 2010.06.03 12:22:45.
