data_PCOD9163272
_publ_section_title
;
Structure prediction by ZEFSAII (Michael W. Deem and Ramdas Pophale) SiO2 
 PCOD9163272
Probable space group: P 21/M
;
_chemical_formula_sum "Si O2"
_cell_formula_units_Z 28
_cell_length_a 21.347795
_cell_length_b 9.259415
_cell_length_c 19.870844
_cell_angle_alpha 90.000000
_cell_angle_beta 21.430455
_cell_angle_gamma 90.000000
_cell_volume 1435.118308
_symmetry_space_group_name_H-M "P 21/M"
_symmetry_group_IT_number 11
_symmetry_cell_setting 'monoclinic'
loop_
_space_group_symop_operation_xyz
x,y,z
-x,1/2+y,-z
-x,-y,-z
x,1/2-y,z
loop_
_atom_site_type_symbol
_atom_site_label
_atom_site_fract_x
_atom_site_fract_y
_atom_site_fract_z
Si Si1 0.796873 0.414869 0.504045
Si Si2 0.695414 0.577699 0.153127
Si Si3 0.000198 0.924022 0.072368
Si Si4 0.695906 0.077692 0.455673
Si Si5 0.707070 0.086159 0.858490
Si Si6 0.796516 0.585136 0.902661
Si Si7 0.707346 0.586156 0.727192
O O1 0.744394 0.250000 0.572280
O O2 0.708720 0.457516 0.522325
O O3 0.757954 0.511950 0.606961
O O4 0.000162 0.416466 0.287792
O O5 0.736193 0.750000 0.118719
O O6 0.499701 0.555863 0.371691
O O7 0.832700 0.482935 0.055441
O O8 0.708497 0.542504 0.060585
O O9 0.000162 0.750000 0.067743
O O10 0.833316 0.982956 0.278700
O O11 0.000000 0.000000 0.000000
O O12 0.736704 0.250000 0.408542
O O13 0.769000 0.250000 0.794181
O O14 0.757455 0.011966 0.877749
O O15 0.769326 0.999989 0.730742
O O16 0.499868 0.087341 0.063044
O O17 0.744008 0.750000 0.939425
O O18 0.769272 0.750000 0.667666
#
# Coordination Sequence:
#
# PCOD9163272 Si02
#       7
#     4   4   4   4   4   4   4
#     4  10  20  36  60  87 118 156 200 249 303 365
#     4  10  21  41  69  97 128 167 211 258 310 371
#     4  12  26  44  68  96 133 170 207 256 306 368
#     4  10  21  41  69  97 128 167 211 258 310 371
#     4  10  21  36  54  78 111 152 201 255 309 366
#     4  10  20  36  60  87 118 156 200 249 303 365
#     4  10  21  36  54  78 111 152 201 255 309 366
#
# _framework density 19.510586
#
# number of rings (size 3 to 8) (size 9 to 14) (size 15 to 20)
#    0.000    1.714    1.429    3.000    0.000    6.286 
#    0.000    0.000    0.000    0.000    0.000    0.000 
#    0.000    0.000    0.000    0.000    0.000    0.000 
#
# Total GULP energy -156478.520210 kJ/mol
# GULP energy per Si atom -5588.518579 kJ/mol
# Density = 1.946618 g / cm^3
# Si number density = 19.510586 Si / 1000 Ang^3
#
#
#
# Elastic Constant Matrix: (Units=GPa)
#
#
# Indices 1 2 3 4 5 6 
#
# 1 138.5767 92.3103 37.8056 0.0000 -1.1707 0.0000
# 2 92.3103 139.1831 68.1775 0.0000 15.2631 0.0000
# 3 37.8056 68.1775 111.5682 0.0000 19.2568 0.0000
# 4 0.0000 0.0000 0.0000 26.4822 0.0000 5.8892
# 5 -1.1707 15.2631 19.2568 0.0000 39.4447 0.0000
# 6 0.0000 0.0000 0.0000 5.8892 0.0000 36.1648
#
#
#
# Elastic Compliance Matrix: (Units=1/GPa)
#
#
# Indices 1 2 3 4 5 6 
#
# 1 0.013555 -0.009757 0.000708 0.000000 0.003832 0.000000
# 2 -0.009757 0.017313 -0.006626 0.000000 -0.003754 0.000000
# 3 0.000708 -0.006626 0.013460 0.000000 -0.003986 0.000000
# 4 0.000000 0.000000 0.000000 0.039180 0.000000 -0.006380
# 5 0.003832 -0.003754 -0.003986 0.000000 0.028865 0.000000
# 6 0.000000 0.000000 0.000000 -0.006380 0.000000 0.028690
#
#
# Mechanical properties :
#
#
# Convention : Reuss Voigt Hill
#
# Bulk Modulus (GPa) = 77.05024 87.32389 82.18706
# Shear Modulus (GPa) = 28.29037 33.15399 30.72218
#
# Velocity S-wave (km/s) = 3.81202 4.12671 3.97248
# Velocity P-wave (km/s) = 7.67806 8.21953 7.95340
#
# Compressibility (1/GPa) = 0.01297855
#
# Stress axis : x y z
#
# Youngs Moduli (GPa) = 73.77382 57.76001 74.29349
#
# Poissons Ratio (x) = 0.56356 -0.05258
# Poissons Ratio (y) = 0.71981 0.49223
# Poissons Ratio (z) = -0.05221 0.38269
#
# Static dielectric constant tensor:
#      x y z
#    x 1.658620 0.000000 -0.020750 
#    y 0.000000 1.664800 0.000000 
#    z -0.020750 0.000000 1.692380 
# 
# From -- ./inp_files/66691.got.cif
#   From: 2010.05.17/outbox.cif.g08.bks.cpg/sg11_34_cif.got.tgz:66691.got - 2010.06.03 12:22:45.
