data_PCOD9163436
_publ_section_title
;
Structure prediction by ZEFSAII (Michael W. Deem and Ramdas Pophale) SiO2 
 PCOD9163436
Probable space group: P 21/M
;
_chemical_formula_sum "Si O2"
_cell_formula_units_Z 32
_cell_length_a 12.808593
_cell_length_b 21.966100
_cell_length_c 7.665461
_cell_angle_alpha 90.000000
_cell_angle_beta 137.651994
_cell_angle_gamma 90.000000
_cell_volume 1452.831882
_symmetry_space_group_name_H-M "P 21/M"
_symmetry_group_IT_number 11
_symmetry_cell_setting 'monoclinic'
loop_
_space_group_symop_operation_xyz
x,y,z
-x,1/2+y,-z
-x,-y,-z
x,1/2-y,z
loop_
_atom_site_type_symbol
_atom_site_label
_atom_site_fract_x
_atom_site_fract_y
_atom_site_fract_z
Si Si1 0.844239 0.182717 0.382550
Si Si2 0.081194 0.184445 0.969553
Si Si3 0.384734 0.184620 0.102645
Si Si4 0.110429 0.444774 0.193948
Si Si5 0.044618 0.069024 0.515676
Si Si6 0.485982 0.316277 0.846277
Si Si7 0.617341 0.559598 0.957698
Si Si8 0.555090 0.944613 0.299960
O O1 0.886029 0.250000 0.356583
O O2 0.659284 0.178272 0.140011
O O3 0.918362 0.184064 0.665756
O O4 0.922228 0.122196 0.400765
O O5 0.090594 0.250000 0.079898
O O6 0.223180 0.187177 0.006383
O O7 0.092170 0.119890 0.077081
O O8 0.464942 0.250000 0.238198
O O9 0.371818 0.182793 0.873639
O O10 0.461401 0.118456 0.229339
O O11 0.081081 0.429468 0.358347
O O12 0.289400 0.465242 0.412302
O O13 0.000000 0.500000 0.000000
O O14 0.201592 0.074832 0.820548
O O15 0.000000 0.000000 0.500000
O O16 0.470367 0.250000 0.742038
O O17 0.466210 0.372910 0.693473
O O18 0.574217 0.555883 0.110802
O O19 0.575766 0.494473 0.826815
#
# Coordination Sequence:
#
# PCOD9163436 Si02
#       8
#     4   4   4   4   4   4   4   4
#     4  10  20  36  64  95 121 154 201 256 304 358
#     4  10  21  39  62  90 124 160 198 243 304 375
#     4   9  17  32  57  85 113 149 195 244 293 357
#     4  11  25  40  58  89 126 166 203 249 309 374
#     4  11  21  35  61  86 117 157 204 256 298 352
#     4   9  18  34  61  92 119 150 201 259 306 349
#     4   9  17  31  56  83 110 145 196 254 298 341
#     4   9  19  35  54  83 116 152 197 252 307 350
#
# _framework density 22.025949000000001
#
# number of rings (size 3 to 8) (size 9 to 14) (size 15 to 20)
#    0.000    2.250    1.250    1.500    0.000    5.000 
#    0.000    1.875    5.500    0.000    0.000    0.000 
#    0.000    0.000    0.000    0.000    0.000    0.000 
#
# Total GULP energy -178246.501258 kJ/mol
# GULP energy per Si atom -5570.203164 kJ/mol
# Density = 2.197582 g / cm^3
# Si number density = 22.025949 Si / 1000 Ang^3
#
#
#
# Elastic Constant Matrix: (Units=GPa)
#
#
# Indices 1 2 3 4 5 6 
#
# 1 44.6634 47.5766 23.2489 0.0000 2.8330 0.0000
# 2 47.5766 233.1175 46.3219 0.0000 6.7901 0.0000
# 3 23.2489 46.3219 68.6885 0.0000 9.3924 0.0000
# 4 0.0000 0.0000 0.0000 26.4086 0.0000 6.4978
# 5 2.8330 6.7901 9.3924 0.0000 16.7234 0.0000
# 6 0.0000 0.0000 0.0000 6.4978 0.0000 30.1810
#
#
#
# Elastic Compliance Matrix: (Units=1/GPa)
#
#
# Indices 1 2 3 4 5 6 
#
# 1 0.031503 -0.004980 -0.007421 0.000000 0.000853 0.000000
# 2 -0.004980 0.005741 -0.002148 0.000000 -0.000281 0.000000
# 3 -0.007421 -0.002148 0.019744 0.000000 -0.008960 0.000000
# 4 0.000000 0.000000 0.000000 0.039985 0.000000 -0.008608
# 5 0.000853 -0.000281 -0.008960 0.000000 0.064798 0.000000
# 6 0.000000 0.000000 0.000000 -0.008608 0.000000 0.034987
#
#
# Mechanical properties :
#
#
# Convention : Reuss Voigt Hill
#
# Bulk Modulus (GPa) = 35.85433 64.52934 50.19183
# Shear Modulus (GPa) = 21.26293 29.95074 25.60683
#
# Velocity S-wave (km/s) = 3.11039 3.69154 3.41336
# Velocity P-wave (km/s) = 5.40490 6.89424 6.19449
#
# Compressibility (1/GPa) = 0.02789064
#
# Stress axis : x y z
#
# Youngs Moduli (GPa) = 31.74292 174.18874 50.64875
#
# Poissons Ratio (x) = 0.86739 0.37588
# Poissons Ratio (y) = 0.15807 0.10878
# Poissons Ratio (z) = 0.23558 0.37409
#
# Static dielectric constant tensor:
#      x y z
#    x 1.808260 0.000000 0.019660 
#    y 0.000000 1.930250 0.000000 
#    z 0.019660 0.000000 1.797520 
# 
# From -- ./inp_files/23128.got.cif
#   From: 2010.05.17/outbox.cif.g08.bks.cpg/sg11_12_cif.got.tgz:23128.got - 2010.06.03 12:22:45.
