data_PCOD9163299
_publ_section_title
;
Structure prediction by ZEFSAII (Michael W. Deem and Ramdas Pophale) SiO2 
 PCOD9163299
Probable space group: P 21/M
;
_chemical_formula_sum "Si O2"
_cell_formula_units_Z 28
_cell_length_a 11.781683
_cell_length_b 9.367984
_cell_length_c 12.396514
_cell_angle_alpha 90.000000
_cell_angle_beta 109.392496
_cell_angle_gamma 90.000000
_cell_volume 1290.587041
_symmetry_space_group_name_H-M "P 21/M"
_symmetry_group_IT_number 11
_symmetry_cell_setting 'monoclinic'
loop_
_space_group_symop_operation_xyz
x,y,z
-x,1/2+y,-z
-x,-y,-z
x,1/2-y,z
loop_
_atom_site_type_symbol
_atom_site_label
_atom_site_fract_x
_atom_site_fract_y
_atom_site_fract_z
Si Si1 0.311716 0.084182 0.472924
Si Si2 0.498266 0.583483 0.663281
Si Si3 0.118978 0.091071 0.039234
Si Si4 0.028895 0.077871 0.395652
Si Si5 0.614887 0.089953 0.072392
Si Si6 0.671448 0.407848 0.845508
Si Si7 0.170807 0.412463 0.800753
O O1 0.323063 0.250000 0.511292
O O2 0.395957 0.068303 0.393857
O O3 0.170394 0.054906 0.413592
O O4 0.375169 0.980024 0.578248
O O5 0.488196 0.750000 0.684702
O O6 0.549408 0.487479 0.775452
O O7 0.098913 0.250000 0.075132
O O8 0.156994 0.102154 0.925744
O O9 0.217805 0.011725 0.142659
O O10 0.000000 0.000000 0.000000
O O11 0.008792 0.250000 0.394245
O O12 0.000000 0.000000 0.500000
O O13 0.939581 0.002213 0.282521
O O14 0.586495 0.250000 0.102882
O O15 0.705987 0.001300 0.175681
O O16 0.678404 0.108898 0.976113
O O17 0.500000 0.000000 0.000000
O O18 0.678179 0.250000 0.797721
O O19 0.175583 0.250000 0.757892
#
# Coordination Sequence:
#
# PCOD9163299 Si02
#       7
#     4   4   4   4   4   4   4
#     4   9  21  40  59  83 115 153 194 245 302 355
#     4  10  20  36  60  89 116 150 194 244 299 358
#     4  10  21  36  56  85 118 152 190 233 284 348
#     4  11  24  42  63  87 119 159 205 253 304 361
#     4  10  21  38  60  85 116 155 196 240 293 349
#     4  10  21  36  55  83 116 150 188 234 287 346
#     4  10  22  40  60  86 118 153 197 244 292 349
#
# _framework density 21.695554000000001
#
# number of rings (size 3 to 8) (size 9 to 14) (size 15 to 20)
#    0.000    2.000    0.000    2.571    2.000    6.286 
#    0.000    1.429    0.000    0.000    0.000    0.000 
#    0.000    0.000    0.000    0.000    0.000    0.000 
#
# Total GULP energy -156327.307472 kJ/mol
# GULP energy per Si atom -5583.118124 kJ/mol
# Density = 2.164617 g / cm^3
# Si number density = 21.695554 Si / 1000 Ang^3
#
#
#
# Elastic Constant Matrix: (Units=GPa)
#
#
# Indices 1 2 3 4 5 6 
#
# 1 83.7336 62.6636 29.8729 0.0000 36.5956 0.0000
# 2 62.6636 204.6904 71.9564 0.0000 45.4843 0.0000
# 3 29.8729 71.9564 98.6655 0.0000 34.9954 0.0000
# 4 0.0000 0.0000 0.0000 34.7239 0.0000 9.8011
# 5 36.5956 45.4843 34.9954 0.0000 50.5618 0.0000
# 6 0.0000 0.0000 0.0000 9.8011 0.0000 28.8346
#
#
#
# Elastic Compliance Matrix: (Units=1/GPa)
#
#
# Indices 1 2 3 4 5 6 
#
# 1 0.019334 -0.003719 0.000842 0.000000 -0.011231 0.000000
# 2 -0.003719 0.007769 -0.003997 0.000000 -0.001531 0.000000
# 3 0.000842 -0.003997 0.015555 0.000000 -0.007780 0.000000
# 4 0.000000 0.000000 0.000000 0.031855 0.000000 -0.010828
# 5 -0.011231 -0.001531 -0.007780 0.000000 0.034668 0.000000
# 6 0.000000 0.000000 0.000000 -0.010828 0.000000 0.038361
#
#
# Mechanical properties :
#
#
# Convention : Reuss Voigt Hill
#
# Bulk Modulus (GPa) = 34.59104 79.56394 57.07749
# Shear Modulus (GPa) = 29.25233 37.66384 33.45808
#
# Velocity S-wave (km/s) = 3.67592 4.17107 3.93130
# Velocity P-wave (km/s) = 5.83052 7.74272 6.85363
#
# Compressibility (1/GPa) = 0.02890922
#
# Stress axis : x y z
#
# Youngs Moduli (GPa) = 51.72248 128.71128 64.28900
#
# Poissons Ratio (x) = 0.47872 -0.05414
# Poissons Ratio (y) = 0.19237 0.25697
# Poissons Ratio (z) = -0.04356 0.51448
#
# Static dielectric constant tensor:
#      x y z
#    x 1.830980 0.000000 -0.064240 
#    y 0.000000 1.819740 0.000000 
#    z -0.064240 0.000000 1.815060 
# 
# From -- ./inp_files/49449.got.cif
#   From: 2010.05.17/outbox.cif.g08.bks.cpg/sg11_25_cif.got.tgz:49449.got - 2010.06.03 12:22:45.
