data_PCOD9163971
_publ_section_title
;
Structure prediction by ZEFSAII (Michael W. Deem and Ramdas Pophale) SiO2 
 PCOD9163971
Probable space group: P 21/M
;
_chemical_formula_sum "Si O2"
_cell_formula_units_Z 24
_cell_length_a 8.626138
_cell_length_b 10.304891
_cell_length_c 14.158803
_cell_angle_alpha 90.000000
_cell_angle_beta 113.406810
_cell_angle_gamma 90.000000
_cell_volume 1155.022872
_symmetry_space_group_name_H-M "P 21/M"
_symmetry_group_IT_number 11
_symmetry_cell_setting 'monoclinic'
loop_
_space_group_symop_operation_xyz
x,y,z
-x,1/2+y,-z
-x,-y,-z
x,1/2-y,z
loop_
_atom_site_type_symbol
_atom_site_label
_atom_site_fract_x
_atom_site_fract_y
_atom_site_fract_z
Si Si1 0.804390 0.394051 0.217617
Si Si2 0.622538 0.894580 0.654997
Si Si3 0.598793 0.599984 0.872593
Si Si4 0.889320 0.613662 0.385308
Si Si5 0.137377 0.905586 0.984463
Si Si6 0.740525 0.464347 0.506255
O O1 0.843235 0.250000 0.263079
O O2 0.601575 0.403524 0.158701
O O3 0.862830 0.498818 0.306030
O O4 0.884574 0.409492 0.133848
O O5 0.690935 0.750000 0.655213
O O6 0.630751 0.920266 0.768317
O O7 0.426437 0.898050 0.574895
O O8 0.711993 0.996055 0.607660
O O9 0.655406 0.750000 0.909086
O O10 0.690523 0.482881 0.948640
O O11 0.845628 0.750000 0.329164
O O12 0.773508 0.589231 0.448349
O O13 0.085082 0.611365 0.461944
O O14 0.135257 0.750000 0.010110
O O15 0.000000 0.000000 0.000000
#
# Coordination Sequence:
#
# PCOD9163971 Si02
#       6
#     4   4   4   4   4   4
#     4  10  23  43  66  90 123 164 206 249 309 372
#     4  10  20  38  62  87 122 167 207 248 304 364
#     4  10  21  41  67  93 121 162 205 250 305 366
#     4  11  23  38  61  93 127 165 209 255 302 357
#     4  11  25  44  66  95 125 159 199 254 312 370
#     4  10  22  38  57  90 128 165 208 252 305 356
#
# _framework density 20.778808999999999
#
# number of rings (size 3 to 8) (size 9 to 14) (size 15 to 20)
#    0.000    1.667    1.667    2.000    2.333    5.333 
#    0.000    0.833    0.000    0.000    0.000    0.000 
#    0.000    0.000    0.000    0.000    0.000    0.000 
#
# Total GULP energy -133983.002226 kJ/mol
# GULP energy per Si atom -5582.625093 kJ/mol
# Density = 2.073152 g / cm^3
# Si number density = 20.778809 Si / 1000 Ang^3
#
#
#
# Elastic Constant Matrix: (Units=GPa)
#
#
# Indices 1 2 3 4 5 6 
#
# 1 62.5783 24.3852 1.7378 0.0000 -11.2291 0.0000
# 2 24.3852 148.7646 43.4374 0.0000 -8.4571 0.0000
# 3 1.7378 43.4374 51.2192 0.0000 -17.2052 0.0000
# 4 0.0000 0.0000 0.0000 21.5765 0.0000 -2.9488
# 5 -11.2291 -8.4571 -17.2052 0.0000 27.8375 0.0000
# 6 0.0000 0.0000 0.0000 -2.9488 0.0000 8.5800
#
#
#
# Elastic Compliance Matrix: (Units=1/GPa)
#
#
# Indices 1 2 3 4 5 6 
#
# 1 0.019490 -0.004575 0.006805 0.000000 0.010678 0.000000
# 2 -0.004575 0.010147 -0.010139 0.000000 -0.005029 0.000000
# 3 0.006805 -0.010139 0.035058 0.000000 0.021333 0.000000
# 4 0.000000 0.000000 0.000000 0.048631 0.000000 0.016713
# 5 0.010678 -0.005029 0.021333 0.000000 0.051887 0.000000
# 6 0.000000 0.000000 0.000000 0.016713 0.000000 0.122294
#
#
# Mechanical properties :
#
#
# Convention : Reuss Voigt Hill
#
# Bulk Modulus (GPa) = 20.45959 44.63143 32.54551
# Shear Modulus (GPa) = 15.64380 24.46559 20.05469
#
# Velocity S-wave (km/s) = 2.74683 3.43509 3.11006
# Velocity P-wave (km/s) = 4.46406 6.10402 5.34729
#
# Compressibility (1/GPa) = 0.04887684
#
# Stress axis : x y z
#
# Youngs Moduli (GPa) = 51.30893 98.55594 28.52439
#
# Poissons Ratio (x) = 0.45087 -0.19412
# Poissons Ratio (y) = 0.23473 0.28921
# Poissons Ratio (z) = -0.34918 0.99928
#
# Static dielectric constant tensor:
#      x y z
#    x 1.772700 0.000000 0.020900 
#    y 0.000000 1.765340 0.000000 
#    z 0.020900 0.000000 1.710390 
# 
# From -- ./inp_files/46825.got.cif
#   From: 2010.05.17/outbox.cif.g08.bks.cpg/sg11_24_cif.got.tgz:46825.got - 2010.06.03 12:22:45.
