data_PCOD9163966
_publ_section_title
;
Structure prediction by ZEFSAII (Michael W. Deem and Ramdas Pophale) SiO2 
 PCOD9163966
Probable space group: P 21/M
;
_chemical_formula_sum "Si O2"
_cell_formula_units_Z 24
_cell_length_a 15.811079
_cell_length_b 8.783691
_cell_length_c 9.343376
_cell_angle_alpha 90.000000
_cell_angle_beta 90.087013
_cell_angle_gamma 90.000000
_cell_volume 1297.603127
_symmetry_space_group_name_H-M "P 21/M"
_symmetry_group_IT_number 11
_symmetry_cell_setting 'monoclinic'
loop_
_space_group_symop_operation_xyz
x,y,z
-x,1/2+y,-z
-x,-y,-z
x,1/2-y,z
loop_
_atom_site_type_symbol
_atom_site_label
_atom_site_fract_x
_atom_site_fract_y
_atom_site_fract_z
Si Si1 0.576652 0.066248 0.092952
Si Si2 0.262194 0.932966 0.421276
Si Si3 0.421355 0.067449 0.588401
Si Si4 0.080876 0.431415 0.421381
Si Si5 0.921104 0.929728 0.918111
Si Si6 0.257673 0.932357 0.086378
O O1 0.571083 0.250000 0.099804
O O2 0.574893 0.996664 0.250897
O O3 0.663740 0.024645 0.012335
O O4 0.500000 0.000000 0.000000
O O5 0.267613 0.750000 0.433947
O O6 0.273029 0.975002 0.252936
O O7 0.335368 0.010641 0.513172
O O8 0.169082 0.990059 0.465605
O O9 0.425620 0.250000 0.589141
O O10 0.500000 0.000000 0.500000
O O11 0.086191 0.250000 0.444504
O O12 0.070934 0.459803 0.251567
O O13 0.000000 0.500000 0.500000
O O14 0.920295 0.750000 0.940376
O O15 0.830800 0.997314 0.963209
O O16 0.000000 0.000000 0.000000
O O17 0.249576 0.750000 0.083385
#
# Coordination Sequence:
#
# PCOD9163966 Si02
#       6
#     4   4   4   4   4   4
#     4  11  23  40  62  89 120 154 192 238 288 344
#     4  10  20  38  62  87 115 150 191 239 292 347
#     4  12  25  41  61  87 118 154 195 240 290 347
#     4  10  21  37  57  84 115 152 194 238 288 343
#     4  10  21  36  57  83 113 148 189 234 283 337
#     4   9  20  38  60  84 113 148 188 233 285 340
#
# _framework density 18.495638
#
# number of rings (size 3 to 8) (size 9 to 14) (size 15 to 20)
#    0.000    1.667    0.000    4.500    0.000    6.667 
#    0.000    1.667    0.000    0.000    0.000    0.000 
#    0.000    0.000    0.000    0.000    0.000    0.000 
#
# Total GULP energy -134154.559034 kJ/mol
# GULP energy per Si atom -5589.773293 kJ/mol
# Density = 1.845354 g / cm^3
# Si number density = 18.495638 Si / 1000 Ang^3
#
#
#
# Elastic Constant Matrix: (Units=GPa)
#
#
# Indices 1 2 3 4 5 6 
#
# 1 215.9018 89.0146 113.3424 0.0000 0.1225 0.0000
# 2 89.0146 87.5074 65.5070 0.0000 -0.2031 0.0000
# 3 113.3424 65.5070 113.7089 0.0000 0.3546 0.0000
# 4 0.0000 0.0000 0.0000 32.0444 0.0000 3.2262
# 5 0.1225 -0.2031 0.3546 0.0000 42.1673 0.0000
# 6 0.0000 0.0000 0.0000 3.2262 0.0000 41.6291
#
#
#
# Elastic Compliance Matrix: (Units=1/GPa)
#
#
# Indices 1 2 3 4 5 6 
#
# 1 0.010915 -0.005202 -0.007883 0.000000 0.000010 0.000000
# 2 -0.005202 0.022573 -0.007820 0.000000 0.000190 0.000000
# 3 -0.007883 -0.007820 0.021158 0.000000 -0.000193 0.000000
# 4 0.000000 0.000000 0.000000 0.031452 0.000000 -0.002437
# 5 0.000010 0.000190 -0.000193 0.000000 0.023718 0.000000
# 6 0.000000 0.000000 0.000000 -0.002437 0.000000 0.024211
#
#
# Mechanical properties :
#
#
# Convention : Reuss Voigt Hill
#
# Bulk Modulus (GPa) = 77.90390 105.87180 91.88785
# Shear Modulus (GPa) = 27.76033 33.11844 30.43939
#
# Velocity S-wave (km/s) = 3.87836 4.23615 4.06120
# Velocity P-wave (km/s) = 7.89096 9.01623 8.47229
#
# Compressibility (1/GPa) = 0.01283633
#
# Stress axis : x y z
#
# Youngs Moduli (GPa) = 91.62107 44.30032 47.26449
#
# Poissons Ratio (x) = 0.23043 0.37258
# Poissons Ratio (y) = 0.47657 0.36962
# Poissons Ratio (z) = 0.72223 0.34644
#
# Static dielectric constant tensor:
#      x y z
#    x 1.613170 0.000000 0.000450 
#    y 0.000000 1.618100 0.000000 
#    z 0.000450 0.000000 1.625760 
# 
# From -- ./inp_files/20554.got.cif
#   From: 2010.05.17/outbox.cif.g08.bks.cpg/sg11_11_cif.got.tgz:20554.got - 2010.06.03 12:22:45.
