data_PCOD9163142
_publ_section_title
;
Structure prediction by ZEFSAII (Michael W. Deem and Ramdas Pophale) SiO2 
 PCOD9163142
Probable space group: P 21/M
;
_chemical_formula_sum "Si O2"
_cell_formula_units_Z 32
_cell_length_a 14.541677
_cell_length_b 8.312541
_cell_length_c 29.554966
_cell_angle_alpha 90.000000
_cell_angle_beta 150.797843
_cell_angle_gamma 90.000000
_cell_volume 1743.022204
_symmetry_space_group_name_H-M "P 21/M"
_symmetry_group_IT_number 11
_symmetry_cell_setting 'monoclinic'
loop_
_space_group_symop_operation_xyz
x,y,z
-x,1/2+y,-z
-x,-y,-z
x,1/2-y,z
loop_
_atom_site_type_symbol
_atom_site_label
_atom_site_fract_x
_atom_site_fract_y
_atom_site_fract_z
Si Si1 0.681102 0.058592 0.747768
Si Si2 0.981926 0.442277 0.044714
Si Si3 0.942907 0.572948 0.428107
Si Si4 0.564303 0.056390 0.861064
Si Si5 0.792992 0.558412 0.604208
Si Si6 0.432019 0.930631 0.716255
Si Si7 0.858244 0.556272 0.296700
Si Si8 0.411587 0.555716 0.393977
O O1 0.644791 0.250000 0.734975
O O2 0.665814 0.010442 0.688678
O O3 0.522010 0.963078 0.706933
O O4 0.870650 0.021374 0.857259
O O5 0.013996 0.250000 0.058622
O O6 0.767976 0.474101 0.970263
O O7 0.000000 0.500000 0.000000
O O8 0.025394 0.750000 0.460716
O O9 0.718431 0.567764 0.337425
O O10 0.959235 0.490570 0.386222
O O11 0.000000 0.500000 0.500000
O O12 0.557819 0.250000 0.850551
O O13 0.364033 0.008821 0.798564
O O14 0.574918 0.958754 0.818577
O O15 0.802432 0.750000 0.605318
O O16 0.626729 0.502332 0.498036
O O17 0.718331 0.508764 0.621429
O O18 0.999783 0.491752 0.681701
O O19 0.353240 0.750000 0.685299
O O20 0.857117 0.750000 0.299791
O O21 0.410963 0.750000 0.396003
#
# Coordination Sequence:
#
# PCOD9163142 Si02
#       8
#     4   4   4   4   4   4   4   4
#     4  11  22  36  54  78 110 147 183 226 276 328
#     4  11  21  34  55  81 110 147 187 228 276 325
#     4  10  21  35  49  71 105 144 183 223 267 319
#     4   9  19  36  54  74 107 146 183 222 266 320
#     4  10  20  36  59  85 107 136 178 228 275 323
#     4  11  21  32  49  74 105 143 185 223 265 317
#     4   9  19  35  54  76 103 141 179 216 268 326
#     4   9  21  39  57  79 108 144 179 220 277 332
#
# _framework density 18.358917999999999
#
# number of rings (size 3 to 8) (size 9 to 14) (size 15 to 20)
#    0.000    2.000    1.250    3.375    1.750    4.500 
#    0.000    0.000    0.000    0.750    0.000    0.000 
#    0.000    0.000    0.000    0.000    0.000    0.000 
#
# Total GULP energy -178149.238853 kJ/mol
# GULP energy per Si atom -5567.163714 kJ/mol
# Density = 1.831713 g / cm^3
# Si number density = 18.358918 Si / 1000 Ang^3
#
#
#
# Elastic Constant Matrix: (Units=GPa)
#
#
# Indices 1 2 3 4 5 6 
#
# 1 100.1458 9.7100 34.0141 0.0000 6.9203 0.0000
# 2 9.7100 32.2063 3.4814 0.0000 -3.5510 0.0000
# 3 34.0141 3.4814 54.4413 0.0000 -9.6414 0.0000
# 4 0.0000 0.0000 0.0000 24.7947 0.0000 -1.2951
# 5 6.9203 -3.5510 -9.6414 0.0000 22.4412 0.0000
# 6 0.0000 0.0000 0.0000 -1.2951 0.0000 23.3868
#
#
#
# Elastic Compliance Matrix: (Units=1/GPa)
#
#
# Indices 1 2 3 4 5 6 
#
# 1 0.014699 -0.004361 -0.010639 0.000000 -0.009794 0.000000
# 2 -0.004361 0.032971 0.001925 0.000000 0.007389 0.000000
# 3 -0.010639 0.001925 0.027630 0.000000 0.015456 0.000000
# 4 0.000000 0.000000 0.000000 0.040448 0.000000 0.002240
# 5 -0.009794 0.007389 0.015456 0.000000 0.055391 0.000000
# 6 0.000000 0.000000 0.000000 0.002240 0.000000 0.042883
#
#
# Mechanical properties :
#
#
# Convention : Reuss Voigt Hill
#
# Bulk Modulus (GPa) = 20.34624 31.24492 25.79558
# Shear Modulus (GPa) = 19.48901 23.43040 21.45970
#
# Velocity S-wave (km/s) = 3.26169 3.57633 3.42262
# Velocity P-wave (km/s) = 5.02905 5.84032 5.44980
#
# Compressibility (1/GPa) = 0.04914914
#
# Stress axis : x y z
#
# Youngs Moduli (GPa) = 68.03399 30.32930 36.19316
#
# Poissons Ratio (x) = 0.13228 0.38506
# Poissons Ratio (y) = 0.29672 -0.06968
# Poissons Ratio (z) = 0.72381 -0.05839
#
# Static dielectric constant tensor:
#      x y z
#    x 1.634490 0.000000 -0.001760 
#    y 0.000000 1.684200 0.000000 
#    z -0.001760 0.000000 1.822910 
# 
# From -- ./inp_files/71634.got.cif
#   From: 2010.05.17/outbox.cif.g08.bks.cpg/sg11_36_cif.got.tgz:71634.got - 2010.06.03 12:22:45.
