data_PCOD9163991
_publ_section_title
;
Structure prediction by ZEFSAII (Michael W. Deem and Ramdas Pophale) SiO2 
 PCOD9163991
Probable space group: P 21/M
;
_chemical_formula_sum "Si O2"
_cell_formula_units_Z 32
_cell_length_a 5.293698
_cell_length_b 17.226024
_cell_length_c 14.631092
_cell_angle_alpha 90.000000
_cell_angle_beta 99.947197
_cell_angle_gamma 90.000000
_cell_volume 1314.143504
_symmetry_space_group_name_H-M "P 21/M"
_symmetry_group_IT_number 11
_symmetry_cell_setting 'monoclinic'
loop_
_space_group_symop_operation_xyz
x,y,z
-x,1/2+y,-z
-x,-y,-z
x,1/2-y,z
loop_
_atom_site_type_symbol
_atom_site_label
_atom_site_fract_x
_atom_site_fract_y
_atom_site_fract_z
Si Si1 0.448072 0.158283 0.100122
Si Si2 0.761287 0.657577 0.595611
Si Si3 0.569607 0.430151 0.939466
Si Si4 0.223797 0.060405 0.758881
Si Si5 0.083510 0.665180 0.136502
Si Si6 0.008253 0.401141 0.203626
Si Si7 0.786262 0.343961 0.501715
Si Si8 0.469520 0.662887 0.327696
O O1 0.420657 0.250000 0.115229
O O2 0.728957 0.130716 0.154706
O O3 0.216856 0.113902 0.137309
O O4 0.449993 0.140676 0.991229
O O5 0.740179 0.750000 0.581662
O O6 0.881898 0.642982 0.701540
O O7 0.959971 0.626300 0.532178
O O8 0.472140 0.627179 0.565289
O O9 0.464302 0.461070 0.836904
O O10 0.852794 0.399942 0.934157
O O11 0.500000 0.500000 0.000000
O O12 0.325377 0.094082 0.670458
O O13 0.127527 0.136083 0.807238
O O14 0.030681 0.989737 0.762415
O O15 0.042904 0.750000 0.094284
O O16 0.325939 0.669340 0.221553
O O17 0.797615 0.250000 0.493537
O O18 0.732178 0.357703 0.605441
O O19 0.575213 0.750000 0.355138
#
# Coordination Sequence:
#
# PCOD9163991 Si02
#       8
#     4   4   4   4   4   4   4   4
#     4  12  26  44  69  97 128 172 224 274 319 382
#     4  10  20  38  62  91 124 165 215 268 318 377
#     4  11  23  43  62  92 130 169 217 267 326 386
#     4  11  24  40  65  91 132 174 212 266 332 394
#     4  10  22  39  64  93 128 169 218 272 323 387
#     4  12  26  44  67  95 135 174 217 267 330 388
#     4   9  19  36  64  94 124 163 213 267 319 377
#     4   9  20  39  63  95 127 167 218 267 321 389
#
# _framework density 24.350460000000002
#
# number of rings (size 3 to 8) (size 9 to 14) (size 15 to 20)
#    0.000    1.500    1.250    3.375    5.250    3.500 
#    0.000    1.250    0.000    0.000    0.000    0.000 
#    0.000    0.000    0.000    0.000    0.000    0.000 
#
# Total GULP energy -178659.867739 kJ/mol
# GULP energy per Si atom -5583.120867 kJ/mol
# Density = 2.429504 g / cm^3
# Si number density = 24.350460 Si / 1000 Ang^3
#
#
#
# Elastic Constant Matrix: (Units=GPa)
#
#
# Indices 1 2 3 4 5 6 
#
# 1 84.5201 5.2394 16.3986 0.0000 -0.6646 0.0000
# 2 5.2394 48.8237 -13.6107 0.0000 9.8665 0.0000
# 3 16.3986 -13.6107 75.6321 0.0000 4.7289 0.0000
# 4 0.0000 0.0000 0.0000 19.9346 0.0000 -8.8376
# 5 -0.6646 9.8665 4.7289 0.0000 34.0771 0.0000
# 6 0.0000 0.0000 0.0000 -8.8376 0.0000 22.2903
#
#
#
# Elastic Compliance Matrix: (Units=1/GPa)
#
#
# Indices 1 2 3 4 5 6 
#
# 1 0.012641 -0.002567 -0.003293 0.000000 0.001447 0.000000
# 2 -0.002567 0.023791 0.005318 0.000000 -0.007676 0.000000
# 3 -0.003293 0.005318 0.015124 0.000000 -0.003703 0.000000
# 4 0.000000 0.000000 0.000000 0.060862 0.000000 0.024130
# 5 0.001447 -0.007676 -0.003703 0.000000 0.032110 0.000000
# 6 0.000000 0.000000 0.000000 0.024130 0.000000 0.054430
#
#
# Mechanical properties :
#
#
# Convention : Reuss Voigt Hill
#
# Bulk Modulus (GPa) = 19.81295 25.00340 22.40817
# Shear Modulus (GPa) = 23.05568 28.65698 25.85633
#
# Velocity S-wave (km/s) = 3.08039 3.43425 3.26213
# Velocity P-wave (km/s) = 4.56136 5.10058 4.83849
#
# Compressibility (1/GPa) = 0.05047205
#
# Stress axis : x y z
#
# Youngs Moduli (GPa) = 79.10786 42.03254 66.11801
#
# Poissons Ratio (x) = 0.10790 0.21774
# Poissons Ratio (y) = 0.20307 -0.35161
# Poissons Ratio (z) = 0.26052 -0.22353
#
# Static dielectric constant tensor:
#      x y z
#    x 2.031440 0.000000 0.088640 
#    y 0.000000 1.966560 0.000000 
#    z 0.088640 0.000000 2.006730 
# 
# From -- ./inp_files/46046.got.cif
#   From: 2010.05.17/outbox.cif.g08.bks.cpg/sg11_24_cif.got.tgz:46046.got - 2010.06.03 12:22:45.
