data_PCOD9163610
_publ_section_title
;
Structure prediction by ZEFSAII (Michael W. Deem and Ramdas Pophale) SiO2 
 PCOD9163610
Probable space group: P 21/M
;
_chemical_formula_sum "Si O2"
_cell_formula_units_Z 32
_cell_length_a 15.170155
_cell_length_b 7.703821
_cell_length_c 23.360101
_cell_angle_alpha 90.000000
_cell_angle_beta 28.414464
_cell_angle_gamma 90.000000
_cell_volume 1299.085019
_symmetry_space_group_name_H-M "P 21/M"
_symmetry_group_IT_number 11
_symmetry_cell_setting 'monoclinic'
loop_
_space_group_symop_operation_xyz
x,y,z
-x,1/2+y,-z
-x,-y,-z
x,1/2-y,z
loop_
_atom_site_type_symbol
_atom_site_label
_atom_site_fract_x
_atom_site_fract_y
_atom_site_fract_z
Si Si1 0.523834 0.546041 0.288790
Si Si2 0.191280 0.544955 0.785495
Si Si3 0.197657 0.039880 0.967160
Si Si4 0.287343 0.544625 0.047608
Si Si5 0.004316 0.448904 0.306056
Si Si6 0.712023 0.459733 0.390976
Si Si7 0.212462 0.044698 0.389914
Si Si8 0.684656 0.536639 0.791171
O O1 0.551073 0.750000 0.276219
O O2 0.611540 0.479488 0.297229
O O3 0.656014 0.471757 0.162734
O O4 0.313429 0.517206 0.389591
O O5 0.164085 0.750000 0.795325
O O6 0.188026 0.471919 0.723366
O O7 0.014550 0.479721 0.921994
O O8 0.207785 0.250000 0.959094
O O9 0.241417 0.984985 0.007031
O O10 0.276861 0.750000 0.065897
O O11 0.146686 0.451383 0.170726
O O12 0.500885 0.483425 0.929908
O O13 0.965238 0.250000 0.345287
O O14 0.126373 0.526849 0.287266
O O15 0.815903 0.527379 0.388122
O O16 0.500000 0.500000 0.500000
O O17 0.729480 0.250000 0.383569
O O18 0.228486 0.250000 0.381292
O O19 0.319770 0.977623 0.272082
O O20 0.000000 0.000000 0.500000
O O21 0.685798 0.750000 0.791040
#
# Coordination Sequence:
#
# PCOD9163610 Si02
#       8
#     4   4   4   4   4   4   4   4
#     4  11  23  38  61  92 118 154 199 242 296 354
#     4  10  21  39  60  86 120 158 194 240 299 352
#     4  10  20  37  60  86 120 157 193 234 293 361
#     4  11  20  33  57  91 121 151 188 235 292 349
#     4  10  20  39  61  83 115 156 192 234 291 353
#     4  10  22  39  60  83 113 154 198 242 294 345
#     4  11  23  42  62  86 120 158 200 249 294 347
#     4   9  20  37  60  87 118 153 190 234 294 350
#
# _framework density 24.632722999999999
#
# number of rings (size 3 to 8) (size 9 to 14) (size 15 to 20)
#    0.000    1.750    2.500    1.875    0.000    3.000 
#    0.000    3.125    0.000    0.000    0.000    0.000 
#    0.000    0.000    0.000    0.000    0.000    0.000 
#
# Total GULP energy -178879.898888 kJ/mol
# GULP energy per Si atom -5589.996840 kJ/mol
# Density = 2.457666 g / cm^3
# Si number density = 24.632723 Si / 1000 Ang^3
#
#
#
# Elastic Constant Matrix: (Units=GPa)
#
#
# Indices 1 2 3 4 5 6 
#
# 1 128.3499 -12.7704 3.7894 0.0000 -33.0430 0.0000
# 2 -12.7704 51.1647 -5.8022 0.0000 3.2688 0.0000
# 3 3.7894 -5.8022 61.0905 0.0000 -28.9917 0.0000
# 4 0.0000 0.0000 0.0000 17.2549 0.0000 -4.8912
# 5 -33.0430 3.2688 -28.9917 0.0000 43.6380 0.0000
# 6 0.0000 0.0000 0.0000 -4.8912 0.0000 17.5427
#
#
#
# Elastic Compliance Matrix: (Units=1/GPa)
#
#
# Indices 1 2 3 4 5 6 
#
# 1 0.010792 0.002532 0.004906 0.000000 0.011242 0.000000
# 2 0.002532 0.020355 0.002866 0.000000 0.002297 0.000000
# 3 0.004906 0.002866 0.026286 0.000000 0.020964 0.000000
# 4 0.000000 0.000000 0.000000 0.062928 0.000000 0.017545
# 5 0.011242 0.002297 0.020964 0.000000 0.045184 0.000000
# 6 0.000000 0.000000 0.000000 0.017545 0.000000 0.061896
#
#
# Mechanical properties :
#
#
# Convention : Reuss Voigt Hill
#
# Bulk Modulus (GPa) = 12.81376 23.44875 18.13125
# Shear Modulus (GPa) = 21.47340 32.71301 27.09320
#
# Velocity S-wave (km/s) = 2.95573 3.64817 3.32005
# Velocity P-wave (km/s) = 4.10630 5.22356 4.69826
#
# Compressibility (1/GPa) = 0.07804111
#
# Stress axis : x y z
#
# Youngs Moduli (GPa) = 92.65745 49.12809 38.04345
#
# Poissons Ratio (x) = -0.12439 -0.18664
# Poissons Ratio (y) = -0.23460 -0.10903
# Poissons Ratio (z) = -0.45459 -0.14080
#
# Static dielectric constant tensor:
#      x y z
#    x 1.947960 0.000000 -0.012930 
#    y 0.000000 1.895080 0.000000 
#    z -0.012930 0.000000 1.998960 
# 
# From -- ./inp_files/51659.got.cif
#   From: 2010.05.17/outbox.cif.g08.bks.cpg/sg11_26_cif.got.tgz:51659.got - 2010.06.03 12:22:45.
