data_PCOD9163762
_publ_section_title
;
Structure prediction by ZEFSAII (Michael W. Deem and Ramdas Pophale) SiO2 
 PCOD9163762
Probable space group: P 21/M
;
_chemical_formula_sum "Si O2"
_cell_formula_units_Z 32
_cell_length_a 12.345267
_cell_length_b 8.593025
_cell_length_c 31.781007
_cell_angle_alpha 90.000000
_cell_angle_beta 30.001086
_cell_angle_gamma 90.000000
_cell_volume 1685.770611
_symmetry_space_group_name_H-M "P 21/M"
_symmetry_group_IT_number 11
_symmetry_cell_setting 'monoclinic'
loop_
_space_group_symop_operation_xyz
x,y,z
-x,1/2+y,-z
-x,-y,-z
x,1/2-y,z
loop_
_atom_site_type_symbol
_atom_site_label
_atom_site_fract_x
_atom_site_fract_y
_atom_site_fract_z
Si Si1 0.847519 0.436388 0.281965
Si Si2 0.672787 0.566480 0.258721
Si Si3 0.452391 0.562805 0.469407
Si Si4 0.043058 0.439134 0.370701
Si Si5 0.793891 0.563190 0.594545
Si Si6 0.845578 0.434369 0.114152
Si Si7 0.218771 0.060141 0.220792
Si Si8 0.705322 0.062467 0.067294
O O1 0.845567 0.250000 0.282887
O O2 0.834363 0.496092 0.238956
O O3 0.633446 0.496901 0.377628
O O4 0.054906 0.489946 0.239358
O O5 0.665255 0.750000 0.266413
O O6 0.432597 0.498713 0.346586
O O7 0.747235 0.521162 0.186989
O O8 0.500000 0.500000 0.500000
O O9 0.461804 0.750000 0.466288
O O10 0.207919 0.515340 0.539644
O O11 0.048618 0.250000 0.367831
O O12 0.178666 0.487191 0.365854
O O13 0.132516 0.492738 0.295554
O O14 0.794190 0.750000 0.592880
O O15 0.000000 0.500000 0.500000
O O16 0.823681 0.250000 0.128396
O O17 0.727467 0.472332 0.109717
O O18 0.095449 0.480822 0.022854
O O19 0.215568 0.250000 0.222659
O O20 0.468286 0.014342 0.131489
O O21 0.728633 0.250000 0.055053
#
# Coordination Sequence:
#
# PCOD9163762 Si02
#       8
#     4   4   4   4   4   4   4   4
#     4  11  22  38  59  82 112 151 199 246 292 348
#     4  12  25  41  59  82 117 157 199 240 288 349
#     4  11  20  34  55  81 115 154 195 237 286 338
#     4   9  18  33  55  81 110 147 189 235 286 339
#     4  11  22  38  60  85 117 154 194 240 291 343
#     4  10  20  37  62  90 118 150 189 231 285 349
#     4   9  17  33  57  84 111 144 185 233 291 346
#     4   9  18  35  62  91 119 147 181 232 293 349
#
# _framework density 18.982417000000002
#
# number of rings (size 3 to 8) (size 9 to 14) (size 15 to 20)
#    0.000    1.750    1.250    4.125    0.000    3.500 
#    0.000    3.750    0.000    0.000    0.000    0.000 
#    0.000    0.000    0.000    0.000    0.000    0.000 
#
# Total GULP energy -178804.979921 kJ/mol
# GULP energy per Si atom -5587.655623 kJ/mol
# Density = 1.893921 g / cm^3
# Si number density = 18.982417 Si / 1000 Ang^3
#
#
#
# Elastic Constant Matrix: (Units=GPa)
#
#
# Indices 1 2 3 4 5 6 
#
# 1 107.9542 25.1344 35.3125 0.0000 -17.4539 0.0000
# 2 25.1344 51.8950 17.5185 0.0000 -2.3182 0.0000
# 3 35.3125 17.5185 65.1675 0.0000 -13.8692 0.0000
# 4 0.0000 0.0000 0.0000 31.4888 0.0000 3.9099
# 5 -17.4539 -2.3182 -13.8692 0.0000 32.2365 0.0000
# 6 0.0000 0.0000 0.0000 3.9099 0.0000 20.9110
#
#
#
# Elastic Compliance Matrix: (Units=1/GPa)
#
#
# Indices 1 2 3 4 5 6 
#
# 1 0.012511 -0.004280 -0.004681 0.000000 0.004452 0.000000
# 2 -0.004280 0.022688 -0.004321 0.000000 -0.002545 0.000000
# 3 -0.004681 -0.004321 0.020296 0.000000 0.005887 0.000000
# 4 0.000000 0.000000 0.000000 0.032512 0.000000 -0.006079
# 5 0.004452 -0.002545 0.005887 0.000000 0.035781 0.000000
# 6 0.000000 0.000000 0.000000 -0.006079 0.000000 0.048958
#
#
# Mechanical properties :
#
#
# Convention : Reuss Voigt Hill
#
# Bulk Modulus (GPa) = 34.56699 42.32753 38.44726
# Shear Modulus (GPa) = 23.92864 26.73068 25.32966
#
# Velocity S-wave (km/s) = 3.55430 3.75664 3.65687
# Velocity P-wave (km/s) = 5.92399 6.41586 6.17482
#
# Compressibility (1/GPa) = 0.02892934
#
# Stress axis : x y z
#
# Youngs Moduli (GPa) = 79.93127 44.07653 49.27036
#
# Poissons Ratio (x) = 0.18866 0.23064
# Poissons Ratio (y) = 0.34213 0.21291
# Poissons Ratio (z) = 0.37417 0.19047
#
# Static dielectric constant tensor:
#      x y z
#    x 1.665380 0.000000 -0.001260 
#    y 0.000000 1.638780 0.000000 
#    z -0.001260 0.000000 1.633960 
# 
# From -- ./inp_files/73055.got.cif
#   From: 2010.05.17/outbox.cif.g08.bks.cpg/sg11_37_cif.got.tgz:73055.got - 2010.06.03 12:22:45.
