data_PCOD9163636
_publ_section_title
;
Structure prediction by ZEFSAII (Michael W. Deem and Ramdas Pophale) SiO2 
 PCOD9163636
Probable space group: P 21/M
;
_chemical_formula_sum "Si O2"
_cell_formula_units_Z 30
_cell_length_a 11.716232
_cell_length_b 9.429135
_cell_length_c 14.168647
_cell_angle_alpha 90.000000
_cell_angle_beta 83.628864
_cell_angle_gamma 90.000000
_cell_volume 1555.598997
_symmetry_space_group_name_H-M "P 21/M"
_symmetry_group_IT_number 11
_symmetry_cell_setting 'monoclinic'
loop_
_space_group_symop_operation_xyz
x,y,z
-x,1/2+y,-z
-x,-y,-z
x,1/2-y,z
loop_
_atom_site_type_symbol
_atom_site_label
_atom_site_fract_x
_atom_site_fract_y
_atom_site_fract_z
Si Si1 0.340734 0.530010 0.518198
Si Si2 0.899322 0.416429 0.957903
Si Si3 0.520034 0.750000 0.535913
Si Si4 0.927533 0.085454 0.730729
Si Si5 0.669396 0.914140 0.025153
Si Si6 0.666657 0.409121 0.698290
Si Si7 0.927459 0.080212 0.425091
Si Si8 0.513438 0.913358 0.849866
O O1 0.424799 0.626001 0.572435
O O2 0.389072 0.373248 0.506468
O O3 0.354148 0.593183 0.410957
O O4 0.207119 0.542619 0.555972
O O5 0.896607 0.250000 0.983349
O O6 0.919012 0.426036 0.843811
O O7 0.781113 0.492917 0.995466
O O8 0.000000 0.500000 0.000000
O O9 0.954567 0.250000 0.703629
O O10 0.800055 0.054734 0.702598
O O11 0.017613 0.979421 0.676142
O O12 0.696087 0.750000 0.044786
O O13 0.593604 0.988210 0.112935
O O14 0.594735 0.915246 0.935477
O O15 0.647500 0.250000 0.739456
O O16 0.586187 0.520175 0.758287
O O17 0.939984 0.250000 0.433120
O O18 0.000000 0.000000 0.500000
O O19 0.481809 0.750000 0.834463
#
# Coordination Sequence:
#
# PCOD9163636 Si02
#       8
#     4   4   2   4   4   4   4   4
#     4  11  23  43  67  94 125 174 214 261 317 383
#     4  11  23  42  66  89 123 169 211 259 324 392
#     4  10  24  44  64  86 126 172 214 246 312 392
#     4  10  23  40  63  96 128 162 208 268 328 381
#     4  10  20  37  60  89 121 158 201 249 312 370
#     4  11  20  37  62  93 126 157 207 262 317 372
#     4  12  24  39  65 101 134 167 217 276 328 375
#     4  10  21  34  58  93 124 153 198 257 309 364
#
# _framework density 19.285177000000001
#
# number of rings (size 3 to 8) (size 9 to 14) (size 15 to 20)
#    0.000    1.333    4.000    1.600    2.800    2.667 
#    0.000    2.667    2.933    0.000    0.000    0.000 
#    0.000    0.000    0.000    0.000    0.000    0.000 
#
# Total GULP energy -167093.499088 kJ/mol
# GULP energy per Si atom -5569.783303 kJ/mol
# Density = 1.924128 g / cm^3
# Si number density = 19.285177 Si / 1000 Ang^3
#
#
#
# Elastic Constant Matrix: (Units=GPa)
#
#
# Indices 1 2 3 4 5 6 
#
# 1 99.6433 82.6972 25.6817 0.0000 -31.0117 0.0000
# 2 82.6972 188.1640 34.0720 0.0000 -35.4589 0.0000
# 3 25.6817 34.0720 40.4617 0.0000 -26.4211 0.0000
# 4 0.0000 0.0000 0.0000 26.7580 0.0000 -7.3287
# 5 -31.0117 -35.4589 -26.4211 0.0000 30.1878 0.0000
# 6 0.0000 0.0000 0.0000 -7.3287 0.0000 30.5643
#
#
#
# Elastic Compliance Matrix: (Units=1/GPa)
#
#
# Indices 1 2 3 4 5 6 
#
# 1 0.018927 -0.006032 0.002651 0.000000 0.014679 0.000000
# 2 -0.006032 0.008773 -0.002045 0.000000 0.002318 0.000000
# 3 0.002651 -0.002045 0.058261 0.000000 0.051313 0.000000
# 4 0.000000 0.000000 0.000000 0.039999 0.000000 0.009591
# 5 0.014679 0.002318 0.051313 0.000000 0.095838 0.000000
# 6 0.000000 0.000000 0.000000 0.009591 0.000000 0.035018
#
#
# Mechanical properties :
#
#
# Convention : Reuss Voigt Hill
#
# Bulk Modulus (GPa) = 13.31401 68.13009 40.72205
# Shear Modulus (GPa) = 17.08207 29.88990 23.48599
#
# Velocity S-wave (km/s) = 2.97940 3.94113 3.49352
# Velocity P-wave (km/s) = 4.33065 7.49096 6.11837
#
# Compressibility (1/GPa) = 0.07510884
#
# Stress axis : x y z
#
# Youngs Moduli (GPa) = 52.83342 113.98855 17.16414
#
# Poissons Ratio (x) = 0.68763 -0.04551
# Poissons Ratio (y) = 0.31871 0.03510
# Poissons Ratio (z) = -0.14009 0.23313
#
# Static dielectric constant tensor:
#      x y z
#    x 1.680340 0.000000 0.041630 
#    y 0.000000 1.654470 0.000000 
#    z 0.041630 0.000000 1.707260 
# 
# From -- ./inp_files/49239.got.cif
#   From: 2010.05.17/outbox.cif.g08.bks.cpg/sg11_25_cif.got.tgz:49239.got - 2010.06.03 12:22:45.
