data_PCOD9163641
_publ_section_title
;
Structure prediction by ZEFSAII (Michael W. Deem and Ramdas Pophale) SiO2 
 PCOD9163641
Probable space group: P 21/M
;
_chemical_formula_sum "Si O2"
_cell_formula_units_Z 32
_cell_length_a 9.929978
_cell_length_b 13.920603
_cell_length_c 10.455197
_cell_angle_alpha 90.000000
_cell_angle_beta 86.480665
_cell_angle_gamma 90.000000
_cell_volume 1442.509769
_symmetry_space_group_name_H-M "P 21/M"
_symmetry_group_IT_number 11
_symmetry_cell_setting 'monoclinic'
loop_
_space_group_symop_operation_xyz
x,y,z
-x,1/2+y,-z
-x,-y,-z
x,1/2-y,z
loop_
_atom_site_type_symbol
_atom_site_label
_atom_site_fract_x
_atom_site_fract_y
_atom_site_fract_z
Si Si1 0.262367 0.491983 0.122019
Si Si2 0.559702 0.137202 0.733934
Si Si3 0.990448 0.861573 0.447866
Si Si4 0.833877 0.137973 0.306197
Si Si5 0.735651 0.634830 0.628074
Si Si6 0.566239 0.134047 0.443112
Si Si7 0.979497 0.537720 0.187128
Si Si8 0.713669 0.861034 0.112370
O O1 0.358211 0.574879 0.169610
O O2 0.238711 0.418608 0.240922
O O3 0.114486 0.532686 0.096245
O O4 0.321225 0.432362 0.001182
O O5 0.595937 0.250000 0.742388
O O6 0.589377 0.103957 0.587878
O O7 0.400327 0.129588 0.772282
O O8 0.982546 0.750000 0.408428
O O9 0.846071 0.891353 0.515006
O O10 0.025559 0.925273 0.324751
O O11 0.095173 0.866601 0.558556
O O12 0.836282 0.250000 0.265722
O O13 0.681530 0.101606 0.338745
O O14 0.913531 0.066854 0.209947
O O15 0.748652 0.750000 0.645382
O O16 0.584664 0.612996 0.591392
O O17 0.578625 0.250000 0.444249
O O18 0.861690 0.609118 0.150655
O O19 0.712574 0.750000 0.070267
#
# Coordination Sequence:
#
# PCOD9163641 Si02
#       8
#     4   4   4   4   4   4   4   4
#     4  12  25  41  66  93 125 164 215 261 313 364
#     4  10  23  44  67  93 127 162 209 262 313 372
#     4  10  20  37  60  90 128 166 203 253 314 377
#     4  10  21  36  57  92 136 166 196 251 319 377
#     4  10  21  37  60  92 128 168 210 253 309 373
#     4   9  19  36  59  91 126 163 202 248 307 370
#     4  12  24  39  64  95 126 164 215 255 308 379
#     4  11  26  48  67  87 120 167 216 266 314 365
#
# _framework density 22.183558999999999
#
# number of rings (size 3 to 8) (size 9 to 14) (size 15 to 20)
#    0.000    1.500    1.250    3.375    3.500    5.000 
#    0.000    0.625    0.000    0.000    0.000    0.000 
#    0.000    0.000    0.000    0.000    0.000    0.000 
#
# Total GULP energy -179131.542276 kJ/mol
# GULP energy per Si atom -5597.860696 kJ/mol
# Density = 2.213307 g / cm^3
# Si number density = 22.183559 Si / 1000 Ang^3
#
#
#
# Elastic Constant Matrix: (Units=GPa)
#
#
# Indices 1 2 3 4 5 6 
#
# 1 90.0473 3.5370 -10.4075 0.0000 -1.8387 0.0000
# 2 3.5370 83.4619 8.2902 0.0000 -1.6001 0.0000
# 3 -10.4075 8.2902 35.5366 0.0000 1.4550 0.0000
# 4 0.0000 0.0000 0.0000 26.9395 0.0000 4.7441
# 5 -1.8387 -1.6001 1.4550 0.0000 26.9475 0.0000
# 6 0.0000 0.0000 0.0000 4.7441 0.0000 29.3125
#
#
#
# Elastic Compliance Matrix: (Units=1/GPa)
#
#
# Indices 1 2 3 4 5 6 
#
# 1 0.011560 -0.000833 0.003558 0.000000 0.000547 0.000000
# 2 -0.000833 0.012347 -0.003159 0.000000 0.000847 0.000000
# 3 0.003558 -0.003159 0.029983 0.000000 -0.001564 0.000000
# 4 0.000000 0.000000 0.000000 0.038209 0.000000 -0.006184
# 5 0.000547 0.000847 -0.001564 0.000000 0.037281 0.000000
# 6 0.000000 0.000000 0.000000 -0.006184 0.000000 0.035116
#
#
# Mechanical properties :
#
#
# Convention : Reuss Voigt Hill
#
# Bulk Modulus (GPa) = 18.86023 23.54279 21.20151
# Shear Modulus (GPa) = 27.31662 30.48164 28.89913
#
# Velocity S-wave (km/s) = 3.51292 3.71086 3.61325
# Velocity P-wave (km/s) = 4.99745 5.38483 5.19475
#
# Compressibility (1/GPa) = 0.05302162
#
# Stress axis : x y z
#
# Youngs Moduli (GPa) = 86.50270 80.99250 33.35241
#
# Poissons Ratio (x) = 0.06745 -0.11865
# Poissons Ratio (y) = 0.07204 0.10536
# Poissons Ratio (z) = -0.30774 0.25585
#
# Static dielectric constant tensor:
#      x y z
#    x 1.818290 0.000000 0.010910 
#    y 0.000000 1.810200 0.000000 
#    z 0.010910 0.000000 1.786560 
# 
# From -- ./inp_files/31897.got.cif
#   From: 2010.05.17/outbox.cif.g08.bks.cpg/sg11_16_cif.got.tgz:31897.got - 2010.06.03 12:22:45.
