data_PCOD9163798
_publ_section_title
;
Structure prediction by ZEFSAII (Michael W. Deem and Ramdas Pophale) SiO2 
 PCOD9163798
Probable space group: P 21/M
;
_chemical_formula_sum "Si O2"
_cell_formula_units_Z 28
_cell_length_a 23.106382
_cell_length_b 9.172198
_cell_length_c 20.181949
_cell_angle_alpha 90.000000
_cell_angle_beta 160.272846
_cell_angle_gamma 90.000000
_cell_volume 1443.761754
_symmetry_space_group_name_H-M "P 21/M"
_symmetry_group_IT_number 11
_symmetry_cell_setting 'monoclinic'
loop_
_space_group_symop_operation_xyz
x,y,z
-x,1/2+y,-z
-x,-y,-z
x,1/2-y,z
loop_
_atom_site_type_symbol
_atom_site_label
_atom_site_fract_x
_atom_site_fract_y
_atom_site_fract_z
Si Si1 0.917282 0.584709 0.349695
Si Si2 0.347032 0.417597 0.645486
Si Si3 0.616107 0.925265 0.465384
Si Si4 0.951355 0.082407 0.249804
Si Si5 0.036697 0.573987 0.110183
Si Si6 0.766741 0.074732 0.917460
Si Si7 0.515107 0.915285 0.947521
O O1 0.981716 0.750000 0.419017
O O2 0.000000 0.500000 0.500000
O O3 0.950798 0.511221 0.315316
O O4 0.713951 0.585539 0.141877
O O5 0.400711 0.250000 0.714677
O O6 0.408863 0.461616 0.639312
O O7 0.141001 0.422287 0.423066
O O8 0.413675 0.511221 0.778196
O O9 0.651646 0.750000 0.507007
O O10 0.436206 0.953009 0.308522
O O11 0.778056 0.014595 0.666285
O O12 0.913170 0.250000 0.227121
O O13 0.821530 0.038353 0.051972
O O14 0.034967 0.750000 0.104999
O O15 0.000000 0.500000 0.000000
O O16 0.889720 0.514573 0.001472
O O17 0.796185 0.250000 0.940824
O O18 0.455562 0.750000 0.892871
O O19 0.500000 0.000000 0.000000
#
# Coordination Sequence:
#
# PCOD9163798 Si02
#       7
#     4   4   4   4   4   4   4
#     4  11  24  39  55  80 115 155 203 257 313 373
#     4  10  20  37  63  91 121 158 202 252 308 372
#     4  10  21  41  69  98 130 169 214 263 319 383
#     4  10  20  37  63  91 121 158 202 252 308 372
#     4  12  26  44  68  96 134 174 214 266 320 382
#     4  10  21  41  69  98 130 169 214 263 319 383
#     4  11  24  39  55  80 115 155 203 257 313 373
#
# _framework density 19.393781000000001
#
# number of rings (size 3 to 8) (size 9 to 14) (size 15 to 20)
#    0.000    1.429    1.429    3.857    0.000    9.714 
#    0.000    0.000    0.000    0.000    0.000    0.000 
#    0.000    0.000    0.000    0.000    0.000    0.000 
#
# Total GULP energy -156495.881971 kJ/mol
# GULP energy per Si atom -5589.138642 kJ/mol
# Density = 1.934964 g / cm^3
# Si number density = 19.393781 Si / 1000 Ang^3
#
#
#
# Elastic Constant Matrix: (Units=GPa)
#
#
# Indices 1 2 3 4 5 6 
#
# 1 115.8480 77.5155 61.0975 0.0000 -7.9400 0.0000
# 2 77.5155 121.9642 64.9898 0.0000 -11.8217 0.0000
# 3 61.0975 64.9898 106.6215 0.0000 -0.6341 0.0000
# 4 0.0000 0.0000 0.0000 29.0138 0.0000 -5.1143
# 5 -7.9400 -11.8217 -0.6341 0.0000 30.0475 0.0000
# 6 0.0000 0.0000 0.0000 -5.1143 0.0000 34.4159
#
#
#
# Elastic Compliance Matrix: (Units=1/GPa)
#
#
# Indices 1 2 3 4 5 6 
#
# 1 0.016393 -0.007858 -0.004597 0.000000 0.001143 0.000000
# 2 -0.007858 0.016588 -0.005582 0.000000 0.004332 0.000000
# 3 -0.004597 -0.005582 0.015397 0.000000 -0.003086 0.000000
# 4 0.000000 0.000000 0.000000 0.035393 0.000000 0.005260
# 5 0.001143 0.004332 -0.003086 0.000000 0.035222 0.000000
# 6 0.000000 0.000000 0.000000 0.005260 0.000000 0.029838
#
#
# Mechanical properties :
#
#
# Convention : Reuss Voigt Hill
#
# Bulk Modulus (GPa) = 81.27842 83.51547 82.39694
# Shear Modulus (GPa) = 26.45403 28.08416 27.26910
#
# Velocity S-wave (km/s) = 3.69731 3.80952 3.75383
# Velocity P-wave (km/s) = 7.76062 7.90610 7.83370
#
# Compressibility (1/GPa) = 0.01230339
#
# Stress axis : x y z
#
# Youngs Moduli (GPa) = 61.00242 60.28478 64.94653
#
# Poissons Ratio (x) = 0.47374 0.29855
# Poissons Ratio (y) = 0.47938 0.36254
# Poissons Ratio (z) = 0.28042 0.33652
#
# Static dielectric constant tensor:
#      x y z
#    x 1.676440 0.000000 0.028180 
#    y 0.000000 1.666030 0.000000 
#    z 0.028180 0.000000 1.706180 
# 
# From -- ./inp_files/66744.got.cif
#   From: 2010.05.17/outbox.cif.g08.bks.cpg/sg11_34_cif.got.tgz:66744.got - 2010.06.03 12:22:45.
