data_PCOD9163103
_publ_section_title
;
Structure prediction by ZEFSAII (Michael W. Deem and Ramdas Pophale) SiO2 
 PCOD9163103
Probable space group: P 21/M
;
_chemical_formula_sum "Si O2"
_cell_formula_units_Z 28
_cell_length_a 9.742350
_cell_length_b 8.605383
_cell_length_c 26.454453
_cell_angle_alpha 90.000000
_cell_angle_beta 139.805739
_cell_angle_gamma 90.000000
_cell_volume 1431.360454
_symmetry_space_group_name_H-M "P 21/M"
_symmetry_group_IT_number 11
_symmetry_cell_setting 'monoclinic'
loop_
_space_group_symop_operation_xyz
x,y,z
-x,1/2+y,-z
-x,-y,-z
x,1/2-y,z
loop_
_atom_site_type_symbol
_atom_site_label
_atom_site_fract_x
_atom_site_fract_y
_atom_site_fract_z
Si Si1 0.708630 0.066773 0.182586
Si Si2 0.282874 0.937338 0.415831
Si Si3 0.836981 0.935109 0.727736
Si Si4 0.935175 0.933516 0.927243
Si Si5 0.597248 0.063536 0.757799
Si Si6 0.166831 0.066252 0.676664
Si Si7 0.647508 0.934696 0.997341
O O1 0.721793 0.250000 0.200133
O O2 0.488943 0.041013 0.092177
O O3 0.908917 0.034001 0.202040
O O4 0.743685 0.965462 0.241958
O O5 0.283696 0.750000 0.415880
O O6 0.075042 0.993977 0.389152
O O7 0.500000 0.000000 0.500000
O O8 0.250552 0.996601 0.349540
O O9 0.808271 0.750000 0.719934
O O10 0.718616 0.005281 0.742410
O O11 0.908304 0.750000 0.923687
O O12 0.726250 0.005425 0.843113
O O13 0.131009 0.977134 0.945587
O O14 0.000000 0.000000 0.000000
O O15 0.597374 0.250000 0.758165
O O16 0.352454 0.005720 0.692254
O O17 0.150974 0.250000 0.663356
O O18 0.682844 0.750000 0.013447
O O19 0.500000 0.000000 0.000000
#
# Coordination Sequence:
#
# PCOD9163103 Si02
#       7
#     4   4   4   4   4   4   4
#     4   9  19  34  53  76 104 138 183 229 274 329
#     4  10  20  38  62  89 117 147 182 225 274 332
#     4  10  20  36  58  86 116 149 185 228 280 336
#     4  12  25  40  56  79 112 153 198 246 295 345
#     4  11  22  38  58  83 113 148 189 235 285 341
#     4   9  20  36  57  82 109 140 178 222 273 330
#     4  11  22  36  54  79 109 145 188 239 292 343
#
# _framework density 19.561810000000001
#
# number of rings (size 3 to 8) (size 9 to 14) (size 15 to 20)
#    0.000    1.714    0.000    4.714    0.000    6.857 
#    0.000    0.714    0.000    0.000    0.000    0.000 
#    0.000    0.000    0.000    0.000    0.000    0.000 
#
# Total GULP energy -156424.857435 kJ/mol
# GULP energy per Si atom -5586.602051 kJ/mol
# Density = 1.951729 g / cm^3
# Si number density = 19.561810 Si / 1000 Ang^3
#
#
#
# Elastic Constant Matrix: (Units=GPa)
#
#
# Indices 1 2 3 4 5 6 
#
# 1 103.6196 20.2936 28.9075 0.0000 24.7484 0.0000
# 2 20.2936 57.7761 23.4372 0.0000 9.2511 0.0000
# 3 28.9075 23.4372 90.1506 0.0000 25.3181 0.0000
# 4 0.0000 0.0000 0.0000 28.5056 0.0000 -3.9949
# 5 24.7484 9.2511 25.3181 0.0000 28.8431 0.0000
# 6 0.0000 0.0000 0.0000 -3.9949 0.0000 28.0197
#
#
#
# Elastic Compliance Matrix: (Units=1/GPa)
#
#
# Indices 1 2 3 4 5 6 
#
# 1 0.012598 -0.002634 -0.000738 0.000000 -0.009316 0.000000
# 2 -0.002634 0.020023 -0.004236 0.000000 -0.000444 0.000000
# 3 -0.000738 -0.004236 0.015755 0.000000 -0.011837 0.000000
# 4 0.000000 0.000000 0.000000 0.035796 0.000000 0.005104
# 5 -0.009316 -0.000444 -0.011837 0.000000 0.053197 0.000000
# 6 0.000000 0.000000 0.000000 0.005104 0.000000 0.036417
#
#
# Mechanical properties :
#
#
# Convention : Reuss Voigt Hill
#
# Bulk Modulus (GPa) = 30.15799 44.09143 37.12471
# Shear Modulus (GPa) = 24.99312 29.00087 26.99700
#
# Velocity S-wave (km/s) = 3.57830 3.85453 3.71898
# Velocity P-wave (km/s) = 5.70285 6.51140 6.12050
#
# Compressibility (1/GPa) = 0.03315870
#
# Stress axis : x y z
#
# Youngs Moduli (GPa) = 79.38044 49.94307 63.47148
#
# Poissons Ratio (x) = 0.13153 0.04687
# Poissons Ratio (y) = 0.20905 0.26889
# Poissons Ratio (z) = 0.05862 0.21158
#
# Static dielectric constant tensor:
#      x y z
#    x 1.731780 0.000000 0.036180 
#    y 0.000000 1.660880 0.000000 
#    z 0.036180 0.000000 1.668300 
# 
# From -- ./inp_files/28280.got.cif
#   From: 2010.05.17/outbox.cif.g08.bks.cpg/sg11_15_cif.got.tgz:28280.got - 2010.06.03 12:22:45.
