data_PCOD9163540
_publ_section_title
;
Structure prediction by ZEFSAII (Michael W. Deem and Ramdas Pophale) SiO2 
 PCOD9163540
Probable space group: P 21/M
;
_chemical_formula_sum "Si O2"
_cell_formula_units_Z 28
_cell_length_a 18.577187
_cell_length_b 7.760612
_cell_length_c 14.865474
_cell_angle_alpha 90.000000
_cell_angle_beta 33.084585
_cell_angle_gamma 90.000000
_cell_volume 1169.901050
_symmetry_space_group_name_H-M "P 21/M"
_symmetry_group_IT_number 11
_symmetry_cell_setting 'monoclinic'
loop_
_space_group_symop_operation_xyz
x,y,z
-x,1/2+y,-z
-x,-y,-z
x,1/2-y,z
loop_
_atom_site_type_symbol
_atom_site_label
_atom_site_fract_x
_atom_site_fract_y
_atom_site_fract_z
Si Si1 0.514875 0.556530 0.586676
Si Si2 0.259194 0.451896 0.388519
Si Si3 0.233361 0.959011 0.209069
Si Si4 0.800954 0.450397 0.269728
Si Si5 0.027162 0.542696 0.284909
Si Si6 0.538451 0.462482 0.168567
Si Si7 0.909496 0.545008 0.973422
O O1 0.500000 0.500000 0.500000
O O2 0.467214 0.750000 0.636622
O O3 0.672402 0.546290 0.439256
O O4 0.446323 0.471870 0.744913
O O5 0.259222 0.250000 0.412429
O O6 0.253558 0.468660 0.286780
O O7 0.395883 0.523150 0.282478
O O8 0.121154 0.527940 0.568278
O O9 0.233211 0.750000 0.215852
O O10 0.099351 0.016266 0.299821
O O11 0.350151 0.011327 0.018972
O O12 0.787403 0.250000 0.307416
O O13 0.941368 0.517235 0.158871
O O14 0.813068 0.466957 0.148717
O O15 0.020529 0.750000 0.296664
O O16 0.110743 0.498325 0.109055
O O17 0.538808 0.250000 0.169639
O O18 0.906547 0.750000 0.989369
#
# Coordination Sequence:
#
# PCOD9163540 Si02
#       7
#     4   4   4   4   4   4   4
#     4  11  23  39  60  86 118 156 199 246 294 352
#     4  10  20  37  59  84 112 150 194 239 288 347
#     4  10  21  37  57  84 114 151 191 235 294 352
#     4  10  21  38  58  82 116 154 193 241 297 352
#     4  10  21  35  56  83 116 153 190 232 295 355
#     4   9  20  38  59  81 113 153 192 234 293 352
#     4  10  21  36  58  87 115 149 196 245 291 347
#
# _framework density 23.933648999999999
#
# number of rings (size 3 to 8) (size 9 to 14) (size 15 to 20)
#    0.000    2.000    0.000    3.000    2.000    4.000 
#    0.000    2.857    0.000    0.000    0.000    0.000 
#    0.000    0.000    0.000    0.000    0.000    0.000 
#
# Total GULP energy -156584.354363 kJ/mol
# GULP energy per Si atom -5592.298370 kJ/mol
# Density = 2.387918 g / cm^3
# Si number density = 23.933649 Si / 1000 Ang^3
#
#
#
# Elastic Constant Matrix: (Units=GPa)
#
#
# Indices 1 2 3 4 5 6 
#
# 1 52.7431 0.9927 8.8799 0.0000 11.8275 0.0000
# 2 0.9927 35.3481 -9.3596 0.0000 -8.3707 0.0000
# 3 8.8799 -9.3596 101.3589 0.0000 10.7445 0.0000
# 4 0.0000 0.0000 0.0000 12.4404 0.0000 7.8870
# 5 11.8275 -8.3707 10.7445 0.0000 45.3311 0.0000
# 6 0.0000 0.0000 0.0000 7.8870 0.0000 21.6717
#
#
#
# Elastic Compliance Matrix: (Units=1/GPa)
#
#
# Indices 1 2 3 4 5 6 
#
# 1 0.020455 -0.002233 -0.001425 0.000000 -0.005412 0.000000
# 2 -0.002233 0.030317 0.002400 0.000000 0.005612 0.000000
# 3 -0.001425 0.002400 0.010387 0.000000 -0.001647 0.000000
# 4 0.000000 0.000000 0.000000 0.104493 0.000000 -0.038028
# 5 -0.005412 0.005612 -0.001647 0.000000 0.024899 0.000000
# 6 0.000000 0.000000 0.000000 -0.038028 0.000000 0.059983
#
#
# Mechanical properties :
#
#
# Convention : Reuss Voigt Hill
#
# Bulk Modulus (GPa) = 17.05191 21.16401 19.10796
# Shear Modulus (GPa) = 18.34207 28.48443 23.41325
#
# Velocity S-wave (km/s) = 2.77135 3.45359 3.13110
# Velocity P-wave (km/s) = 4.16900 4.97644 4.59051
#
# Compressibility (1/GPa) = 0.05864446
#
# Stress axis : x y z
#
# Youngs Moduli (GPa) = 48.88709 32.98449 96.27439
#
# Poissons Ratio (x) = 0.07366 0.13715
# Poissons Ratio (y) = 0.10918 -0.23109
# Poissons Ratio (z) = 0.06964 -0.07917
#
# Static dielectric constant tensor:
#      x y z
#    x 1.945840 0.000000 -0.006470 
#    y 0.000000 1.860300 0.000000 
#    z -0.006470 0.000000 1.906060 
# 
# From -- ./inp_files/54484.got.cif
#   From: 2010.05.17/outbox.cif.g08.bks.cpg/sg11_28_cif.got.tgz:54484.got - 2010.06.03 12:22:45.
