data_PCOD9163674
_publ_section_title
;
Structure prediction by ZEFSAII (Michael W. Deem and Ramdas Pophale) SiO2 
 PCOD9163674
Probable space group: P 21/M
;
_chemical_formula_sum "Si O2"
_cell_formula_units_Z 24
_cell_length_a 15.153919
_cell_length_b 10.969306
_cell_length_c 14.402949
_cell_angle_alpha 90.000000
_cell_angle_beta 151.216523
_cell_angle_gamma 90.000000
_cell_volume 1152.796579
_symmetry_space_group_name_H-M "P 21/M"
_symmetry_group_IT_number 11
_symmetry_cell_setting 'monoclinic'
loop_
_space_group_symop_operation_xyz
x,y,z
-x,1/2+y,-z
-x,-y,-z
x,1/2-y,z
loop_
_atom_site_type_symbol
_atom_site_label
_atom_site_fract_x
_atom_site_fract_y
_atom_site_fract_z
Si Si1 0.620022 0.110644 0.882368
Si Si2 0.248279 0.889887 0.200619
Si Si3 0.291340 0.508903 0.841746
Si Si4 0.943868 0.379456 0.527695
Si Si5 0.816725 0.614120 0.522825
Si Si6 0.825557 0.885177 0.751525
O O1 0.686565 0.250000 0.951646
O O2 0.666148 0.073194 0.819956
O O3 0.401786 0.109999 0.693762
O O4 0.704232 0.036382 0.044787
O O5 0.306328 0.750000 0.277045
O O6 0.277938 0.998283 0.301488
O O7 0.029213 0.883656 0.982113
O O8 0.185120 0.608489 0.681460
O O9 0.159170 0.393238 0.702569
O O10 0.500000 0.500000 0.000000
O O11 0.909229 0.250000 0.542246
O O12 0.898274 0.497558 0.546832
O O13 0.881423 0.750000 0.553741
O O14 0.846899 0.602985 0.660789
O O15 0.742978 0.750000 0.692995
#
# Coordination Sequence:
#
# PCOD9163674 Si02
#       6
#     4   4   4   4   4   4
#     4  10  20  37  61  86 116 161 210 252 303 374
#     4   9  18  33  55  82 112 151 200 252 304 357
#     4  11  23  43  64  89 125 171 206 254 310 379
#     4  11  25  41  64  98 129 161 208 263 314 361
#     4  10  21  39  62  88 121 164 207 248 304 374
#     4   9  18  34  56  81 114 155 201 247 300 367
#
# _framework density 20.818936000000001
#
# number of rings (size 3 to 8) (size 9 to 14) (size 15 to 20)
#    0.000    2.000    1.667    1.500    0.000    7.333 
#    0.000    5.000    0.000    0.000    0.000    0.000 
#    0.000    0.000    0.000    0.000    0.000    0.000 
#
# Total GULP energy -133923.769390 kJ/mol
# GULP energy per Si atom -5580.157058 kJ/mol
# Density = 2.077155 g / cm^3
# Si number density = 20.818936 Si / 1000 Ang^3
#
#
#
# Elastic Constant Matrix: (Units=GPa)
#
#
# Indices 1 2 3 4 5 6 
#
# 1 92.3612 81.2111 13.9671 0.0000 -0.7354 0.0000
# 2 81.2111 174.8098 37.3050 0.0000 -11.6521 0.0000
# 3 13.9671 37.3050 57.2546 0.0000 13.6669 0.0000
# 4 0.0000 0.0000 0.0000 -2.3342 0.0000 -2.7500
# 5 -0.7354 -11.6521 13.6669 0.0000 34.1961 0.0000
# 6 0.0000 0.0000 0.0000 -2.7500 0.0000 34.2617
#
#
#
# Elastic Compliance Matrix: (Units=1/GPa)
#
#
# Indices 1 2 3 4 5 6 
#
# 1 0.018791 -0.009531 0.002548 0.000000 -0.003862 0.000000
# 2 -0.009531 0.012142 -0.007213 0.000000 0.006815 0.000000
# 3 0.002548 -0.007213 0.024450 0.000000 -0.012175 0.000000
# 4 0.000000 0.000000 0.000000 -0.391398 0.000000 -0.031415
# 5 -0.003862 0.006815 -0.012175 0.000000 0.036348 0.000000
# 6 0.000000 0.000000 0.000000 -0.031415 0.000000 0.026666
#
#
# Mechanical properties :
#
#
# Convention : Reuss Voigt Hill
#
# Bulk Modulus (GPa) = 37.04920 65.48799 51.26860
# Shear Modulus (GPa) = -21.22133 26.02088 2.39977
#
# Velocity S-wave (km/s) = -3.19616 3.53918 1.07480
# Velocity P-wave (km/s) = 2.05280 6.94445 5.12051
#
# Compressibility (1/GPa) = 0.02699114
#
# Stress axis : x y z
#
# Youngs Moduli (GPa) = 53.21576 82.36000 40.89956
#
# Poissons Ratio (x) = 0.78497 -0.10420
# Poissons Ratio (y) = 0.50720 0.29500
# Poissons Ratio (z) = -0.13558 0.59405
#
# Static dielectric constant tensor:
#      x y z
#    x 1.768180 0.000000 0.026170 
#    y 0.000000 1.778900 0.000000 
#    z 0.026170 0.000000 1.768100 
# 
# From -- ./inp_files/52358.got.cif
#   From: 2010.05.17/outbox.cif.g08.bks.cpg/sg11_27_cif.got.tgz:52358.got - 2010.06.03 12:22:45.
