data_PCOD9163468
_publ_section_title
;
Structure prediction by ZEFSAII (Michael W. Deem and Ramdas Pophale) SiO2 
 PCOD9163468
Probable space group: P 21/M
;
_chemical_formula_sum "Si O2"
_cell_formula_units_Z 32
_cell_length_a 27.195167
_cell_length_b 12.903980
_cell_length_c 8.750226
_cell_angle_alpha 90.000000
_cell_angle_beta 147.808834
_cell_angle_gamma 90.000000
_cell_volume 1635.892334
_symmetry_space_group_name_H-M "P 21/M"
_symmetry_group_IT_number 11
_symmetry_cell_setting 'monoclinic'
loop_
_space_group_symop_operation_xyz
x,y,z
-x,1/2+y,-z
-x,-y,-z
x,1/2-y,z
loop_
_atom_site_type_symbol
_atom_site_label
_atom_site_fract_x
_atom_site_fract_y
_atom_site_fract_z
Si Si1 0.345138 0.032083 0.618040
Si Si2 0.384175 0.130040 0.400167
Si Si3 0.232551 0.860312 0.141052
Si Si4 0.592576 0.372787 0.967209
Si Si5 0.164535 0.136360 0.237306
Si Si6 0.948432 0.049589 0.222819
Si Si7 0.921067 0.939565 0.697763
Si Si8 0.264922 0.956871 0.908736
O O1 0.386886 0.099296 0.588504
O O2 0.271661 0.102716 0.516003
O O3 0.285783 0.948656 0.369187
O O4 0.402590 0.959862 0.885355
O O5 0.354815 0.250000 0.309489
O O6 0.490312 0.120231 0.626177
O O7 0.318173 0.054253 0.128879
O O8 0.270910 0.750000 0.287581
O O9 0.126962 0.871137 0.913792
O O10 0.245321 0.878577 0.995612
O O11 0.604751 0.250000 0.043665
O O12 0.671242 0.406272 0.053456
O O13 0.154082 0.250000 0.138194
O O14 0.124717 0.138038 0.303369
O O15 0.107255 0.045914 0.002382
O O16 0.022969 0.097333 0.303049
O O17 0.000000 0.000000 0.500000
O O18 0.834597 0.009568 0.417966
O O19 0.000000 0.000000 0.000000
#
# Coordination Sequence:
#
# PCOD9163468 Si02
#       8
#     4   4   4   4   4   4   4   4
#     4  10  20  39  61  85 122 154 195 252 298 351
#     4  10  23  40  62  90 123 160 203 247 308 370
#     4  10  21  36  58  86 114 156 199 240 297 359
#     4  11  22  39  63  92 120 160 205 251 306 363
#     4  10  21  37  58  83 116 157 197 236 298 360
#     4  10  20  37  57  82 118 149 192 251 293 348
#     4  10  21  39  58  82 120 155 194 244 299 350
#     4  11  21  40  62  86 124 158 198 253 302 355
#
# _framework density 19.56119
#
# number of rings (size 3 to 8) (size 9 to 14) (size 15 to 20)
#    0.000    1.750    2.500    1.875    0.000    1.500 
#    0.000    0.625    0.000    5.250    0.000    0.000 
#    0.000    0.000    0.000    0.000    0.000    0.000 
#
# Total GULP energy -178306.493391 kJ/mol
# GULP energy per Si atom -5572.077918 kJ/mol
# Density = 1.951667 g / cm^3
# Si number density = 19.561190 Si / 1000 Ang^3
#
#
#
# Elastic Constant Matrix: (Units=GPa)
#
#
# Indices 1 2 3 4 5 6 
#
# 1 65.0098 5.7861 16.7008 0.0000 12.6858 0.0000
# 2 5.7861 86.2421 9.6800 0.0000 6.4588 0.0000
# 3 16.7008 9.6800 72.4350 0.0000 9.9154 0.0000
# 4 0.0000 0.0000 0.0000 -2.8288 0.0000 -0.5479
# 5 12.6858 6.4588 9.9154 0.0000 30.3756 0.0000
# 6 0.0000 0.0000 0.0000 -0.5479 0.0000 11.0792
#
#
#
# Elastic Compliance Matrix: (Units=1/GPa)
#
#
# Indices 1 2 3 4 5 6 
#
# 1 0.017422 -0.000355 -0.003123 0.000000 -0.006181 0.000000
# 2 -0.000355 0.011906 -0.001238 0.000000 -0.001979 0.000000
# 3 -0.003123 -0.001238 0.015154 0.000000 -0.003379 0.000000
# 4 0.000000 0.000000 0.000000 -0.350149 0.000000 -0.017316
# 5 -0.006181 -0.001979 -0.003379 0.000000 0.037026 0.000000
# 6 0.000000 0.000000 0.000000 -0.017316 0.000000 0.089403
#
#
# Mechanical properties :
#
#
# Convention : Reuss Voigt Hill
#
# Bulk Modulus (GPa) = 28.53207 32.00230 30.26718
# Shear Modulus (GPa) = -31.62153 20.49318 -5.56418
#
# Velocity S-wave (km/s) = -4.02499 3.24025 -1.68839
# Velocity P-wave (km/s) = 2.64254 5.51312 3.42137
#
# Compressibility (1/GPa) = 0.03504828
#
# Stress axis : x y z
#
# Youngs Moduli (GPa) = 57.39711 83.98906 65.99089
#
# Poissons Ratio (x) = 0.02985 0.20611
# Poissons Ratio (y) = 0.02040 0.08171
# Poissons Ratio (z) = 0.17927 0.10400
#
# Static dielectric constant tensor:
#      x y z
#    x 1.673210 0.000000 0.017940 
#    y 0.000000 1.735830 0.000000 
#    z 0.017940 0.000000 1.679880 
# 
# From -- ./inp_files/29282.got.cif
#   From: 2010.05.17/outbox.cif.g08.bks.cpg/sg11_15_cif.got.tgz:29282.got - 2010.06.03 12:22:45.
