data_PCOD9163517
_publ_section_title
;
Structure prediction by ZEFSAII (Michael W. Deem and Ramdas Pophale) SiO2 
 PCOD9163517
Probable space group: P 21/M
;
_chemical_formula_sum "Si O2"
_cell_formula_units_Z 28
_cell_length_a 7.198033
_cell_length_b 16.132307
_cell_length_c 15.233084
_cell_angle_alpha 90.000000
_cell_angle_beta 49.410857
_cell_angle_gamma 90.000000
_cell_volume 1343.277246
_symmetry_space_group_name_H-M "P 21/M"
_symmetry_group_IT_number 11
_symmetry_cell_setting 'monoclinic'
loop_
_space_group_symop_operation_xyz
x,y,z
-x,1/2+y,-z
-x,-y,-z
x,1/2-y,z
loop_
_atom_site_type_symbol
_atom_site_label
_atom_site_fract_x
_atom_site_fract_y
_atom_site_fract_z
Si Si1 0.283853 0.346043 0.761310
Si Si2 0.723387 0.563343 0.921460
Si Si3 0.012186 0.651041 0.982290
Si Si4 0.811211 0.342473 0.659569
Si Si5 0.027322 0.576204 0.558286
Si Si6 0.426939 0.347494 0.201585
Si Si7 0.884847 0.971675 0.317425
O O1 0.276689 0.250000 0.732875
O O2 0.520603 0.354121 0.750328
O O3 0.297940 0.413277 0.680007
O O4 0.051290 0.361664 0.895720
O O5 0.824633 0.601009 0.979929
O O6 0.640549 0.634310 0.878676
O O7 0.946386 0.517055 0.805146
O O8 0.500000 0.500000 0.000000
O O9 0.986894 0.750000 0.974399
O O10 0.290511 0.626908 0.873727
O O11 0.873933 0.250000 0.669487
O O12 0.948574 0.408330 0.677313
O O13 0.876462 0.353099 0.536196
O O14 0.767191 0.602640 0.679668
O O15 0.190768 0.542348 0.589100
O O16 0.000000 0.500000 0.500000
O O17 0.405506 0.250000 0.227212
#
# Coordination Sequence:
#
# PCOD9163517 Si02
#       7
#     4   4   4   4   4   4   4
#     4  10  21  36  56  82 111 148 190 231 283 344
#     4  11  22  35  56  86 118 152 188 234 289 341
#     4  10  22  39  59  85 117 154 196 239 285 345
#     4  10  20  37  59  80 110 148 188 236 284 341
#     4   9  20  37  58  84 111 145 188 237 292 342
#     4  10  21  39  61  83 114 155 197 240 288 349
#     4  10  21  35  54  81 112 144 182 231 284 338
#
# _framework density 20.844543000000002
#
# number of rings (size 3 to 8) (size 9 to 14) (size 15 to 20)
#    0.000    2.000    0.000    3.000    0.000    6.286 
#    0.000   10.000    0.000   15.429    0.000    0.000 
#    0.000    0.000    0.000    0.000    0.000    0.000 
#
# Total GULP energy -156288.052190 kJ/mol
# GULP energy per Si atom -5581.716150 kJ/mol
# Density = 2.079710 g / cm^3
# Si number density = 20.844543 Si / 1000 Ang^3
#
#
#
# Elastic Constant Matrix: (Units=GPa)
#
#
# Indices 1 2 3 4 5 6 
#
# 1 56.8889 27.9541 2.6149 0.0000 2.9100 0.0000
# 2 27.9541 58.7695 17.8697 0.0000 1.4591 0.0000
# 3 2.6149 17.8697 79.0004 0.0000 -4.9755 0.0000
# 4 0.0000 0.0000 0.0000 28.2891 0.0000 6.3878
# 5 2.9100 1.4591 -4.9755 0.0000 24.1485 0.0000
# 6 0.0000 0.0000 0.0000 6.3878 0.0000 41.2035
#
#
#
# Elastic Compliance Matrix: (Units=1/GPa)
#
#
# Indices 1 2 3 4 5 6 
#
# 1 0.023262 -0.011548 0.001732 0.000000 -0.001749 0.000000
# 2 -0.011548 0.024099 -0.005140 0.000000 -0.001124 0.000000
# 3 0.001732 -0.005140 0.013951 0.000000 0.002976 0.000000
# 4 0.000000 0.000000 0.000000 0.036632 0.000000 -0.005679
# 5 -0.001749 -0.001124 0.002976 0.000000 0.042302 0.000000
# 6 0.000000 0.000000 0.000000 -0.005679 0.000000 0.025150
#
#
# Mechanical properties :
#
#
# Convention : Reuss Voigt Hill
#
# Bulk Modulus (GPa) = 31.84615 32.39290 32.11953
# Shear Modulus (GPa) = 24.29834 28.47624 26.38729
#
# Velocity S-wave (km/s) = 3.41793 3.70012 3.56182
# Velocity P-wave (km/s) = 5.55764 5.81623 5.68841
#
# Compressibility (1/GPa) = 0.03140097
#
# Stress axis : x y z
#
# Youngs Moduli (GPa) = 42.98768 41.49502 71.68016
#
# Poissons Ratio (x) = 0.47919 -0.12415
# Poissons Ratio (y) = 0.49643 0.36841
# Poissons Ratio (z) = -0.07446 0.21327
#
# Static dielectric constant tensor:
#      x y z
#    x 1.738970 0.000000 -0.001860 
#    y 0.000000 1.776340 0.000000 
#    z -0.001860 0.000000 1.749850 
# 
# From -- ./inp_files/45978.got.cif
#   From: 2010.05.17/outbox.cif.g08.bks.cpg/sg11_23_cif.got.tgz:45978.got - 2010.06.03 12:22:45.
