data_PCOD9163736
_publ_section_title
;
Structure prediction by ZEFSAII (Michael W. Deem and Ramdas Pophale) SiO2 
 PCOD9163736
Probable space group: P 21/M
;
_chemical_formula_sum "Si O2"
_cell_formula_units_Z 24
_cell_length_a 16.357831
_cell_length_b 10.922788
_cell_length_c 16.561918
_cell_angle_alpha 90.000000
_cell_angle_beta 26.455845
_cell_angle_gamma 90.000000
_cell_volume 1318.333713
_symmetry_space_group_name_H-M "P 21/M"
_symmetry_group_IT_number 11
_symmetry_cell_setting 'monoclinic'
loop_
_space_group_symop_operation_xyz
x,y,z
-x,1/2+y,-z
-x,-y,-z
x,1/2-y,z
loop_
_atom_site_type_symbol
_atom_site_label
_atom_site_fract_x
_atom_site_fract_y
_atom_site_fract_z
Si Si1 0.149737 0.391362 0.635838
Si Si2 0.597761 0.888616 0.078080
Si Si3 0.049583 0.452295 0.324954
Si Si4 0.949432 0.107674 0.983066
Si Si5 0.752349 0.114010 0.716137
Si Si6 0.426975 0.890632 0.772753
O O1 0.108936 0.250000 0.652653
O O2 0.369208 0.405649 0.442976
O O3 0.062694 0.471063 0.641943
O O4 0.059281 0.415829 0.802488
O O5 0.551957 0.750000 0.149118
O O6 0.440494 0.923902 0.152489
O O7 0.602062 0.998929 0.138548
O O8 0.794884 0.881607 0.861404
O O9 0.165345 0.532648 0.286155
O O10 0.899873 0.385836 0.512778
O O11 0.988858 0.250000 0.973607
O O12 0.734526 0.101567 0.149966
O O13 0.000000 0.000000 0.000000
O O14 0.727764 0.250000 0.770357
O O15 0.415763 0.750000 0.816941
#
# Coordination Sequence:
#
# PCOD9163736 Si02
#       6
#     4   4   4   4   4   4
#     4  10  20  37  62  87 116 154 198 240 286 345
#     4  11  22  37  56  86 122 156 197 248 294 341
#     4  11  20  36  58  81 115 161 203 239 291 343
#     4  10  22  41  63  90 120 148 191 239 291 354
#     4  10  22  36  52  82 121 156 201 250 290 337
#     4  10  21  39  62  89 116 153 197 239 286 354
#
# _framework density 18.204798
#
# number of rings (size 3 to 8) (size 9 to 14) (size 15 to 20)
#    0.000    1.667    3.333    1.500    0.000    2.000 
#    0.000    1.667    0.000    0.000    0.000    0.000 
#    0.000    0.000    0.000    0.000    0.000    0.000 
#
# Total GULP energy -133794.058909 kJ/mol
# GULP energy per Si atom -5574.752455 kJ/mol
# Density = 1.816336 g / cm^3
# Si number density = 18.204798 Si / 1000 Ang^3
#
#
#
# Elastic Constant Matrix: (Units=GPa)
#
#
# Indices 1 2 3 4 5 6 
#
# 1 90.0514 82.0706 38.4887 0.0000 -11.1062 0.0000
# 2 82.0706 115.3070 29.6612 0.0000 0.2991 0.0000
# 3 38.4887 29.6612 84.7732 0.0000 -20.4414 0.0000
# 4 0.0000 0.0000 0.0000 16.8703 0.0000 42.4543
# 5 -11.1062 0.2991 -20.4414 0.0000 22.6897 0.0000
# 6 0.0000 0.0000 0.0000 42.4543 0.0000 92.5866
#
#
#
# Elastic Compliance Matrix: (Units=1/GPa)
#
#
# Indices 1 2 3 4 5 6 
#
# 1 0.039809 -0.027126 -0.004852 0.000000 0.015472 0.000000
# 2 -0.027126 0.028307 -0.001124 0.000000 -0.014664 0.000000
# 3 -0.004852 -0.001124 0.017660 0.000000 0.013550 0.000000
# 4 0.000000 0.000000 0.000000 -0.385124 0.000000 0.176593
# 5 0.015472 -0.014664 0.013550 0.000000 0.064047 0.000000
# 6 0.000000 0.000000 0.000000 0.176593 0.000000 -0.070174
#
#
# Mechanical properties :
#
#
# Convention : Reuss Voigt Hill
#
# Bulk Modulus (GPa) = 51.09777 65.61918 58.35848
# Shear Modulus (GPa) = -21.48263 35.75672 7.13705
#
# Velocity S-wave (km/s) = -3.43892 4.43667 1.98215
# Velocity P-wave (km/s) = 3.51583 7.89738 6.11268
#
# Compressibility (1/GPa) = 0.01957032
#
# Stress axis : x y z
#
# Youngs Moduli (GPa) = 25.11985 35.32672 56.62583
#
# Poissons Ratio (x) = 0.95829 0.27475
# Poissons Ratio (y) = 0.68141 0.06367
# Poissons Ratio (z) = 0.12188 0.03972
#
# Static dielectric constant tensor:
#      x y z
#    x 1.587440 0.000000 -0.006080 
#    y 0.000000 1.533450 0.000000 
#    z -0.006080 0.000000 1.633740 
# 
# From -- ./inp_files/52205.got.cif
#   From: 2010.05.17/outbox.cif.g08.bks.cpg/sg11_27_cif.got.tgz:52205.got - 2010.06.03 12:22:45.
