data_PCOD9163396
_publ_section_title
;
Structure prediction by ZEFSAII (Michael W. Deem and Ramdas Pophale) SiO2 
 PCOD9163396
Probable space group: P 21/M
;
_chemical_formula_sum "Si O2"
_cell_formula_units_Z 32
_cell_length_a 12.301037
_cell_length_b 8.777700
_cell_length_c 31.959179
_cell_angle_alpha 90.000000
_cell_angle_beta 29.993329
_cell_angle_gamma 90.000000
_cell_volume 1725.045218
_symmetry_space_group_name_H-M "P 21/M"
_symmetry_group_IT_number 11
_symmetry_cell_setting 'monoclinic'
loop_
_space_group_symop_operation_xyz
x,y,z
-x,1/2+y,-z
-x,-y,-z
x,1/2-y,z
loop_
_atom_site_type_symbol
_atom_site_label
_atom_site_fract_x
_atom_site_fract_y
_atom_site_fract_z
Si Si1 0.027191 0.432395 0.375871
Si Si2 0.678677 0.431840 0.079354
Si Si3 0.880425 0.066902 0.100617
Si Si4 0.555018 0.567806 0.527181
Si Si5 0.213824 0.567929 0.227763
Si Si6 0.163605 0.432253 0.711018
Si Si7 0.202030 0.067204 0.407344
Si Si8 0.691724 0.065949 0.254106
O O1 0.005756 0.250000 0.379974
O O2 0.790923 0.505929 0.461146
O O3 0.126775 0.494977 0.299804
O O4 0.172181 0.468135 0.368133
O O5 0.657814 0.250000 0.083664
O O6 0.730121 0.472491 0.110795
O O7 0.456590 0.509516 0.139321
O O8 0.888061 0.487913 0.983922
O O9 0.910559 0.250000 0.089493
O O10 0.772781 0.026867 0.180585
O O11 0.500000 0.500000 0.500000
O O12 0.557662 0.750000 0.524495
O O13 0.369964 0.510170 0.620086
O O14 0.211734 0.750000 0.232908
O O15 0.048656 0.527187 0.245406
O O16 0.189074 0.250000 0.701194
O O17 0.163169 0.490709 0.758501
O O18 0.194503 0.250000 0.414077
O O19 0.439983 0.016283 0.343025
O O20 0.000000 0.000000 0.500000
O O21 0.698686 0.250000 0.255841
#
# Coordination Sequence:
#
# PCOD9163396 Si02
#       8
#     4   4   4   4   4   4   4   4
#     4  11  22  37  59  85 115 149 192 242 292 346
#     4  10  20  36  62  92 120 147 184 236 291 349
#     4   9  19  38  62  89 119 151 187 233 290 350
#     4  12  23  37  57  82 113 152 196 240 289 342
#     4  11  23  38  57  83 116 151 190 238 292 344
#     4  11  24  40  57  82 116 153 198 246 288 339
#     4  10  22  38  56  83 116 151 190 236 286 338
#     4  10  21  39  61  83 114 156 197 236 287 348
#
# _framework density 18.550236999999999
#
# number of rings (size 3 to 8) (size 9 to 14) (size 15 to 20)
#    0.000    1.500    1.250    4.125    0.000    8.000 
#    0.000    1.875    0.000    0.000    0.000    0.000 
#    0.000    0.000    0.000    0.000    0.000    0.000 
#
# Total GULP energy -178879.379159 kJ/mol
# GULP energy per Si atom -5589.980599 kJ/mol
# Density = 1.850802 g / cm^3
# Si number density = 18.550237 Si / 1000 Ang^3
#
#
#
# Elastic Constant Matrix: (Units=GPa)
#
#
# Indices 1 2 3 4 5 6 
#
# 1 118.1130 45.9685 54.8062 0.0000 -6.6834 0.0000
# 2 45.9685 52.3104 32.8422 0.0000 -5.5103 0.0000
# 3 54.8062 32.8422 88.0492 0.0000 -5.3579 0.0000
# 4 0.0000 0.0000 0.0000 32.6940 0.0000 -0.5558
# 5 -6.6834 -5.5103 -5.3579 0.0000 32.6563 0.0000
# 6 0.0000 0.0000 0.0000 -0.5558 0.0000 27.4944
#
#
#
# Elastic Compliance Matrix: (Units=1/GPa)
#
#
# Indices 1 2 3 4 5 6 
#
# 1 0.014772 -0.009368 -0.005670 0.000000 0.000512 0.000000
# 2 -0.009368 0.031143 -0.005639 0.000000 0.002413 0.000000
# 3 -0.005670 -0.005639 0.017031 0.000000 0.000683 0.000000
# 4 0.000000 0.000000 0.000000 0.030597 0.000000 0.000619
# 5 0.000512 0.002413 0.000683 0.000000 0.031246 0.000000
# 6 0.000000 0.000000 0.000000 0.000619 0.000000 0.036384
#
#
# Mechanical properties :
#
#
# Convention : Reuss Voigt Hill
#
# Bulk Modulus (GPa) = 46.30826 58.41181 52.36004
# Shear Modulus (GPa) = 23.84111 26.89266 25.36688
#
# Velocity S-wave (km/s) = 3.58888 3.81165 3.70194
# Velocity P-wave (km/s) = 6.49549 7.13641 6.82348
#
# Compressibility (1/GPa) = 0.02159442
#
# Stress axis : x y z
#
# Youngs Moduli (GPa) = 67.69569 32.11019 58.71648
#
# Poissons Ratio (x) = 0.30079 0.33290
# Poissons Ratio (y) = 0.63414 0.33107
# Poissons Ratio (z) = 0.38380 0.18105
#
# Static dielectric constant tensor:
#      x y z
#    x 1.643530 0.000000 0.004030 
#    y 0.000000 1.621410 0.000000 
#    z 0.004030 0.000000 1.616270 
# 
# From -- ./inp_files/73099.got.cif
#   From: 2010.05.17/outbox.cif.g08.bks.cpg/sg11_37_cif.got.tgz:73099.got - 2010.06.03 12:22:45.
