data_PCOD9163624
_publ_section_title
;
Structure prediction by ZEFSAII (Michael W. Deem and Ramdas Pophale) SiO2 
 PCOD9163624
Probable space group: P 21/M
;
_chemical_formula_sum "Si O2"
_cell_formula_units_Z 24
_cell_length_a 12.006475
_cell_length_b 13.997701
_cell_length_c 13.307948
_cell_angle_alpha 90.000000
_cell_angle_beta 148.334842
_cell_angle_gamma 90.000000
_cell_volume 1174.098999
_symmetry_space_group_name_H-M "P 21/M"
_symmetry_group_IT_number 11
_symmetry_cell_setting 'monoclinic'
loop_
_space_group_symop_operation_xyz
x,y,z
-x,1/2+y,-z
-x,-y,-z
x,1/2-y,z
loop_
_atom_site_type_symbol
_atom_site_label
_atom_site_fract_x
_atom_site_fract_y
_atom_site_fract_z
Si Si1 0.833620 0.636561 0.584972
Si Si2 0.763282 0.466302 0.011881
Si Si3 0.380459 0.635953 0.302344
Si Si4 0.065901 0.638864 0.466489
Si Si5 0.699021 0.534915 0.273374
Si Si6 0.059846 0.861252 0.231980
O O1 0.854257 0.750000 0.586916
O O2 0.632296 0.618189 0.503274
O O3 0.772934 0.587429 0.433277
O O4 0.047011 0.592532 0.791956
O O5 0.856930 0.571305 0.064769
O O6 0.702995 0.419066 0.859350
O O7 0.553510 0.464365 0.919729
O O8 0.356300 0.750000 0.266175
O O9 0.242107 0.611252 0.293199
O O10 0.064699 0.750000 0.493508
O O11 0.210220 0.572266 0.647525
O O12 0.829600 0.593734 0.291000
O O13 0.139690 0.629321 0.407972
O O14 0.005834 0.750000 0.174962
#
# Coordination Sequence:
#
# PCOD9163624 Si02
#       6
#     4   4   4   4   4   4
#     4  10  20  37  60  88 118 153 196 240 288 335
#     4  11  21  37  62  90 115 153 195 242 288 338
#     4   9  20  38  59  86 121 155 193 239 282 339
#     4  10  21  41  63  83 116 157 191 235 294 348
#     4  10  22  40  62  87 116 148 196 245 285 343
#     4  10  21  39  59  85 121 157 193 235 288 347
#
# _framework density 20.441205
#
# number of rings (size 3 to 8) (size 9 to 14) (size 15 to 20)
#    0.000    2.000    1.667    1.500    0.000    4.000 
#    3.000    0.000    0.000    0.000    0.000    0.000 
#    0.000    0.000    0.000    0.000    0.000    0.000 
#
# Total GULP energy -134129.468546 kJ/mol
# GULP energy per Si atom -5588.727856 kJ/mol
# Density = 2.039468 g / cm^3
# Si number density = 20.441205 Si / 1000 Ang^3
#
#
#
# Elastic Constant Matrix: (Units=GPa)
#
#
# Indices 1 2 3 4 5 6 
#
# 1 94.8376 17.4561 23.8243 0.0000 18.6634 0.0000
# 2 17.4561 108.0222 41.6548 0.0000 5.1994 0.0000
# 3 23.8243 41.6548 112.8286 0.0000 24.5150 0.0000
# 4 0.0000 0.0000 0.0000 21.5133 0.0000 1.6947
# 5 18.6634 5.1994 24.5150 0.0000 23.6088 0.0000
# 6 0.0000 0.0000 0.0000 1.6947 0.0000 27.8666
#
#
#
# Elastic Compliance Matrix: (Units=1/GPa)
#
#
# Indices 1 2 3 4 5 6 
#
# 1 0.012752 -0.001597 0.000014 0.000000 -0.009744 0.000000
# 2 -0.001597 0.011089 -0.004520 0.000000 0.003514 0.000000
# 3 0.000014 -0.004520 0.013320 0.000000 -0.012847 0.000000
# 4 0.000000 0.000000 0.000000 0.046707 0.000000 -0.002840
# 5 -0.009744 0.003514 -0.012847 0.000000 0.062626 0.000000
# 6 0.000000 0.000000 0.000000 -0.002840 0.000000 0.036058
#
#
# Mechanical properties :
#
#
# Convention : Reuss Voigt Hill
#
# Bulk Modulus (GPa) = 40.07205 53.50653 46.78929
# Shear Modulus (GPa) = 24.62106 30.11461 27.36783
#
# Velocity S-wave (km/s) = 3.47433 3.84243 3.66301
# Velocity P-wave (km/s) = 5.97836 6.77631 6.38980
#
# Compressibility (1/GPa) = 0.02495505
#
# Stress axis : x y z
#
# Youngs Moduli (GPa) = 78.41712 90.17602 75.07345
#
# Poissons Ratio (x) = 0.14403 -0.00105
# Poissons Ratio (y) = 0.12524 0.33936
# Poissons Ratio (z) = -0.00110 0.40763
#
# Static dielectric constant tensor:
#      x y z
#    x 1.761640 0.000000 0.006370 
#    y 0.000000 1.727970 0.000000 
#    z 0.006370 0.000000 1.699400 
# 
# From -- ./inp_files/50445.got.cif
#   From: 2010.05.17/outbox.cif.g08.bks.cpg/sg11_26_cif.got.tgz:50445.got - 2010.06.03 12:22:45.
