data_PCOD9163217
_publ_section_title
;
Structure prediction by ZEFSAII (Michael W. Deem and Ramdas Pophale) SiO2 
 PCOD9163217
Probable space group: P 21/M
;
_chemical_formula_sum "Si O2"
_cell_formula_units_Z 32
_cell_length_a 10.873102
_cell_length_b 17.911761
_cell_length_c 12.884279
_cell_angle_alpha 90.000000
_cell_angle_beta 146.026342
_cell_angle_gamma 90.000000
_cell_volume 1402.223856
_symmetry_space_group_name_H-M "P 21/M"
_symmetry_group_IT_number 11
_symmetry_cell_setting 'monoclinic'
loop_
_space_group_symop_operation_xyz
x,y,z
-x,1/2+y,-z
-x,-y,-z
x,1/2-y,z
loop_
_atom_site_type_symbol
_atom_site_label
_atom_site_fract_x
_atom_site_fract_y
_atom_site_fract_z
Si Si1 0.015106 0.335153 0.447348
Si Si2 0.563104 0.508533 0.704270
Si Si3 0.149322 0.517293 0.281214
Si Si4 0.738190 0.670323 0.801829
Si Si5 0.483095 0.096808 0.830099
Si Si6 0.061153 0.634804 0.848092
Si Si7 0.455781 0.660962 0.907522
Si Si8 0.058454 0.331336 0.842859
O O1 0.051935 0.250000 0.505911
O O2 0.232908 0.378665 0.633174
O O3 0.984614 0.340087 0.301222
O O4 0.768847 0.358244 0.311323
O O5 0.352881 0.485930 0.489248
O O6 0.769555 0.476898 0.781577
O O7 0.594152 0.597254 0.718626
O O8 0.523405 0.477248 0.790786
O O9 0.963668 0.455091 0.162937
O O10 0.078842 0.595967 0.279217
O O11 0.619347 0.750000 0.726499
O O12 0.869211 0.664802 0.786448
O O13 0.923928 0.669417 0.020508
O O14 0.689119 0.150561 0.939948
O O15 0.519421 0.103973 0.978842
O O16 0.430777 0.750000 0.921444
O O17 0.687497 0.658883 0.012051
O O18 0.981902 0.250000 0.751442
#
# Coordination Sequence:
#
# PCOD9163217 Si02
#       8
#     4   4   4   4   4   4   4   4
#     4  10  20  36  59  88 120 155 200 252 304 358
#     4  10  21  37  61  91 125 158 201 249 306 365
#     4  10  20  39  61  86 125 165 193 247 308 364
#     4  10  21  38  60  88 121 159 200 245 302 368
#     4  11  20  36  63  91 118 162 204 250 308 355
#     4  10  20  37  63  90 124 154 193 248 306 363
#     4   9  21  41  61  85 122 163 206 256 301 351
#     4  10  21  40  62  86 120 164 208 248 300 362
#
# _framework density 22.820892000000001
#
# number of rings (size 3 to 8) (size 9 to 14) (size 15 to 20)
#    0.000    2.000    1.250    2.250    0.000    4.000 
#    2.250    7.500    0.000    0.000    0.000    0.000 
#    0.000    0.000    0.000    0.000    0.000    0.000 
#
# Total GULP energy -178478.793993 kJ/mol
# GULP energy per Si atom -5577.462312 kJ/mol
# Density = 2.276895 g / cm^3
# Si number density = 22.820892 Si / 1000 Ang^3
#
#
#
# Elastic Constant Matrix: (Units=GPa)
#
#
# Indices 1 2 3 4 5 6 
#
# 1 20.8770 23.1800 1.0500 0.0000 11.3152 0.0000
# 2 23.1800 112.5894 24.3567 0.0000 23.6942 0.0000
# 3 1.0500 24.3567 99.0045 0.0000 22.6943 0.0000
# 4 0.0000 0.0000 0.0000 19.5734 0.0000 3.5499
# 5 11.3152 23.6942 22.6943 0.0000 23.5550 0.0000
# 6 0.0000 0.0000 0.0000 3.5499 0.0000 13.9489
#
#
#
# Elastic Compliance Matrix: (Units=1/GPa)
#
#
# Indices 1 2 3 4 5 6 
#
# 1 0.079605 -0.010760 0.010380 0.000000 -0.037417 0.000000
# 2 -0.010760 0.012725 -0.001626 0.000000 -0.006065 0.000000
# 3 0.010380 -0.001626 0.014321 0.000000 -0.017148 0.000000
# 4 0.000000 0.000000 0.000000 0.053562 0.000000 -0.013631
# 5 -0.037417 -0.006065 -0.017148 0.000000 0.083050 0.000000
# 6 0.000000 0.000000 0.000000 -0.013631 0.000000 0.075159
#
#
# Mechanical properties :
#
#
# Convention : Reuss Voigt Hill
#
# Bulk Modulus (GPa) = 9.74301 36.62714 23.18508
# Shear Modulus (GPa) = 14.01939 23.67441 18.84690
#
# Velocity S-wave (km/s) = 2.48124 3.22436 2.87690
# Velocity P-wave (km/s) = 3.53375 5.47236 4.60619
#
# Compressibility (1/GPa) = 0.10263767
#
# Stress axis : x y z
#
# Youngs Moduli (GPa) = 12.56207 78.58373 69.82549
#
# Poissons Ratio (x) = 0.84559 -0.72478
# Poissons Ratio (y) = 0.13517 0.11356
# Poissons Ratio (z) = -0.13039 0.12780
#
# Static dielectric constant tensor:
#      x y z
#    x 1.890820 0.000000 0.009470 
#    y 0.000000 1.894470 0.000000 
#    z 0.009470 0.000000 1.840310 
# 
# From -- ./inp_files/50692.got.cif
#   From: 2010.05.17/outbox.cif.g08.bks.cpg/sg11_26_cif.got.tgz:50692.got - 2010.06.03 12:22:45.
