data_PCOD9163593
_publ_section_title
;
Structure prediction by ZEFSAII (Michael W. Deem and Ramdas Pophale) SiO2 
 PCOD9163593
Probable space group: P 21/M
;
_chemical_formula_sum "Si O2"
_cell_formula_units_Z 32
_cell_length_a 22.052232
_cell_length_b 8.803402
_cell_length_c 28.470425
_cell_angle_alpha 90.000000
_cell_angle_beta 18.831675
_cell_angle_gamma 90.000000
_cell_volume 1784.085827
_symmetry_space_group_name_H-M "P 21/M"
_symmetry_group_IT_number 11
_symmetry_cell_setting 'monoclinic'
loop_
_space_group_symop_operation_xyz
x,y,z
-x,1/2+y,-z
-x,-y,-z
x,1/2-y,z
loop_
_atom_site_type_symbol
_atom_site_label
_atom_site_fract_x
_atom_site_fract_y
_atom_site_fract_z
Si Si1 0.197322 0.431149 0.599096
Si Si2 0.400594 0.567700 0.181489
Si Si3 0.690358 0.930890 0.651334
Si Si4 0.466979 0.568077 0.323662
Si Si5 0.177578 0.430989 0.159692
Si Si6 0.793573 0.932025 0.154622
Si Si7 0.885672 0.432470 0.691645
Si Si8 0.507702 0.067115 0.546325
O O1 0.206406 0.250000 0.594533
O O2 0.304272 0.489772 0.473925
O O3 0.311839 0.504037 0.558117
O O4 0.984608 0.487668 0.751182
O O5 0.384365 0.750000 0.199631
O O6 0.345385 0.487015 0.270033
O O7 0.262065 0.524845 0.240498
O O8 0.614500 0.532424 0.010899
O O9 0.666982 0.750000 0.665253
O O10 0.904084 0.968131 0.479674
O O11 0.554439 0.011647 0.713532
O O12 0.444277 0.750000 0.343124
O O13 0.662119 0.527508 0.206407
O O14 0.150119 0.250000 0.177401
O O15 0.157608 0.485547 0.227939
O O16 0.808981 0.750000 0.144292
O O17 0.673058 0.977369 0.289135
O O18 0.000000 0.000000 0.000000
O O19 0.874131 0.250000 0.707440
O O20 0.515254 0.250000 0.539492
O O21 0.500000 0.000000 0.500000
#
# Coordination Sequence:
#
# PCOD9163593 Si02
#       8
#     4   4   4   4   4   4   4   4
#     4  11  21  36  60  87 115 151 194 241 286 337
#     4  10  23  40  56  81 118 154 190 238 292 345
#     4  11  22  36  58  87 115 150 194 238 289 342
#     4  10  20  37  60  85 115 152 194 237 281 339
#     4  11  22  37  59  85 113 153 196 236 289 345
#     4   9  20  37  59  87 117 149 188 231 278 334
#     4  10  21  38  60  85 113 147 193 241 286 346
#     4  10  21  39  61  89 120 153 192 235 282 340
#
# _framework density 17.936356
#
# number of rings (size 3 to 8) (size 9 to 14) (size 15 to 20)
#    0.000    1.750    1.250    4.125    0.000    5.000 
#    2.250    0.000    0.000    0.000    0.000    0.000 
#    0.000    0.000    0.000    0.000    0.000    0.000 
#
# Total GULP energy -178776.617088 kJ/mol
# GULP energy per Si atom -5586.769284 kJ/mol
# Density = 1.789553 g / cm^3
# Si number density = 17.936356 Si / 1000 Ang^3
#
#
#
# Elastic Constant Matrix: (Units=GPa)
#
#
# Indices 1 2 3 4 5 6 
#
# 1 116.2672 42.6438 47.3692 0.0000 -10.5956 0.0000
# 2 42.6438 61.1546 46.5622 0.0000 -4.5378 0.0000
# 3 47.3692 46.5622 90.1207 0.0000 -18.2039 0.0000
# 4 0.0000 0.0000 0.0000 26.2118 0.0000 -0.6506
# 5 -10.5956 -4.5378 -18.2039 0.0000 27.0171 0.0000
# 6 0.0000 0.0000 0.0000 -0.6506 0.0000 35.5247
#
#
#
# Elastic Compliance Matrix: (Units=1/GPa)
#
#
# Indices 1 2 3 4 5 6 
#
# 1 0.012201 -0.006217 -0.002831 0.000000 0.001834 0.000000
# 2 -0.006217 0.030882 -0.014044 0.000000 -0.006714 0.000000
# 3 -0.002831 -0.014044 0.022155 0.000000 0.011459 0.000000
# 4 0.000000 0.000000 0.000000 0.038168 0.000000 0.000699
# 5 0.001834 -0.006714 0.011459 0.000000 0.044326 0.000000
# 6 0.000000 0.000000 0.000000 0.000699 0.000000 0.028162
#
#
# Mechanical properties :
#
#
# Convention : Reuss Voigt Hill
#
# Bulk Modulus (GPa) = 52.48083 60.07700 56.27892
# Shear Modulus (GPa) = 21.88857 26.48187 24.18522
#
# Velocity S-wave (km/s) = 3.49714 3.84661 3.67603
# Velocity P-wave (km/s) = 6.75497 7.30040 7.03297
#
# Compressibility (1/GPa) = 0.01905458
#
# Stress axis : x y z
#
# Youngs Moduli (GPa) = 81.95716 32.38153 45.13650
#
# Poissons Ratio (x) = 0.20131 0.12778
# Poissons Ratio (y) = 0.50950 0.63390
# Poissons Ratio (z) = 0.23202 0.45477
#
# Static dielectric constant tensor:
#      x y z
#    x 1.598430 0.000000 -0.011140 
#    y 0.000000 1.600630 0.000000 
#    z -0.011140 0.000000 1.594570 
# 
# From -- ./inp_files/71983.got.cif
#   From: 2010.05.17/outbox.cif.g08.bks.cpg/sg11_36_cif.got.tgz:71983.got - 2010.06.03 12:22:45.
