data_PCOD9163326
_publ_section_title
;
Structure prediction by ZEFSAII (Michael W. Deem and Ramdas Pophale) SiO2 
 PCOD9163326
Probable space group: P 21/M
;
_chemical_formula_sum "Si O2"
_cell_formula_units_Z 28
_cell_length_a 9.687649
_cell_length_b 8.628799
_cell_length_c 26.408462
_cell_angle_alpha 90.000000
_cell_angle_beta 38.310641
_cell_angle_gamma 90.000000
_cell_volume 1368.519048
_symmetry_space_group_name_H-M "P 21/M"
_symmetry_group_IT_number 11
_symmetry_cell_setting 'monoclinic'
loop_
_space_group_symop_operation_xyz
x,y,z
-x,1/2+y,-z
-x,-y,-z
x,1/2-y,z
loop_
_atom_site_type_symbol
_atom_site_label
_atom_site_fract_x
_atom_site_fract_y
_atom_site_fract_z
Si Si1 0.938204 0.933503 0.180559
Si Si2 0.526183 0.435798 0.245947
Si Si3 0.250182 0.934789 0.925333
Si Si4 0.955010 0.436907 0.633746
Si Si5 0.898984 0.436783 0.298242
Si Si6 0.664167 0.933421 0.994685
Si Si7 0.425666 0.063999 0.467143
O O1 0.967564 0.750000 0.168372
O O2 0.687210 0.983042 0.239738
O O3 0.003383 0.992386 0.217656
O O4 0.091679 0.017432 0.094900
O O5 0.538754 0.250000 0.248371
O O6 0.624210 0.478453 0.162304
O O7 0.273118 0.491880 0.320559
O O8 0.237482 0.750000 0.930754
O O9 0.375603 0.995733 0.938774
O O10 0.000000 0.000000 0.000000
O O11 0.941379 0.250000 0.639371
O O12 0.003806 0.498581 0.676883
O O13 0.167819 0.483445 0.537494
O O14 0.920481 0.250000 0.291941
O O15 0.634562 0.480445 0.372288
O O16 0.646820 0.750000 0.002253
O O17 0.500000 0.000000 0.000000
O O18 0.425718 0.250000 0.468216
O O19 0.500000 0.000000 0.500000
#
# Coordination Sequence:
#
# PCOD9163326 Si02
#       7
#     4   4   4   4   4   4   4
#     4  12  25  42  62  87 120 157 198 245 299 353
#     4  11  24  41  61  87 120 158 198 243 296 353
#     4  11  23  41  65  89 118 157 201 242 292 351
#     4  10  20  36  60  91 122 154 199 246 291 349
#     4  10  20  37  61  88 121 158 197 243 298 353
#     4  12  26  44  65  90 122 157 197 245 296 349
#     4   8  16  32  56  85 117 154 194 240 291 347
#
# _framework density 20.460073999999999
#
# number of rings (size 3 to 8) (size 9 to 14) (size 15 to 20)
#    0.000    1.429    1.429    4.286    2.000    2.857 
#    0.000    0.714    0.000    0.000    0.000    0.000 
#    0.000    0.000    0.000    0.000    0.000    0.000 
#
# Total GULP energy -156452.146074 kJ/mol
# GULP energy per Si atom -5587.576645 kJ/mol
# Density = 2.041351 g / cm^3
# Si number density = 20.460074 Si / 1000 Ang^3
#
#
#
# Elastic Constant Matrix: (Units=GPa)
#
#
# Indices 1 2 3 4 5 6 
#
# 1 66.3729 2.4269 -7.7803 0.0000 -8.2898 0.0000
# 2 2.4269 45.7907 -2.4957 0.0000 2.3391 0.0000
# 3 -7.7803 -2.4957 29.9587 0.0000 -9.9406 0.0000
# 4 0.0000 0.0000 0.0000 26.6467 0.0000 -5.9990
# 5 -8.2898 2.3391 -9.9406 0.0000 40.7753 0.0000
# 6 0.0000 0.0000 0.0000 -5.9990 0.0000 32.6756
#
#
#
# Elastic Compliance Matrix: (Units=1/GPa)
#
#
# Indices 1 2 3 4 5 6 
#
# 1 0.016369 -0.000797 0.005771 0.000000 0.004780 0.000000
# 2 -0.000797 0.022006 0.001255 0.000000 -0.001119 0.000000
# 3 0.005771 0.001255 0.038459 0.000000 0.010477 0.000000
# 4 0.000000 0.000000 0.000000 0.039146 0.000000 0.007187
# 5 0.004780 -0.001119 0.010477 0.000000 0.028115 0.000000
# 6 0.000000 0.000000 0.000000 0.007187 0.000000 0.031923
#
#
# Mechanical properties :
#
#
# Convention : Reuss Voigt Hill
#
# Bulk Modulus (GPa) = 11.19929 14.04715 12.62322
# Shear Modulus (GPa) = 25.86317 30.01762 27.94039
#
# Velocity S-wave (km/s) = 3.55925 3.83447 3.69942
# Velocity P-wave (km/s) = 4.73039 5.14633 4.94274
#
# Compressibility (1/GPa) = 0.08929138
#
# Stress axis : x y z
#
# Youngs Moduli (GPa) = 61.09081 45.44158 26.00183
#
# Poissons Ratio (x) = 0.03623 -0.15005
# Poissons Ratio (y) = 0.04870 -0.03263
# Poissons Ratio (z) = -0.35255 -0.05703
#
# Static dielectric constant tensor:
#      x y z
#    x 1.718180 0.000000 -0.037980 
#    y 0.000000 1.697530 0.000000 
#    z -0.037980 0.000000 1.779010 
# 
# From -- ./inp_files/70818.got.cif
#   From: 2010.05.17/outbox.cif.g08.bks.cpg/sg11_36_cif.got.tgz:70818.got - 2010.06.03 12:22:45.
