data_PCOD9163775
_publ_section_title
;
Structure prediction by ZEFSAII (Michael W. Deem and Ramdas Pophale) SiO2 
 PCOD9163775
Probable space group: P 21/M
;
_chemical_formula_sum "Si O2"
_cell_formula_units_Z 24
_cell_length_a 19.580080
_cell_length_b 8.725567
_cell_length_c 15.020751
_cell_angle_alpha 90.000000
_cell_angle_beta 31.427352
_cell_angle_gamma 90.000000
_cell_volume 1338.088963
_symmetry_space_group_name_H-M "P 21/M"
_symmetry_group_IT_number 11
_symmetry_cell_setting 'monoclinic'
loop_
_space_group_symop_operation_xyz
x,y,z
-x,1/2+y,-z
-x,-y,-z
x,1/2-y,z
loop_
_atom_site_type_symbol
_atom_site_label
_atom_site_fract_x
_atom_site_fract_y
_atom_site_fract_z
Si Si1 0.617096 0.431975 0.927632
Si Si2 0.623864 0.934478 0.309731
Si Si3 0.089759 0.933514 0.978402
Si Si4 0.333881 0.431695 0.941384
Si Si5 0.030869 0.432801 0.235150
Si Si6 0.109565 0.433093 0.444111
O O1 0.622354 0.250000 0.912697
O O2 0.751209 0.505641 0.742906
O O3 0.500000 0.500000 0.000000
O O4 0.605284 0.477310 0.044554
O O5 0.629629 0.750000 0.310472
O O6 0.615286 0.972229 0.213726
O O7 0.500000 0.000000 0.500000
O O8 0.761295 0.003313 0.191389
O O9 0.091489 0.750000 0.973666
O O10 0.032872 0.992233 0.135865
O O11 0.000000 0.000000 0.000000
O O12 0.354401 0.250000 0.932590
O O13 0.176961 0.458090 0.112596
O O14 0.011988 0.250000 0.249134
O O15 0.927381 0.506929 0.416863
O O16 0.106658 0.250000 0.444095
O O17 0.000000 0.500000 0.500000
#
# Coordination Sequence:
#
# PCOD9163775 Si02
#       6
#     4   4   4   4   4   4
#     4  12  25  41  61  86 121 159 199 247 300 355
#     4  10  21  39  63  90 120 155 200 246 296 356
#     4  11  22  39  62  89 123 159 199 247 301 355
#     4   9  19  37  61  86 118 155 196 242 295 355
#     4  10  20  37  62  91 121 155 198 246 296 351
#     4  12  23  38  62  91 121 156 201 246 291 350
#
# _framework density 17.936028
#
# number of rings (size 3 to 8) (size 9 to 14) (size 15 to 20)
#    0.000    1.333    1.667    6.500    0.000    3.333 
#    3.000    0.000    0.000    0.000    0.000    0.000 
#    0.000    0.000    0.000    0.000    0.000    0.000 
#
# Total GULP energy -134156.536523 kJ/mol
# GULP energy per Si atom -5589.855688 kJ/mol
# Density = 1.789520 g / cm^3
# Si number density = 17.936028 Si / 1000 Ang^3
#
#
#
# Elastic Constant Matrix: (Units=GPa)
#
#
# Indices 1 2 3 4 5 6 
#
# 1 155.7868 90.9827 81.9550 0.0000 -1.5264 0.0000
# 2 90.9827 155.4643 67.1742 0.0000 1.8578 0.0000
# 3 81.9550 67.1742 139.6079 0.0000 7.8436 0.0000
# 4 0.0000 0.0000 0.0000 34.2511 0.0000 2.8159
# 5 -1.5264 1.8578 7.8436 0.0000 22.8737 0.0000
# 6 0.0000 0.0000 0.0000 2.8159 0.0000 35.0673
#
#
#
# Elastic Compliance Matrix: (Units=1/GPa)
#
#
# Indices 1 2 3 4 5 6 
#
# 1 0.011788 -0.004891 -0.004724 0.000000 0.002804 0.000000
# 2 -0.004891 0.010161 -0.001991 0.000000 -0.000469 0.000000
# 3 -0.004724 -0.001991 0.011117 0.000000 -0.003966 0.000000
# 4 0.000000 0.000000 0.000000 0.029390 0.000000 -0.002360
# 5 0.002804 -0.000469 -0.003966 0.000000 0.045303 0.000000
# 6 0.000000 0.000000 0.000000 -0.002360 0.000000 0.028706
#
#
# Mechanical properties :
#
#
# Convention : Reuss Voigt Hill
#
# Bulk Modulus (GPa) = 101.49422 103.45365 102.47394
# Shear Modulus (GPa) = 30.68161 32.48823 31.58492
#
# Velocity S-wave (km/s) = 4.14044 4.26060 4.20095
# Velocity P-wave (km/s) = 8.92005 9.05583 8.98820
#
# Compressibility (1/GPa) = 0.00985278
#
# Stress axis : x y z
#
# Youngs Moduli (GPa) = 84.82966 98.41700 89.95011
#
# Poissons Ratio (x) = 0.48137 0.42495
# Poissons Ratio (y) = 0.41491 0.17913
# Poissons Ratio (z) = 0.40076 0.19599
#
# Static dielectric constant tensor:
#      x y z
#    x 1.601110 0.000000 0.019310 
#    y 0.000000 1.582480 0.000000 
#    z 0.019310 0.000000 1.594470 
# 
# From -- ./inp_files/53139.got.cif
#   From: 2010.05.17/outbox.cif.g08.bks.cpg/sg11_27_cif.got.tgz:53139.got - 2010.06.03 12:22:45.
