data_PCOD9163016
_publ_section_title
;
Structure prediction by ZEFSAII (Michael W. Deem and Ramdas Pophale) SiO2 
 PCOD9163016
Probable space group: P 21/M
;
_chemical_formula_sum "Si O2"
_cell_formula_units_Z 28
_cell_length_a 8.676670
_cell_length_b 14.843902
_cell_length_c 12.194971
_cell_angle_alpha 90.000000
_cell_angle_beta 120.115387
_cell_angle_gamma 90.000000
_cell_volume 1358.646349
_symmetry_space_group_name_H-M "P 21/M"
_symmetry_group_IT_number 11
_symmetry_cell_setting 'monoclinic'
loop_
_space_group_symop_operation_xyz
x,y,z
-x,1/2+y,-z
-x,-y,-z
x,1/2-y,z
loop_
_atom_site_type_symbol
_atom_site_label
_atom_site_fract_x
_atom_site_fract_y
_atom_site_fract_z
Si Si1 0.244064 0.144411 0.682834
Si Si2 0.884930 0.354458 0.436505
Si Si3 0.691525 0.954993 0.070207
Si Si4 0.680869 0.052137 0.532220
Si Si5 0.980618 0.923801 0.737128
Si Si6 0.186078 0.465054 0.113248
Si Si7 0.625421 0.353971 0.723643
O O1 0.218386 0.250000 0.681060
O O2 0.414527 0.130254 0.665886
O O3 0.059780 0.110814 0.565387
O O4 0.290750 0.110281 0.820178
O O5 0.851191 0.250000 0.449919
O O6 0.719582 0.413545 0.422924
O O7 0.939843 0.360869 0.328786
O O8 0.847055 0.026600 0.151892
O O9 0.500000 0.000000 0.000000
O O10 0.720878 0.918971 0.957501
O O11 0.679988 0.136180 0.616296
O O12 0.500000 0.000000 0.500000
O O13 0.845750 0.990325 0.626544
O O14 0.859803 0.900302 0.800470
O O15 0.284170 0.558517 0.185802
O O16 0.000000 0.500000 0.000000
O O17 0.664593 0.250000 0.775273
#
# Coordination Sequence:
#
# PCOD9163016 Si02
#       7
#     4   4   4   4   4   4   4
#     4  10  21  37  61  93 122 157 207 264 319 370
#     4  11  23  41  62  91 129 163 203 261 325 381
#     4  11  20  37  63  86 125 166 212 259 305 367
#     4  11  22  35  61  91 122 158 205 254 316 375
#     4  10  22  38  61  90 122 158 211 251 313 366
#     4   9  20  37  54  88 119 160 211 256 297 368
#     4  10  20  36  57  87 121 157 204 259 314 364
#
# _framework density 20.608747999999999
#
# number of rings (size 3 to 8) (size 9 to 14) (size 15 to 20)
#    0.000    1.714    2.857    1.714    2.000    0.000 
#    0.000    5.000    0.000    0.000    0.000    0.000 
#    0.000    0.000    0.000    0.000    0.000    0.000 
#
# Total GULP energy -155925.438661 kJ/mol
# GULP energy per Si atom -5568.765666 kJ/mol
# Density = 2.056184 g / cm^3
# Si number density = 20.608748 Si / 1000 Ang^3
#
#
#
# Elastic Constant Matrix: (Units=GPa)
#
#
# Indices 1 2 3 4 5 6 
#
# 1 114.0246 35.0808 34.4725 0.0000 -19.2600 0.0000
# 2 35.0808 44.6426 18.1768 0.0000 1.0482 0.0000
# 3 34.4725 18.1768 62.8495 0.0000 -13.6534 0.0000
# 4 0.0000 0.0000 0.0000 25.3045 0.0000 -3.6072
# 5 -19.2600 1.0482 -13.6534 0.0000 53.9547 0.0000
# 6 0.0000 0.0000 0.0000 -3.6072 0.0000 27.5684
#
#
#
# Elastic Compliance Matrix: (Units=1/GPa)
#
#
# Indices 1 2 3 4 5 6 
#
# 1 0.013393 -0.009044 -0.003866 0.000000 0.003978 0.000000
# 2 -0.009044 0.031817 -0.005372 0.000000 -0.005206 0.000000
# 3 -0.003866 -0.005372 0.020431 0.000000 0.003894 0.000000
# 4 0.000000 0.000000 0.000000 0.040270 0.000000 0.005269
# 5 0.003978 -0.005206 0.003894 0.000000 0.021041 0.000000
# 6 0.000000 0.000000 0.000000 0.005269 0.000000 0.036963
#
#
# Mechanical properties :
#
#
# Convention : Reuss Voigt Hill
#
# Bulk Modulus (GPa) = 34.39194 44.10855 39.25024
# Shear Modulus (GPa) = 23.79009 30.28463 27.03736
#
# Velocity S-wave (km/s) = 3.40129 3.83757 3.62600
# Velocity P-wave (km/s) = 5.67003 6.40977 6.05122
#
# Compressibility (1/GPa) = 0.02907658
#
# Stress axis : x y z
#
# Youngs Moduli (GPa) = 74.66399 31.43016 48.94431
#
# Poissons Ratio (x) = 0.28425 0.18923
# Poissons Ratio (y) = 0.67525 0.26294
# Poissons Ratio (z) = 0.28867 0.16885
#
# Static dielectric constant tensor:
#      x y z
#    x 1.698480 0.000000 0.181710 
#    y 0.000000 1.739010 0.000000 
#    z 0.181710 0.000000 1.190480 
# 
# From -- ./inp_files/31950.got.cif
#   From: 2010.05.17/outbox.cif.g08.bks.cpg/sg11_16_cif.got.tgz:31950.got - 2010.06.03 12:22:45.
