data_PCOD9163783
_publ_section_title
;
Structure prediction by ZEFSAII (Michael W. Deem and Ramdas Pophale) SiO2 
 PCOD9163783
Probable space group: P 21/M
;
_chemical_formula_sum "Si O2"
_cell_formula_units_Z 28
_cell_length_a 21.575912
_cell_length_b 8.561878
_cell_length_c 15.536413
_cell_angle_alpha 90.000000
_cell_angle_beta 27.401848
_cell_angle_gamma 90.000000
_cell_volume 1320.877031
_symmetry_space_group_name_H-M "P 21/M"
_symmetry_group_IT_number 11
_symmetry_cell_setting 'monoclinic'
loop_
_space_group_symop_operation_xyz
x,y,z
-x,1/2+y,-z
-x,-y,-z
x,1/2-y,z
loop_
_atom_site_type_symbol
_atom_site_label
_atom_site_fract_x
_atom_site_fract_y
_atom_site_fract_z
Si Si1 0.966960 0.564203 0.637124
Si Si2 0.484169 0.921796 0.274684
Si Si3 0.468312 0.427550 0.129366
Si Si4 0.654592 0.431622 0.324233
Si Si5 0.271452 0.931022 0.954541
Si Si6 0.225884 0.071200 0.651447
Si Si7 0.849893 0.568210 0.440197
O O1 0.944024 0.750000 0.658964
O O2 0.841824 0.477606 0.837654
O O3 0.000000 0.500000 0.500000
O O4 0.080396 0.529155 0.570100
O O5 0.422801 0.750000 0.355875
O O6 0.533631 0.959567 0.118830
O O7 0.378013 0.055053 0.428120
O O8 0.609333 0.945838 0.180293
O O9 0.516314 0.250000 0.078454
O O10 0.307995 0.430436 0.341854
O O11 0.500000 0.500000 0.000000
O O12 0.500000 0.500000 0.500000
O O13 0.628807 0.250000 0.372662
O O14 0.746208 0.493925 0.290419
O O15 0.748282 0.443371 0.123576
O O16 0.311936 0.750000 0.920534
O O17 0.186064 0.250000 0.713226
O O18 0.141667 0.012185 0.670926
O O19 0.897908 0.750000 0.383653
#
# Coordination Sequence:
#
# PCOD9163783 Si02
#       7
#     4   4   4   4   4   4   4
#     4  12  27  46  69  92 121 165 215 267 319 377
#     4  11  21  34  56  87 124 162 203 252 310 375
#     4  10  21  36  57  85 120 157 201 256 315 375
#     4  11  22  36  62  96 133 170 208 258 317 381
#     4  11  24  42  63  90 127 167 213 263 314 374
#     4  10  20  37  62  92 129 167 203 251 312 373
#     4   9  21  42  63  86 121 163 208 258 312 372
#
# _framework density 21.198036999999999
#
# number of rings (size 3 to 8) (size 9 to 14) (size 15 to 20)
#    0.000    1.429    1.429    5.143    2.000    5.143 
#    0.000    0.714    0.000    0.000    0.000    0.000 
#    0.000    0.000    0.000    0.000    0.000    0.000 
#
# Total GULP energy -155888.201257 kJ/mol
# GULP energy per Si atom -5567.435759 kJ/mol
# Density = 2.114979 g / cm^3
# Si number density = 21.198037 Si / 1000 Ang^3
#
#
#
# Elastic Constant Matrix: (Units=GPa)
#
#
# Indices 1 2 3 4 5 6 
#
# 1 130.7994 30.4021 17.6471 0.0000 31.7741 0.0000
# 2 30.4021 80.7934 0.6647 0.0000 7.9867 0.0000
# 3 17.6471 0.6647 41.2001 0.0000 23.6063 0.0000
# 4 0.0000 0.0000 0.0000 25.5107 0.0000 3.4340
# 5 31.7741 7.9867 23.6063 0.0000 35.0617 0.0000
# 6 0.0000 0.0000 0.0000 3.4340 0.0000 35.5532
#
#
#
# Elastic Compliance Matrix: (Units=1/GPa)
#
#
# Indices 1 2 3 4 5 6 
#
# 1 0.010528 -0.003029 0.000994 0.000000 -0.009520 0.000000
# 2 -0.003029 0.013676 0.002098 0.000000 -0.001783 0.000000
# 3 0.000994 0.002098 0.040054 0.000000 -0.028346 0.000000
# 4 0.000000 0.000000 0.000000 0.039716 0.000000 -0.003836
# 5 -0.009520 -0.001783 -0.028346 0.000000 0.056640 0.000000
# 6 0.000000 0.000000 0.000000 -0.003836 0.000000 0.028497
#
#
# Mechanical properties :
#
#
# Convention : Reuss Voigt Hill
#
# Bulk Modulus (GPa) = 15.53145 38.91343 27.22244
# Shear Modulus (GPa) = 23.75933 32.83038 28.29486
#
# Velocity S-wave (km/s) = 3.35151 3.93968 3.65744
# Velocity P-wave (km/s) = 4.72436 6.25234 5.54127
#
# Compressibility (1/GPa) = 0.06438548
#
# Stress axis : x y z
#
# Youngs Moduli (GPa) = 94.98706 73.12115 24.96655
#
# Poissons Ratio (x) = 0.22146 -0.02482
# Poissons Ratio (y) = 0.28768 -0.05239
# Poissons Ratio (z) = -0.09444 -0.15344
#
# Static dielectric constant tensor:
#      x y z
#    x 1.845150 0.000000 -0.019650 
#    y 0.000000 1.765280 0.000000 
#    z -0.019650 0.000000 1.768620 
# 
# From -- ./inp_files/54456.got.cif
#   From: 2010.05.17/outbox.cif.g08.bks.cpg/sg11_28_cif.got.tgz:54456.got - 2010.06.03 12:22:45.
