data_PCOD9163617
_publ_section_title
;
Structure prediction by ZEFSAII (Michael W. Deem and Ramdas Pophale) SiO2 
 PCOD9163617
Probable space group: P 21/M
;
_chemical_formula_sum "Si O2"
_cell_formula_units_Z 32
_cell_length_a 30.919467
_cell_length_b 8.199586
_cell_length_c 12.908728
_cell_angle_alpha 90.000000
_cell_angle_beta 151.497990
_cell_angle_gamma 90.000000
_cell_volume 1561.702605
_symmetry_space_group_name_H-M "P 21/M"
_symmetry_group_IT_number 11
_symmetry_cell_setting 'monoclinic'
loop_
_space_group_symop_operation_xyz
x,y,z
-x,1/2+y,-z
-x,-y,-z
x,1/2-y,z
loop_
_atom_site_type_symbol
_atom_site_label
_atom_site_fract_x
_atom_site_fract_y
_atom_site_fract_z
Si Si1 0.039683 0.052662 0.473329
Si Si2 0.126804 0.554525 0.013466
Si Si3 0.753768 0.947784 0.131817
Si Si4 0.675195 0.447112 0.605670
Si Si5 0.265363 0.051071 0.674771
Si Si6 0.593176 0.055701 0.643680
Si Si7 0.100996 0.055183 0.190432
Si Si8 0.397375 0.445140 0.770345
O O1 0.042096 0.250000 0.473417
O O2 0.143106 0.996584 0.674189
O O3 0.966232 0.993302 0.233855
O O4 0.000000 0.000000 0.500000
O O5 0.125228 0.750000 0.999877
O O6 0.220680 0.495383 0.159989
O O7 0.131158 0.512195 0.143238
O O8 0.753988 0.750000 0.130931
O O9 0.725509 0.002800 0.187904
O O10 0.679936 0.006497 0.894555
O O11 0.676030 0.250000 0.610431
O O12 0.611599 0.506380 0.565412
O O13 0.641731 0.496276 0.421652
O O14 0.268341 0.250000 0.683006
O O15 0.168577 0.002206 0.423579
O O16 0.339236 0.995083 0.746654
O O17 0.589228 0.250000 0.630066
O O18 0.500000 0.000000 0.500000
O O19 0.104867 0.250000 0.193642
O O20 0.000000 0.000000 0.000000
O O21 0.392302 0.250000 0.759936
O O22 0.500000 0.500000 0.000000
#
# Coordination Sequence:
#
# PCOD9163617 Si02
#       8
#     4   4   4   4   4   4   4   4
#     4  10  21  37  60  88 122 163 205 252 302 358
#     4  10  20  37  60  87 119 157 199 246 299 356
#     4  10  21  40  63  88 121 163 205 248 304 363
#     4  10  22  41  64  89 123 161 200 250 306 363
#     4   9  20  39  61  85 121 161 197 243 301 358
#     4  11  25  44  65  91 121 158 203 255 310 363
#     4  11  21  36  57  86 121 161 202 243 293 352
#     4  11  23  40  63  92 123 158 201 251 304 363
#
# _framework density 20.490456999999999
#
# number of rings (size 3 to 8) (size 9 to 14) (size 15 to 20)
#    0.000    1.750    1.250    2.625    1.750    5.000 
#    0.000    3.125    0.000    0.000    0.000    0.000 
#    0.000    0.000    0.000    0.000    0.000    0.000 
#
# Total GULP energy -178775.503890 kJ/mol
# GULP energy per Si atom -5586.734497 kJ/mol
# Density = 2.044382 g / cm^3
# Si number density = 20.490457 Si / 1000 Ang^3
#
#
#
# Elastic Constant Matrix: (Units=GPa)
#
#
# Indices 1 2 3 4 5 6 
#
# 1 162.5690 14.5605 55.3251 0.0000 10.9961 0.0000
# 2 14.5605 8.6476 13.1148 0.0000 7.2952 0.0000
# 3 55.3251 13.1148 108.6036 0.0000 12.9780 0.0000
# 4 0.0000 0.0000 0.0000 30.6867 0.0000 -2.0122
# 5 10.9961 7.2952 12.9780 0.0000 41.0997 0.0000
# 6 0.0000 0.0000 0.0000 -2.0122 0.0000 28.0423
#
#
#
# Elastic Compliance Matrix: (Units=1/GPa)
#
#
# Indices 1 2 3 4 5 6 
#
# 1 0.007969 -0.009261 -0.002996 0.000000 0.000458 0.000000
# 2 -0.009261 0.171166 -0.013112 0.000000 -0.023764 0.000000
# 3 -0.002996 -0.013112 0.012412 0.000000 -0.000790 0.000000
# 4 0.000000 0.000000 0.000000 0.032742 0.000000 0.002349
# 5 0.000458 -0.023764 -0.000790 0.000000 0.028676 0.000000
# 6 0.000000 0.000000 0.000000 0.002349 0.000000 0.035829
#
#
# Mechanical properties :
#
#
# Convention : Reuss Voigt Hill
#
# Bulk Modulus (GPa) = 7.10183 49.53566 28.31875
# Shear Modulus (GPa) = 12.93764 33.08705 23.01235
#
# Velocity S-wave (km/s) = 2.51549 4.02276 3.35487
# Velocity P-wave (km/s) = 3.45114 6.76789 5.37190
#
# Compressibility (1/GPa) = 0.14080877
#
# Stress axis : x y z
#
# Youngs Moduli (GPa) = 125.48065 5.84228 80.56730
#
# Poissons Ratio (x) = 0.05410 0.24139
# Poissons Ratio (y) = 1.16204 1.05644
# Poissons Ratio (z) = 0.37596 0.07661
#
# Static dielectric constant tensor:
#      x y z
#    x 1.739760 0.000000 0.005230 
#    y 0.000000 1.725050 0.000000 
#    z 0.005230 0.000000 1.717070 
# 
# From -- ./inp_files/45371.got.cif
#   From: 2010.05.17/outbox.cif.g08.bks.cpg/sg11_23_cif.got.tgz:45371.got - 2010.06.03 12:22:45.
