data_PCOD9163500
_publ_section_title
;
Structure prediction by ZEFSAII (Michael W. Deem and Ramdas Pophale) SiO2 
 PCOD9163500
Probable space group: P 21/M
;
_chemical_formula_sum "Si O2"
_cell_formula_units_Z 32
_cell_length_a 5.396705
_cell_length_b 12.636604
_cell_length_c 24.829152
_cell_angle_alpha 90.000000
_cell_angle_beta 111.425209
_cell_angle_gamma 90.000000
_cell_volume 1576.237760
_symmetry_space_group_name_H-M "P 21/M"
_symmetry_group_IT_number 11
_symmetry_cell_setting 'monoclinic'
loop_
_space_group_symop_operation_xyz
x,y,z
-x,1/2+y,-z
-x,-y,-z
x,1/2-y,z
loop_
_atom_site_type_symbol
_atom_site_label
_atom_site_fract_x
_atom_site_fract_y
_atom_site_fract_z
Si Si1 0.439181 0.370132 0.988273
Si Si2 0.791363 0.638455 0.910922
Si Si3 0.037310 0.045750 0.878279
Si Si4 0.753948 0.130588 0.188731
Si Si5 0.072625 0.021256 0.712582
Si Si6 0.308583 0.624967 0.532462
Si Si7 0.349029 0.626313 0.239735
Si Si8 0.884719 0.519612 0.577677
O O1 0.577266 0.250000 0.990759
O O2 0.250049 0.376604 0.920912
O O3 0.500000 0.500000 0.000000
O O4 0.324459 0.355610 0.038885
O O5 0.935263 0.750000 0.911828
O O6 0.561357 0.631735 0.847421
O O7 0.945996 0.530005 0.919274
O O8 0.797184 0.102864 0.828652
O O9 0.147609 0.959170 0.844743
O O10 0.849007 0.250000 0.186126
O O11 0.846282 0.090915 0.254225
O O12 0.346950 0.087353 0.738400
O O13 0.832010 0.068664 0.729354
O O14 0.983942 0.013318 0.644155
O O15 0.296652 0.750000 0.531161
O O16 0.613379 0.586850 0.562146
O O17 0.195813 0.577432 0.467619
O O18 0.119569 0.580283 0.564717
O O19 0.343418 0.750000 0.250531
#
# Coordination Sequence:
#
# PCOD9163500 Si02
#       8
#     4   4   4   4   4   4   4   4
#     4  11  23  39  61  88 119 156 209 266 331 400
#     4  10  20  37  58  84 114 152 202 255 314 385
#     4  11  21  39  60  85 119 158 205 264 326 387
#     4  10  21  37  59  86 119 162 204 254 315 375
#     4  11  23  43  63  92 129 166 212 262 310 378
#     4  10  21  39  64  94 130 169 207 260 321 369
#     4  11  24  41  63  90 125 167 213 263 321 381
#     4  10  22  40  63  95 130 167 216 262 308 383
#
# _framework density 20.301504999999999
#
# number of rings (size 3 to 8) (size 9 to 14) (size 15 to 20)
#    0.000    1.500    2.500    2.625    0.000    2.500 
#    0.000    2.500    0.000    0.000    0.000    0.000 
#    0.000    0.000    0.000    0.000    0.000    0.000 
#
# Total GULP energy -178218.970223 kJ/mol
# GULP energy per Si atom -5569.342819 kJ/mol
# Density = 2.025530 g / cm^3
# Si number density = 20.301505 Si / 1000 Ang^3
#
#
#
# Elastic Constant Matrix: (Units=GPa)
#
#
# Indices 1 2 3 4 5 6 
#
# 1 49.9931 -1.8467 -4.1889 0.0000 0.5296 0.0000
# 2 -1.8467 95.2300 3.7521 0.0000 0.8461 0.0000
# 3 -4.1889 3.7521 75.3637 0.0000 8.3694 0.0000
# 4 0.0000 0.0000 0.0000 1.1165 0.0000 -0.2473
# 5 0.5296 0.8461 8.3694 0.0000 22.7650 0.0000
# 6 0.0000 0.0000 0.0000 -0.2473 0.0000 67.9763
#
#
#
# Elastic Compliance Matrix: (Units=1/GPa)
#
#
# Indices 1 2 3 4 5 6 
#
# 1 0.020126 0.000351 0.001204 0.000000 -0.000924 0.000000
# 2 0.000351 0.010529 -0.000480 0.000000 -0.000223 0.000000
# 3 0.001204 -0.000480 0.013930 0.000000 -0.005131 0.000000
# 4 0.000000 0.000000 0.000000 0.896393 0.000000 0.003261
# 5 -0.000924 -0.000223 -0.005131 0.000000 0.045843 0.000000
# 6 0.000000 0.000000 0.000000 0.003261 0.000000 0.014723
#
#
# Mechanical properties :
#
#
# Convention : Reuss Voigt Hill
#
# Bulk Modulus (GPa) = 21.39745 24.00220 22.69982
# Shear Modulus (GPa) = 4.92624 33.22957 19.07791
#
# Velocity S-wave (km/s) = 1.55943 4.05013 3.06883
# Velocity P-wave (km/s) = 3.71552 5.80689 4.87468
#
# Compressibility (1/GPa) = 0.04673455
#
# Stress axis : x y z
#
# Youngs Moduli (GPa) = 49.68600 94.97944 71.78933
#
# Poissons Ratio (x) = -0.03334 -0.08642
# Poissons Ratio (y) = -0.01744 0.03445
# Poissons Ratio (z) = -0.05981 0.04558
#
# Static dielectric constant tensor:
#      x y z
#    x 1.826320 0.000000 0.009390 
#    y 0.000000 1.721330 0.000000 
#    z 0.009390 0.000000 1.691220 
# 
# From -- ./inp_files/9395.got.cif
#   From: 2010.05.17/outbox.cif.g08.bks.cpg/sg11_5_cif.got.tgz:9395.got - 2010.06.03 12:22:45.
