data_PCOD9163163
_publ_section_title
;
Structure prediction by ZEFSAII (Michael W. Deem and Ramdas Pophale) SiO2 
 PCOD9163163
Probable space group: P 21/M
;
_chemical_formula_sum "Si O2"
_cell_formula_units_Z 20
_cell_length_a 7.599521
_cell_length_b 18.153727
_cell_length_c 5.811226
_cell_angle_alpha 90.000000
_cell_angle_beta 81.876317
_cell_angle_gamma 90.000000
_cell_volume 793.669647
_symmetry_space_group_name_H-M "P 21/M"
_symmetry_group_IT_number 11
_symmetry_cell_setting 'monoclinic'
loop_
_space_group_symop_operation_xyz
x,y,z
-x,1/2+y,-z
-x,-y,-z
x,1/2-y,z
loop_
_atom_site_type_symbol
_atom_site_label
_atom_site_fract_x
_atom_site_fract_y
_atom_site_fract_z
Si Si1 0.145784 0.590699 0.894995
Si Si2 0.164262 0.039171 0.591200
Si Si3 0.532674 0.335919 0.435574
Si Si4 0.402494 0.549624 0.211082
Si Si5 0.832925 0.834798 0.703261
O O1 0.163653 0.503814 0.829044
O O2 0.282715 0.634065 0.701814
O O3 0.952703 0.623374 0.869691
O O4 0.236791 0.592999 0.126189
O O5 0.132207 0.124380 0.547151
O O6 0.326820 0.008368 0.409022
O O7 0.000000 0.000000 0.500000
O O8 0.543105 0.250000 0.500121
O O9 0.491090 0.388194 0.664324
O O10 0.382224 0.339757 0.261619
O O11 0.500000 0.500000 0.000000
O O12 0.882800 0.750000 0.695296
#
# Coordination Sequence:
#
# PCOD9163163 Si02
#       5
#     4   4   4   4   4
#     4  10  21  39  64  88 120 162 209 257 308 367
#     4   9  20  38  60  87 120 160 204 253 306 362
#     4  10  22  40  60  88 127 164 202 257 317 370
#     4  11  22  38  65  94 123 162 211 258 309 371
#     4  10  20  36  59  85 118 160 202 247 305 366
#
# _framework density 25.199404999999999
#
# number of rings (size 3 to 8) (size 9 to 14) (size 15 to 20)
#    0.000    2.000    0.000    3.000    0.000    8.000 
#    0.000   11.000    0.000   22.800    0.000    0.000 
#    0.000    0.000    0.000    0.000    0.000    0.000 
#
# Total GULP energy -111659.344753 kJ/mol
# GULP energy per Si atom -5582.967238 kJ/mol
# Density = 2.514205 g / cm^3
# Si number density = 25.199405 Si / 1000 Ang^3
#
#
#
# Elastic Constant Matrix: (Units=GPa)
#
#
# Indices 1 2 3 4 5 6 
#
# 1 121.3002 41.7521 64.6658 0.0000 24.9235 0.0000
# 2 41.7521 210.4065 55.7696 0.0000 8.4995 0.0000
# 3 64.6658 55.7696 101.8657 0.0000 21.4905 0.0000
# 4 0.0000 0.0000 0.0000 32.5627 0.0000 12.3241
# 5 24.9235 8.4995 21.4905 0.0000 67.1835 0.0000
# 6 0.0000 0.0000 0.0000 12.3241 0.0000 32.0131
#
#
#
# Elastic Compliance Matrix: (Units=1/GPa)
#
#
# Indices 1 2 3 4 5 6 
#
# 1 0.012829 -0.000495 -0.007380 0.000000 -0.002336 0.000000
# 2 -0.000495 0.005584 -0.002823 0.000000 0.000380 0.000000
# 3 -0.007380 -0.002823 0.016508 0.000000 -0.002186 0.000000
# 4 0.000000 0.000000 0.000000 0.035948 0.000000 -0.013839
# 5 -0.002336 0.000380 -0.002186 0.000000 0.016402 0.000000
# 6 0.000000 0.000000 0.000000 -0.013839 0.000000 0.036565
#
#
# Mechanical properties :
#
#
# Convention : Reuss Voigt Hill
#
# Bulk Modulus (GPa) = 73.93842 84.21638 79.07740
# Shear Modulus (GPa) = 33.39126 44.44418 38.91772
#
# Velocity S-wave (km/s) = 3.64412 4.20420 3.93414
# Velocity P-wave (km/s) = 6.86376 7.55378 7.21702
#
# Compressibility (1/GPa) = 0.01352477
#
# Stress axis : x y z
#
# Youngs Moduli (GPa) = 77.95032 179.08816 60.57538
#
# Poissons Ratio (x) = 0.08869 0.44704
# Poissons Ratio (y) = 0.03860 0.17100
# Poissons Ratio (z) = 0.57527 0.50555
#
# Static dielectric constant tensor:
#      x y z
#    x 2.156410 0.000000 0.011470 
#    y 0.000000 2.002070 0.000000 
#    z 0.011470 0.000000 2.058420 
# 
# From -- ./inp_files/2386.got.cif
#   From: 2010.05.17/outbox.cif.g08.bks.cpg/sg11_2_cif.got.tgz:2386.got - 2010.06.03 12:22:45.
