data_PCOD9163792
_publ_section_title
;
Structure prediction by ZEFSAII (Michael W. Deem and Ramdas Pophale) SiO2 
 PCOD9163792
Probable space group: P 21/M
;
_chemical_formula_sum "Si O2"
_cell_formula_units_Z 28
_cell_length_a 10.692284
_cell_length_b 19.519147
_cell_length_c 8.809241
_cell_angle_alpha 90.000000
_cell_angle_beta 140.005542
_cell_angle_gamma 90.000000
_cell_volume 1181.645597
_symmetry_space_group_name_H-M "P 21/M"
_symmetry_group_IT_number 11
_symmetry_cell_setting 'monoclinic'
loop_
_space_group_symop_operation_xyz
x,y,z
-x,1/2+y,-z
-x,-y,-z
x,1/2-y,z
loop_
_atom_site_type_symbol
_atom_site_label
_atom_site_fract_x
_atom_site_fract_y
_atom_site_fract_z
Si Si1 0.702197 0.671272 0.750740
Si Si2 0.958800 0.331728 0.156673
Si Si3 0.581848 0.096862 0.711709
Si Si4 0.916398 0.535951 0.275812
Si Si5 0.730075 0.481967 0.553230
Si Si6 0.812423 0.670105 0.317471
Si Si7 0.457532 0.091405 0.105212
O O1 0.717244 0.750000 0.809870
O O2 0.532142 0.660999 0.468724
O O3 0.634430 0.626803 0.829828
O O4 0.684694 0.526261 0.050935
O O5 0.916113 0.250000 0.107253
O O6 0.094575 0.340476 0.431217
O O7 0.760372 0.374791 0.975758
O O8 0.094206 0.349762 0.137365
O O9 0.675438 0.052536 0.660725
O O10 0.402777 0.048476 0.596322
O O11 0.040904 0.509346 0.251908
O O12 0.927476 0.618100 0.314095
O O13 0.665990 0.431856 0.354666
O O14 0.823342 0.750000 0.291009
O O15 0.592580 0.641517 0.081536
O O16 0.000000 0.000000 0.500000
#
# Coordination Sequence:
#
# PCOD9163792 Si02
#       7
#     4   4   4   4   4   4   4
#     4  10  20  37  63  89 117 157 205 253 306 358
#     4  10  21  38  59  86 120 159 197 247 307 362
#     4  10  22  37  61  87 124 154 199 256 297 370
#     4  10  23  39  61  88 122 162 201 246 302 363
#     4  10  22  40  59  91 118 159 205 244 307 357
#     4   9  21  41  60  86 122 156 202 251 303 359
#     4   9  21  38  62  87 116 154 200 253 296 356
#
# _framework density 23.695768999999999
#
# number of rings (size 3 to 8) (size 9 to 14) (size 15 to 20)
#    0.857    1.429    0.000    1.714    4.000    0.571 
#    2.571    7.857    0.000    0.000    0.000    0.000 
#    0.000    0.000    0.000    0.000    0.000    0.000 
#
# Total GULP energy -156229.022616 kJ/mol
# GULP energy per Si atom -5579.607951 kJ/mol
# Density = 2.364184 g / cm^3
# Si number density = 23.695769 Si / 1000 Ang^3
#
#
#
# Elastic Constant Matrix: (Units=GPa)
#
#
# Indices 1 2 3 4 5 6 
#
# 1 67.4341 15.9306 -8.2109 0.0000 5.8863 0.0000
# 2 15.9306 78.5819 31.6795 0.0000 1.2998 0.0000
# 3 -8.2109 31.6795 96.8903 0.0000 6.2732 0.0000
# 4 0.0000 0.0000 0.0000 39.7479 0.0000 0.1659
# 5 5.8863 1.2998 6.2732 0.0000 18.9104 0.0000
# 6 0.0000 0.0000 0.0000 0.1659 0.0000 26.0677
#
#
#
# Elastic Compliance Matrix: (Units=1/GPa)
#
#
# Indices 1 2 3 4 5 6 
#
# 1 0.016867 -0.004669 0.003347 0.000000 -0.006040 0.000000
# 2 -0.004669 0.015956 -0.005760 0.000000 0.002267 0.000000
# 3 0.003347 -0.005760 0.012805 0.000000 -0.004894 0.000000
# 4 0.000000 0.000000 0.000000 0.025159 0.000000 -0.000160
# 5 -0.006040 0.002267 -0.004894 0.000000 0.056229 0.000000
# 6 0.000000 0.000000 0.000000 -0.000160 0.000000 0.038363
#
#
# Mechanical properties :
#
#
# Convention : Reuss Voigt Hill
#
# Bulk Modulus (GPa) = 31.78116 35.74496 33.76306
# Shear Modulus (GPa) = 26.31165 30.51231 28.41198
#
# Velocity S-wave (km/s) = 3.33587 3.59230 3.46646
# Velocity P-wave (km/s) = 5.31777 5.68541 5.50466
#
# Compressibility (1/GPa) = 0.03146518
#
# Stress axis : x y z
#
# Youngs Moduli (GPa) = 59.28750 62.67043 78.09695
#
# Poissons Ratio (x) = 0.29259 -0.26138
# Poissons Ratio (y) = 0.27680 0.44981
# Poissons Ratio (z) = -0.19843 0.36096
#
# Static dielectric constant tensor:
#      x y z
#    x 1.915580 0.000000 -0.002220 
#    y 0.000000 1.902710 0.000000 
#    z -0.002220 0.000000 1.954690 
# 
# From -- ./inp_files/22797.got.cif
#   From: 2010.05.17/outbox.cif.g08.bks.cpg/sg11_12_cif.got.tgz:22797.got - 2010.06.03 12:22:45.
