data_PCOD9163734
_publ_section_title
;
Structure prediction by ZEFSAII (Michael W. Deem and Ramdas Pophale) SiO2 
 PCOD9163734
Probable space group: P 21/M
;
_chemical_formula_sum "Si O2"
_cell_formula_units_Z 22
_cell_length_a 8.925581
_cell_length_b 17.282963
_cell_length_c 10.976237
_cell_angle_alpha 90.000000
_cell_angle_beta 39.916652
_cell_angle_gamma 90.000000
_cell_volume 1086.479770
_symmetry_space_group_name_H-M "P 21/M"
_symmetry_group_IT_number 11
_symmetry_cell_setting 'monoclinic'
loop_
_space_group_symop_operation_xyz
x,y,z
-x,1/2+y,-z
-x,-y,-z
x,1/2-y,z
loop_
_atom_site_type_symbol
_atom_site_label
_atom_site_fract_x
_atom_site_fract_y
_atom_site_fract_z
Si Si1 0.304584 0.250000 0.764957
Si Si2 0.350725 0.250000 0.466851
Si Si3 0.074835 0.634324 0.272755
Si Si4 0.094010 0.982581 0.750181
Si Si5 0.237084 0.750000 0.983392
Si Si6 0.312761 0.073812 0.829874
Si Si7 0.802093 0.440761 0.574981
O O1 0.433941 0.250000 0.553867
O O2 0.355551 0.165970 0.790488
O O3 0.558358 0.250000 0.241540
O O4 0.175986 0.176884 0.565155
O O5 0.022501 0.250000 0.914605
O O6 0.042317 0.551033 0.233414
O O7 0.238294 0.678676 0.075959
O O8 0.165152 0.630507 0.353958
O O9 0.178584 0.931197 0.583169
O O10 0.273008 0.028760 0.726533
O O11 0.921965 0.937083 0.946374
O O12 0.533610 0.034050 0.757414
O O13 0.000000 0.500000 0.500000
#
# Coordination Sequence:
#
# PCOD9163734 Si02
#       7
#     2   2   4   4   2   4   4
#     4  10  22  42  57  93 123 157 214 263 307 374
#     4  10  20  37  63  85 123 171 206 260 312 374
#     4   9  20  40  57  92 124 155 214 254 306 377
#     4  10  21  40  64  93 121 163 208 257 317 365
#     4  10  20  37  62  86 120 166 210 257 315 374
#     4  11  22  40  64  90 128 163 210 265 307 371
#     4  10  23  39  60  89 126 162 202 251 314 375
#
# _framework density 20.248881999999998
#
# number of rings (size 3 to 8) (size 9 to 14) (size 15 to 20)
#    0.000    2.182    3.636    0.545    0.000   10.182 
#    0.000    1.818    0.000    0.000    0.000    0.000 
#    0.000    0.000    0.000    0.000    0.000    0.000 
#
# Total GULP energy -122483.699399 kJ/mol
# GULP energy per Si atom -5567.440882 kJ/mol
# Density = 2.020279 g / cm^3
# Si number density = 20.248882 Si / 1000 Ang^3
#
#
#
# Elastic Constant Matrix: (Units=GPa)
#
#
# Indices 1 2 3 4 5 6 
#
# 1 80.7661 27.9836 17.5138 0.0000 -3.3958 0.0000
# 2 27.9836 70.1611 31.1584 0.0000 8.7129 0.0000
# 3 17.5138 31.1584 118.8077 0.0000 12.8484 0.0000
# 4 0.0000 0.0000 0.0000 10.8621 0.0000 4.7935
# 5 -3.3958 8.7129 12.8484 0.0000 23.7119 0.0000
# 6 0.0000 0.0000 0.0000 4.7935 0.0000 16.5579
#
#
#
# Elastic Compliance Matrix: (Units=1/GPa)
#
#
# Indices 1 2 3 4 5 6 
#
# 1 0.014944 -0.006069 -0.001151 0.000000 0.004994 0.000000
# 2 -0.006069 0.018937 -0.003426 0.000000 -0.005971 0.000000
# 3 -0.001151 -0.003426 0.009950 0.000000 -0.004297 0.000000
# 4 0.000000 0.000000 0.000000 0.105548 0.000000 -0.030556
# 5 0.004994 -0.005971 -0.004297 0.000000 0.047411 0.000000
# 6 0.000000 0.000000 0.000000 -0.030556 0.000000 0.069240
#
#
# Mechanical properties :
#
#
# Convention : Reuss Voigt Hill
#
# Bulk Modulus (GPa) = 44.37039 47.00516 45.68778
# Shear Modulus (GPa) = 16.95865 23.09833 20.02849
#
# Velocity S-wave (km/s) = 2.89712 3.38112 3.14843
# Velocity P-wave (km/s) = 5.75770 6.20538 5.98573
#
# Compressibility (1/GPa) = 0.02253755
#
# Stress axis : x y z
#
# Youngs Moduli (GPa) = 66.91683 52.80787 100.50368
#
# Poissons Ratio (x) = 0.32051 0.11571
# Poissons Ratio (y) = 0.40614 0.34431
# Poissons Ratio (z) = 0.07704 0.18091
#
# Static dielectric constant tensor:
#      x y z
#    x 1.758420 0.000000 0.014120 
#    y 0.000000 1.767680 0.000000 
#    z 0.014120 0.000000 1.723880 
# 
# From -- ./inp_files/32174.got.cif
#   From: 2010.05.17/outbox.cif.g08.bks.cpg/sg11_17_cif.got.tgz:32174.got - 2010.06.03 12:22:45.
