data_PCOD9163029
_publ_section_title
;
Structure prediction by ZEFSAII (Michael W. Deem and Ramdas Pophale) SiO2 
 PCOD9163029
Probable space group: P 21/M
;
_chemical_formula_sum "Si O2"
_cell_formula_units_Z 32
_cell_length_a 11.986244
_cell_length_b 14.717399
_cell_length_c 15.315422
_cell_angle_alpha 90.000000
_cell_angle_beta 153.055176
_cell_angle_gamma 90.000000
_cell_volume 1224.244372
_symmetry_space_group_name_H-M "P 21/M"
_symmetry_group_IT_number 11
_symmetry_cell_setting 'monoclinic'
loop_
_space_group_symop_operation_xyz
x,y,z
-x,1/2+y,-z
-x,-y,-z
x,1/2-y,z
loop_
_atom_site_type_symbol
_atom_site_label
_atom_site_fract_x
_atom_site_fract_y
_atom_site_fract_z
Si Si1 0.960219 0.851903 0.909237
Si Si2 0.217452 0.448581 0.367249
Si Si3 0.174631 0.852096 0.330281
Si Si4 0.538885 0.452757 0.765383
Si Si5 0.457089 0.348410 0.246723
Si Si6 0.276648 0.352880 0.867438
Si Si7 0.799968 0.145831 0.187025
Si Si8 0.098324 0.102549 0.561578
O O1 0.055756 0.750000 0.966528
O O2 0.765467 0.874232 0.696658
O O3 0.811317 0.856895 0.895212
O O4 0.183499 0.920810 0.052981
O O5 0.231575 0.548024 0.331958
O O6 0.410884 0.445446 0.581048
O O7 0.962188 0.420469 0.238804
O O8 0.189423 0.750000 0.299603
O O9 0.349635 0.847038 0.537961
O O10 0.897136 0.868956 0.171817
O O11 0.506603 0.556448 0.775101
O O12 0.376345 0.393674 0.717820
O O13 0.477865 0.250000 0.217018
O O14 0.359471 0.250000 0.935470
O O15 0.102462 0.359640 0.661284
O O16 0.534137 0.397634 0.021569
O O17 0.797818 0.250000 0.149196
O O18 0.933828 0.149254 0.373948
O O19 0.000000 0.000000 0.500000
#
# Coordination Sequence:
#
# PCOD9163029 Si02
#       8
#     4   4   4   4   4   4   4   4
#     4  11  23  38  61  88 113 148 192 236 287 345
#     4  10  21  37  59  84 115 150 183 233 288 335
#     4   9  19  37  59  83 113 151 192 235 284 337
#     4  10  22  38  59  86 116 150 188 235 285 339
#     4   9  19  39  62  84 114 149 188 237 288 339
#     4  10  20  36  58  80 109 151 191 230 279 332
#     4  10  21  35  53  81 114 147 187 233 280 332
#     4  11  22  35  54  82 114 151 191 230 279 336
#
# _framework density 26.138573999999998
#
# number of rings (size 3 to 8) (size 9 to 14) (size 15 to 20)
#    0.000    2.000    0.000    4.125    0.000    9.000 
#    0.000    1.250    0.000    5.250    0.000    0.000 
#    0.000    0.000    0.000    0.000    0.000    0.000 
#
# Total GULP energy -179016.070245 kJ/mol
# GULP energy per Si atom -5594.252195 kJ/mol
# Density = 2.607908 g / cm^3
# Si number density = 26.138574 Si / 1000 Ang^3
#
#
#
# Elastic Constant Matrix: (Units=GPa)
#
#
# Indices 1 2 3 4 5 6 
#
# 1 71.3808 4.0946 16.3486 0.0000 5.5777 0.0000
# 2 4.0946 135.2729 15.7580 0.0000 2.1725 0.0000
# 3 16.3486 15.7580 95.1302 0.0000 16.5956 0.0000
# 4 0.0000 0.0000 0.0000 22.1967 0.0000 -30.4166
# 5 5.5777 2.1725 16.5956 0.0000 33.3238 0.0000
# 6 0.0000 0.0000 0.0000 -30.4166 0.0000 -202.9684
#
#
#
# Elastic Compliance Matrix: (Units=1/GPa)
#
#
# Indices 1 2 3 4 5 6 
#
# 1 0.014639 -0.000159 -0.002260 0.000000 -0.001314 0.000000
# 2 -0.000159 0.007540 -0.001249 0.000000 0.000157 0.000000
# 3 -0.002260 -0.001249 0.012076 0.000000 -0.005554 0.000000
# 4 0.000000 0.000000 0.000000 0.037376 0.000000 -0.005601
# 5 -0.001314 0.000157 -0.005554 0.000000 0.032984 0.000000
# 6 0.000000 0.000000 0.000000 -0.005601 0.000000 -0.004087
#
#
# Mechanical properties :
#
#
# Convention : Reuss Voigt Hill
#
# Bulk Modulus (GPa) = 37.14820 41.57627 39.36223
# Shear Modulus (GPa) = 42.79437 -11.78407 15.50515
#
# Velocity S-wave (km/s) = 4.05064 -2.12558 2.43819
# Velocity P-wave (km/s) = 6.00997 3.14905 4.79772
#
# Compressibility (1/GPa) = 0.02691921
#
# Stress axis : x y z
#
# Youngs Moduli (GPa) = 68.31149 132.62144 82.80741
#
# Poissons Ratio (x) = 0.02105 0.18716
# Poissons Ratio (y) = 0.01084 0.10344
# Poissons Ratio (z) = 0.15440 0.16566
#
# Static dielectric constant tensor:
#      x y z
#    x 2.058960 0.000000 0.048180 
#    y 0.000000 2.022560 0.000000 
#    z 0.048180 0.000000 2.131560 
# 
# From -- ./inp_files/65781.got.cif
#   From: 2010.05.17/outbox.cif.g08.bks.cpg/sg11_33_cif.got.tgz:65781.got - 2010.06.03 12:22:45.
