data_PCOD9163278
_publ_section_title
;
Structure prediction by ZEFSAII (Michael W. Deem and Ramdas Pophale) SiO2 
 PCOD9163278
Probable space group: P 21/M
;
_chemical_formula_sum "Si O2"
_cell_formula_units_Z 20
_cell_length_a 9.900619
_cell_length_b 14.468524
_cell_length_c 12.527408
_cell_angle_alpha 90.000000
_cell_angle_beta 144.342457
_cell_angle_gamma 90.000000
_cell_volume 1046.094993
_symmetry_space_group_name_H-M "P 21/M"
_symmetry_group_IT_number 11
_symmetry_cell_setting 'monoclinic'
loop_
_space_group_symop_operation_xyz
x,y,z
-x,1/2+y,-z
-x,-y,-z
x,1/2-y,z
loop_
_atom_site_type_symbol
_atom_site_label
_atom_site_fract_x
_atom_site_fract_y
_atom_site_fract_z
Si Si1 0.968101 0.857451 0.661601
Si Si2 0.256407 0.532003 0.197082
Si Si3 0.069756 0.359158 0.613697
Si Si4 0.719118 0.042189 0.546964
Si Si5 0.582795 0.359752 0.907309
O O1 0.899219 0.750000 0.635203
O O2 0.996003 0.870542 0.552761
O O3 0.209484 0.874398 0.876745
O O4 0.788094 0.933173 0.588312
O O5 0.248693 0.575340 0.310893
O O6 0.453347 0.452765 0.337946
O O7 0.349371 0.595331 0.161277
O O8 0.000000 0.500000 0.000000
O O9 0.065593 0.250000 0.635596
O O10 0.334884 0.394158 0.790861
O O11 0.894428 0.409707 0.578995
O O12 0.555901 0.250000 0.873606
#
# Coordination Sequence:
#
# PCOD9163278 Si02
#       5
#     4   4   4   4   4
#     4  10  20  36  60  88 115 150 197 241 290 351
#     4  11  23  39  56  88 120 152 201 240 292 357
#     4  10  22  40  60  88 120 152 197 247 294 348
#     4  11  23  38  61  88 118 158 196 242 301 344
#     4  10  21  38  62  86 115 157 199 241 294 352
#
# _framework density 19.118722999999999
#
# number of rings (size 3 to 8) (size 9 to 14) (size 15 to 20)
#    0.000    1.600    4.000    0.600    0.000    3.200 
#    0.000    4.000    0.000    0.000    0.000    0.000 
#    0.000    0.000    0.000    0.000    0.000    0.000 
#
# Total GULP energy -111636.335292 kJ/mol
# GULP energy per Si atom -5581.816765 kJ/mol
# Density = 1.907521 g / cm^3
# Si number density = 19.118723 Si / 1000 Ang^3
#
#
#
# Elastic Constant Matrix: (Units=GPa)
#
#
# Indices 1 2 3 4 5 6 
#
# 1 104.4449 31.8880 38.3317 0.0000 27.8356 0.0000
# 2 31.8880 35.5412 26.0316 0.0000 8.0695 0.0000
# 3 38.3317 26.0316 137.7728 0.0000 23.1251 0.0000
# 4 0.0000 0.0000 0.0000 14.4635 0.0000 -3.8301
# 5 27.8356 8.0695 23.1251 0.0000 24.0836 0.0000
# 6 0.0000 0.0000 0.0000 -3.8301 0.0000 5.4018
#
#
#
# Elastic Compliance Matrix: (Units=1/GPa)
#
#
# Indices 1 2 3 4 5 6 
#
# 1 0.017617 -0.012193 0.000160 0.000000 -0.016430 0.000000
# 2 -0.012193 0.041834 -0.005394 0.000000 0.005255 0.000000
# 3 0.000160 -0.005394 0.009490 0.000000 -0.007490 0.000000
# 4 0.000000 0.000000 0.000000 0.085122 0.000000 0.060354
# 5 -0.016430 0.005255 -0.007490 0.000000 0.065943 0.000000
# 6 0.000000 0.000000 0.000000 0.060354 0.000000 0.227916
#
#
# Mechanical properties :
#
#
# Convention : Reuss Voigt Hill
#
# Bulk Modulus (GPa) = 29.33671 52.25127 40.79399
# Shear Modulus (GPa) = 10.11862 20.89028 15.50445
#
# Velocity S-wave (km/s) = 2.30304 3.30913 2.85082
# Velocity P-wave (km/s) = 4.73812 6.47994 5.67624
#
# Compressibility (1/GPa) = 0.03408698
#
# Stress axis : x y z
#
# Youngs Moduli (GPa) = 56.76283 23.90404 105.37207
#
# Poissons Ratio (x) = 0.29147 -0.01687
# Poissons Ratio (y) = 0.69213 0.56837
# Poissons Ratio (z) = -0.00909 0.12894
#
# Static dielectric constant tensor:
#      x y z
#    x 1.644070 0.000000 0.017690 
#    y 0.000000 1.679280 0.000000 
#    z 0.017690 0.000000 1.694420 
# 
# From -- ./inp_files/13632.got.cif
#   From: 2010.05.17/outbox.cif.g08.bks.cpg/sg11_7_cif.got.tgz:13632.got - 2010.06.03 12:22:45.
