data_PCOD9163780
_publ_section_title
;
Structure prediction by ZEFSAII (Michael W. Deem and Ramdas Pophale) SiO2 
 PCOD9163780
Probable space group: P 21/M
;
_chemical_formula_sum "Si O2"
_cell_formula_units_Z 32
_cell_length_a 21.720768
_cell_length_b 13.786438
_cell_length_c 7.792159
_cell_angle_alpha 90.000000
_cell_angle_beta 39.929114
_cell_angle_gamma 90.000000
_cell_volume 1497.653719
_symmetry_space_group_name_H-M "P 21/M"
_symmetry_group_IT_number 11
_symmetry_cell_setting 'monoclinic'
loop_
_space_group_symop_operation_xyz
x,y,z
-x,1/2+y,-z
-x,-y,-z
x,1/2-y,z
loop_
_atom_site_type_symbol
_atom_site_label
_atom_site_fract_x
_atom_site_fract_y
_atom_site_fract_z
Si Si1 0.281231 0.857606 0.717659
Si Si2 0.510808 0.143462 0.346896
Si Si3 0.229158 0.005655 0.383756
Si Si4 0.418836 0.918725 0.149318
Si Si5 0.920472 0.366290 0.486971
Si Si6 0.069215 0.365998 0.873534
Si Si7 0.069410 0.862738 0.137921
Si Si8 0.658056 0.980195 0.173080
O O1 0.277792 0.750000 0.809218
O O2 0.379803 0.865631 0.401097
O O3 0.279663 0.953156 0.836028
O O4 0.179503 0.863712 0.836697
O O5 0.522100 0.250000 0.400793
O O6 0.583016 0.061953 0.264595
O O7 0.404817 0.101558 0.602265
O O8 0.537700 0.147802 0.090346
O O9 0.320074 0.964469 0.290476
O O10 0.164094 0.922641 0.432552
O O11 0.165225 0.073806 0.639127
O O12 0.277898 0.060211 0.117567
O O13 0.500000 0.000000 0.000000
O O14 0.900301 0.250000 0.529360
O O15 0.932656 0.399029 0.659969
O O16 0.015554 0.381466 0.168873
O O17 0.084969 0.250000 0.825421
O O18 0.999909 0.399377 0.863685
O O19 0.042095 0.750000 0.215071
#
# Coordination Sequence:
#
# PCOD9163780 Si02
#       8
#     4   4   4   4   4   4   4   4
#     4  11  20  36  61  89 119 154 194 252 313 358
#     4  10  21  39  61  84 117 163 202 249 316 368
#     4  11  23  39  62  86 120 162 200 254 316 364
#     4  11  23  40  59  86 124 155 206 261 304 374
#     4  10  20  37  62  92 124 158 206 261 311 367
#     4  10  22  41  60  89 128 165 207 251 303 376
#     4   9  19  36  60  91 122 156 204 254 304 366
#     4  10  21  37  58  89 120 151 204 258 294 375
#
# _framework density 21.366752999999999
#
# number of rings (size 3 to 8) (size 9 to 14) (size 15 to 20)
#    0.000    1.750    2.500    1.875    0.000    4.500 
#    2.250    1.250    0.000    0.000    0.000    0.000 
#    0.000    0.000    0.000    0.000    0.000    0.000 
#
# Total GULP energy -178517.842846 kJ/mol
# GULP energy per Si atom -5578.682589 kJ/mol
# Density = 2.131812 g / cm^3
# Si number density = 21.366753 Si / 1000 Ang^3
#
#
#
# Elastic Constant Matrix: (Units=GPa)
#
#
# Indices 1 2 3 4 5 6 
#
# 1 38.6712 4.0590 27.0663 0.0000 10.0070 0.0000
# 2 4.0590 73.1397 44.6393 0.0000 1.5933 0.0000
# 3 27.0663 44.6393 160.0852 0.0000 9.1708 0.0000
# 4 0.0000 0.0000 0.0000 8.1242 0.0000 -2.9123
# 5 10.0070 1.5933 9.1708 0.0000 28.8605 0.0000
# 6 0.0000 0.0000 0.0000 -2.9123 0.0000 3.8487
#
#
#
# Elastic Compliance Matrix: (Units=1/GPa)
#
#
# Indices 1 2 3 4 5 6 
#
# 1 0.031845 0.001680 -0.005311 0.000000 -0.009447 0.000000
# 2 0.001680 0.016574 -0.004909 0.000000 0.000062 0.000000
# 3 -0.005311 -0.004909 0.008548 0.000000 -0.000604 0.000000
# 4 0.000000 0.000000 0.000000 0.168908 0.000000 0.127815
# 5 -0.009447 0.000062 -0.000604 0.000000 0.038113 0.000000
# 6 0.000000 0.000000 0.000000 0.127815 0.000000 0.356550
#
#
# Mechanical properties :
#
#
# Convention : Reuss Voigt Hill
#
# Bulk Modulus (GPa) = 25.07140 47.04725 36.05932
# Shear Modulus (GPa) = 7.68149 21.24210 14.46179
#
# Velocity S-wave (km/s) = 1.89812 3.15646 2.60443
# Velocity P-wave (km/s) = 4.06978 5.94567 5.09481
#
# Compressibility (1/GPa) = 0.03988609
#
# Stress axis : x y z
#
# Youngs Moduli (GPa) = 31.40232 60.33495 116.98324
#
# Poissons Ratio (x) = -0.10138 0.62136
# Poissons Ratio (y) = -0.05276 0.57431
# Poissons Ratio (z) = 0.16679 0.29620
#
# Static dielectric constant tensor:
#      x y z
#    x 1.857580 0.000000 0.043090 
#    y 0.000000 1.785770 0.000000 
#    z 0.043090 0.000000 1.789000 
# 
# From -- ./inp_files/27793.got.cif
#   From: 2010.05.17/outbox.cif.g08.bks.cpg/sg11_14_cif.got.tgz:27793.got - 2010.06.03 12:22:45.
