data_PCOD9163214
_publ_section_title
;
Structure prediction by ZEFSAII (Michael W. Deem and Ramdas Pophale) SiO2 
 PCOD9163214
Probable space group: P 21/M
;
_chemical_formula_sum "Si O2"
_cell_formula_units_Z 32
_cell_length_a 9.524966
_cell_length_b 8.681960
_cell_length_c 21.271850
_cell_angle_alpha 90.000000
_cell_angle_beta 109.773578
_cell_angle_gamma 90.000000
_cell_volume 1655.362528
_symmetry_space_group_name_H-M "P 21/M"
_symmetry_group_IT_number 11
_symmetry_cell_setting 'monoclinic'
loop_
_space_group_symop_operation_xyz
x,y,z
-x,1/2+y,-z
-x,-y,-z
x,1/2-y,z
loop_
_atom_site_type_symbol
_atom_site_label
_atom_site_fract_x
_atom_site_fract_y
_atom_site_fract_z
Si Si1 0.606950 0.068328 0.784968
Si Si2 0.887256 0.430036 0.273908
Si Si3 0.421760 0.431568 0.083807
Si Si4 0.654129 0.432800 0.339659
Si Si5 0.129801 0.933104 0.975106
Si Si6 0.795014 0.067359 0.694305
Si Si7 0.249520 0.067540 0.871486
Si Si8 0.501412 0.934191 0.430449
O O1 0.601601 0.250000 0.800571
O O2 0.744659 0.041396 0.758756
O O3 0.606561 0.967135 0.847043
O O4 0.463838 0.023011 0.721811
O O5 0.864423 0.250000 0.255800
O O6 0.811619 0.459675 0.329859
O O7 0.805830 0.524626 0.206543
O O8 0.059598 0.472815 0.300107
O O9 0.414511 0.250000 0.069745
O O10 0.289914 0.517918 0.027612
O O11 0.586845 0.493993 0.093768
O O12 0.621809 0.250000 0.332654
O O13 0.629911 0.493232 0.406182
O O14 0.115801 0.750000 0.970744
O O15 0.134378 0.001657 0.905508
O O16 0.000000 0.000000 0.000000
O O17 0.824552 0.250000 0.691986
O O18 0.654250 0.028635 0.628771
O O19 0.260683 0.250000 0.880172
O O20 0.516500 0.750000 0.433427
O O21 0.500000 0.000000 0.500000
#
# Coordination Sequence:
#
# PCOD9163214 Si02
#       8
#     4   4   4   4   4   4   4   4
#     4  10  20  36  59  88 118 157 205 250 302 362
#     4  11  23  38  60  92 126 160 204 253 307 365
#     4  12  24  41  64  91 122 159 206 255 310 372
#     4  10  20  36  59  89 124 158 200 250 298 355
#     4  12  27  47  66  89 122 159 205 258 315 377
#     4   9  21  38  58  87 124 160 201 249 302 361
#     4  12  25  43  66  90 121 163 207 255 312 373
#     4  10  21  39  64  92 123 161 207 249 299 362
#
# _framework density 19.331113999999999
#
# number of rings (size 3 to 8) (size 9 to 14) (size 15 to 20)
#    0.000    1.250    1.250    6.000    1.750    4.500 
#    0.000    0.625    0.000    0.000    0.000    0.000 
#    0.000    0.000    0.000    0.000    0.000    0.000 
#
# Total GULP energy -178923.362596 kJ/mol
# GULP energy per Si atom -5591.355081 kJ/mol
# Density = 1.928712 g / cm^3
# Si number density = 19.331114 Si / 1000 Ang^3
#
#
#
# Elastic Constant Matrix: (Units=GPa)
#
#
# Indices 1 2 3 4 5 6 
#
# 1 104.2553 50.9636 27.9549 0.0000 -24.0934 0.0000
# 2 50.9636 93.9597 23.0262 0.0000 -16.5827 0.0000
# 3 27.9549 23.0262 79.9857 0.0000 -28.6841 0.0000
# 4 0.0000 0.0000 0.0000 31.8492 0.0000 -2.9611
# 5 -24.0934 -16.5827 -28.6841 0.0000 28.0838 0.0000
# 6 0.0000 0.0000 0.0000 -2.9611 0.0000 35.4462
#
#
#
# Elastic Compliance Matrix: (Units=1/GPa)
#
#
# Indices 1 2 3 4 5 6 
#
# 1 0.014806 -0.006448 -0.000203 0.000000 0.008688 0.000000
# 2 -0.006448 0.014793 -0.001351 0.000000 0.001823 0.000000
# 3 -0.000203 -0.001351 0.019904 0.000000 0.019358 0.000000
# 4 0.000000 0.000000 0.000000 0.031644 0.000000 0.002643
# 5 0.008688 0.001823 0.019358 0.000000 0.063909 0.000000
# 6 0.000000 0.000000 0.000000 0.002643 0.000000 0.028433
#
#
# Mechanical properties :
#
#
# Convention : Reuss Voigt Hill
#
# Bulk Modulus (GPa) = 29.85164 53.56555 41.70860
# Shear Modulus (GPa) = 24.91798 30.82622 27.87210
#
# Velocity S-wave (km/s) = 3.59417 3.99763 3.80126
# Velocity P-wave (km/s) = 5.71838 7.00555 6.39444
#
# Compressibility (1/GPa) = 0.03349900
#
# Stress axis : x y z
#
# Youngs Moduli (GPa) = 67.54109 67.59962 50.24084
#
# Poissons Ratio (x) = 0.43586 0.01020
# Poissons Ratio (y) = 0.43548 0.06789
# Poissons Ratio (z) = 0.01371 0.09135
#
# Static dielectric constant tensor:
#      x y z
#    x 1.671240 0.000000 -0.018500 
#    y 0.000000 1.687460 0.000000 
#    z -0.018500 0.000000 1.674830 
# 
# From -- ./inp_files/63255.got.cif
#   From: 2010.05.17/outbox.cif.g08.bks.cpg/sg11_32_cif.got.tgz:63255.got - 2010.06.03 12:22:45.
