data_PCOD9163459
_publ_section_title
;
Structure prediction by ZEFSAII (Michael W. Deem and Ramdas Pophale) SiO2 
 PCOD9163459
Probable space group: P 21/M
;
_chemical_formula_sum "Si O2"
_cell_formula_units_Z 28
_cell_length_a 9.757002
_cell_length_b 8.706272
_cell_length_c 26.610906
_cell_angle_alpha 90.000000
_cell_angle_beta 39.835747
_cell_angle_gamma 90.000000
_cell_volume 1448.063815
_symmetry_space_group_name_H-M "P 21/M"
_symmetry_group_IT_number 11
_symmetry_cell_setting 'monoclinic'
loop_
_space_group_symop_operation_xyz
x,y,z
-x,1/2+y,-z
-x,-y,-z
x,1/2-y,z
loop_
_atom_site_type_symbol
_atom_site_label
_atom_site_fract_x
_atom_site_fract_y
_atom_site_fract_z
Si Si1 0.160590 0.935531 0.730177
Si Si2 0.718925 0.065768 0.416835
Si Si3 0.351003 0.932178 0.998738
Si Si4 0.426731 0.563859 0.751754
Si Si5 0.839867 0.068985 0.677281
Si Si6 0.289234 0.432612 0.181008
Si Si7 0.061389 0.932810 0.928686
O O1 0.171222 0.750000 0.729099
O O2 0.248378 0.983040 0.650743
O O3 0.298563 0.990445 0.738381
O O4 0.908100 0.973665 0.800545
O O5 0.716375 0.250000 0.418703
O O6 0.500000 0.000000 0.500000
O O7 0.925775 0.006727 0.389017
O O8 0.320311 0.750000 0.014235
O O9 0.486666 0.955247 0.909303
O O10 0.500000 0.000000 0.000000
O O11 0.127119 0.017374 0.056016
O O12 0.436342 0.750000 0.748848
O O13 0.664725 0.498962 0.688710
O O14 0.284248 0.517731 0.840426
O O15 0.859297 0.250000 0.665690
O O16 0.746541 0.026696 0.758584
O O17 0.268858 0.250000 0.198926
O O18 0.067723 0.750000 0.931520
O O19 0.000000 0.000000 0.000000
#
# Coordination Sequence:
#
# PCOD9163459 Si02
#       7
#     4   4   4   4   4   4   4
#     4   8  16  33  58  81 103 137 182 225 267 318
#     4  10  20  38  63  89 115 143 176 217 266 326
#     4  11  22  35  53  77 107 143 187 238 290 339
#     4  10  20  37  57  77 106 147 188 227 274 329
#     4  11  22  35  55  84 112 141 179 223 268 321
#     4   9  18  35  55  75 102 142 187 229 276 333
#     4  11  23  37  54  77 109 149 193 239 289 340
#
# _framework density 19.336164
#
# number of rings (size 3 to 8) (size 9 to 14) (size 15 to 20)
#    0.000    2.000    0.000    5.143    0.000    8.000 
#    0.000    4.286    0.000    0.000    0.000    0.000 
#    0.000    0.000    0.000    0.000    0.000    0.000 
#
# Total GULP energy -156380.297655 kJ/mol
# GULP energy per Si atom -5585.010631 kJ/mol
# Density = 1.929215 g / cm^3
# Si number density = 19.336164 Si / 1000 Ang^3
#
#
#
# Elastic Constant Matrix: (Units=GPa)
#
#
# Indices 1 2 3 4 5 6 
#
# 1 106.6695 13.1807 27.8567 0.0000 -24.6745 0.0000
# 2 13.1807 41.9257 29.4727 0.0000 -9.5323 0.0000
# 3 27.8567 29.4727 88.0434 0.0000 -26.8340 0.0000
# 4 0.0000 0.0000 0.0000 26.3651 0.0000 -4.8400
# 5 -24.6745 -9.5323 -26.8340 0.0000 28.0618 0.0000
# 6 0.0000 0.0000 0.0000 -4.8400 0.0000 28.2804
#
#
#
# Elastic Compliance Matrix: (Units=1/GPa)
#
#
# Indices 1 2 3 4 5 6 
#
# 1 0.011860 -0.001261 -0.000399 0.000000 0.009618 0.000000
# 2 -0.001261 0.031341 -0.010141 0.000000 -0.000160 0.000000
# 3 -0.000399 -0.010141 0.019366 0.000000 0.014724 0.000000
# 4 0.000000 0.000000 0.000000 0.039159 0.000000 0.006702
# 5 0.009618 -0.000160 0.014724 0.000000 0.058118 0.000000
# 6 0.000000 0.000000 0.000000 0.006702 0.000000 0.036507
#
#
# Mechanical properties :
#
#
# Convention : Reuss Voigt Hill
#
# Bulk Modulus (GPa) = 25.66438 41.96209 33.81324
# Shear Modulus (GPa) = 21.46459 27.61670 24.54065
#
# Velocity S-wave (km/s) = 3.33539 3.78331 3.56639
# Velocity P-wave (km/s) = 5.30421 6.39007 5.87230
#
# Compressibility (1/GPa) = 0.03896450
#
# Stress axis : x y z
#
# Youngs Moduli (GPa) = 84.31976 31.90730 51.63569
#
# Poissons Ratio (x) = 0.04025 0.02058
# Poissons Ratio (y) = 0.10636 0.52365
# Poissons Ratio (z) = 0.03361 0.32358
#
# Static dielectric constant tensor:
#      x y z
#    x 1.695500 0.000000 0.013730 
#    y 0.000000 1.651630 0.000000 
#    z 0.013730 0.000000 1.657810 
# 
# From -- ./inp_files/29121.got.cif
#   From: 2010.05.17/outbox.cif.g08.bks.cpg/sg11_15_cif.got.tgz:29121.got - 2010.06.03 12:22:45.
