data_PCOD9163878
_publ_section_title
;
Structure prediction by ZEFSAII (Michael W. Deem and Ramdas Pophale) SiO2 
 PCOD9163878
Probable space group: P 21/M
;
_chemical_formula_sum "Si O2"
_cell_formula_units_Z 32
_cell_length_a 14.656448
_cell_length_b 10.822664
_cell_length_c 18.295775
_cell_angle_alpha 90.000000
_cell_angle_beta 150.692663
_cell_angle_gamma 90.000000
_cell_volume 1420.565285
_symmetry_space_group_name_H-M "P 21/M"
_symmetry_group_IT_number 11
_symmetry_cell_setting 'monoclinic'
loop_
_space_group_symop_operation_xyz
x,y,z
-x,1/2+y,-z
-x,-y,-z
x,1/2-y,z
loop_
_atom_site_type_symbol
_atom_site_label
_atom_site_fract_x
_atom_site_fract_y
_atom_site_fract_z
Si Si1 0.851496 0.385418 0.147956
Si Si2 0.572731 0.494559 0.330982
Si Si3 0.707138 0.892232 0.563760
Si Si4 0.772791 0.116316 0.883222
Si Si5 0.069099 0.615012 0.481714
Si Si6 0.808463 0.891233 0.795871
Si Si7 0.764585 0.058086 0.251877
Si Si8 0.616840 0.611276 0.932055
O O1 0.797509 0.250000 0.079775
O O2 0.783733 0.389797 0.184722
O O3 0.074520 0.392628 0.303840
O O4 0.768109 0.506061 0.051045
O O5 0.609529 0.508775 0.443044
O O6 0.425598 0.605705 0.214708
O O7 0.780537 0.483778 0.443443
O O8 0.463600 0.392158 0.207114
O O9 0.641098 0.750000 0.504864
O O10 0.701766 0.916846 0.646180
O O11 0.781478 0.250000 0.851139
O O12 0.778016 0.997931 0.833600
O O13 0.967563 0.108654 0.062791
O O14 0.114461 0.750000 0.482806
O O15 0.105920 0.617590 0.594311
O O16 0.858880 0.577385 0.315898
O O17 0.763893 0.750000 0.788703
O O18 0.557750 0.073949 0.138284
O O19 0.679377 0.750000 0.992552
#
# Coordination Sequence:
#
# PCOD9163878 Si02
#       8
#     4   4   4   4   4   4   4   4
#     4  11  22  39  63  91 123 164 212 260 312 373
#     4  11  21  39  60  87 123 163 202 254 308 364
#     4  10  21  38  61  92 126 162 208 257 308 372
#     4  10  21  39  65  94 123 159 209 253 303 376
#     4  10  21  37  57  86 125 164 207 256 314 375
#     4   9  20  40  63  89 126 164 200 251 311 369
#     4  10  20  38  59  85 118 162 206 261 311 366
#     4  11  25  42  60  89 127 165 211 264 316 372
#
# _framework density 22.526243000000001
#
# number of rings (size 3 to 8) (size 9 to 14) (size 15 to 20)
#    0.000    1.750    1.250    3.750    0.000    4.500 
#    0.000    6.250    0.000    0.000    0.000    0.000 
#    0.000    0.000    0.000    0.000    0.000    0.000 
#
# Total GULP energy -178298.452463 kJ/mol
# GULP energy per Si atom -5571.826639 kJ/mol
# Density = 2.247497 g / cm^3
# Si number density = 22.526243 Si / 1000 Ang^3
#
#
#
# Elastic Constant Matrix: (Units=GPa)
#
#
# Indices 1 2 3 4 5 6 
#
# 1 71.7214 41.8112 20.9539 0.0000 -6.3518 0.0000
# 2 41.8112 130.9158 53.3402 0.0000 1.6561 0.0000
# 3 20.9539 53.3402 84.7317 0.0000 -5.8494 0.0000
# 4 0.0000 0.0000 0.0000 17.0919 0.0000 -0.2034
# 5 -6.3518 1.6561 -5.8494 0.0000 36.2211 0.0000
# 6 0.0000 0.0000 0.0000 -0.2034 0.0000 18.4815
#
#
#
# Elastic Compliance Matrix: (Units=1/GPa)
#
#
# Indices 1 2 3 4 5 6 
#
# 1 0.017561 -0.005339 -0.000761 0.000000 0.003201 0.000000
# 2 -0.005339 0.011981 -0.006396 0.000000 -0.002517 0.000000
# 3 -0.000761 -0.006396 0.016208 0.000000 0.002777 0.000000
# 4 0.000000 0.000000 0.000000 0.058515 0.000000 0.000644
# 5 0.003201 -0.002517 0.002777 0.000000 0.028733 0.000000
# 6 0.000000 0.000000 0.000000 0.000644 0.000000 0.054115
#
#
# Mechanical properties :
#
#
# Convention : Reuss Voigt Hill
#
# Bulk Modulus (GPa) = 48.17179 57.73104 52.95141
# Shear Modulus (GPa) = 22.82841 25.77646 24.30244
#
# Velocity S-wave (km/s) = 3.18687 3.38640 3.28815
# Velocity P-wave (km/s) = 5.91377 6.40111 6.16226
#
# Compressibility (1/GPa) = 0.02075904
#
# Stress axis : x y z
#
# Youngs Moduli (GPa) = 56.94407 83.46213 61.69731
#
# Poissons Ratio (x) = 0.44561 0.04694
# Poissons Ratio (y) = 0.30403 0.39462
# Poissons Ratio (z) = 0.04332 0.53382
#
# Static dielectric constant tensor:
#      x y z
#    x 1.879890 0.000000 -0.006140 
#    y 0.000000 1.846220 0.000000 
#    z -0.006140 0.000000 1.849070 
# 
# From -- ./inp_files/60434.got.cif
#   From: 2010.05.17/outbox.cif.g08.bks.cpg/sg11_31_cif.got.tgz:60434.got - 2010.06.03 12:22:45.
