data_PCOD9163160
_publ_section_title
;
Structure prediction by ZEFSAII (Michael W. Deem and Ramdas Pophale) SiO2 
 PCOD9163160
Probable space group: P 21/M
;
_chemical_formula_sum "Si O2"
_cell_formula_units_Z 24
_cell_length_a 10.195922
_cell_length_b 19.291935
_cell_length_c 5.217628
_cell_angle_alpha 90.000000
_cell_angle_beta 91.616713
_cell_angle_gamma 90.000000
_cell_volume 1025.894004
_symmetry_space_group_name_H-M "P 21/M"
_symmetry_group_IT_number 11
_symmetry_cell_setting 'monoclinic'
loop_
_space_group_symop_operation_xyz
x,y,z
-x,1/2+y,-z
-x,-y,-z
x,1/2-y,z
loop_
_atom_site_type_symbol
_atom_site_label
_atom_site_fract_x
_atom_site_fract_y
_atom_site_fract_z
Si Si1 0.533951 0.174154 0.486233
Si Si2 0.279119 0.175966 0.126855
Si Si3 0.873193 0.587284 0.575228
Si Si4 0.894739 0.438573 0.732266
Si Si5 0.719182 0.084065 0.213588
Si Si6 0.616107 0.563080 0.254560
O O1 0.565849 0.250000 0.604726
O O2 0.393973 0.181890 0.342297
O O3 0.635776 0.152127 0.272423
O O4 0.512982 0.105716 0.663968
O O5 0.271866 0.250000 0.987126
O O6 0.145147 0.155941 0.261545
O O7 0.321374 0.111863 0.956605
O O8 0.920746 0.521488 0.742630
O O9 0.726616 0.566253 0.481921
O O10 0.966041 0.594915 0.334727
O O11 0.809047 0.425739 0.470699
O O12 0.813128 0.414709 0.972591
O O13 0.618984 0.018014 0.182586
#
# Coordination Sequence:
#
# PCOD9163160 Si02
#       6
#     4   4   4   4   4   4
#     4  10  23  40  57  84 121 161 199 246 301 357
#     4  10  20  36  59  85 116 156 201 251 303 346
#     4   9  20  37  59  88 120 150 197 249 298 354
#     4  10  22  38  64  90 120 156 197 241 301 352
#     4  11  23  39  62  93 120 159 198 246 292 363
#     4  10  20  36  62  89 116 153 202 253 297 344
#
# _framework density 23.394228999999999
#
# number of rings (size 3 to 8) (size 9 to 14) (size 15 to 20)
#    0.000    2.000    1.667    1.000    4.667    3.333 
#    0.000    1.667    0.000    0.000    0.000    0.000 
#    0.000    0.000    0.000    0.000    0.000    0.000 
#
# Total GULP energy -133943.774349 kJ/mol
# GULP energy per Si atom -5580.990598 kJ/mol
# Density = 2.334098 g / cm^3
# Si number density = 23.394229 Si / 1000 Ang^3
#
#
#
# Elastic Constant Matrix: (Units=GPa)
#
#
# Indices 1 2 3 4 5 6 
#
# 1 52.3007 13.0070 26.2181 0.0000 -23.2989 0.0000
# 2 13.0070 90.0225 28.4552 0.0000 -22.7186 0.0000
# 3 26.2181 28.4552 139.9243 0.0000 -37.6961 0.0000
# 4 0.0000 0.0000 0.0000 -142.9228 0.0000 123.6212
# 5 -23.2989 -22.7186 -37.6961 0.0000 46.4750 0.0000
# 6 0.0000 0.0000 0.0000 123.6212 0.0000 -96.0594
#
#
#
# Elastic Compliance Matrix: (Units=1/GPa)
#
#
# Indices 1 2 3 4 5 6 
#
# 1 0.024926 -0.000302 -0.001641 0.000000 0.011017 0.000000
# 2 -0.000302 0.012825 -0.001156 0.000000 0.005180 0.000000
# 3 -0.001641 -0.001156 0.009361 0.000000 0.006205 0.000000
# 4 0.000000 0.000000 0.000000 0.061849 0.000000 0.079595
# 5 0.011017 0.005180 0.006205 0.000000 0.034605 0.000000
# 6 0.000000 0.000000 0.000000 0.079595 0.000000 0.092022
#
#
# Mechanical properties :
#
#
# Convention : Reuss Voigt Hill
#
# Bulk Modulus (GPa) = 24.44212 46.40089 35.42150
# Shear Modulus (GPa) = 19.57532 -24.19694 -2.31081
#
# Velocity S-wave (km/s) = 2.89582 -3.21956 -0.99494
# Velocity P-wave (km/s) = 4.65313 2.46102 3.72211
#
# Compressibility (1/GPa) = 0.04091299
#
# Stress axis : x y z
#
# Youngs Moduli (GPa) = 40.11900 77.97495 106.82743
#
# Poissons Ratio (x) = 0.02358 0.17529
# Poissons Ratio (y) = 0.01213 0.12348
# Poissons Ratio (z) = 0.06583 0.09013
#
# Static dielectric constant tensor:
#      x y z
#    x 1.931450 0.000000 0.036980 
#    y 0.000000 1.935340 0.000000 
#    z 0.036980 0.000000 1.961680 
# 
# From -- ./inp_files/4585.got.cif
#   From: 2010.05.17/outbox.cif.g08.bks.cpg/sg11_3_cif.got.tgz:4585.got - 2010.06.03 12:22:45.
