data_PCOD9163365
_publ_section_title
;
Structure prediction by ZEFSAII (Michael W. Deem and Ramdas Pophale) SiO2 
 PCOD9163365
Probable space group: P 21/M
;
_chemical_formula_sum "Si O2"
_cell_formula_units_Z 32
_cell_length_a 31.803604
_cell_length_b 8.717271
_cell_length_c 12.304105
_cell_angle_alpha 90.000000
_cell_angle_beta 149.892738
_cell_angle_gamma 90.000000
_cell_volume 1711.126403
_symmetry_space_group_name_H-M "P 21/M"
_symmetry_group_IT_number 11
_symmetry_cell_setting 'monoclinic'
loop_
_space_group_symop_operation_xyz
x,y,z
-x,1/2+y,-z
-x,-y,-z
x,1/2-y,z
loop_
_atom_site_type_symbol
_atom_site_label
_atom_site_fract_x
_atom_site_fract_y
_atom_site_fract_z
Si Si1 0.771748 0.565066 0.708683
Si Si2 0.286193 0.066369 0.659837
Si Si3 0.528657 0.433297 0.948055
Si Si4 0.890379 0.932216 0.361642
Si Si5 0.406789 0.565581 0.298598
Si Si6 0.253649 0.566585 0.811682
Si Si7 0.623080 0.433655 0.523870
Si Si8 0.929545 0.565723 0.201058
O O1 0.764600 0.750000 0.700538
O O2 0.757653 0.522026 0.551757
O O3 0.698710 0.494141 0.619292
O O4 0.861659 0.521726 0.958930
O O5 0.294177 0.250000 0.679400
O O6 0.240051 0.009229 0.664397
O O7 0.378247 0.991983 0.866593
O O8 0.526839 0.250000 0.947145
O O9 0.462744 0.494024 0.712592
O O10 0.500000 0.500000 0.000000
O O11 0.879063 0.750000 0.347801
O O12 0.891818 0.969727 0.236174
O O13 0.818123 0.018755 0.264689
O O14 0.981661 0.982317 0.609019
O O15 0.500000 0.500000 0.500000
O O16 0.412420 0.750000 0.305636
O O17 0.367994 0.525267 0.329453
O O18 0.343104 0.514655 0.062100
O O19 0.255732 0.750000 0.805087
O O20 0.618254 0.250000 0.503738
O O21 0.943073 0.750000 0.227246
#
# Coordination Sequence:
#
# PCOD9163365 Si02
#       8
#     4   4   4   4   4   4   4   4
#     4  10  21  37  58  84 114 148 187 234 289 343
#     4  11  23  39  58  83 115 151 196 243 286 339
#     4  12  23  37  56  81 113 152 195 237 285 337
#     4  10  20  36  61  91 118 148 187 233 287 346
#     4  10  23  39  56  82 113 149 190 236 285 336
#     4  11  23  40  60  83 116 157 197 235 285 346
#     4  11  22  36  57  84 114 147 190 240 290 342
#     4   9  19  37  61  89 119 149 184 232 291 350
#
# _framework density 18.701131
#
# number of rings (size 3 to 8) (size 9 to 14) (size 15 to 20)
#    0.000    1.500    1.250    4.125    0.000    5.500 
#    0.000    0.625    0.000    0.000    0.000    0.000 
#    0.000    0.000    0.000    0.000    0.000    0.000 
#
# Total GULP energy -178880.013910 kJ/mol
# GULP energy per Si atom -5590.000435 kJ/mol
# Density = 1.865857 g / cm^3
# Si number density = 18.701131 Si / 1000 Ang^3
#
#
#
# Elastic Constant Matrix: (Units=GPa)
#
#
# Indices 1 2 3 4 5 6 
#
# 1 84.1078 22.6844 38.3381 0.0000 -11.9859 0.0000
# 2 22.6844 37.8071 27.5640 0.0000 -11.5715 0.0000
# 3 38.3381 27.5640 114.7968 0.0000 -17.9694 0.0000
# 4 0.0000 0.0000 0.0000 28.1313 0.0000 5.9523
# 5 -11.9859 -11.5715 -17.9694 0.0000 27.7046 0.0000
# 6 0.0000 0.0000 0.0000 5.9523 0.0000 32.7723
#
#
#
# Elastic Compliance Matrix: (Units=1/GPa)
#
#
# Indices 1 2 3 4 5 6 
#
# 1 0.015354 -0.006197 -0.003345 0.000000 0.001885 0.000000
# 2 -0.006197 0.036897 -0.005339 0.000000 0.009267 0.000000
# 3 -0.003345 -0.005339 0.011725 0.000000 0.003928 0.000000
# 4 0.000000 0.000000 0.000000 0.036968 0.000000 -0.006714
# 5 0.001885 0.009267 0.003928 0.000000 0.043329 0.000000
# 6 0.000000 0.000000 0.000000 -0.006714 0.000000 0.031733
#
#
# Mechanical properties :
#
#
# Convention : Reuss Voigt Hill
#
# Bulk Modulus (GPa) = 29.22768 45.98719 37.60743
# Shear Modulus (GPa) = 23.02311 27.59666 25.30988
#
# Velocity S-wave (km/s) = 3.51252 3.84561 3.68283
# Velocity P-wave (km/s) = 5.66685 6.66050 6.18367
#
# Compressibility (1/GPa) = 0.03421415
#
# Stress axis : x y z
#
# Youngs Moduli (GPa) = 65.12919 27.10230 85.28861
#
# Poissons Ratio (x) = 0.16796 0.28526
# Poissons Ratio (y) = 0.40361 0.45538
# Poissons Ratio (z) = 0.21784 0.14471
#
# Static dielectric constant tensor:
#      x y z
#    x 1.637510 0.000000 -0.017570 
#    y 0.000000 1.627890 0.000000 
#    z -0.017570 0.000000 1.640390 
# 
# From -- ./inp_files/45295.got.cif
#   From: 2010.05.17/outbox.cif.g08.bks.cpg/sg11_23_cif.got.tgz:45295.got - 2010.06.03 12:22:45.
