data_PCOD9163122
_publ_section_title
;
Structure prediction by ZEFSAII (Michael W. Deem and Ramdas Pophale) SiO2 
 PCOD9163122
Probable space group: P 21/M
;
_chemical_formula_sum "Si O2"
_cell_formula_units_Z 28
_cell_length_a 26.746423
_cell_length_b 7.597643
_cell_length_c 8.043569
_cell_angle_alpha 90.000000
_cell_angle_beta 39.582816
_cell_angle_gamma 90.000000
_cell_volume 1041.512032
_symmetry_space_group_name_H-M "P 21/M"
_symmetry_group_IT_number 11
_symmetry_cell_setting 'monoclinic'
loop_
_space_group_symop_operation_xyz
x,y,z
-x,1/2+y,-z
-x,-y,-z
x,1/2-y,z
loop_
_atom_site_type_symbol
_atom_site_label
_atom_site_fract_x
_atom_site_fract_y
_atom_site_fract_z
Si Si1 0.375218 0.046905 0.377331
Si Si2 0.813317 0.464596 0.428652
Si Si3 0.236250 0.036646 0.939117
Si Si4 0.480954 0.044340 0.806824
Si Si5 0.911511 0.955268 0.847551
Si Si6 0.334722 0.542616 0.014099
Si Si7 0.950760 0.039384 0.294239
O O1 0.361930 0.250000 0.369321
O O2 0.293071 0.968413 0.645598
O O3 0.435046 0.042021 0.381280
O O4 0.425394 0.968849 0.097801
O O5 0.815375 0.250000 0.418469
O O6 0.856774 0.532817 0.153915
O O7 0.724463 0.523221 0.689286
O O8 0.865286 0.523870 0.456033
O O9 0.232834 0.250000 0.938510
O O10 0.147444 0.968404 0.140424
O O11 0.284360 0.989669 0.978893
O O12 0.496351 0.250000 0.793919
O O13 0.422441 0.030157 0.801610
O O14 0.923775 0.750000 0.782124
O O15 0.995210 0.032354 0.693400
O O16 0.343824 0.750000 0.008018
O O17 0.947412 0.250000 0.322136
O O18 0.000000 0.000000 0.000000
#
# Coordination Sequence:
#
# PCOD9163122 Si02
#       7
#     4   4   4   4   4   4   4
#     4   9  19  36  57  80 104 129 162 205 252 302
#     4   9  18  32  51  75 103 134 168 208 253 300
#     4  10  21  36  52  73 103 137 171 207 248 296
#     4  10  20  36  59  82 102 127 163 208 254 300
#     4   9  17  31  54  79 101 129 168 212 254 298
#     4  11  23  36  50  72 104 140 174 207 247 297
#     4   8  14  27  48  74 101 128 162 206 253 297
#
# _framework density 26.883991999999999
#
# number of rings (size 3 to 8) (size 9 to 14) (size 15 to 20)
#    0.000    2.571    0.000    1.714    0.000    4.571 
#    0.000    0.714    0.000    0.000    0.000    0.000 
#    0.000    0.000    0.000    0.000    0.000    0.000 
#
# Total GULP energy -156547.523742 kJ/mol
# GULP energy per Si atom -5590.982991 kJ/mol
# Density = 2.682280 g / cm^3
# Si number density = 26.883992 Si / 1000 Ang^3
#
#
#
# Elastic Constant Matrix: (Units=GPa)
#
#
# Indices 1 2 3 4 5 6 
#
# 1 181.7930 9.1059 23.1007 0.0000 -28.6442 0.0000
# 2 9.1059 99.6415 6.1648 0.0000 -4.2554 0.0000
# 3 23.1007 6.1648 95.9936 0.0000 -31.2035 0.0000
# 4 0.0000 0.0000 0.0000 15.2832 0.0000 1.0967
# 5 -28.6442 -4.2554 -31.2035 0.0000 62.5873 0.0000
# 6 0.0000 0.0000 0.0000 1.0967 0.0000 25.3667
#
#
#
# Elastic Compliance Matrix: (Units=1/GPa)
#
#
# Indices 1 2 3 4 5 6 
#
# 1 0.005979 -0.000405 -0.000635 0.000000 0.002392 0.000000
# 2 -0.000405 0.010113 -0.000464 0.000000 0.000271 0.000000
# 3 -0.000635 -0.000464 0.012525 0.000000 0.005922 0.000000
# 4 0.000000 0.000000 0.000000 0.065635 0.000000 -0.002838
# 5 0.002392 0.000271 0.005922 0.000000 0.020043 0.000000
# 6 0.000000 0.000000 0.000000 -0.002838 0.000000 0.039544
#
#
# Mechanical properties :
#
#
# Convention : Reuss Voigt Hill
#
# Bulk Modulus (GPa) = 39.04899 50.46344 44.75622
# Shear Modulus (GPa) = 30.23262 43.25122 36.74192
#
# Velocity S-wave (km/s) = 3.35708 4.01535 3.70088
# Velocity P-wave (km/s) = 5.43904 6.34893 5.91152
#
# Compressibility (1/GPa) = 0.02560886
#
# Stress axis : x y z
#
# Youngs Moduli (GPa) = 167.26158 98.88003 79.83980
#
# Poissons Ratio (x) = 0.04004 0.05071
# Poissons Ratio (y) = 0.06773 0.03704
# Poissons Ratio (z) = 0.10625 0.04588
#
# Static dielectric constant tensor:
#      x y z
#    x 2.260320 0.000000 0.068290 
#    y 0.000000 1.902090 0.000000 
#    z 0.068290 0.000000 2.143880 
# 
# From -- ./inp_files/28411.got.cif
#   From: 2010.05.17/outbox.cif.g08.bks.cpg/sg11_15_cif.got.tgz:28411.got - 2010.06.03 12:22:45.
