data_PCOD9163652
_publ_section_title
;
Structure prediction by ZEFSAII (Michael W. Deem and Ramdas Pophale) SiO2 
 PCOD9163652
Probable space group: P 21/M
;
_chemical_formula_sum "Si O2"
_cell_formula_units_Z 28
_cell_length_a 6.655087
_cell_length_b 20.527006
_cell_length_c 10.218096
_cell_angle_alpha 90.000000
_cell_angle_beta 113.580921
_cell_angle_gamma 90.000000
_cell_volume 1279.322078
_symmetry_space_group_name_H-M "P 21/M"
_symmetry_group_IT_number 11
_symmetry_cell_setting 'monoclinic'
loop_
_space_group_symop_operation_xyz
x,y,z
-x,1/2+y,-z
-x,-y,-z
x,1/2-y,z
loop_
_atom_site_type_symbol
_atom_site_label
_atom_site_fract_x
_atom_site_fract_y
_atom_site_fract_z
Si Si1 0.671385 0.826872 0.917795
Si Si2 0.863510 0.826403 0.482319
Si Si3 0.180617 0.554054 0.585339
Si Si4 0.065237 0.981001 0.821720
Si Si5 0.896842 0.100175 0.910824
Si Si6 0.623181 0.597848 0.642164
Si Si7 0.527872 0.673226 0.170214
O O1 0.648173 0.750000 0.894916
O O2 0.584668 0.863476 0.767743
O O3 0.927038 0.846272 0.998470
O O4 0.558813 0.845092 0.026238
O O5 0.914659 0.750000 0.515953
O O6 0.691208 0.852278 0.546079
O O7 0.748058 0.834448 0.311639
O O8 0.067778 0.875110 0.547360
O O9 0.402574 0.557340 0.561297
O O10 0.000000 0.500000 0.500000
O O11 0.230633 0.534237 0.748251
O O12 0.835533 0.946854 0.722667
O O13 0.140805 0.948569 0.976598
O O14 0.010607 0.056147 0.830567
O O15 0.667892 0.132511 0.817382
O O16 0.472647 0.750000 0.159972
#
# Coordination Sequence:
#
# PCOD9163652 Si02
#       7
#     4   4   4   4   4   4   4
#     4  10  21  37  60  88 113 149 202 246 294 360
#     4  10  24  42  60  90 124 158 204 250 299 364
#     4  11  25  39  63  91 122 161 204 251 299 354
#     4   9  22  38  57  91 115 152 200 241 294 357
#     4  10  20  37  61  82 120 154 189 244 301 356
#     4  10  22  41  62  85 117 160 199 245 303 352
#     4  10  22  37  58  87 118 154 194 246 300 351
#
# _framework density 21.886593000000001
#
# number of rings (size 3 to 8) (size 9 to 14) (size 15 to 20)
#    0.000    2.000    0.000    1.714    6.000    2.286 
#    0.000   10.714    0.000    0.000    0.000    0.000 
#    0.000    0.000    0.000    0.000    0.000    0.000 
#
# Total GULP energy -156516.234785 kJ/mol
# GULP energy per Si atom -5589.865528 kJ/mol
# Density = 2.183678 g / cm^3
# Si number density = 21.886593 Si / 1000 Ang^3
#
#
#
# Elastic Constant Matrix: (Units=GPa)
#
#
# Indices 1 2 3 4 5 6 
#
# 1 47.6047 25.9344 2.6133 0.0000 -10.9362 0.0000
# 2 25.9344 67.2006 32.2470 0.0000 -14.4805 0.0000
# 3 2.6133 32.2470 56.7852 0.0000 -13.9399 0.0000
# 4 0.0000 0.0000 0.0000 29.2316 0.0000 -7.0937
# 5 -10.9362 -14.4805 -13.9399 0.0000 23.6103 0.0000
# 6 0.0000 0.0000 0.0000 -7.0937 0.0000 28.3917
#
#
#
# Elastic Compliance Matrix: (Units=1/GPa)
#
#
# Indices 1 2 3 4 5 6 
#
# 1 0.030572 -0.013799 0.009155 0.000000 0.011103 0.000000
# 2 -0.013799 0.027617 -0.014571 0.000000 0.001943 0.000000
# 3 0.009155 -0.014571 0.028431 0.000000 0.012090 0.000000
# 4 0.000000 0.000000 0.000000 0.036418 0.000000 0.009099
# 5 0.011103 0.001943 0.012090 0.000000 0.055827 0.000000
# 6 0.000000 0.000000 0.000000 0.009099 0.000000 0.037495
#
#
# Mechanical properties :
#
#
# Convention : Reuss Voigt Hill
#
# Bulk Modulus (GPa) = 20.75126 32.57554 26.66340
# Shear Modulus (GPa) = 18.46013 23.63312 21.04662
#
# Velocity S-wave (km/s) = 2.90736 3.28959 3.10437
# Velocity P-wave (km/s) = 4.55765 5.41707 5.00584
#
# Compressibility (1/GPa) = 0.04818985
#
# Stress axis : x y z
#
# Youngs Moduli (GPa) = 32.70972 36.20952 35.17231
#
# Poissons Ratio (x) = 0.49966 -0.32200
# Poissons Ratio (y) = 0.45136 0.51250
# Poissons Ratio (z) = -0.29945 0.52761
#
# Static dielectric constant tensor:
#      x y z
#    x 1.792970 0.000000 -0.030930 
#    y 0.000000 1.785410 0.000000 
#    z -0.030930 0.000000 1.819440 
# 
# From -- ./inp_files/29977.got.cif
#   From: 2010.05.17/outbox.cif.g08.bks.cpg/sg11_15_cif.got.tgz:29977.got - 2010.06.03 12:22:45.
