data_PCOD9163606
_publ_section_title
;
Structure prediction by ZEFSAII (Michael W. Deem and Ramdas Pophale) SiO2 
 PCOD9163606
Probable space group: P 21/M
;
_chemical_formula_sum "Si O2"
_cell_formula_units_Z 32
_cell_length_a 8.774081
_cell_length_b 15.265750
_cell_length_c 14.154297
_cell_angle_alpha 90.000000
_cell_angle_beta 118.832057
_cell_angle_gamma 90.000000
_cell_volume 1660.850492
_symmetry_space_group_name_H-M "P 21/M"
_symmetry_group_IT_number 11
_symmetry_cell_setting 'monoclinic'
loop_
_space_group_symop_operation_xyz
x,y,z
-x,1/2+y,-z
-x,-y,-z
x,1/2-y,z
loop_
_atom_site_type_symbol
_atom_site_label
_atom_site_fract_x
_atom_site_fract_y
_atom_site_fract_z
Si Si1 0.462176 0.502878 0.256220
Si Si2 0.263878 0.154289 0.694082
Si Si3 0.888742 0.417151 0.933868
Si Si4 0.020049 0.649071 0.241277
Si Si5 0.932593 0.150573 0.148969
Si Si6 0.307991 0.648810 0.751048
Si Si7 0.792087 0.971835 0.665883
Si Si8 0.037175 0.406219 0.464790
O O1 0.609732 0.576428 0.296506
O O2 0.297434 0.546145 0.154756
O O3 0.539509 0.417302 0.229639
O O4 0.394640 0.476950 0.340430
O O5 0.349373 0.250000 0.721348
O O6 0.167458 0.138552 0.764986
O O7 0.113885 0.153105 0.569935
O O8 0.973849 0.369845 0.868741
O O9 0.882878 0.357904 0.025088
O O10 0.000000 0.500000 0.000000
O O11 0.075171 0.750000 0.275151
O O12 0.138372 0.571770 0.320563
O O13 0.991918 0.250000 0.187864
O O14 0.766635 0.133239 0.166124
O O15 0.079881 0.081152 0.224037
O O16 0.358824 0.750000 0.756428
O O17 0.139714 0.629161 0.634746
O O18 0.822406 0.922861 0.576464
O O19 0.000000 0.500000 0.500000
#
# Coordination Sequence:
#
# PCOD9163606 Si02
#       8
#     4   4   4   4   4   4   4   4
#     4  11  23  38  61  86 128 156 189 253 296 354
#     4  11  23  40  62  91 123 159 199 245 298 353
#     4  11  22  40  62  87 114 161 203 243 299 354
#     4  10  20  37  60  86 119 157 201 245 291 358
#     4  10  20  39  64  85 116 157 202 245 292 353
#     4  10  22  40  61  91 121 154 196 245 297 355
#     4  10  21  38  62  91 118 156 201 241 301 347
#     4  11  19  39  69  85 114 161 201 237 291 359
#
# _framework density 19.267236
#
# number of rings (size 3 to 8) (size 9 to 14) (size 15 to 20)
#    0.000    1.500    5.000    1.500    0.000    4.500 
#    0.000    0.000    0.000    0.000    0.000    0.000 
#    0.000    0.000    0.000    0.000    0.000    0.000 
#
# Total GULP energy -178564.939156 kJ/mol
# GULP energy per Si atom -5580.154349 kJ/mol
# Density = 1.922338 g / cm^3
# Si number density = 19.267236 Si / 1000 Ang^3
#
#
#
# Elastic Constant Matrix: (Units=GPa)
#
#
# Indices 1 2 3 4 5 6 
#
# 1 113.9339 53.3806 31.7689 0.0000 -24.1833 0.0000
# 2 53.3806 110.0499 3.1539 0.0000 -9.6353 0.0000
# 3 31.7689 3.1539 67.3165 0.0000 -18.5300 0.0000
# 4 0.0000 0.0000 0.0000 13.0634 0.0000 -8.4093
# 5 -24.1833 -9.6353 -18.5300 0.0000 23.8107 0.0000
# 6 0.0000 0.0000 0.0000 -8.4093 0.0000 7.3894
#
#
#
# Elastic Compliance Matrix: (Units=1/GPa)
#
#
# Indices 1 2 3 4 5 6 
#
# 1 0.014848 -0.006267 -0.004149 0.000000 0.009315 0.000000
# 2 -0.006267 0.012098 0.002528 0.000000 0.000497 0.000000
# 3 -0.004149 0.002528 0.020128 0.000000 0.012473 0.000000
# 4 0.000000 0.000000 0.000000 0.286244 0.000000 0.325750
# 5 0.009315 0.000497 0.012473 0.000000 0.061366 0.000000
# 6 0.000000 0.000000 0.000000 0.325750 0.000000 0.506037
#
#
# Mechanical properties :
#
#
# Convention : Reuss Voigt Hill
#
# Bulk Modulus (GPa) = 31.95300 51.98967 41.97134
# Shear Modulus (GPa) = 5.39414 22.38583 13.88999
#
# Velocity S-wave (km/s) = 1.67503 3.41230 2.68789
# Velocity P-wave (km/s) = 4.51233 6.52435 5.60929
#
# Compressibility (1/GPa) = 0.03129596
#
# Stress axis : x y z
#
# Youngs Moduli (GPa) = 67.35105 82.65845 49.68103
#
# Poissons Ratio (x) = 0.51806 0.20615
# Poissons Ratio (y) = 0.42212 -0.12559
# Poissons Ratio (z) = 0.27947 -0.20895
#
# Static dielectric constant tensor:
#      x y z
#    x 1.680550 0.000000 -0.017090 
#    y 0.000000 1.675940 0.000000 
#    z -0.017090 0.000000 1.687190 
# 
# From -- ./inp_files/47653.got.cif
#   From: 2010.05.17/outbox.cif.g08.bks.cpg/sg11_24_cif.got.tgz:47653.got - 2010.06.03 12:22:45.
