data_PCOD9163178
_publ_section_title
;
Structure prediction by ZEFSAII (Michael W. Deem and Ramdas Pophale) SiO2 
 PCOD9163178
Probable space group: P 21/M
;
_chemical_formula_sum "Si O2"
_cell_formula_units_Z 28
_cell_length_a 5.273606
_cell_length_b 9.917287
_cell_length_c 25.209311
_cell_angle_alpha 90.000000
_cell_angle_beta 109.085575
_cell_angle_gamma 90.000000
_cell_volume 1245.970367
_symmetry_space_group_name_H-M "P 21/M"
_symmetry_group_IT_number 11
_symmetry_cell_setting 'monoclinic'
loop_
_space_group_symop_operation_xyz
x,y,z
-x,1/2+y,-z
-x,-y,-z
x,1/2-y,z
loop_
_atom_site_type_symbol
_atom_site_label
_atom_site_fract_x
_atom_site_fract_y
_atom_site_fract_z
Si Si1 0.231988 0.906332 0.041574
Si Si2 0.125106 0.599210 0.160594
Si Si3 0.649147 0.098814 0.108225
Si Si4 0.006207 0.405847 0.321638
Si Si5 0.409827 0.750000 0.528874
Si Si6 0.415702 0.515510 0.615526
Si Si7 0.512417 0.397891 0.217176
Si Si8 0.206226 0.250000 0.544958
O O1 0.245330 0.750000 0.022768
O O2 0.195854 0.890125 0.102773
O O3 0.495439 0.000909 0.057492
O O4 0.000000 0.000000 0.000000
O O5 0.040794 0.750000 0.171467
O O6 0.351906 0.536139 0.214269
O O7 0.902956 0.484524 0.144293
O O8 0.705024 0.250000 0.092464
O O9 0.488729 0.115285 0.152156
O O10 0.090445 0.250000 0.332270
O O11 0.798871 0.438121 0.355025
O O12 0.816597 0.416544 0.257224
O O13 0.280201 0.489698 0.341449
O O14 0.426014 0.621152 0.567985
O O15 0.649113 0.750000 0.502620
O O16 0.115591 0.750000 0.482023
O O17 0.309811 0.378421 0.583788
O O18 0.423208 0.250000 0.233626
#
# Coordination Sequence:
#
# PCOD9163178 Si02
#       8
#     4   4   4   4   2   4   4   2
#     4  10  21  37  57  83 118 158 199 255 312 367
#     4  10  21  38  58  86 119 153 201 249 306 380
#     4  10  20  36  59  86 115 152 206 252 301 376
#     4  11  22  42  66  92 128 170 214 269 319 386
#     4  12  22  44  70  94 128 174 222 254 323 380
#     4  12  24  43  66  97 133 166 217 267 323 381
#     4   9  21  38  61  84 112 156 204 250 305 362
#     4  12  26  42  66 100 130 170 212 272 315 386
#
# _framework density 22.472446000000001
#
# number of rings (size 3 to 8) (size 9 to 14) (size 15 to 20)
#    0.000    1.429    1.429    3.857    2.000    2.857 
#    2.571    0.000    0.000    0.000    0.000    0.000 
#    0.000    0.000    0.000    0.000    0.000    0.000 
#
# Total GULP energy -156280.020182 kJ/mol
# GULP energy per Si atom -5581.429292 kJ/mol
# Density = 2.242130 g / cm^3
# Si number density = 22.472446 Si / 1000 Ang^3
#
#
#
# Elastic Constant Matrix: (Units=GPa)
#
#
# Indices 1 2 3 4 5 6 
#
# 1 46.4863 3.1202 6.6024 0.0000 11.2866 0.0000
# 2 3.1202 170.6236 34.3418 0.0000 23.7996 0.0000
# 3 6.6024 34.3418 86.0909 0.0000 15.5393 0.0000
# 4 0.0000 0.0000 0.0000 20.3855 0.0000 13.2495
# 5 11.2866 23.7996 15.5393 0.0000 52.6143 0.0000
# 6 0.0000 0.0000 0.0000 13.2495 0.0000 20.4977
#
#
#
# Elastic Compliance Matrix: (Units=1/GPa)
#
#
# Indices 1 2 3 4 5 6 
#
# 1 0.022794 0.000466 -0.001070 0.000000 -0.004784 0.000000
# 2 0.000466 0.006645 -0.002246 0.000000 -0.002443 0.000000
# 3 -0.001070 -0.002246 0.013065 0.000000 -0.002613 0.000000
# 4 0.000000 0.000000 0.000000 0.084594 0.000000 -0.054681
# 5 -0.004784 -0.002443 -0.002613 0.000000 0.021909 0.000000
# 6 0.000000 0.000000 0.000000 -0.054681 0.000000 0.084131
#
#
# Mechanical properties :
#
#
# Convention : Reuss Voigt Hill
#
# Bulk Modulus (GPa) = 27.17081 43.48108 35.32594
# Shear Modulus (GPa) = 19.91182 35.97525 27.94353
#
# Velocity S-wave (km/s) = 2.97990 4.00542 3.53010
# Velocity P-wave (km/s) = 4.89456 6.38606 5.68940
#
# Compressibility (1/GPa) = 0.03680420
#
# Stress axis : x y z
#
# Youngs Moduli (GPa) = 43.87108 150.48900 76.53928
#
# Poissons Ratio (x) = -0.07012 0.08193
# Poissons Ratio (y) = -0.02044 0.17187
# Poissons Ratio (z) = 0.04696 0.33793
#
# Static dielectric constant tensor:
#      x y z
#    x 1.932720 0.000000 -0.017750 
#    y 0.000000 1.919270 0.000000 
#    z -0.017750 0.000000 1.856610 
# 
# From -- ./inp_files/72630.got.cif
#   From: 2010.05.17/outbox.cif.g08.bks.cpg/sg11_37_cif.got.tgz:72630.got - 2010.06.03 12:22:45.
