data_PCOD9163940
_publ_section_title
;
Structure prediction by ZEFSAII (Michael W. Deem and Ramdas Pophale) SiO2 
 PCOD9163940
Probable space group: P 21/M
;
_chemical_formula_sum "Si O2"
_cell_formula_units_Z 28
_cell_length_a 11.924362
_cell_length_b 9.060971
_cell_length_c 15.691627
_cell_angle_alpha 90.000000
_cell_angle_beta 60.101174
_cell_angle_gamma 90.000000
_cell_volume 1469.773320
_symmetry_space_group_name_H-M "P 21/M"
_symmetry_group_IT_number 11
_symmetry_cell_setting 'monoclinic'
loop_
_space_group_symop_operation_xyz
x,y,z
-x,1/2+y,-z
-x,-y,-z
x,1/2-y,z
loop_
_atom_site_type_symbol
_atom_site_label
_atom_site_fract_x
_atom_site_fract_y
_atom_site_fract_z
Si Si1 0.550080 0.426387 0.067140
Si Si2 0.375188 0.072105 0.296282
Si Si3 0.181088 0.422319 0.997293
Si Si4 0.074480 0.427519 0.393077
Si Si5 0.139801 0.924500 0.658068
Si Si6 0.925328 0.578075 0.152058
Si Si7 0.590688 0.425409 0.536692
O O1 0.546498 0.250000 0.060604
O O2 0.461592 0.467785 0.181965
O O3 0.694208 0.483318 0.028393
O O4 0.500000 0.500000 0.000000
O O5 0.380479 0.250000 0.304923
O O6 0.225155 0.030527 0.336200
O O7 0.423547 0.996501 0.364728
O O8 0.201353 0.250000 0.009550
O O9 0.149641 0.436773 0.908756
O O10 0.055818 0.483277 0.093647
O O11 0.067414 0.250000 0.404029
O O12 0.000000 0.500000 0.500000
O O13 0.992982 0.466486 0.339563
O O14 0.135789 0.750000 0.679743
O O15 0.260820 0.948546 0.549710
O O16 0.154097 0.016776 0.738410
O O17 0.956811 0.750000 0.151560
O O18 0.500000 0.500000 0.500000
O O19 0.566375 0.250000 0.549035
#
# Coordination Sequence:
#
# PCOD9163940 Si02
#       7
#     4   4   4   4   4   4   4
#     4  11  25  43  64  92 124 163 212 259 313 374
#     4  10  23  42  64  90 123 164 206 255 311 367
#     4  10  22  42  64  88 122 160 203 255 312 368
#     4  10  20  38  61  87 119 155 197 246 299 355
#     4  10  22  38  60  90 123 160 198 248 308 365
#     4  10  22  39  63  94 121 156 203 254 308 365
#     4  11  24  41  62  91 127 166 210 254 307 370
#
# _framework density 19.050556
#
# number of rings (size 3 to 8) (size 9 to 14) (size 15 to 20)
#    0.000    1.714    1.429    1.714    4.000    4.571 
#    0.000    0.000    0.000    0.000    0.000    0.000 
#    0.000    0.000    0.000    0.000    0.000    0.000 
#
# Total GULP energy -156475.463354 kJ/mol
# GULP energy per Si atom -5588.409406 kJ/mol
# Density = 1.900720 g / cm^3
# Si number density = 19.050556 Si / 1000 Ang^3
#
#
#
# Elastic Constant Matrix: (Units=GPa)
#
#
# Indices 1 2 3 4 5 6 
#
# 1 93.2229 41.0764 33.2590 0.0000 0.1537 0.0000
# 2 41.0764 60.0383 56.1226 0.0000 10.8228 0.0000
# 3 33.2590 56.1226 109.7767 0.0000 17.5734 0.0000
# 4 0.0000 0.0000 0.0000 35.2891 0.0000 1.8165
# 5 0.1537 10.8228 17.5734 0.0000 18.8563 0.0000
# 6 0.0000 0.0000 0.0000 1.8165 0.0000 32.9808
#
#
#
# Elastic Compliance Matrix: (Units=1/GPa)
#
#
# Indices 1 2 3 4 5 6 
#
# 1 0.016145 -0.012790 0.000580 0.000000 0.006669 0.000000
# 2 -0.012790 0.042250 -0.016290 0.000000 -0.008964 0.000000
# 3 0.000580 -0.016290 0.018531 0.000000 -0.007925 0.000000
# 4 0.000000 0.000000 0.000000 0.028418 0.000000 -0.001565
# 5 0.006669 -0.008964 -0.007925 0.000000 0.065509 0.000000
# 6 0.000000 0.000000 0.000000 -0.001565 0.000000 0.030407
#
#
# Mechanical properties :
#
#
# Convention : Reuss Voigt Hill
#
# Bulk Modulus (GPa) = 50.18853 58.21709 54.20281
# Shear Modulus (GPa) = 18.87499 26.26391 22.56945
#
# Velocity S-wave (km/s) = 3.15109 3.71704 3.44570
# Velocity P-wave (km/s) = 6.29613 7.00339 6.65915
#
# Compressibility (1/GPa) = 0.01992487
#
# Stress axis : x y z
#
# Youngs Moduli (GPa) = 61.93990 23.66857 53.96487
#
# Poissons Ratio (x) = 0.30272 -0.03129
# Poissons Ratio (y) = 0.79221 0.87910
# Poissons Ratio (z) = -0.03591 0.38557
#
# Static dielectric constant tensor:
#      x y z
#    x 1.653890 0.000000 0.000650 
#    y 0.000000 1.636740 0.000000 
#    z 0.000650 0.000000 1.634760 
# 
# From -- ./inp_files/49149.got.cif
#   From: 2010.05.17/outbox.cif.g08.bks.cpg/sg11_25_cif.got.tgz:49149.got - 2010.06.03 12:22:45.
