data_PCOD9163262
_publ_section_title
;
Structure prediction by ZEFSAII (Michael W. Deem and Ramdas Pophale) SiO2 
 PCOD9163262
Probable space group: P 21/M
;
_chemical_formula_sum "Si O2"
_cell_formula_units_Z 24
_cell_length_a 9.265313
_cell_length_b 8.744866
_cell_length_c 16.419041
_cell_angle_alpha 90.000000
_cell_angle_beta 106.235988
_cell_angle_gamma 90.000000
_cell_volume 1277.278997
_symmetry_space_group_name_H-M "P 21/M"
_symmetry_group_IT_number 11
_symmetry_cell_setting 'monoclinic'
loop_
_space_group_symop_operation_xyz
x,y,z
-x,1/2+y,-z
-x,-y,-z
x,1/2-y,z
loop_
_atom_site_type_symbol
_atom_site_label
_atom_site_fract_x
_atom_site_fract_y
_atom_site_fract_z
Si Si1 0.534078 0.933594 0.742951
Si Si2 0.210768 0.066530 0.087370
Si Si3 0.043819 0.934268 0.419450
Si Si4 0.216305 0.066700 0.747906
Si Si5 0.876262 0.432220 0.094459
Si Si6 0.621482 0.433959 0.581829
O O1 0.532983 0.750000 0.735819
O O2 0.652447 0.976090 0.832403
O O3 0.369745 0.992969 0.740274
O O4 0.586009 0.004731 0.665971
O O5 0.212990 0.250000 0.075438
O O6 0.051496 0.028433 0.105090
O O7 0.211473 0.985909 0.000056
O O8 0.042345 0.750000 0.424035
O O9 0.211113 0.981437 0.419288
O O10 0.921181 0.980336 0.332658
O O11 0.000000 0.000000 0.500000
O O12 0.229092 0.250000 0.747327
O O13 0.181590 0.012890 0.833723
O O14 0.864326 0.250000 0.101859
O O15 0.500000 0.500000 0.500000
O O16 0.613965 0.250000 0.580324
#
# Coordination Sequence:
#
# PCOD9163262 Si02
#       6
#     4   4   4   4   4   4
#     4  11  23  39  59  85 116 151 191 235 284 337
#     4   9  20  38  59  84 115 150 189 235 287 341
#     4  10  23  40  60  85 114 149 188 231 279 333
#     4  11  23  39  58  83 116 153 191 233 283 337
#     4  10  20  36  60  87 113 147 191 237 285 338
#     4  11  23  40  61  87 117 150 189 233 283 337
#
# _framework density 18.789944999999999
#
# number of rings (size 3 to 8) (size 9 to 14) (size 15 to 20)
#    0.000    1.667    0.000    4.000    0.000    8.000 
#    0.000    0.000    0.000    0.000    0.000    0.000 
#    0.000    0.000    0.000    0.000    0.000    0.000 
#
# Total GULP energy -134185.532880 kJ/mol
# GULP energy per Si atom -5591.063870 kJ/mol
# Density = 1.874718 g / cm^3
# Si number density = 18.789945 Si / 1000 Ang^3
#
#
#
# Elastic Constant Matrix: (Units=GPa)
#
#
# Indices 1 2 3 4 5 6 
#
# 1 170.6527 54.2178 117.6327 0.0000 7.3263 0.0000
# 2 54.2178 48.5294 55.8583 0.0000 3.5394 0.0000
# 3 117.6327 55.8583 175.3174 0.0000 3.8471 0.0000
# 4 0.0000 0.0000 0.0000 40.2863 0.0000 -4.7647
# 5 7.3263 3.5394 3.8471 0.0000 39.4635 0.0000
# 6 0.0000 0.0000 0.0000 -4.7647 0.0000 32.5212
#
#
#
# Elastic Compliance Matrix: (Units=1/GPa)
#
#
# Indices 1 2 3 4 5 6 
#
# 1 0.012151 -0.006537 -0.006047 0.000000 -0.001080 0.000000
# 2 -0.006537 0.036200 -0.007118 0.000000 -0.001339 0.000000
# 3 -0.006047 -0.007118 0.012016 0.000000 0.000590 0.000000
# 4 0.000000 0.000000 0.000000 0.025260 0.000000 0.003701
# 5 -0.001080 -0.001339 0.000590 0.000000 0.025603 0.000000
# 6 0.000000 0.000000 0.000000 0.003701 0.000000 0.031291
#
#
# Mechanical properties :
#
#
# Convention : Reuss Voigt Hill
#
# Bulk Modulus (GPa) = 47.70150 94.43524 71.06837
# Shear Modulus (GPa) = 26.46718 33.57358 30.02038
#
# Velocity S-wave (km/s) = 3.75718 4.23162 4.00144
# Velocity P-wave (km/s) = 6.65310 8.61644 7.69762
#
# Compressibility (1/GPa) = 0.02096370
#
# Stress axis : x y z
#
# Youngs Moduli (GPa) = 82.29818 27.62411 83.22189
#
# Poissons Ratio (x) = 0.18057 0.50320
# Poissons Ratio (y) = 0.53797 0.59241
# Poissons Ratio (z) = 0.49762 0.19664
#
# Static dielectric constant tensor:
#      x y z
#    x 1.628950 0.000000 0.014600 
#    y 0.000000 1.630530 0.000000 
#    z 0.014600 0.000000 1.610960 
# 
# From -- ./inp_files/25754.got.cif
#   From: 2010.05.17/outbox.cif.g08.bks.cpg/sg11_13_cif.got.tgz:25754.got - 2010.06.03 12:22:45.
