data_PCOD9163194
_publ_section_title
;
Structure prediction by ZEFSAII (Michael W. Deem and Ramdas Pophale) SiO2 
 PCOD9163194
Probable space group: P 21/M
;
_chemical_formula_sum "Si O2"
_cell_formula_units_Z 32
_cell_length_a 25.343260
_cell_length_b 7.881885
_cell_length_c 14.501898
_cell_angle_alpha 90.000000
_cell_angle_beta 150.845547
_cell_angle_gamma 90.000000
_cell_volume 1411.217702
_symmetry_space_group_name_H-M "P 21/M"
_symmetry_group_IT_number 11
_symmetry_cell_setting 'monoclinic'
loop_
_space_group_symop_operation_xyz
x,y,z
-x,1/2+y,-z
-x,-y,-z
x,1/2-y,z
loop_
_atom_site_type_symbol
_atom_site_label
_atom_site_fract_x
_atom_site_fract_y
_atom_site_fract_z
Si Si1 0.400266 0.943464 0.910648
Si Si2 0.944007 0.551658 0.187621
Si Si3 0.325244 0.044046 0.395219
Si Si4 0.620172 0.953320 0.719281
Si Si5 0.906264 0.954175 0.926828
Si Si6 0.174012 0.446910 0.606447
Si Si7 0.879300 0.953938 0.280769
Si Si8 0.559863 0.948137 0.822666
O O1 0.377157 0.750000 0.854013
O O2 0.430148 0.963638 0.063922
O O3 0.500000 0.000000 0.000000
O O4 0.286312 0.038501 0.724389
O O5 0.912829 0.750000 0.134033
O O6 0.071088 0.541805 0.407799
O O7 0.931168 0.476627 0.066981
O O8 0.876949 0.478900 0.172576
O O9 0.338974 0.250000 0.419524
O O10 0.309647 0.997260 0.262769
O O11 0.434463 0.962686 0.599968
O O12 0.216831 0.993996 0.283667
O O13 0.628954 0.750000 0.740717
O O14 0.626280 0.015916 0.834284
O O15 0.500000 0.000000 0.500000
O O16 0.904424 0.750000 0.928492
O O17 0.000000 0.000000 0.000000
O O18 0.141875 0.250000 0.561754
O O19 0.191813 0.507974 0.739906
O O20 0.867898 0.750000 0.255782
O O21 0.000000 0.000000 0.500000
O O22 0.588954 0.750000 0.880934
#
# Coordination Sequence:
#
# PCOD9163194 Si02
#       8
#     4   4   4   4   4   4   4   4
#     4  12  26  43  60  80 108 145 189 234 275 330
#     4   9  18  35  57  82 112 150 189 227 273 326
#     4   9  18  35  57  82 112 150 189 227 273 326
#     4   8  15  29  53  82 112 142 177 219 268 327
#     4  10  22  37  54  76 106 145 191 234 271 314
#     4  10  20  36  59  87 115 144 177 223 280 334
#     4   8  15  29  53  82 112 142 177 219 268 327
#     4  10  20  36  59  87 115 144 177 223 280 334
#
# _framework density 22.675453999999998
#
# number of rings (size 3 to 8) (size 9 to 14) (size 15 to 20)
#    0.000    2.500    0.000    1.875    0.000    4.000 
#    0.000    6.250    0.000    1.500    0.000    0.000 
#    0.000    0.000    0.000    0.000    0.000    0.000 
#
# Total GULP energy -178572.182831 kJ/mol
# GULP energy per Si atom -5580.380713 kJ/mol
# Density = 2.262384 g / cm^3
# Si number density = 22.675454 Si / 1000 Ang^3
#
#
#
# Elastic Constant Matrix: (Units=GPa)
#
#
# Indices 1 2 3 4 5 6 
#
# 1 119.5195 3.5679 34.1855 0.0000 31.3196 0.0000
# 2 3.5679 34.6210 -3.7162 0.0000 0.7314 0.0000
# 3 34.1855 -3.7162 61.7641 0.0000 12.9312 0.0000
# 4 0.0000 0.0000 0.0000 12.5071 0.0000 -0.4447
# 5 31.3196 0.7314 12.9312 0.0000 40.7763 0.0000
# 6 0.0000 0.0000 0.0000 -0.4447 0.0000 22.4397
#
#
#
# Elastic Compliance Matrix: (Units=1/GPa)
#
#
# Indices 1 2 3 4 5 6 
#
# 1 0.011816 -0.001606 -0.005080 0.000000 -0.007436 0.000000
# 2 -0.001606 0.029341 0.002684 0.000000 -0.000144 0.000000
# 3 -0.005080 0.002684 0.019662 0.000000 -0.002382 0.000000
# 4 0.000000 0.000000 0.000000 0.080011 0.000000 0.001586
# 5 -0.007436 -0.000144 -0.002382 0.000000 0.030994 0.000000
# 6 0.000000 0.000000 0.000000 0.001586 0.000000 0.044595
#
#
# Mechanical properties :
#
#
# Convention : Reuss Voigt Hill
#
# Bulk Modulus (GPa) = 18.93338 31.55322 25.24330
# Shear Modulus (GPa) = 20.65872 27.26909 23.96391
#
# Velocity S-wave (km/s) = 3.02165 3.47159 3.25441
# Velocity P-wave (km/s) = 4.53230 5.47856 5.02774
#
# Compressibility (1/GPa) = 0.05281678
#
# Stress axis : x y z
#
# Youngs Moduli (GPa) = 84.62829 34.08209 50.85833
#
# Poissons Ratio (x) = 0.05473 0.25836
# Poissons Ratio (y) = 0.13591 -0.13652
# Poissons Ratio (z) = 0.42991 -0.09149
#
# Static dielectric constant tensor:
#      x y z
#    x 1.797250 0.000000 -0.078750 
#    y 0.000000 1.918600 0.000000 
#    z -0.078750 0.000000 1.781200 
# 
# From -- ./inp_files/55749.got.cif
#   From: 2010.05.17/outbox.cif.g08.bks.cpg/sg11_28_cif.got.tgz:55749.got - 2010.06.03 12:22:45.
