data_PCOD9163693
_publ_section_title
;
Structure prediction by ZEFSAII (Michael W. Deem and Ramdas Pophale) SiO2 
 PCOD9163693
Probable space group: P 21/M
;
_chemical_formula_sum "Si O2"
_cell_formula_units_Z 24
_cell_length_a 9.816080
_cell_length_b 8.729033
_cell_length_c 30.232420
_cell_angle_alpha 90.000000
_cell_angle_beta 30.822957
_cell_angle_gamma 90.000000
_cell_volume 1327.318749
_symmetry_space_group_name_H-M "P 21/M"
_symmetry_group_IT_number 11
_symmetry_cell_setting 'monoclinic'
loop_
_space_group_symop_operation_xyz
x,y,z
-x,1/2+y,-z
-x,-y,-z
x,1/2-y,z
loop_
_atom_site_type_symbol
_atom_site_label
_atom_site_fract_x
_atom_site_fract_y
_atom_site_fract_z
Si Si1 0.783841 0.567120 0.779205
Si Si2 0.325845 0.932652 0.284431
Si Si3 0.048885 0.431546 0.873817
Si Si4 0.811176 0.933946 0.264079
Si Si5 0.234379 0.433106 0.404769
Si Si6 0.229506 0.068176 0.967516
O O1 0.789274 0.750000 0.777939
O O2 0.790942 0.504948 0.727245
O O3 0.507680 0.507425 0.877001
O O4 0.020739 0.499791 0.742586
O O5 0.285884 0.750000 0.296330
O O6 0.645623 0.959021 0.196205
O O7 0.212082 0.006517 0.360710
O O8 0.995512 0.250000 0.894282
O O9 0.044008 0.469146 0.823173
O O10 0.855543 0.526845 0.958902
O O11 0.788843 0.750000 0.272903
O O12 0.518356 0.005387 0.342830
O O13 0.230922 0.250000 0.406428
O O14 0.000000 0.500000 0.500000
O O15 0.245961 0.250000 0.956495
O O16 0.000000 0.000000 0.000000
#
# Coordination Sequence:
#
# PCOD9163693 Si02
#       6
#     4   4   4   4   4   4
#     4  12  24  38  58  86 120 158 199 244 297 350
#     4  10  20  37  61  87 118 155 196 240 293 349
#     4   9  19  36  58  82 112 153 201 244 290 345
#     4  10  22  41  62  86 120 156 193 242 300 352
#     4  11  22  40  66  94 121 152 194 237 287 350
#     4  12  23  35  55  82 116 156 203 250 293 342
#
# _framework density 18.081565000000001
#
# number of rings (size 3 to 8) (size 9 to 14) (size 15 to 20)
#    0.000    1.333    1.667    6.500    0.000    4.000 
#    0.000    0.833    0.000    0.000    0.000    0.000 
#    0.000    0.000    0.000    0.000    0.000    0.000 
#
# Total GULP energy -134195.269340 kJ/mol
# GULP energy per Si atom -5591.469556 kJ/mol
# Density = 1.804041 g / cm^3
# Si number density = 18.081565 Si / 1000 Ang^3
#
#
#
# Elastic Constant Matrix: (Units=GPa)
#
#
# Indices 1 2 3 4 5 6 
#
# 1 168.2290 80.5799 74.2550 0.0000 9.8369 0.0000
# 2 80.5799 147.7638 69.7018 0.0000 13.5854 0.0000
# 3 74.2550 69.7018 123.5048 0.0000 20.7505 0.0000
# 4 0.0000 0.0000 0.0000 31.3422 0.0000 2.4308
# 5 9.8369 13.5854 20.7505 0.0000 19.3454 0.0000
# 6 0.0000 0.0000 0.0000 2.4308 0.0000 33.1282
#
#
#
# Elastic Compliance Matrix: (Units=1/GPa)
#
#
# Indices 1 2 3 4 5 6 
#
# 1 0.009166 -0.003302 -0.003969 0.000000 0.001916 0.000000
# 2 -0.003302 0.010432 -0.003602 0.000000 -0.001783 0.000000
# 3 -0.003969 -0.003602 0.014335 0.000000 -0.010829 0.000000
# 4 0.000000 0.000000 0.000000 0.032088 0.000000 -0.002354
# 5 0.001916 -0.001783 -0.010829 0.000000 0.063585 0.000000
# 6 0.000000 0.000000 0.000000 -0.002354 0.000000 0.030358
#
#
# Mechanical properties :
#
#
# Convention : Reuss Voigt Hill
#
# Bulk Modulus (GPa) = 82.06221 98.73011 90.39616
# Shear Modulus (GPa) = 26.91441 31.09388 29.00415
#
# Velocity S-wave (km/s) = 3.86229 4.15136 4.00943
# Velocity P-wave (km/s) = 8.08534 8.81474 8.45790
#
# Compressibility (1/GPa) = 0.01218588
#
# Stress axis : x y z
#
# Youngs Moduli (GPa) = 109.09963 95.86324 69.75701
#
# Poissons Ratio (x) = 0.31658 0.27686
# Poissons Ratio (y) = 0.36029 0.25128
# Poissons Ratio (z) = 0.43301 0.34532
#
# Static dielectric constant tensor:
#      x y z
#    x 1.616920 0.000000 0.010030 
#    y 0.000000 1.618800 0.000000 
#    z 0.010030 0.000000 1.593740 
# 
# From -- ./inp_files/20600.got.cif
#   From: 2010.05.17/outbox.cif.g08.bks.cpg/sg11_11_cif.got.tgz:20600.got - 2010.06.03 12:22:45.
