data_PCOD9163316
_publ_section_title
;
Structure prediction by ZEFSAII (Michael W. Deem and Ramdas Pophale) SiO2 
 PCOD9163316
Probable space group: P 21/M
;
_chemical_formula_sum "Si O2"
_cell_formula_units_Z 30
_cell_length_a 10.954966
_cell_length_b 21.691233
_cell_length_c 6.181540
_cell_angle_alpha 90.000000
_cell_angle_beta 88.920366
_cell_angle_gamma 90.000000
_cell_volume 1468.638305
_symmetry_space_group_name_H-M "P 21/M"
_symmetry_group_IT_number 11
_symmetry_cell_setting 'monoclinic'
loop_
_space_group_symop_operation_xyz
x,y,z
-x,1/2+y,-z
-x,-y,-z
x,1/2-y,z
loop_
_atom_site_type_symbol
_atom_site_label
_atom_site_fract_x
_atom_site_fract_y
_atom_site_fract_z
Si Si1 0.269501 0.750000 0.898935
Si Si2 0.371098 0.319884 0.097568
Si Si3 0.297749 0.408431 0.723457
Si Si4 0.290465 0.862517 0.219852
Si Si5 0.870325 0.353478 0.385044
Si Si6 0.272162 0.956327 0.845288
Si Si7 0.146058 0.320977 0.431992
Si Si8 0.517823 0.104574 0.419109
O O1 0.209123 0.803650 0.742493
O O2 0.313456 0.804781 0.065499
O O3 0.390250 0.250000 0.024247
O O4 0.243898 0.323454 0.234059
O O5 0.473570 0.340022 0.266165
O O6 0.364101 0.366848 0.900946
O O7 0.252296 0.471093 0.833442
O O8 0.193932 0.366957 0.615316
O O9 0.396707 0.422837 0.532439
O O10 0.168099 0.850696 0.362708
O O11 0.395245 0.871270 0.394184
O O12 0.277292 0.924448 0.078921
O O13 0.828806 0.419177 0.289655
O O14 0.012377 0.339440 0.357239
O O15 0.402392 0.941282 0.728166
O O16 0.144147 0.250000 0.511070
#
# Coordination Sequence:
#
# PCOD9163316 Si02
#       8
#     2   4   4   4   4   4   4   4
#     4  10  20  36  60  90 122 154 198 252 300 364
#     4  10  23  41  61  92 125 162 212 258 305 367
#     4  11  23  41  64  90 123 171 211 253 304 366
#     4  10  22  38  61  95 123 160 201 251 313 367
#     4  10  21  41  62  93 123 162 201 256 312 365
#     4  10  23  41  61  93 128 160 211 254 308 369
#     4  10  22  42  65  89 122 164 210 257 309 365
#     4  10  22  41  63  92 123 166 204 260 310 365
#
# _framework density 20.427087
#
# number of rings (size 3 to 8) (size 9 to 14) (size 15 to 20)
#    0.000    1.867    0.667    2.000    0.933    9.600 
#   12.000    1.333    0.000    0.000    0.000    0.000 
#    0.000    0.000    0.000    0.000    0.000    0.000 
#
# Total GULP energy -167172.594113 kJ/mol
# GULP energy per Si atom -5572.419804 kJ/mol
# Density = 2.038059 g / cm^3
# Si number density = 20.427087 Si / 1000 Ang^3
#
#
#
# Elastic Constant Matrix: (Units=GPa)
#
#
# Indices 1 2 3 4 5 6 
#
# 1 47.9335 -0.3270 0.4360 0.0000 -7.6421 0.0000
# 2 -0.3270 97.8530 6.4380 0.0000 -1.4693 0.0000
# 3 0.4360 6.4380 59.9359 0.0000 3.3114 0.0000
# 4 0.0000 0.0000 0.0000 5.1064 0.0000 7.3072
# 5 -7.6421 -1.4693 3.3114 0.0000 12.1033 0.0000
# 6 0.0000 0.0000 0.0000 7.3072 0.0000 5.8420
#
#
#
# Elastic Compliance Matrix: (Units=1/GPa)
#
#
# Indices 1 2 3 4 5 6 
#
# 1 0.023269 0.000372 -0.001039 0.000000 0.015022 0.000000
# 2 0.000372 0.010328 -0.001213 0.000000 0.001820 0.000000
# 3 -0.001039 -0.001213 0.017126 0.000000 -0.005489 0.000000
# 4 0.000000 0.000000 0.000000 -0.247917 0.000000 0.310099
# 5 0.015022 0.001820 -0.005489 0.000000 0.093830 0.000000
# 6 0.000000 0.000000 0.000000 0.310099 0.000000 -0.216702
#
#
# Mechanical properties :
#
#
# Convention : Reuss Voigt Hill
#
# Bulk Modulus (GPa) = 21.29365 24.31292 22.80329
# Shear Modulus (GPa) = -16.63048 17.88870 0.62911
#
# Velocity S-wave (km/s) = -2.85641 2.96249 0.55556
# Velocity P-wave (km/s) = 0.65719 4.86106 3.40573
#
# Compressibility (1/GPa) = 0.04696235
#
# Stress axis : x y z
#
# Youngs Moduli (GPa) = 42.97525 96.82634 58.39228
#
# Poissons Ratio (x) = -0.03599 0.06068
# Poissons Ratio (y) = -0.01597 0.07081
# Poissons Ratio (z) = 0.04466 0.11741
#
# Static dielectric constant tensor:
#      x y z
#    x 1.748490 0.000000 -0.038410 
#    y 0.000000 1.734720 0.000000 
#    z -0.038410 0.000000 1.724900 
# 
# From -- ./inp_files/5061.got.cif
#   From: 2010.05.17/outbox.cif.g08.bks.cpg/sg11_3_cif.got.tgz:5061.got - 2010.06.03 12:22:45.
