data_PCOD9163465
_publ_section_title
;
Structure prediction by ZEFSAII (Michael W. Deem and Ramdas Pophale) SiO2 
 PCOD9163465
Probable space group: P 21/M
;
_chemical_formula_sum "Si O2"
_cell_formula_units_Z 28
_cell_length_a 22.473553
_cell_length_b 8.653251
_cell_length_c 15.047109
_cell_angle_alpha 90.000000
_cell_angle_beta 30.516374
_cell_angle_gamma 90.000000
_cell_volume 1485.879579
_symmetry_space_group_name_H-M "P 21/M"
_symmetry_group_IT_number 11
_symmetry_cell_setting 'monoclinic'
loop_
_space_group_symop_operation_xyz
x,y,z
-x,1/2+y,-z
-x,-y,-z
x,1/2-y,z
loop_
_atom_site_type_symbol
_atom_site_label
_atom_site_fract_x
_atom_site_fract_y
_atom_site_fract_z
Si Si1 0.294263 0.436643 0.480767
Si Si2 0.647326 0.565604 0.219615
Si Si3 0.521241 0.435202 0.071274
Si Si4 0.774452 0.564794 0.765618
Si Si5 0.139451 0.934899 0.167348
Si Si6 0.377217 0.934743 0.554913
Si Si7 0.113733 0.438029 0.565712
O O1 0.290824 0.250000 0.493659
O O2 0.411941 0.476962 0.274390
O O3 0.303519 0.510670 0.565432
O O4 0.184838 0.488358 0.561056
O O5 0.657087 0.750000 0.200008
O O6 0.661457 0.512832 0.303425
O O7 0.514258 0.521124 0.364115
O O8 0.745467 0.488779 0.032740
O O9 0.527610 0.250000 0.059102
O O10 0.500000 0.500000 0.000000
O O11 0.643508 0.502293 0.948350
O O12 0.772797 0.750000 0.769751
O O13 0.855200 0.502822 0.740562
O O14 0.819302 0.514606 0.610703
O O15 0.138102 0.750000 0.174957
O O16 0.020995 0.986266 0.269842
O O17 0.372035 0.750000 0.571639
O O18 0.116268 0.250000 0.563406
#
# Coordination Sequence:
#
# PCOD9163465 Si02
#       7
#     4   4   4   4   4   4   4
#     4  10  20  37  57  80 113 153 187 224 281 336
#     4  10  21  39  61  85 114 145 179 227 285 338
#     4  11  21  34  55  82 114 149 187 231 280 332
#     4  11  21  37  57  80 114 152 193 237 284 334
#     4  11  22  37  58  83 111 147 194 238 280 331
#     4  10  21  37  60  89 114 140 178 229 281 336
#     4   9  20  38  56  77 112 155 193 234 277 327
#
# _framework density 18.844056999999999
#
# number of rings (size 3 to 8) (size 9 to 14) (size 15 to 20)
#    0.000    1.714    1.429    3.429    0.000    5.143 
#    0.000    4.286    0.000    0.000    0.000    0.000 
#    0.000    0.000    0.000    0.000    0.000    0.000 
#
# Total GULP energy -156465.623537 kJ/mol
# GULP energy per Si atom -5588.057983 kJ/mol
# Density = 1.880117 g / cm^3
# Si number density = 18.844057 Si / 1000 Ang^3
#
#
#
# Elastic Constant Matrix: (Units=GPa)
#
#
# Indices 1 2 3 4 5 6 
#
# 1 145.9410 17.3118 26.2445 0.0000 -10.7778 0.0000
# 2 17.3118 30.8822 7.2234 0.0000 -4.2237 0.0000
# 3 26.2445 7.2234 34.3733 0.0000 -11.3815 0.0000
# 4 0.0000 0.0000 0.0000 20.4296 0.0000 2.0595
# 5 -10.7778 -4.2237 -11.3815 0.0000 20.8419 0.0000
# 6 0.0000 0.0000 0.0000 2.0595 0.0000 34.6899
#
#
#
# Elastic Compliance Matrix: (Units=1/GPa)
#
#
# Indices 1 2 3 4 5 6 
#
# 1 0.008261 -0.003278 -0.005400 0.000000 0.000659 0.000000
# 2 -0.003278 0.035585 -0.003844 0.000000 0.003417 0.000000
# 3 -0.005400 -0.003844 0.040090 0.000000 0.018321 0.000000
# 4 0.000000 0.000000 0.000000 0.049243 0.000000 -0.002924
# 5 0.000659 0.003417 0.018321 0.000000 0.059018 0.000000
# 6 0.000000 0.000000 0.000000 -0.002924 0.000000 0.029000
#
#
# Mechanical properties :
#
#
# Convention : Reuss Voigt Hill
#
# Bulk Modulus (GPa) = 16.98039 34.75065 25.86552
# Shear Modulus (GPa) = 18.80608 25.88672 22.34640
#
# Velocity S-wave (km/s) = 3.16252 3.71041 3.44737
# Velocity P-wave (km/s) = 4.72926 6.06938 5.44074
#
# Compressibility (1/GPa) = 0.05889145
#
# Stress axis : x y z
#
# Youngs Moduli (GPa) = 121.05608 28.10178 24.94409
#
# Poissons Ratio (x) = 0.09210 0.13471
# Poissons Ratio (y) = 0.39676 0.09589
# Poissons Ratio (z) = 0.65374 0.10803
#
# Static dielectric constant tensor:
#      x y z
#    x 1.827070 0.000000 0.000520 
#    y 0.000000 1.634590 0.000000 
#    z 0.000520 0.000000 1.638110 
# 
# From -- ./inp_files/37512.got.cif
#   From: 2010.05.17/outbox.cif.g08.bks.cpg/sg11_19_cif.got.tgz:37512.got - 2010.06.03 12:22:45.
