data_PCOD9163031
_publ_section_title
;
Structure prediction by ZEFSAII (Michael W. Deem and Ramdas Pophale) SiO2 
 PCOD9163031
Probable space group: P 21/M
;
_chemical_formula_sum "Si O2"
_cell_formula_units_Z 22
_cell_length_a 15.580787
_cell_length_b 13.314574
_cell_length_c 10.146202
_cell_angle_alpha 90.000000
_cell_angle_beta 159.362549
_cell_angle_gamma 90.000000
_cell_volume 741.859910
_symmetry_space_group_name_H-M "P 21/M"
_symmetry_group_IT_number 11
_symmetry_cell_setting 'monoclinic'
loop_
_space_group_symop_operation_xyz
x,y,z
-x,1/2+y,-z
-x,-y,-z
x,1/2-y,z
loop_
_atom_site_type_symbol
_atom_site_label
_atom_site_fract_x
_atom_site_fract_y
_atom_site_fract_z
Si Si1 0.217887 0.370207 0.748713
Si Si2 0.966312 0.371183 0.948232
Si Si3 0.057620 0.369116 0.797390
Si Si4 0.600572 0.370074 0.656050
Si Si5 0.497126 0.929717 0.199660
Si Si6 0.332693 0.250000 0.722771
O O1 0.345749 0.250000 0.935753
O O2 0.043358 0.388917 0.620646
O O3 0.394568 0.464556 0.000665
O O4 0.130772 0.341274 0.479145
O O5 0.019521 0.250000 0.033337
O O6 0.904121 0.394820 0.705936
O O7 0.220722 0.422300 0.349502
O O8 0.760455 0.392520 0.757935
O O9 0.061615 0.250000 0.804026
O O10 0.329265 0.405348 0.224263
O O11 0.584756 0.250000 0.642071
O O12 0.643321 0.405113 0.866036
O O13 0.488119 0.839352 0.080324
#
# Coordination Sequence:
#
# PCOD9163031 Si02
#       6
#     4   4   4   4   4   2
#     4   9  21  34  56  81 107 148 181 218 270 323
#     4   9  17  30  56  86 112 141 173 219 270 323
#     4   8  15  33  51  77 113 142 175 214 269 326
#     4   9  17  30  56  86 112 141 173 219 270 323
#     4  11  18  36  59  82 107 138 186 225 266 316
#     4  10  20  36  58  80  98 148 190 224 270 310
#
# _framework density 29.655194000000002
#
# number of rings (size 3 to 8) (size 9 to 14) (size 15 to 20)
#    0.545    2.182    1.818    1.636    0.000    2.909 
#    0.000    3.636    0.000   14.182    0.000    0.000 
#    0.000    0.000    0.000    0.000    0.000    0.000 
#
# Total GULP energy -122621.272296 kJ/mol
# GULP energy per Si atom -5573.694195 kJ/mol
# Density = 2.958770 g / cm^3
# Si number density = 29.655194 Si / 1000 Ang^3
#
#
#
# Elastic Constant Matrix: (Units=GPa)
#
#
# Indices 1 2 3 4 5 6 
#
# 1 278.0080 103.0718 70.4416 0.0000 24.8738 0.0000
# 2 103.0718 172.4539 29.6227 0.0000 12.3947 0.0000
# 3 70.4416 29.6227 70.6056 0.0000 9.8748 0.0000
# 4 0.0000 0.0000 0.0000 22.5135 0.0000 6.9985
# 5 24.8738 12.3947 9.8748 0.0000 57.1456 0.0000
# 6 0.0000 0.0000 0.0000 6.9985 0.0000 68.7368
#
#
#
# Elastic Compliance Matrix: (Units=1/GPa)
#
#
# Indices 1 2 3 4 5 6 
#
# 1 0.005825 -0.002615 -0.004549 0.000000 -0.001182 0.000000
# 2 -0.002615 0.007471 -0.000469 0.000000 -0.000401 0.000000
# 3 -0.004549 -0.000469 0.019068 0.000000 -0.001213 0.000000
# 4 0.000000 0.000000 0.000000 0.045870 0.000000 -0.004670
# 5 -0.001182 -0.000401 -0.001213 0.000000 0.018310 0.000000
# 6 0.000000 0.000000 0.000000 -0.004670 0.000000 0.015024
#
#
# Mechanical properties :
#
#
# Convention : Reuss Voigt Hill
#
# Bulk Modulus (GPa) = 58.48849 103.03772 80.76311
# Shear Modulus (GPa) = 37.72621 50.87460 44.30040
#
# Velocity S-wave (km/s) = 3.57061 4.14640 3.86923
# Velocity P-wave (km/s) = 6.06339 7.59896 6.87418
#
# Compressibility (1/GPa) = 0.01709738
#
# Stress axis : x y z
#
# Youngs Moduli (GPa) = 171.67548 133.84929 52.44349
#
# Poissons Ratio (x) = 0.35003 0.23856
# Poissons Ratio (y) = 0.44895 0.02462
# Poissons Ratio (z) = 0.78094 0.06283
#
# Static dielectric constant tensor:
#      x y z
#    x 2.706080 0.000000 -0.242720 
#    y 0.000000 2.340110 0.000000 
#    z -0.242720 0.000000 2.672480 
# 
# From -- ./inp_files/39416.got.cif
#   From: 2010.05.17/outbox.cif.g08.bks.cpg/sg11_20_cif.got.tgz:39416.got - 2010.06.03 12:22:45.
