data_PCOD9163423
_publ_section_title
;
Structure prediction by ZEFSAII (Michael W. Deem and Ramdas Pophale) SiO2 
 PCOD9163423
Probable space group: P 21/M
;
_chemical_formula_sum "Si O2"
_cell_formula_units_Z 32
_cell_length_a 12.209927
_cell_length_b 8.615576
_cell_length_c 31.729898
_cell_angle_alpha 90.000000
_cell_angle_beta 30.010725
_cell_angle_gamma 90.000000
_cell_volume 1669.463163
_symmetry_space_group_name_H-M "P 21/M"
_symmetry_group_IT_number 11
_symmetry_cell_setting 'monoclinic'
loop_
_space_group_symop_operation_xyz
x,y,z
-x,1/2+y,-z
-x,-y,-z
x,1/2-y,z
loop_
_atom_site_type_symbol
_atom_site_label
_atom_site_fract_x
_atom_site_fract_y
_atom_site_fract_z
Si Si1 0.210383 0.933999 0.405424
Si Si2 0.315568 0.935806 0.743075
Si Si3 0.127437 0.563027 0.896526
Si Si4 0.826449 0.564937 0.293433
Si Si5 0.572964 0.934817 0.521073
Si Si6 0.947249 0.566300 0.628018
Si Si7 0.323390 0.935152 0.920924
Si Si8 0.209096 0.565685 0.230935
O O1 0.218226 0.750000 0.408079
O O2 0.435961 0.007897 0.346244
O O3 0.181007 0.979535 0.366300
O O4 0.000000 0.000000 0.500000
O O5 0.307461 0.750000 0.742463
O O6 0.238285 0.981267 0.815684
O O7 0.164610 0.011634 0.757712
O O8 0.349641 0.750000 0.914286
O O9 0.272902 0.521235 0.888902
O O10 0.890658 0.487071 0.982146
O O11 0.791174 0.750000 0.307729
O O12 0.619905 0.478260 0.382824
O O13 0.039074 0.526493 0.250452
O O14 0.604476 0.750000 0.508196
O O15 0.500000 0.000000 0.500000
O O16 0.799720 0.014872 0.458395
O O17 0.925682 0.750000 0.628887
O O18 0.860906 0.520113 0.702851
O O19 0.897392 0.250000 0.094518
O O20 0.544434 0.017197 0.861732
O O21 0.194943 0.750000 0.243037
#
# Coordination Sequence:
#
# PCOD9163423 Si02
#       8
#     4   4   4   4   4   4   4   4
#     4  12  25  42  62  87 122 160 202 249 301 358
#     4  11  23  41  64  89 121 161 205 249 301 363
#     4   9  20  39  62  90 122 156 192 239 299 364
#     4  11  24  41  60  85 120 161 206 252 300 359
#     4  12  23  38  59  85 117 157 202 249 300 354
#     4  12  24  39  61  88 120 156 201 252 303 360
#     4  10  20  36  63  94 123 152 192 246 301 361
#     4  11  23  39  60  87 121 157 198 248 303 359
#
# _framework density 19.167838
#
# number of rings (size 3 to 8) (size 9 to 14) (size 15 to 20)
#    0.000    1.000    1.250    6.375    0.000    4.000 
#    0.000    0.625    0.000    0.000    0.000    0.000 
#    0.000    0.000    0.000    0.000    0.000    0.000 
#
# Total GULP energy -179065.362763 kJ/mol
# GULP energy per Si atom -5595.792586 kJ/mol
# Density = 1.912421 g / cm^3
# Si number density = 19.167838 Si / 1000 Ang^3
#
#
#
# Elastic Constant Matrix: (Units=GPa)
#
#
# Indices 1 2 3 4 5 6 
#
# 1 81.1725 0.5093 26.0095 0.0000 -1.0691 0.0000
# 2 0.5093 37.0646 11.0009 0.0000 3.2745 0.0000
# 3 26.0095 11.0009 76.8069 0.0000 -0.9633 0.0000
# 4 0.0000 0.0000 0.0000 30.7211 0.0000 0.6817
# 5 -1.0691 3.2745 -0.9633 0.0000 32.9195 0.0000
# 6 0.0000 0.0000 0.0000 0.6817 0.0000 33.0482
#
#
#
# Elastic Compliance Matrix: (Units=1/GPa)
#
#
# Indices 1 2 3 4 5 6 
#
# 1 0.013876 0.001240 -0.004874 0.000000 0.000185 0.000000
# 2 0.001240 0.028572 -0.004549 0.000000 -0.002935 0.000000
# 3 -0.004874 -0.004549 0.015331 0.000000 0.000743 0.000000
# 4 0.000000 0.000000 0.000000 0.032566 0.000000 -0.000672
# 5 0.000185 -0.002935 0.000743 0.000000 0.030697 0.000000
# 6 0.000000 0.000000 0.000000 -0.000672 0.000000 0.030273
#
#
# Mechanical properties :
#
#
# Convention : Reuss Voigt Hill
#
# Bulk Modulus (GPa) = 24.14734 30.00927 27.07830
# Shear Modulus (GPa) = 27.55042 29.83937 28.69489
#
# Velocity S-wave (km/s) = 3.79532 3.94984 3.87335
# Velocity P-wave (km/s) = 5.64191 6.04083 5.84477
#
# Compressibility (1/GPa) = 0.04141244
#
# Stress axis : x y z
#
# Youngs Moduli (GPa) = 72.06755 34.99896 65.22710
#
# Poissons Ratio (x) = -0.04339 0.31792
# Poissons Ratio (y) = -0.08934 0.29671
# Poissons Ratio (z) = 0.35126 0.15921
#
# Static dielectric constant tensor:
#      x y z
#    x 1.671180 0.000000 0.013690 
#    y 0.000000 1.631470 0.000000 
#    z 0.013690 0.000000 1.649360 
# 
# From -- ./inp_files/73052.got.cif
#   From: 2010.05.17/outbox.cif.g08.bks.cpg/sg11_37_cif.got.tgz:73052.got - 2010.06.03 12:22:45.
