data_PCOD9163916
_publ_section_title
;
Structure prediction by ZEFSAII (Michael W. Deem and Ramdas Pophale) SiO2 
 PCOD9163916
Probable space group: P 21/M
;
_chemical_formula_sum "Si O2"
_cell_formula_units_Z 24
_cell_length_a 5.114729
_cell_length_b 16.612798
_cell_length_c 13.248738
_cell_angle_alpha 90.000000
_cell_angle_beta 102.683268
_cell_angle_gamma 90.000000
_cell_volume 1098.275103
_symmetry_space_group_name_H-M "P 21/M"
_symmetry_group_IT_number 11
_symmetry_cell_setting 'monoclinic'
loop_
_space_group_symop_operation_xyz
x,y,z
-x,1/2+y,-z
-x,-y,-z
x,1/2-y,z
loop_
_atom_site_type_symbol
_atom_site_label
_atom_site_fract_x
_atom_site_fract_y
_atom_site_fract_z
Si Si1 0.212778 0.161842 0.914899
Si Si2 0.014803 0.250000 0.422292
Si Si3 0.432712 0.250000 0.281063
Si Si4 0.625551 0.002021 0.122941
Si Si5 0.937232 0.073557 0.421659
Si Si6 0.802226 0.161741 0.063796
Si Si7 0.649469 0.924764 0.725589
O O1 0.158553 0.250000 0.863157
O O2 0.508331 0.165580 0.988471
O O3 0.006772 0.150829 0.989161
O O4 0.217293 0.081222 0.848616
O O5 0.278947 0.250000 0.375461
O O6 0.999851 0.162549 0.473067
O O7 0.748881 0.250000 0.329306
O O8 0.347761 0.334532 0.225653
O O9 0.396731 0.013726 0.187018
O O10 0.801506 0.083676 0.134615
O O11 0.500000 0.000000 0.000000
O O12 0.121468 0.065001 0.337625
O O13 0.628853 0.071952 0.361226
O O14 0.000000 0.000000 0.500000
O O15 0.844939 0.250000 0.114741
#
# Coordination Sequence:
#
# PCOD9163916 Si02
#       7
#     4   2   2   4   4   4   4
#     4   9  18  33  49  67  98 142 184 222 258 301
#     4   8  16  32  56  84 108 138 168 224 282 334
#     4   8  16  32  50  80 114 134 174 230 280 326
#     4  10  21  35  55  79 115 149 188 224 273 319
#     4  10  20  38  61  84 114 142 181 229 286 332
#     4   9  18  31  49  73  98 134 182 222 265 314
#     4  10  21  34  57  86 113 145 185 228 278 337
#
# _framework density 21.852447000000002
#
# number of rings (size 3 to 8) (size 9 to 14) (size 15 to 20)
#    0.000    2.667    0.000    1.000    1.167    5.333 
#    0.000    0.000    3.667    0.000    0.000    0.000 
#    0.000    0.000    0.000    0.000    0.000    0.000 
#
# Total GULP energy -134046.261088 kJ/mol
# GULP energy per Si atom -5585.260879 kJ/mol
# Density = 2.180271 g / cm^3
# Si number density = 21.852447 Si / 1000 Ang^3
#
#
#
# Elastic Constant Matrix: (Units=GPa)
#
#
# Indices 1 2 3 4 5 6 
#
# 1 126.6048 17.2492 18.0976 0.0000 -18.1541 0.0000
# 2 17.2492 203.1829 46.6531 0.0000 -18.3601 0.0000
# 3 18.0976 46.6531 52.4853 0.0000 -6.3307 0.0000
# 4 0.0000 0.0000 0.0000 33.4307 0.0000 -10.0054
# 5 -18.1541 -18.3601 -6.3307 0.0000 23.6802 0.0000
# 6 0.0000 0.0000 0.0000 -10.0054 0.0000 32.1286
#
#
#
# Elastic Compliance Matrix: (Units=1/GPa)
#
#
# Indices 1 2 3 4 5 6 
#
# 1 0.009187 0.000458 -0.002772 0.000000 0.006657 0.000000
# 2 0.000458 0.006490 -0.005453 0.000000 0.003925 0.000000
# 3 -0.002772 -0.005453 0.024892 0.000000 0.000302 0.000000
# 4 0.000000 0.000000 0.000000 0.032987 0.000000 0.010273
# 5 0.006657 0.003925 0.000302 0.000000 0.050457 0.000000
# 6 0.000000 0.000000 0.000000 0.010273 0.000000 0.034324
#
#
# Mechanical properties :
#
#
# Convention : Reuss Voigt Hill
#
# Bulk Modulus (GPa) = 39.94410 60.69701 50.32056
# Shear Modulus (GPa) = 27.44006 37.86611 32.65308
#
# Velocity S-wave (km/s) = 3.54743 4.16722 3.86975
# Velocity P-wave (km/s) = 5.92433 7.14076 6.56080
#
# Compressibility (1/GPa) = 0.02503499
#
# Stress axis : x y z
#
# Youngs Moduli (GPa) = 108.84921 154.09503 40.17331
#
# Poissons Ratio (x) = -0.07059 0.11136
# Poissons Ratio (y) = -0.04987 0.21906
# Poissons Ratio (z) = 0.30173 0.84027
#
# Static dielectric constant tensor:
#      x y z
#    x 1.885700 0.000000 0.054960 
#    y 0.000000 1.932180 0.000000 
#    z 0.054960 0.000000 1.771170 
# 
# From -- ./inp_files/29786.got.cif
#   From: 2010.05.17/outbox.cif.g08.bks.cpg/sg11_15_cif.got.tgz:29786.got - 2010.06.03 12:22:45.
