data_PCOD9163464
_publ_section_title
;
Structure prediction by ZEFSAII (Michael W. Deem and Ramdas Pophale) SiO2 
 PCOD9163464
Probable space group: P 21/M
;
_chemical_formula_sum "Si O2"
_cell_formula_units_Z 28
_cell_length_a 9.687818
_cell_length_b 7.505599
_cell_length_c 29.684063
_cell_angle_alpha 90.000000
_cell_angle_beta 146.460162
_cell_angle_gamma 90.000000
_cell_volume 1192.559479
_symmetry_space_group_name_H-M "P 21/M"
_symmetry_group_IT_number 11
_symmetry_cell_setting 'monoclinic'
loop_
_space_group_symop_operation_xyz
x,y,z
-x,1/2+y,-z
-x,-y,-z
x,1/2-y,z
loop_
_atom_site_type_symbol
_atom_site_label
_atom_site_fract_x
_atom_site_fract_y
_atom_site_fract_z
Si Si1 0.588847 0.959310 0.666634
Si Si2 0.162597 0.034154 0.618078
Si Si3 0.068823 0.533533 0.851000
Si Si4 0.478800 0.460333 0.788975
Si Si5 0.966428 0.955771 0.056725
Si Si6 0.595860 0.036054 0.475904
Si Si7 0.541174 0.464696 0.118418
O O1 0.646816 0.750000 0.678674
O O2 0.573223 0.031973 0.611616
O O3 0.803035 0.029728 0.758260
O O4 0.320110 0.979461 0.617242
O O5 0.157381 0.250000 0.617093
O O6 0.317328 0.968983 0.703821
O O7 0.878610 0.970850 0.544757
O O8 0.068788 0.750000 0.854434
O O9 0.114088 0.461679 0.913021
O O10 0.279822 0.477513 0.873098
O O11 0.507046 0.250000 0.787747
O O12 0.360075 0.483949 0.805691
O O13 0.757982 0.539058 0.868660
O O14 0.991279 0.750000 0.049333
O O15 0.740454 0.034191 0.966217
O O16 0.603171 0.250000 0.473466
O O17 0.500000 0.000000 0.500000
O O18 0.533201 0.250000 0.114418
#
# Coordination Sequence:
#
# PCOD9163464 Si02
#       7
#     4   4   4   4   4   4   4
#     4  10  21  38  59  84 113 147 187 229 274 329
#     4  10  21  39  60  84 114 147 187 231 273 327
#     4  10  21  36  55  82 113 145 186 232 277 330
#     4  10  21  36  55  81 112 146 187 232 276 328
#     4  10  20  37  57  80 110 146 189 233 278 330
#     4  10  23  40  60  88 119 147 181 227 276 330
#     4  10  22  36  54  81 113 148 187 232 280 330
#
# _framework density 23.478912999999999
#
# number of rings (size 3 to 8) (size 9 to 14) (size 15 to 20)
#    0.000    2.000    1.429    1.286    2.000    3.429 
#    0.000    0.000    0.000    0.000    0.000    0.000 
#    0.000    0.000    0.000    0.000    0.000    0.000 
#
# Total GULP energy -156546.586132 kJ/mol
# GULP energy per Si atom -5590.949505 kJ/mol
# Density = 2.342547 g / cm^3
# Si number density = 23.478913 Si / 1000 Ang^3
#
#
#
# Elastic Constant Matrix: (Units=GPa)
#
#
# Indices 1 2 3 4 5 6 
#
# 1 64.7644 -8.8775 14.3175 0.0000 -28.2248 0.0000
# 2 -8.8775 65.9586 3.9168 0.0000 5.3542 0.0000
# 3 14.3175 3.9168 88.2680 0.0000 -21.9675 0.0000
# 4 0.0000 0.0000 0.0000 -0.8674 0.0000 -3.6068
# 5 -28.2248 5.3542 -21.9675 0.0000 45.5268 0.0000
# 6 0.0000 0.0000 0.0000 -3.6068 0.0000 8.5501
#
#
#
# Elastic Compliance Matrix: (Units=1/GPa)
#
#
# Indices 1 2 3 4 5 6 
#
# 1 0.021380 0.001854 -0.000347 0.000000 0.012869 0.000000
# 2 0.001854 0.015596 -0.001322 0.000000 -0.001323 0.000000
# 3 -0.000347 -0.001322 0.012989 0.000000 0.006208 0.000000
# 4 0.000000 0.000000 0.000000 -0.418602 0.000000 -0.176582
# 5 0.012869 -0.001323 0.006208 0.000000 0.033094 0.000000
# 6 0.000000 0.000000 0.000000 -0.176582 0.000000 0.042468
#
#
# Mechanical properties :
#
#
# Convention : Reuss Voigt Hill
#
# Bulk Modulus (GPa) = 19.86744 26.41161 23.13953
# Shear Modulus (GPa) = -18.07241 24.61752 3.27255
#
# Velocity S-wave (km/s) = -2.77741 3.24156 1.18189
# Velocity P-wave (km/s) = 1.34356 5.02830 3.42627
#
# Compressibility (1/GPa) = 0.05033360
#
# Stress axis : x y z
#
# Youngs Moduli (GPa) = 46.77298 64.11734 76.98802
#
# Poissons Ratio (x) = -0.11884 0.02675
# Poissons Ratio (y) = -0.08670 0.10178
# Poissons Ratio (z) = 0.01625 0.08476
#
# Static dielectric constant tensor:
#      x y z
#    x 1.856340 0.000000 0.013870 
#    y 0.000000 1.876930 0.000000 
#    z 0.013870 0.000000 1.895420 
# 
# From -- ./inp_files/28257.got.cif
#   From: 2010.05.17/outbox.cif.g08.bks.cpg/sg11_15_cif.got.tgz:28257.got - 2010.06.03 12:22:45.
