data_PCOD9163669
_publ_section_title
;
Structure prediction by ZEFSAII (Michael W. Deem and Ramdas Pophale) SiO2 
 PCOD9163669
Probable space group: P 21/M
;
_chemical_formula_sum "Si O2"
_cell_formula_units_Z 32
_cell_length_a 27.662803
_cell_length_b 8.468916
_cell_length_c 21.338583
_cell_angle_alpha 90.000000
_cell_angle_beta 161.165931
_cell_angle_gamma 90.000000
_cell_volume 1613.843792
_symmetry_space_group_name_H-M "P 21/M"
_symmetry_group_IT_number 11
_symmetry_cell_setting 'monoclinic'
loop_
_space_group_symop_operation_xyz
x,y,z
-x,1/2+y,-z
-x,-y,-z
x,1/2-y,z
loop_
_atom_site_type_symbol
_atom_site_label
_atom_site_fract_x
_atom_site_fract_y
_atom_site_fract_z
Si Si1 0.519809 0.938429 0.341908
Si Si2 0.628266 0.940590 0.611448
Si Si3 0.339349 0.939491 0.825013
Si Si4 0.200054 0.441001 0.913541
Si Si5 0.233002 0.940785 0.445906
Si Si6 0.964086 0.559105 0.025536
Si Si7 0.839280 0.939016 0.279072
Si Si8 0.872297 0.442474 0.548464
O O1 0.526487 0.750000 0.349095
O O2 0.593230 0.993915 0.497418
O O3 0.616506 0.002762 0.402725
O O4 0.349146 0.993141 0.127509
O O5 0.626190 0.750000 0.609366
O O6 0.795503 0.992122 0.835600
O O7 0.500000 0.000000 0.500000
O O8 0.339805 0.750000 0.827406
O O9 0.217321 0.991756 0.623378
O O10 0.286898 0.002863 0.827753
O O11 0.500000 0.000000 0.000000
O O12 0.206696 0.250000 0.923593
O O13 0.190727 0.490069 0.829120
O O14 0.045368 0.491252 0.756560
O O15 0.234079 0.750000 0.447585
O O16 0.207668 0.995153 0.485960
O O17 0.091921 0.994048 0.230504
O O18 0.965971 0.750000 0.027365
O O19 0.000000 0.500000 0.000000
O O20 0.843636 0.750000 0.284696
O O21 0.000000 0.000000 0.500000
O O22 0.871815 0.250000 0.547955
#
# Coordination Sequence:
#
# PCOD9163669 Si02
#       8
#     4   4   4   4   4   4   4   4
#     4  11  24  41  58  87 126 157 192 248 302 349
#     4  10  23  40  59  87 122 155 195 247 298 352
#     4  11  23  41  62  90 125 159 201 256 307 360
#     4  10  22  41  64  87 117 161 204 242 293 361
#     4  10  21  38  63  88 113 156 203 241 292 360
#     4  10  20  37  61  86 113 150 195 241 290 347
#     4  11  22  40  65  91 119 159 204 252 306 363
#     4   9  20  40  62  86 117 153 198 246 291 349
#
# _framework density 19.828436
#
# number of rings (size 3 to 8) (size 9 to 14) (size 15 to 20)
#    0.000    1.750    2.500    1.125    3.500    2.500 
#    0.000    1.250    0.000    0.000    0.000    0.000 
#    0.000    0.000    0.000    0.000    0.000    0.000 
#
# Total GULP energy -178820.195104 kJ/mol
# GULP energy per Si atom -5588.131097 kJ/mol
# Density = 1.978331 g / cm^3
# Si number density = 19.828436 Si / 1000 Ang^3
#
#
#
# Elastic Constant Matrix: (Units=GPa)
#
#
# Indices 1 2 3 4 5 6 
#
# 1 86.8533 6.2931 -4.8880 0.0000 24.2498 0.0000
# 2 6.2931 12.9939 5.1109 0.0000 0.6097 0.0000
# 3 -4.8880 5.1109 75.1912 0.0000 23.7914 0.0000
# 4 0.0000 0.0000 0.0000 29.4125 0.0000 3.7484
# 5 24.2498 0.6097 23.7914 0.0000 39.1295 0.0000
# 6 0.0000 0.0000 0.0000 3.7484 0.0000 28.6056
#
#
#
# Elastic Compliance Matrix: (Units=1/GPa)
#
#
# Indices 1 2 3 4 5 6 
#
# 1 0.016372 -0.009666 0.006047 0.000000 -0.013672 0.000000
# 2 -0.009666 0.084982 -0.009759 0.000000 0.010600 0.000000
# 3 0.006047 -0.009759 0.019184 0.000000 -0.015260 0.000000
# 4 0.000000 0.000000 0.000000 0.034577 0.000000 -0.004531
# 5 -0.013672 0.010600 -0.015260 0.000000 0.043143 0.000000
# 6 0.000000 0.000000 0.000000 -0.004531 0.000000 0.035552
#
#
# Mechanical properties :
#
#
# Convention : Reuss Voigt Hill
#
# Bulk Modulus (GPa) = 10.66290 20.89673 15.77981
# Shear Modulus (GPa) = 17.13353 30.66434 23.89894
#
# Velocity S-wave (km/s) = 2.94273 3.93680 3.47549
# Velocity P-wave (km/s) = 4.11527 5.58804 4.90722
#
# Compressibility (1/GPa) = 0.09378311
#
# Stress axis : x y z
#
# Youngs Moduli (GPa) = 61.08063 11.76720 52.12574
#
# Poissons Ratio (x) = 0.11375 -0.31523
# Poissons Ratio (y) = 0.59042 0.50868
# Poissons Ratio (z) = -0.36938 0.11483
#
# Static dielectric constant tensor:
#      x y z
#    x 1.675750 0.000000 -0.008860 
#    y 0.000000 1.682210 0.000000 
#    z -0.008860 0.000000 1.682000 
# 
# From -- ./inp_files/67134.got.cif
#   From: 2010.05.17/outbox.cif.g08.bks.cpg/sg11_34_cif.got.tgz:67134.got - 2010.06.03 12:22:45.
