data_PCOD9163587
_publ_section_title
;
Structure prediction by ZEFSAII (Michael W. Deem and Ramdas Pophale) SiO2 
 PCOD9163587
Probable space group: P 21/M
;
_chemical_formula_sum "Si O2"
_cell_formula_units_Z 24
_cell_length_a 12.482641
_cell_length_b 8.449975
_cell_length_c 23.377679
_cell_angle_alpha 90.000000
_cell_angle_beta 151.672411
_cell_angle_gamma 90.000000
_cell_volume 1170.066663
_symmetry_space_group_name_H-M "P 21/M"
_symmetry_group_IT_number 11
_symmetry_cell_setting 'monoclinic'
loop_
_space_group_symop_operation_xyz
x,y,z
-x,1/2+y,-z
-x,-y,-z
x,1/2-y,z
loop_
_atom_site_type_symbol
_atom_site_label
_atom_site_fract_x
_atom_site_fract_y
_atom_site_fract_z
Si Si1 0.233656 0.438888 0.135927
Si Si2 0.130822 0.059447 0.295519
Si Si3 0.928524 0.943106 0.600231
Si Si4 0.437013 0.561755 0.345160
Si Si5 0.581128 0.440727 0.205134
Si Si6 0.651347 0.439687 0.018730
O O1 0.228219 0.250000 0.130934
O O2 0.280284 0.489891 0.222503
O O3 0.442091 0.498027 0.194691
O O4 0.000000 0.500000 0.000000
O O5 0.155206 0.250000 0.306711
O O6 0.087749 0.009867 0.340657
O O7 0.342514 0.984477 0.362928
O O8 0.908462 0.017340 0.154408
O O9 0.932730 0.750000 0.601657
O O10 0.696117 0.994338 0.461384
O O11 0.161953 0.999074 0.681911
O O12 0.433183 0.750000 0.338014
O O13 0.590678 0.250000 0.212308
O O14 0.441182 0.487593 0.083086
O O15 0.637250 0.250000 0.008938
O O16 0.500000 0.500000 0.000000
#
# Coordination Sequence:
#
# PCOD9163587 Si02
#       6
#     4   4   4   4   4   4
#     4  11  24  42  65  88 116 152 195 244 292 348
#     4  10  20  37  60  84 119 159 197 244 292 341
#     4   9  19  38  60  85 118 156 194 241 296 345
#     4  11  23  38  60  87 119 157 197 240 290 350
#     4  10  21  40  62  85 116 155 197 242 292 344
#     4  11  21  34  57  87 118 152 189 237 291 344
#
# _framework density 20.511652999999999
#
# number of rings (size 3 to 8) (size 9 to 14) (size 15 to 20)
#    0.000    1.667    1.667    3.000    0.000    6.000 
#    0.000    2.500    0.000    0.000    0.000    0.000 
#    0.000    0.000    0.000    0.000    0.000    0.000 
#
# Total GULP energy -134135.307486 kJ/mol
# GULP energy per Si atom -5588.971145 kJ/mol
# Density = 2.046497 g / cm^3
# Si number density = 20.511653 Si / 1000 Ang^3
#
#
#
# Elastic Constant Matrix: (Units=GPa)
#
#
# Indices 1 2 3 4 5 6 
#
# 1 106.3728 14.3394 33.0481 0.0000 14.9616 0.0000
# 2 14.3394 13.5139 19.9186 0.0000 9.8927 0.0000
# 3 33.0481 19.9186 118.8470 0.0000 17.7617 0.0000
# 4 0.0000 0.0000 0.0000 22.7167 0.0000 0.8628
# 5 14.9616 9.8927 17.7617 0.0000 30.2663 0.0000
# 6 0.0000 0.0000 0.0000 0.8628 0.0000 22.9426
#
#
#
# Elastic Compliance Matrix: (Units=1/GPa)
#
#
# Indices 1 2 3 4 5 6 
#
# 1 0.011254 -0.008384 -0.001428 0.000000 -0.001985 0.000000
# 2 -0.008384 0.124683 -0.014353 0.000000 -0.028186 0.000000
# 3 -0.001428 -0.014353 0.011411 0.000000 -0.001299 0.000000
# 4 0.000000 0.000000 0.000000 0.044084 0.000000 -0.001658
# 5 -0.001985 -0.028186 -0.001299 0.000000 0.043997 0.000000
# 6 0.000000 0.000000 0.000000 -0.001658 0.000000 0.043649
#
#
# Mechanical properties :
#
#
# Convention : Reuss Voigt Hill
#
# Bulk Modulus (GPa) = 10.09913 41.48289 25.79101
# Shear Modulus (GPa) = 13.87300 26.61362 20.24331
#
# Velocity S-wave (km/s) = 2.60349 3.60597 3.14493
# Velocity P-wave (km/s) = 3.73789 6.13232 5.07825
#
# Compressibility (1/GPa) = 0.09901839
#
# Stress axis : x y z
#
# Youngs Moduli (GPa) = 88.85879 8.02034 87.63560
#
# Poissons Ratio (x) = 0.06724 0.12511
# Poissons Ratio (y) = 0.74500 1.25783
# Poissons Ratio (z) = 0.12685 0.11512
#
# Static dielectric constant tensor:
#      x y z
#    x 1.727000 0.000000 0.024640 
#    y 0.000000 1.704130 0.000000 
#    z 0.024640 0.000000 1.731570 
# 
# From -- ./inp_files/44028.got.cif
#   From: 2010.05.17/outbox.cif.g08.bks.cpg/sg11_23_cif.got.tgz:44028.got - 2010.06.03 12:22:45.
