data_PCOD9163255
_publ_section_title
;
Structure prediction by ZEFSAII (Michael W. Deem and Ramdas Pophale) SiO2 
 PCOD9163255
Probable space group: P 21/M
;
_chemical_formula_sum "Si O2"
_cell_formula_units_Z 28
_cell_length_a 29.532124
_cell_length_b 8.427008
_cell_length_c 9.195278
_cell_angle_alpha 90.000000
_cell_angle_beta 38.984475
_cell_angle_gamma 90.000000
_cell_volume 1439.658207
_symmetry_space_group_name_H-M "P 21/M"
_symmetry_group_IT_number 11
_symmetry_cell_setting 'monoclinic'
loop_
_space_group_symop_operation_xyz
x,y,z
-x,1/2+y,-z
-x,-y,-z
x,1/2-y,z
loop_
_atom_site_type_symbol
_atom_site_label
_atom_site_fract_x
_atom_site_fract_y
_atom_site_fract_z
Si Si1 0.857295 0.557994 0.525719
Si Si2 0.286307 0.056302 0.617252
Si Si3 0.570047 0.559613 0.909944
Si Si4 0.141962 0.056232 0.811868
Si Si5 0.569889 0.061266 0.240229
Si Si6 0.288725 0.057720 0.947461
Si Si7 0.998516 0.440203 0.338823
O O1 0.858498 0.750000 0.524087
O O2 0.857600 0.505265 0.357072
O O3 0.927289 0.498352 0.434999
O O4 0.784275 0.507332 0.789019
O O5 0.285900 0.250000 0.617877
O O6 0.357544 0.004971 0.353390
O O7 0.213703 0.004409 0.717243
O O8 0.287996 0.006174 0.781050
O O9 0.569945 0.750000 0.909394
O O10 0.500000 0.500000 0.000000
O O11 0.569671 0.501962 0.076356
O O12 0.142355 0.250000 0.811088
O O13 0.069861 0.004564 0.074672
O O14 0.567979 0.250000 0.241986
O O15 0.500000 0.000000 0.500000
O O16 0.641388 0.003967 0.144082
O O17 0.290923 0.250000 0.944231
O O18 0.999260 0.250000 0.338006
O O19 0.000000 0.500000 0.500000
#
# Coordination Sequence:
#
# PCOD9163255 Si02
#       7
#     4   4   4   4   4   4   4
#     4  10  20  36  60  86 115 150 189 234 290 353
#     4   9  18  34  58  85 112 145 188 233 283 344
#     4  11  22  38  61  88 119 155 194 240 294 354
#     4   9  18  34  56  83 112 147 190 236 285 342
#     4  12  25  41  61  86 118 155 197 245 294 348
#     4  10  20  37  62  89 116 150 191 236 288 349
#     4  11  22  36  56  81 113 150 193 242 291 344
#
# _framework density 19.449062000000001
#
# number of rings (size 3 to 8) (size 9 to 14) (size 15 to 20)
#    0.000    1.714    0.000    5.143    0.000    6.286 
#    0.000    1.429    0.000    6.000    0.000    0.000 
#    0.000    0.000    0.000    0.000    0.000    0.000 
#
# Total GULP energy -156545.190164 kJ/mol
# GULP energy per Si atom -5590.899649 kJ/mol
# Density = 1.940479 g / cm^3
# Si number density = 19.449062 Si / 1000 Ang^3
#
#
#
# Elastic Constant Matrix: (Units=GPa)
#
#
# Indices 1 2 3 4 5 6 
#
# 1 246.6785 35.9470 153.6500 0.0000 0.3731 0.0000
# 2 35.9470 31.8638 40.7553 0.0000 0.2922 0.0000
# 3 153.6500 40.7553 249.7010 0.0000 0.0686 0.0000
# 4 0.0000 0.0000 0.0000 23.6893 0.0000 -3.7451
# 5 0.3731 0.2922 0.0686 0.0000 46.7195 0.0000
# 6 0.0000 0.0000 0.0000 -3.7451 0.0000 35.6293
#
#
#
# Elastic Compliance Matrix: (Units=1/GPa)
#
#
# Indices 1 2 3 4 5 6 
#
# 1 0.006782 -0.002923 -0.003696 0.000000 -0.000030 0.000000
# 2 -0.002923 0.040927 -0.004881 0.000000 -0.000225 0.000000
# 3 -0.003696 -0.004881 0.007076 0.000000 0.000050 0.000000
# 4 0.000000 0.000000 0.000000 0.042926 0.000000 0.004512
# 5 -0.000030 -0.000225 0.000050 0.000000 0.021406 0.000000
# 6 0.000000 0.000000 0.000000 0.004512 0.000000 0.028541
#
#
# Mechanical properties :
#
#
# Convention : Reuss Voigt Hill
#
# Bulk Modulus (GPa) = 31.46275 109.88310 70.67292
# Shear Modulus (GPa) = 27.58563 41.06702 34.32633
#
# Velocity S-wave (km/s) = 3.77019 4.60011 4.20567
# Velocity P-wave (km/s) = 5.92997 9.21060 7.74596
#
# Compressibility (1/GPa) = 0.03178362
#
# Stress axis : x y z
#
# Youngs Moduli (GPa) = 147.44563 24.43388 141.32674
#
# Poissons Ratio (x) = 0.07143 0.52236
# Poissons Ratio (y) = 0.43105 0.68981
# Poissons Ratio (z) = 0.54498 0.11926
#
# Static dielectric constant tensor:
#      x y z
#    x 1.629720 0.000000 0.003680 
#    y 0.000000 1.678720 0.000000 
#    z 0.003680 0.000000 1.659520 
# 
# From -- ./inp_files/28352.got.cif
#   From: 2010.05.17/outbox.cif.g08.bks.cpg/sg11_15_cif.got.tgz:28352.got - 2010.06.03 12:22:45.
