data_PCOD9163999
_publ_section_title
;
Structure prediction by ZEFSAII (Michael W. Deem and Ramdas Pophale) SiO2 
 PCOD9163999
Probable space group: P 21/M
;
_chemical_formula_sum "Si O2"
_cell_formula_units_Z 32
_cell_length_a 20.241875
_cell_length_b 17.638556
_cell_length_c 13.890603
_cell_angle_alpha 90.000000
_cell_angle_beta 19.507744
_cell_angle_gamma 90.000000
_cell_volume 1656.135423
_symmetry_space_group_name_H-M "P 21/M"
_symmetry_group_IT_number 11
_symmetry_cell_setting 'monoclinic'
loop_
_space_group_symop_operation_xyz
x,y,z
-x,1/2+y,-z
-x,-y,-z
x,1/2-y,z
loop_
_atom_site_type_symbol
_atom_site_label
_atom_site_fract_x
_atom_site_fract_y
_atom_site_fract_z
Si Si1 0.902445 0.363114 0.978895
Si Si2 0.959729 0.022984 0.218214
Si Si3 0.546611 0.546786 0.839692
Si Si4 0.896321 0.833279 0.096141
Si Si5 0.775318 0.662303 0.627567
Si Si6 0.492270 0.885019 0.568774
Si Si7 0.209362 0.459856 0.221599
Si Si8 0.725180 0.963534 0.075071
O O1 0.900258 0.453386 0.007703
O O2 0.016325 0.331428 0.915558
O O3 0.036646 0.349100 0.700640
O O4 0.683899 0.339940 0.244037
O O5 0.739516 0.990395 0.524644
O O6 0.993744 0.097887 0.109713
O O7 0.044399 0.034152 0.209451
O O8 0.597916 0.630835 0.803788
O O9 0.500000 0.500000 0.000000
O O10 0.358006 0.529424 0.036594
O O11 0.934685 0.750000 0.000223
O O12 0.659516 0.848671 0.408471
O O13 0.755336 0.750000 0.681616
O O14 0.788591 0.604889 0.699522
O O15 0.618687 0.918176 0.306209
O O16 0.377308 0.953576 0.780684
O O17 0.000000 0.500000 0.500000
O O18 0.281776 0.427461 0.019887
#
# Coordination Sequence:
#
# PCOD9163999 Si02
#       8
#     4   4   4   4   4   4   4   4
#     4  10  20  38  63  82 115 165 204 246 302 365
#     4   9  19  37  57  84 118 150 201 248 288 363
#     4   9  19  35  61  83 108 156 198 240 293 351
#     4  11  23  35  55  89 123 158 198 248 310 363
#     4  10  22  41  59  87 122 154 203 259 309 359
#     4   9  20  36  57  87 119 152 196 248 296 359
#     4  11  21  36  62  91 119 154 206 247 299 373
#     4   9  18  34  59  87 112 148 195 247 295 348
#
# _framework density 19.322091
#
# number of rings (size 3 to 8) (size 9 to 14) (size 15 to 20)
#    0.000    2.250    0.000    4.500    5.250    1.000 
#    0.000    5.625    0.000    0.000    0.000    0.000 
#    0.000    0.000    0.000    0.000    0.000    0.000 
#
# Total GULP energy -178136.992972 kJ/mol
# GULP energy per Si atom -5566.781030 kJ/mol
# Density = 1.927811 g / cm^3
# Si number density = 19.322091 Si / 1000 Ang^3
#
#
#
# Elastic Constant Matrix: (Units=GPa)
#
#
# Indices 1 2 3 4 5 6 
#
# 1 119.2158 41.5184 45.0769 0.0000 -11.5817 0.0000
# 2 41.5184 122.6098 28.4060 0.0000 -2.2090 0.0000
# 3 45.0769 28.4060 86.9161 0.0000 -26.3197 0.0000
# 4 0.0000 0.0000 0.0000 1.8696 0.0000 12.3999
# 5 -11.5817 -2.2090 -26.3197 0.0000 39.3231 0.0000
# 6 0.0000 0.0000 0.0000 12.3999 0.0000 2.1099
#
#
#
# Elastic Compliance Matrix: (Units=1/GPa)
#
#
# Indices 1 2 3 4 5 6 
#
# 1 0.011174 -0.002630 -0.004996 0.000000 -0.000201 0.000000
# 2 -0.002630 0.009546 -0.002293 0.000000 -0.001773 0.000000
# 3 -0.004996 -0.002293 0.018012 0.000000 0.010455 0.000000
# 4 0.000000 0.000000 0.000000 -0.014083 0.000000 0.082769
# 5 -0.000201 -0.001773 0.010455 0.000000 0.032270 0.000000
# 6 0.000000 0.000000 0.000000 0.082769 0.000000 -0.012479
#
#
# Mechanical properties :
#
#
# Convention : Reuss Voigt Hill
#
# Bulk Modulus (GPa) = 52.92772 62.08270 57.50521
# Shear Modulus (GPa) = 70.84791 22.90987 46.87889
#
# Velocity S-wave (km/s) = 6.06188 3.44711 4.93097
# Velocity P-wave (km/s) = 8.74340 6.93135 7.88957
#
# Compressibility (1/GPa) = 0.01889369
#
# Stress axis : x y z
#
# Youngs Moduli (GPa) = 89.49645 104.75951 55.51867
#
# Poissons Ratio (x) = 0.27549 0.27739
# Poissons Ratio (y) = 0.23535 0.12729
# Poissons Ratio (z) = 0.44715 0.24019
#
# Static dielectric constant tensor:
#      x y z
#    x 1.744930 0.000000 -0.046320 
#    y 0.000000 1.693650 0.000000 
#    z -0.046320 0.000000 1.705870 
# 
# From -- ./inp_files/55094.got.cif
#   From: 2010.05.17/outbox.cif.g08.bks.cpg/sg11_28_cif.got.tgz:55094.got - 2010.06.03 12:22:45.
