data_PCOD9163350
_publ_section_title
;
Structure prediction by ZEFSAII (Michael W. Deem and Ramdas Pophale) SiO2 
 PCOD9163350
Probable space group: P 21/M
;
_chemical_formula_sum "Si O2"
_cell_formula_units_Z 24
_cell_length_a 12.842570
_cell_length_b 8.773048
_cell_length_c 11.839530
_cell_angle_alpha 90.000000
_cell_angle_beta 88.914579
_cell_angle_gamma 90.000000
_cell_volume 1333.702529
_symmetry_space_group_name_H-M "P 21/M"
_symmetry_group_IT_number 11
_symmetry_cell_setting 'monoclinic'
loop_
_space_group_symop_operation_xyz
x,y,z
-x,1/2+y,-z
-x,-y,-z
x,1/2-y,z
loop_
_atom_site_type_symbol
_atom_site_label
_atom_site_fract_x
_atom_site_fract_y
_atom_site_fract_z
Si Si1 0.980179 0.068122 0.623775
Si Si2 0.210114 0.068305 0.238969
Si Si3 0.597844 0.431773 0.647548
Si Si4 0.170690 0.933033 0.761135
Si Si5 0.375610 0.567027 0.614288
Si Si6 0.883319 0.932714 0.003974
O O1 0.983377 0.250000 0.619463
O O2 0.069531 0.004863 0.704427
O O3 0.000000 0.000000 0.500000
O O4 0.869981 0.013115 0.674674
O O5 0.202159 0.250000 0.253803
O O6 0.325141 0.012218 0.266977
O O7 0.173732 0.031485 0.112596
O O8 0.604298 0.250000 0.659602
O O9 0.478948 0.486699 0.658671
O O10 0.633271 0.472284 0.518414
O O11 0.159756 0.750000 0.762627
O O12 0.272508 0.972958 0.685900
O O13 0.175067 0.996081 0.887709
O O14 0.389796 0.750000 0.620410
O O15 0.889449 0.750000 0.015334
O O16 0.000000 0.000000 0.000000
#
# Coordination Sequence:
#
# PCOD9163350 Si02
#       6
#     4   4   4   4   4   4
#     4  12  24  37  57  85 119 153 191 239 294 353
#     4  11  23  39  59  84 117 154 196 242 293 350
#     4  10  20  36  61  89 117 152 194 240 293 352
#     4  11  22  38  60  86 118 154 197 243 294 352
#     4   9  20  38  59  85 118 154 190 237 294 352
#     4  11  23  39  60  84 115 157 200 244 294 351
#
# _framework density 17.995017000000001
#
# number of rings (size 3 to 8) (size 9 to 14) (size 15 to 20)
#    0.000    1.333    1.667    4.500    0.000    5.333 
#    0.000    0.833    0.000    0.000    0.000    0.000 
#    0.000    0.000    0.000    0.000    0.000    0.000 
#
# Total GULP energy -134182.264851 kJ/mol
# GULP energy per Si atom -5590.927702 kJ/mol
# Density = 1.795406 g / cm^3
# Si number density = 17.995017 Si / 1000 Ang^3
#
#
#
# Elastic Constant Matrix: (Units=GPa)
#
#
# Indices 1 2 3 4 5 6 
#
# 1 68.6588 22.5884 8.6404 0.0000 19.7839 0.0000
# 2 22.5884 58.4322 20.5669 0.0000 15.8420 0.0000
# 3 8.6404 20.5669 49.6537 0.0000 20.5819 0.0000
# 4 0.0000 0.0000 0.0000 31.7390 0.0000 -0.7764
# 5 19.7839 15.8420 20.5819 0.0000 32.8065 0.0000
# 6 0.0000 0.0000 0.0000 -0.7764 0.0000 31.7099
#
#
#
# Elastic Compliance Matrix: (Units=1/GPa)
#
#
# Indices 1 2 3 4 5 6 
#
# 1 0.019172 -0.005677 0.003610 0.000000 -0.011086 0.000000
# 2 -0.005677 0.022642 -0.007132 0.000000 -0.003036 0.000000
# 3 0.003610 -0.007132 0.029651 0.000000 -0.017335 0.000000
# 4 0.000000 0.000000 0.000000 0.031526 0.000000 0.000772
# 5 -0.011086 -0.003036 -0.017335 0.000000 0.049508 0.000000
# 6 0.000000 0.000000 0.000000 0.000772 0.000000 0.031555
#
#
# Mechanical properties :
#
#
# Convention : Reuss Voigt Hill
#
# Bulk Modulus (GPa) = 18.84391 31.14845 24.99618
# Shear Modulus (GPa) = 22.71269 27.58101 25.14685
#
# Velocity S-wave (km/s) = 3.55655 3.91922 3.74228
# Velocity P-wave (km/s) = 5.23067 6.15040 5.70909
#
# Compressibility (1/GPa) = 0.05306754
#
# Stress axis : x y z
#
# Youngs Moduli (GPa) = 52.15848 44.16620 33.72551
#
# Poissons Ratio (x) = 0.25072 -0.12175
# Poissons Ratio (y) = 0.29609 0.24054
# Poissons Ratio (z) = -0.18830 0.31500
#
# Static dielectric constant tensor:
#      x y z
#    x 1.585370 0.000000 0.002960 
#    y 0.000000 1.596600 0.000000 
#    z 0.002960 0.000000 1.609690 
# 
# From -- ./inp_files/33773.got.cif
#   From: 2010.05.17/outbox.cif.g08.bks.cpg/sg11_17_cif.got.tgz:33773.got - 2010.06.03 12:22:45.
