data_PCOD9163675
_publ_section_title
;
Structure prediction by ZEFSAII (Michael W. Deem and Ramdas Pophale) SiO2 
 PCOD9163675
Probable space group: P 21/M
;
_chemical_formula_sum "Si O2"
_cell_formula_units_Z 28
_cell_length_a 16.179627
_cell_length_b 8.351634
_cell_length_c 12.286440
_cell_angle_alpha 90.000000
_cell_angle_beta 121.980429
_cell_angle_gamma 90.000000
_cell_volume 1408.248081
_symmetry_space_group_name_H-M "P 21/M"
_symmetry_group_IT_number 11
_symmetry_cell_setting 'monoclinic'
loop_
_space_group_symop_operation_xyz
x,y,z
-x,1/2+y,-z
-x,-y,-z
x,1/2-y,z
loop_
_atom_site_type_symbol
_atom_site_label
_atom_site_fract_x
_atom_site_fract_y
_atom_site_fract_z
Si Si1 0.708631 0.444070 0.877267
Si Si2 0.465689 0.559287 0.094806
Si Si3 0.610971 0.057025 0.582786
Si Si4 0.069408 0.058071 0.952715
Si Si5 0.982145 0.942515 0.319517
Si Si6 0.154936 0.943472 0.597371
Si Si7 0.643706 0.444047 0.363001
O O1 0.707749 0.250000 0.876853
O O2 0.637824 0.498256 0.926969
O O3 0.663182 0.499171 0.729596
O O4 0.819487 0.499867 0.962419
O O5 0.459733 0.750000 0.083233
O O6 0.546896 0.512209 0.240584
O O7 0.500000 0.500000 0.000000
O O8 0.612337 0.250000 0.587354
O O9 0.656309 0.008435 0.498109
O O10 0.500000 0.000000 0.500000
O O11 0.070158 0.250000 0.952806
O O12 0.024015 0.999475 0.807272
O O13 0.000000 0.000000 0.000000
O O14 0.986353 0.750000 0.321969
O O15 0.076405 0.999199 0.452319
O O16 0.886380 0.995009 0.317971
O O17 0.154291 0.750000 0.598446
O O18 0.262529 0.995891 0.640529
O O19 0.637708 0.250000 0.355311
#
# Coordination Sequence:
#
# PCOD9163675 Si02
#       7
#     4   4   4   4   4   4   4
#     4  10  23  42  63  87 120 161 201 247 303 356
#     4  11  24  41  61  88 124 162 202 247 297 358
#     4  10  20  37  61  86 117 153 193 243 295 352
#     4  11  25  42  63  89 120 158 202 248 298 356
#     4   9  20  39  60  84 115 151 193 242 294 347
#     4   9  19  36  60  86 114 149 190 239 296 352
#     4  10  21  36  60  90 117 153 196 241 299 357
#
# _framework density 19.882860000000001
#
# number of rings (size 3 to 8) (size 9 to 14) (size 15 to 20)
#    0.000    2.000    1.429    0.857    4.000    3.429 
#    0.000    0.000    0.000    0.000    0.000    0.000 
#    0.000    0.000    0.000    0.000    0.000    0.000 
#
# Total GULP energy -156332.459725 kJ/mol
# GULP energy per Si atom -5583.302133 kJ/mol
# Density = 1.983761 g / cm^3
# Si number density = 19.882860 Si / 1000 Ang^3
#
#
#
# Elastic Constant Matrix: (Units=GPa)
#
#
# Indices 1 2 3 4 5 6 
#
# 1 159.4805 17.1572 54.4000 0.0000 -13.3943 0.0000
# 2 17.1572 8.6920 16.2835 0.0000 -5.5148 0.0000
# 3 54.4000 16.2835 87.9293 0.0000 -29.0635 0.0000
# 4 0.0000 0.0000 0.0000 26.8524 0.0000 2.3012
# 5 -13.3943 -5.5148 -29.0635 0.0000 34.6358 0.0000
# 6 0.0000 0.0000 0.0000 2.3012 0.0000 29.7224
#
#
#
# Elastic Compliance Matrix: (Units=1/GPa)
#
#
# Indices 1 2 3 4 5 6 
#
# 1 0.008614 -0.010787 -0.003873 0.000000 -0.001636 0.000000
# 2 -0.010787 0.189694 -0.027470 0.000000 0.002981 0.000000
# 3 -0.003873 -0.027470 0.023407 0.000000 0.013770 0.000000
# 4 0.000000 0.000000 0.000000 0.037489 0.000000 -0.002903
# 5 -0.001636 0.002981 0.013770 0.000000 0.040269 0.000000
# 6 0.000000 0.000000 0.000000 -0.002903 0.000000 0.033869
#
#
# Mechanical properties :
#
#
# Convention : Reuss Voigt Hill
#
# Bulk Modulus (GPa) = 7.27503 47.97591 27.62547
# Shear Modulus (GPa) = 10.78932 29.45952 20.12442
#
# Velocity S-wave (km/s) = 2.33200 3.85340 3.18488
# Velocity P-wave (km/s) = 3.30422 6.63174 5.23917
#
# Compressibility (1/GPa) = 0.13745643
#
# Stress axis : x y z
#
# Youngs Moduli (GPa) = 116.08414 5.27165 42.72184
#
# Poissons Ratio (x) = 0.05687 0.16544
# Poissons Ratio (y) = 1.25220 1.17357
# Poissons Ratio (z) = 0.44955 0.14481
#
# Static dielectric constant tensor:
#      x y z
#    x 1.691840 0.000000 -0.024510 
#    y 0.000000 1.699470 0.000000 
#    z -0.024510 0.000000 1.704140 
# 
# From -- ./inp_files/38446.got.cif
#   From: 2010.05.17/outbox.cif.g08.bks.cpg/sg11_20_cif.got.tgz:38446.got - 2010.06.03 12:22:45.
