data_PCOD9163575
_publ_section_title
;
Structure prediction by ZEFSAII (Michael W. Deem and Ramdas Pophale) SiO2 
 PCOD9163575
Probable space group: P 21/M
;
_chemical_formula_sum "Si O2"
_cell_formula_units_Z 32
_cell_length_a 27.490636
_cell_length_b 7.998188
_cell_length_c 21.622741
_cell_angle_alpha 90.000000
_cell_angle_beta 161.141095
_cell_angle_gamma 90.000000
_cell_volume 1536.776024
_symmetry_space_group_name_H-M "P 21/M"
_symmetry_group_IT_number 11
_symmetry_cell_setting 'monoclinic'
loop_
_space_group_symop_operation_xyz
x,y,z
-x,1/2+y,-z
-x,-y,-z
x,1/2-y,z
loop_
_atom_site_type_symbol
_atom_site_label
_atom_site_fract_x
_atom_site_fract_y
_atom_site_fract_z
Si Si1 0.901163 0.451931 0.971265
Si Si2 0.037882 0.454037 0.380135
Si Si3 0.828525 0.045438 0.021078
Si Si4 0.778026 0.951106 0.693694
Si Si5 0.136135 0.949256 0.707783
Si Si6 0.462437 0.058971 0.110491
Si Si7 0.466910 0.952880 0.258515
Si Si8 0.366298 0.439119 0.795372
O O1 0.905514 0.250000 0.978185
O O2 0.797946 0.502880 0.789397
O O3 0.844401 0.511293 0.969611
O O4 0.070783 0.511621 0.159294
O O5 0.046848 0.250000 0.388964
O O6 0.201300 0.521518 0.596334
O O7 0.971507 0.507440 0.234512
O O8 0.916619 0.495432 0.286711
O O9 0.826909 0.250000 0.018592
O O10 0.676662 0.992391 0.873661
O O11 0.777445 0.750000 0.688514
O O12 0.622983 0.010827 0.477139
O O13 0.159037 0.750000 0.732748
O O14 0.000000 0.000000 0.500000
O O15 0.293213 0.034999 0.881621
O O16 0.509019 0.250000 0.159080
O O17 0.459579 0.010509 0.178847
O O18 0.572632 0.950011 0.201097
O O19 0.464611 0.750000 0.254963
O O20 0.341477 0.250000 0.785112
O O21 0.500000 0.500000 0.000000
#
# Coordination Sequence:
#
# PCOD9163575 Si02
#       8
#     4   4   4   4   4   4   4   4
#     4   9  18  33  56  82 112 148 185 229 281 341
#     4   9  19  35  59  86 111 144 191 240 291 345
#     4   9  17  33  57  84 110 142 188 236 284 344
#     4   9  19  34  55  83 113 147 189 232 281 345
#     4  11  21  38  63  89 116 152 193 242 296 352
#     4  12  25  40  57  85 122 159 199 242 290 352
#     4  10  20  37  60  83 111 150 195 242 290 340
#     4  11  23  40  63  88 117 153 194 246 301 357
#
# _framework density 20.822813
#
# number of rings (size 3 to 8) (size 9 to 14) (size 15 to 20)
#    0.000    2.000    1.250    2.625    1.750    2.000 
#    0.000    2.500    0.000    0.000    0.000    0.000 
#    0.000    0.000    0.000    0.000    0.000    0.000 
#
# Total GULP energy -178718.451130 kJ/mol
# GULP energy per Si atom -5584.951598 kJ/mol
# Density = 2.077542 g / cm^3
# Si number density = 20.822813 Si / 1000 Ang^3
#
#
#
# Elastic Constant Matrix: (Units=GPa)
#
#
# Indices 1 2 3 4 5 6 
#
# 1 81.0681 -1.7563 11.7150 0.0000 -13.1287 0.0000
# 2 -1.7563 19.0424 5.2163 0.0000 -0.4889 0.0000
# 3 11.7150 5.2163 107.8108 0.0000 -7.1509 0.0000
# 4 0.0000 0.0000 0.0000 17.3814 0.0000 -7.6386
# 5 -13.1287 -0.4889 -7.1509 0.0000 28.2331 0.0000
# 6 0.0000 0.0000 0.0000 -7.6386 0.0000 16.6411
#
#
#
# Elastic Compliance Matrix: (Units=1/GPa)
#
#
# Indices 1 2 3 4 5 6 
#
# 1 0.013514 0.001717 -0.001152 0.000000 0.006022 0.000000
# 2 0.001717 0.053440 -0.002703 0.000000 0.001039 0.000000
# 3 -0.001152 -0.002703 0.009655 0.000000 0.001863 0.000000
# 4 0.000000 0.000000 0.000000 0.072071 0.000000 0.033082
# 5 0.006022 0.001039 0.001863 0.000000 0.038710 0.000000
# 6 0.000000 0.000000 0.000000 0.033082 0.000000 0.075278
#
#
# Mechanical properties :
#
#
# Convention : Reuss Voigt Hill
#
# Bulk Modulus (GPa) = 13.82516 26.47458 20.14987
# Shear Modulus (GPa) = 17.17881 25.30086 21.23983
#
# Velocity S-wave (km/s) = 2.87540 3.48955 3.19725
# Velocity P-wave (km/s) = 4.20449 5.38310 4.82988
#
# Compressibility (1/GPa) = 0.07233191
#
# Stress axis : x y z
#
# Youngs Moduli (GPa) = 73.99586 18.71260 103.57267
#
# Poissons Ratio (x) = -0.03212 0.11933
# Poissons Ratio (y) = -0.12703 0.27998
# Poissons Ratio (z) = 0.08525 0.05058
#
# Static dielectric constant tensor:
#      x y z
#    x 1.731870 0.000000 0.002330 
#    y 0.000000 1.773880 0.000000 
#    z 0.002330 0.000000 1.748810 
# 
# From -- ./inp_files/67267.got.cif
#   From: 2010.05.17/outbox.cif.g08.bks.cpg/sg11_34_cif.got.tgz:67267.got - 2010.06.03 12:22:45.
