data_PCOD9163883
_publ_section_title
;
Structure prediction by ZEFSAII (Michael W. Deem and Ramdas Pophale) SiO2 
 PCOD9163883
Probable space group: P 21/M
;
_chemical_formula_sum "Si O2"
_cell_formula_units_Z 32
_cell_length_a 9.994122
_cell_length_b 23.264089
_cell_length_c 6.617897
_cell_angle_alpha 90.000000
_cell_angle_beta 76.069616
_cell_angle_gamma 90.000000
_cell_volume 1493.434034
_symmetry_space_group_name_H-M "P 21/M"
_symmetry_group_IT_number 11
_symmetry_cell_setting 'monoclinic'
loop_
_space_group_symop_operation_xyz
x,y,z
-x,1/2+y,-z
-x,-y,-z
x,1/2-y,z
loop_
_atom_site_type_symbol
_atom_site_label
_atom_site_fract_x
_atom_site_fract_y
_atom_site_fract_z
Si Si1 0.141188 0.683641 0.188722
Si Si2 0.088560 0.111004 0.503331
Si Si3 0.229768 0.394557 0.045011
Si Si4 0.119784 0.011225 0.795868
Si Si5 0.292857 0.315276 0.678963
Si Si6 0.607020 0.152122 0.637994
Si Si7 0.759182 0.109072 0.204537
Si Si8 0.524117 0.432708 0.986771
O O1 0.101787 0.750000 0.171525
O O2 0.294277 0.682012 0.232690
O O3 0.038203 0.650607 0.378719
O O4 0.145258 0.646437 0.980459
O O5 0.113804 0.103272 0.257298
O O6 0.076776 0.049994 0.621705
O O7 0.225117 0.143321 0.537840
O O8 0.220548 0.447377 0.889537
O O9 0.225746 0.337236 0.913045
O O10 0.380762 0.400898 0.085562
O O11 0.177205 0.948698 0.723040
O O12 0.000000 0.000000 0.000000
O O13 0.258226 0.250000 0.645755
O O14 0.457417 0.321479 0.646918
O O15 0.693482 0.147196 0.402939
O O16 0.574091 0.090037 0.750109
O O17 0.638107 0.085373 0.105365
O O18 0.500000 0.500000 0.000000
#
# Coordination Sequence:
#
# PCOD9163883 Si02
#       8
#     4   4   4   4   4   4   4   4
#     4  11  25  43  61  89 124 159 212 263 302 366
#     4  11  24  40  64  94 124 162 206 252 314 371
#     4  10  23  40  61  93 124 161 201 251 310 363
#     4  11  23  39  60  93 129 161 202 251 306 375
#     4  10  22  43  63  88 123 159 210 259 298 364
#     4  10  24  40  63  93 120 162 209 249 309 366
#     4  11  23  41  64  92 125 165 202 252 316 365
#     4  10  20  38  59  93 127 158 200 248 300 367
#
# _framework density 21.427126999999999
#
# number of rings (size 3 to 8) (size 9 to 14) (size 15 to 20)
#    0.000    1.500    2.500    1.500    3.500    3.000 
#    0.000    0.000    0.000    0.000    0.000    0.000 
#    0.000    0.000    0.000    0.000    0.000    0.000 
#
# Total GULP energy -178818.542294 kJ/mol
# GULP energy per Si atom -5588.079447 kJ/mol
# Density = 2.137836 g / cm^3
# Si number density = 21.427127 Si / 1000 Ang^3
#
#
#
# Elastic Constant Matrix: (Units=GPa)
#
#
# Indices 1 2 3 4 5 6 
#
# 1 70.7787 9.0978 0.4580 0.0000 -1.0829 0.0000
# 2 9.0978 98.3864 27.0163 0.0000 2.0897 0.0000
# 3 0.4580 27.0163 101.8268 0.0000 -19.8723 0.0000
# 4 0.0000 0.0000 0.0000 9.7592 0.0000 -0.1876
# 5 -1.0829 2.0897 -19.8723 0.0000 28.4333 0.0000
# 6 0.0000 0.0000 0.0000 -0.1876 0.0000 21.5913
#
#
#
# Elastic Compliance Matrix: (Units=1/GPa)
#
#
# Indices 1 2 3 4 5 6 
#
# 1 0.014333 -0.001493 0.000532 0.000000 0.001028 0.000000
# 2 -0.001493 0.011390 -0.003694 0.000000 -0.003475 0.000000
# 3 0.000532 -0.003694 0.012570 0.000000 0.009077 0.000000
# 4 0.000000 0.000000 0.000000 0.102485 0.000000 0.000890
# 5 0.001028 -0.003475 0.009077 0.000000 0.041808 0.000000
# 6 0.000000 0.000000 0.000000 0.000890 0.000000 0.046323
#
#
# Mechanical properties :
#
#
# Convention : Reuss Voigt Hill
#
# Bulk Modulus (GPa) = 34.50262 38.23733 36.36997
# Shear Modulus (GPa) = 20.17118 27.58475 23.87796
#
# Velocity S-wave (km/s) = 3.07153 3.59189 3.34185
# Velocity P-wave (km/s) = 5.35876 5.92337 5.64812
#
# Compressibility (1/GPa) = 0.02898331
#
# Stress axis : x y z
#
# Youngs Moduli (GPa) = 69.77016 87.79527 79.55749
#
# Poissons Ratio (x) = 0.13111 -0.04235
# Poissons Ratio (y) = 0.10419 0.29385
# Poissons Ratio (z) = -0.03714 0.32427
#
# Static dielectric constant tensor:
#      x y z
#    x 1.841980 0.000000 0.014720 
#    y 0.000000 1.755800 0.000000 
#    z 0.014720 0.000000 1.759740 
# 
# From -- ./inp_files/5477.got.cif
#   From: 2010.05.17/outbox.cif.g08.bks.cpg/sg11_3_cif.got.tgz:5477.got - 2010.06.03 12:22:45.
