data_PCOD9163083
_publ_section_title
;
Structure prediction by ZEFSAII (Michael W. Deem and Ramdas Pophale) SiO2 
 PCOD9163083
Probable space group: P 21/M
;
_chemical_formula_sum "Si O2"
_cell_formula_units_Z 28
_cell_length_a 18.610866
_cell_length_b 13.253039
_cell_length_c 5.418860
_cell_angle_alpha 90.000000
_cell_angle_beta 66.745026
_cell_angle_gamma 90.000000
_cell_volume 1227.978097
_symmetry_space_group_name_H-M "P 21/M"
_symmetry_group_IT_number 11
_symmetry_cell_setting 'monoclinic'
loop_
_space_group_symop_operation_xyz
x,y,z
-x,1/2+y,-z
-x,-y,-z
x,1/2-y,z
loop_
_atom_site_type_symbol
_atom_site_label
_atom_site_fract_x
_atom_site_fract_y
_atom_site_fract_z
Si Si1 0.908785 0.366623 0.192366
Si Si2 0.397599 0.004616 0.374331
Si Si3 0.353930 0.856917 0.047596
Si Si4 0.759887 0.443303 0.130894
Si Si5 0.050428 0.418952 0.686723
Si Si6 0.502475 0.643652 0.489122
Si Si7 0.860785 0.636657 0.922894
O O1 0.919573 0.250000 0.256506
O O2 0.819868 0.389496 0.234929
O O3 0.936658 0.459335 0.329428
O O4 0.962434 0.387374 0.876015
O O5 0.427481 0.111700 0.425803
O O6 0.371030 0.964344 0.148543
O O7 0.320857 0.975816 0.632533
O O8 0.475556 0.937926 0.326173
O O9 0.356240 0.750000 0.193164
O O10 0.269253 0.867760 0.040166
O O11 0.424328 0.848319 0.758502
O O12 0.800430 0.544871 0.979508
O O13 0.082201 0.373828 0.390327
O O14 0.097685 0.380343 0.866910
O O15 0.519886 0.750000 0.343937
O O16 0.827725 0.750000 0.965848
#
# Coordination Sequence:
#
# PCOD9163083 Si02
#       7
#     4   4   4   4   4   4   4
#     4  10  21  41  66  94 128 167 212 268 321 378
#     4  10  20  37  56  84 120 153 194 253 306 376
#     4  10  20  36  58  84 118 158 197 250 315 374
#     4  10  24  37  56  90 126 158 207 254 318 389
#     4  10  24  43  66  96 126 167 226 271 319 382
#     4   9  19  36  59  83 110 152 201 248 303 370
#     4  11  23  44  67  90 127 175 218 270 325 377
#
# _framework density 22.80171
#
# number of rings (size 3 to 8) (size 9 to 14) (size 15 to 20)
#    0.000    2.000    0.000    2.571    4.000    7.429 
#    0.000    6.429    0.000    0.000    0.000    0.000 
#    0.000    0.000    0.000    0.000    0.000    0.000 
#
# Total GULP energy -156149.668641 kJ/mol
# GULP energy per Si atom -5576.773880 kJ/mol
# Density = 2.274981 g / cm^3
# Si number density = 22.801710 Si / 1000 Ang^3
#
#
#
# Elastic Constant Matrix: (Units=GPa)
#
#
# Indices 1 2 3 4 5 6 
#
# 1 88.4873 20.6731 10.8877 0.0000 -11.1484 0.0000
# 2 20.6731 126.8306 6.9237 0.0000 -8.6696 0.0000
# 3 10.8877 6.9237 53.7314 0.0000 0.9683 0.0000
# 4 0.0000 0.0000 0.0000 0.9622 0.0000 17.8325
# 5 -11.1484 -8.6696 0.9683 0.0000 26.0698 0.0000
# 6 0.0000 0.0000 0.0000 17.8325 0.0000 -9.9557
#
#
#
# Elastic Compliance Matrix: (Units=1/GPa)
#
#
# Indices 1 2 3 4 5 6 
#
# 1 0.012594 -0.001581 -0.002437 0.000000 0.004950 0.000000
# 2 -0.001581 0.008331 -0.000791 0.000000 0.002124 0.000000
# 3 -0.002437 -0.000791 0.019243 0.000000 -0.002020 0.000000
# 4 0.000000 0.000000 0.000000 0.030392 0.000000 0.054438
# 5 0.004950 0.002124 -0.002020 0.000000 0.041257 0.000000
# 6 0.000000 0.000000 0.000000 0.054438 0.000000 -0.002937
#
#
# Mechanical properties :
#
#
# Convention : Reuss Voigt Hill
#
# Bulk Modulus (GPa) = 32.73541 38.44647 35.59094
# Shear Modulus (GPa) = 38.85541 18.78626 28.82083
#
# Velocity S-wave (km/s) = 4.13250 2.87347 3.55910
# Velocity P-wave (km/s) = 6.09572 5.28270 5.70372
#
# Compressibility (1/GPa) = 0.03054796
#
# Stress axis : x y z
#
# Youngs Moduli (GPa) = 79.40225 120.03877 51.96602
#
# Poissons Ratio (x) = 0.18982 0.12666
# Poissons Ratio (y) = 0.12556 0.04112
# Poissons Ratio (z) = 0.19353 0.09499
#
# Static dielectric constant tensor:
#      x y z
#    x 1.876020 0.000000 0.054190 
#    y 0.000000 2.038240 0.000000 
#    z 0.054190 0.000000 1.885820 
# 
# From -- ./inp_files/8036.got.cif
#   From: 2010.05.17/outbox.cif.g08.bks.cpg/sg11_5_cif.got.tgz:8036.got - 2010.06.03 12:22:45.
