data_PCOD9163544
_publ_section_title
;
Structure prediction by ZEFSAII (Michael W. Deem and Ramdas Pophale) SiO2 
 PCOD9163544
Probable space group: P 21/M
;
_chemical_formula_sum "Si O2"
_cell_formula_units_Z 28
_cell_length_a 28.097273
_cell_length_b 8.084172
_cell_length_c 9.631472
_cell_angle_alpha 90.000000
_cell_angle_beta 37.888760
_cell_angle_gamma 90.000000
_cell_volume 1343.547333
_symmetry_space_group_name_H-M "P 21/M"
_symmetry_group_IT_number 11
_symmetry_cell_setting 'monoclinic'
loop_
_space_group_symop_operation_xyz
x,y,z
-x,1/2+y,-z
-x,-y,-z
x,1/2-y,z
loop_
_atom_site_type_symbol
_atom_site_label
_atom_site_fract_x
_atom_site_fract_y
_atom_site_fract_z
Si Si1 0.840404 0.449251 0.712015
Si Si2 0.126242 0.549417 0.050107
Si Si3 0.019579 0.553362 0.797558
Si Si4 0.473338 0.050727 0.711620
Si Si5 0.570140 0.050648 0.740360
Si Si6 0.735097 0.050192 0.469726
Si Si7 0.297378 0.052748 0.151032
O O1 0.845691 0.250000 0.703228
O O2 0.861991 0.507752 0.817815
O O3 0.754561 0.493172 0.857762
O O4 0.901328 0.512285 0.455575
O O5 0.126082 0.750000 0.052660
O O6 0.048334 0.492594 0.153634
O O7 0.196756 0.493696 0.788735
O O8 0.026575 0.750000 0.787762
O O9 0.000000 0.500000 0.000000
O O10 0.470448 0.250000 0.730041
O O11 0.540157 0.990425 0.661335
O O12 0.500000 0.000000 0.500000
O O13 0.386284 0.988848 0.944758
O O14 0.575968 0.250000 0.724751
O O15 0.652301 0.987209 0.604407
O O16 0.500000 0.000000 0.000000
O O17 0.735160 0.250000 0.465694
O O18 0.742136 0.000083 0.613536
O O19 0.300260 0.250000 0.140053
#
# Coordination Sequence:
#
# PCOD9163544 Si02
#       7
#     4   4   4   4   4   4   4
#     4  10  23  41  62  87 119 157 195 235 287 352
#     4  10  22  40  62  89 118 151 194 242 289 343
#     4  11  23  40  63  91 120 155 196 236 286 346
#     4  10  23  39  57  84 117 153 196 243 291 346
#     4  10  20  37  59  84 114 151 195 242 290 343
#     4  10  21  37  60  86 113 152 197 238 290 352
#     4  11  23  39  58  86 120 153 194 244 291 340
#
# _framework density 20.840350999999998
#
# number of rings (size 3 to 8) (size 9 to 14) (size 15 to 20)
#    0.000    1.714    1.429    2.143    2.000    7.429 
#    0.000    0.000    0.000    0.000    0.000    0.000 
#    0.000    0.000    0.000    0.000    0.000    0.000 
#
# Total GULP energy -156392.649230 kJ/mol
# GULP energy per Si atom -5585.451758 kJ/mol
# Density = 2.079292 g / cm^3
# Si number density = 20.840351 Si / 1000 Ang^3
#
#
#
# Elastic Constant Matrix: (Units=GPa)
#
#
# Indices 1 2 3 4 5 6 
#
# 1 130.6986 4.5491 17.5404 0.0000 11.8924 0.0000
# 2 4.5491 11.2319 5.5210 0.0000 2.1301 0.0000
# 3 17.5404 5.5210 72.0263 0.0000 8.1757 0.0000
# 4 0.0000 0.0000 0.0000 20.9854 0.0000 -0.2415
# 5 11.8924 2.1301 8.1757 0.0000 44.4422 0.0000
# 6 0.0000 0.0000 0.0000 -0.2415 0.0000 30.6718
#
#
#
# Elastic Compliance Matrix: (Units=1/GPa)
#
#
# Indices 1 2 3 4 5 6 
#
# 1 0.008103 -0.002156 -0.001607 0.000000 -0.001769 0.000000
# 2 -0.002156 0.093539 -0.006334 0.000000 -0.002741 0.000000
# 3 -0.001607 -0.006334 0.014990 0.000000 -0.002024 0.000000
# 4 0.000000 0.000000 0.000000 0.047657 0.000000 0.000375
# 5 -0.001769 -0.002741 -0.002024 0.000000 0.023478 0.000000
# 6 0.000000 0.000000 0.000000 0.000375 0.000000 0.032606
#
#
# Mechanical properties :
#
#
# Convention : Reuss Voigt Hill
#
# Bulk Modulus (GPa) = 10.36938 29.90865 20.13902
# Shear Modulus (GPa) = 18.33425 31.64295 24.98860
#
# Velocity S-wave (km/s) = 2.96927 3.90083 3.46649
# Velocity P-wave (km/s) = 4.09168 5.88822 5.07016
#
# Compressibility (1/GPa) = 0.09643775
#
# Stress axis : x y z
#
# Youngs Moduli (GPa) = 123.41228 10.69075 66.70906
#
# Poissons Ratio (x) = 0.02305 0.10721
# Poissons Ratio (y) = 0.26611 0.42252
# Poissons Ratio (z) = 0.19835 0.06771
#
# Static dielectric constant tensor:
#      x y z
#    x -2.841020 0.000000 -1.103590 
#    y 0.000000 1.754520 0.000000 
#    z -1.103590 0.000000 1.477420 
# 
# From -- ./inp_files/28459.got.cif
#   From: 2010.05.17/outbox.cif.g08.bks.cpg/sg11_15_cif.got.tgz:28459.got - 2010.06.03 12:22:45.
