data_PCOD9163716
_publ_section_title
;
Structure prediction by ZEFSAII (Michael W. Deem and Ramdas Pophale) SiO2 
 PCOD9163716
Probable space group: P 21/M
;
_chemical_formula_sum "Si O2"
_cell_formula_units_Z 26
_cell_length_a 13.797753
_cell_length_b 9.412945
_cell_length_c 14.658480
_cell_angle_alpha 90.000000
_cell_angle_beta 44.266184
_cell_angle_gamma 90.000000
_cell_volume 1328.843220
_symmetry_space_group_name_H-M "P 21/M"
_symmetry_group_IT_number 11
_symmetry_cell_setting 'monoclinic'
loop_
_space_group_symop_operation_xyz
x,y,z
-x,1/2+y,-z
-x,-y,-z
x,1/2-y,z
loop_
_atom_site_type_symbol
_atom_site_label
_atom_site_fract_x
_atom_site_fract_y
_atom_site_fract_z
Si Si1 0.255913 0.088228 0.433030
Si Si2 0.686947 0.984786 0.805843
Si Si3 0.490656 0.580488 0.602596
Si Si4 0.223088 0.082330 0.836899
Si Si5 0.014072 0.416961 0.341486
Si Si6 0.513927 0.750000 0.025742
Si Si7 0.987787 0.413969 0.142394
O O1 0.205672 0.250000 0.477894
O O2 0.329441 0.074195 0.285693
O O3 0.368207 0.059260 0.436029
O O4 0.127585 0.982070 0.525338
O O5 0.850901 0.997110 0.713132
O O6 0.600845 0.127032 0.873010
O O7 0.626333 0.873122 0.918801
O O8 0.500000 0.500000 0.500000
O O9 0.469277 0.750000 0.605226
O O10 0.362840 0.508715 0.742392
O O11 0.251723 0.250000 0.805057
O O12 0.130824 0.064589 0.990292
O O13 0.125826 0.020826 0.821834
O O14 0.026452 0.250000 0.356415
O O15 0.008104 0.430433 0.235801
O O16 0.943631 0.250000 0.153752
#
# Coordination Sequence:
#
# PCOD9163716 Si02
#       7
#     4   4   4   4   4   2   4
#     4  11  25  43  64  93 130 167 217 265 313 381
#     4  11  23  46  65  99 128 168 211 259 320 377
#     4  11  24  42  62  91 125 169 211 265 319 372
#     4  10  20  37  61  89 124 165 208 266 318 376
#     4  11  23  40  65  94 126 168 212 261 312 377
#     4  10  24  42  70  90 132 168 206 262 314 378
#     4   9  20  38  59  91 125 164 213 259 311 374
#
# _framework density 19.565888000000001
#
# number of rings (size 3 to 8) (size 9 to 14) (size 15 to 20)
#    0.000    1.538    1.538    2.308    2.154    7.385 
#    2.769    0.000    0.000    0.000    0.000    0.000 
#    0.000    0.000    0.000    0.000    0.000    0.000 
#
# Total GULP energy -144770.557982 kJ/mol
# GULP energy per Si atom -5568.098384 kJ/mol
# Density = 1.952136 g / cm^3
# Si number density = 19.565888 Si / 1000 Ang^3
#
#
#
# Elastic Constant Matrix: (Units=GPa)
#
#
# Indices 1 2 3 4 5 6 
#
# 1 49.0539 22.8281 30.5299 0.0000 -14.0526 0.0000
# 2 22.8281 74.0195 39.0059 0.0000 -15.4271 0.0000
# 3 30.5299 39.0059 60.9818 0.0000 -24.8742 0.0000
# 4 0.0000 0.0000 0.0000 1.2966 0.0000 10.9209
# 5 -14.0526 -15.4271 -24.8742 0.0000 20.2672 0.0000
# 6 0.0000 0.0000 0.0000 10.9209 0.0000 -17.1853
#
#
#
# Elastic Compliance Matrix: (Units=1/GPa)
#
#
# Indices 1 2 3 4 5 6 
#
# 1 0.030044 -0.002068 -0.011741 0.000000 0.004847 0.000000
# 2 -0.002068 0.020531 -0.012630 0.000000 -0.001307 0.000000
# 3 -0.011741 -0.012630 0.046283 0.000000 0.039049 0.000000
# 4 0.000000 0.000000 0.000000 0.121410 0.000000 0.077153
# 5 0.004847 -0.001307 0.039049 0.000000 0.099632 0.000000
# 6 0.000000 0.000000 0.000000 0.077153 0.000000 -0.009160
#
#
# Mechanical properties :
#
#
# Convention : Reuss Voigt Hill
#
# Bulk Modulus (GPa) = 22.73811 40.97589 31.85700
# Shear Modulus (GPa) = 13.28803 6.98845 10.13824
#
# Velocity S-wave (km/s) = 2.60886 1.89196 2.27878
# Velocity P-wave (km/s) = 4.55208 5.07550 4.82090
#
# Compressibility (1/GPa) = 0.04397903
#
# Stress axis : x y z
#
# Youngs Moduli (GPa) = 33.28421 48.70677 21.60624
#
# Poissons Ratio (x) = 0.10074 0.25368
# Poissons Ratio (y) = 0.06884 0.27289
# Poissons Ratio (z) = 0.39080 0.61517
#
# Static dielectric constant tensor:
#      x y z
#    x 1.676520 0.000000 0.021720 
#    y 0.000000 1.654830 0.000000 
#    z 0.021720 0.000000 1.692650 
# 
# From -- ./inp_files/51893.got.cif
#   From: 2010.05.17/outbox.cif.g08.bks.cpg/sg11_26_cif.got.tgz:51893.got - 2010.06.03 12:22:45.
