data_PCOD9163596
_publ_section_title
;
Structure prediction by ZEFSAII (Michael W. Deem and Ramdas Pophale) SiO2 
 PCOD9163596
Probable space group: P 21/M
;
_chemical_formula_sum "Si O2"
_cell_formula_units_Z 32
_cell_length_a 14.236853
_cell_length_b 15.062196
_cell_length_c 10.777876
_cell_angle_alpha 90.000000
_cell_angle_beta 134.703254
_cell_angle_gamma 90.000000
_cell_volume 1642.699657
_symmetry_space_group_name_H-M "P 21/M"
_symmetry_group_IT_number 11
_symmetry_cell_setting 'monoclinic'
loop_
_space_group_symop_operation_xyz
x,y,z
-x,1/2+y,-z
-x,-y,-z
x,1/2-y,z
loop_
_atom_site_type_symbol
_atom_site_label
_atom_site_fract_x
_atom_site_fract_y
_atom_site_fract_z
Si Si1 0.993392 0.345601 0.073880
Si Si2 0.251921 0.097377 0.188260
Si Si3 0.720617 0.855958 0.311611
Si Si4 0.476728 0.848675 0.659460
Si Si5 0.787198 0.544726 0.125967
Si Si6 0.943888 0.529212 0.650494
Si Si7 0.516035 0.020184 0.870545
Si Si8 0.784286 0.081711 0.690591
O O1 0.963762 0.250000 0.101311
O O2 0.142113 0.348884 0.160335
O O3 0.987154 0.421745 0.169480
O O4 0.894460 0.367195 0.870954
O O5 0.396245 0.139076 0.310710
O O6 0.258036 0.003012 0.264914
O O7 0.201955 0.087680 0.999908
O O8 0.719250 0.750000 0.321530
O O9 0.732439 0.887032 0.178463
O O10 0.847929 0.901165 0.494597
O O11 0.589158 0.901329 0.249824
O O12 0.482630 0.750000 0.722483
O O13 0.342269 0.860493 0.459090
O O14 0.482491 0.932071 0.759562
O O15 0.929771 0.510430 0.302263
O O16 0.674227 0.468885 0.002340
O O17 0.850741 0.454597 0.625738
O O18 0.500000 0.000000 0.000000
#
# Coordination Sequence:
#
# PCOD9163596 Si02
#       8
#     4   4   4   4   4   4   4   4
#     4  11  21  35  58  88 120 157 198 241 294 360
#     4  10  20  37  60  85 117 157 199 244 297 351
#     4  11  23  40  63  90 118 157 205 249 300 357
#     4  11  22  37  61  92 120 154 203 254 297 351
#     4  10  20  39  65  84 115 158 202 244 300 350
#     4  11  20  40  60  86 122 162 195 243 303 358
#     4   9  21  39  62  85 118 159 193 250 302 348
#     4  11  20  38  61  84 123 165 189 243 302 357
#
# _framework density 19.480127
#
# number of rings (size 3 to 8) (size 9 to 14) (size 15 to 20)
#    0.000    1.500    3.750    2.625    0.000    5.000 
#    0.000    1.250    0.000    0.750    0.000    0.000 
#    0.000    0.000    0.000    0.000    0.000    0.000 
#
# Total GULP energy -178463.889208 kJ/mol
# GULP energy per Si atom -5576.996538 kJ/mol
# Density = 1.943579 g / cm^3
# Si number density = 19.480127 Si / 1000 Ang^3
#
#
#
# Elastic Constant Matrix: (Units=GPa)
#
#
# Indices 1 2 3 4 5 6 
#
# 1 50.4307 21.2788 19.8108 0.0000 12.6447 0.0000
# 2 21.2788 75.9514 24.7295 0.0000 23.2038 0.0000
# 3 19.8108 24.7295 80.3110 0.0000 28.3089 0.0000
# 4 0.0000 0.0000 0.0000 6.1131 0.0000 -4.0062
# 5 12.6447 23.2038 28.3089 0.0000 29.4941 0.0000
# 6 0.0000 0.0000 0.0000 -4.0062 0.0000 3.1115
#
#
#
# Elastic Compliance Matrix: (Units=1/GPa)
#
#
# Indices 1 2 3 4 5 6 
#
# 1 0.023918 -0.004559 -0.003243 0.000000 -0.003554 0.000000
# 2 -0.004559 0.018235 -0.000185 0.000000 -0.012214 0.000000
# 3 -0.003243 -0.000185 0.019295 0.000000 -0.016984 0.000000
# 4 0.000000 0.000000 0.000000 1.047144 0.000000 1.348226
# 5 -0.003554 -0.012214 -0.016984 0.000000 0.061339 0.000000
# 6 0.000000 0.000000 0.000000 1.348226 0.000000 2.057262
#
#
# Mechanical properties :
#
#
# Convention : Reuss Voigt Hill
#
# Bulk Modulus (GPa) = 21.99067 37.59238 29.79152
# Shear Modulus (GPa) = 1.53453 17.13534 9.33494
#
# Velocity S-wave (km/s) = 0.88851 2.96908 2.19145
# Velocity P-wave (km/s) = 3.51652 5.57616 4.66152
#
# Compressibility (1/GPa) = 0.04547384
#
# Stress axis : x y z
#
# Youngs Moduli (GPa) = 41.80931 54.83856 51.82615
#
# Poissons Ratio (x) = 0.25001 0.16809
# Poissons Ratio (y) = 0.19061 0.00959
# Poissons Ratio (z) = 0.13560 0.01015
#
# Static dielectric constant tensor:
#      x y z
#    x 1.702760 0.000000 0.016870 
#    y 0.000000 1.693300 0.000000 
#    z 0.016870 0.000000 1.711890 
# 
# From -- ./inp_files/39649.got.cif
#   From: 2010.05.17/outbox.cif.g08.bks.cpg/sg11_20_cif.got.tgz:39649.got - 2010.06.03 12:22:45.
