data_PCOD9163140
_publ_section_title
;
Structure prediction by ZEFSAII (Michael W. Deem and Ramdas Pophale) SiO2 
 PCOD9163140
Probable space group: P 21/M
;
_chemical_formula_sum "Si O2"
_cell_formula_units_Z 24
_cell_length_a 12.517486
_cell_length_b 8.837611
_cell_length_c 11.791021
_cell_angle_alpha 90.000000
_cell_angle_beta 111.147787
_cell_angle_gamma 90.000000
_cell_volume 1216.531842
_symmetry_space_group_name_H-M "P 21/M"
_symmetry_group_IT_number 11
_symmetry_cell_setting 'monoclinic'
loop_
_space_group_symop_operation_xyz
x,y,z
-x,1/2+y,-z
-x,-y,-z
x,1/2-y,z
loop_
_atom_site_type_symbol
_atom_site_label
_atom_site_fract_x
_atom_site_fract_y
_atom_site_fract_z
Si Si1 0.775199 0.069308 0.110954
Si Si2 0.025392 0.928165 0.201889
Si Si3 0.239309 0.934384 0.149313
Si Si4 0.678573 0.930585 0.299854
Si Si5 0.887839 0.072969 0.512709
Si Si6 0.538205 0.067570 0.634271
O O1 0.769378 0.250000 0.117278
O O2 0.704523 0.997888 0.186471
O O3 0.734532 0.022336 0.969776
O O4 0.907539 0.017374 0.169207
O O5 0.998496 0.750000 0.173708
O O6 0.112701 0.984288 0.138923
O O7 0.095776 0.938821 0.346330
O O8 0.236980 0.750000 0.152615
O O9 0.337945 0.984414 0.273485
O O10 0.687104 0.750000 0.296580
O O11 0.556418 0.970884 0.306947
O O12 0.776529 0.991591 0.421660
O O13 0.881995 0.250000 0.480299
O O14 0.000000 0.000000 0.500000
O O15 0.541220 0.250000 0.624612
O O16 0.500000 0.000000 0.500000
#
# Coordination Sequence:
#
# PCOD9163140 Si02
#       6
#     4   4   4   4   4   4
#     4  11  22  36  58  85 116 154 196 240 289 347
#     4  10  20  36  59  84 116 152 189 239 296 348
#     4   9  20  39  60  84 114 153 195 238 293 348
#     4  11  23  38  58  86 120 155 193 240 292 345
#     4  11  21  34  57  86 117 152 190 236 289 344
#     4  10  22  42  65  87 115 150 193 243 292 348
#
# _framework density 19.728213
#
# number of rings (size 3 to 8) (size 9 to 14) (size 15 to 20)
#    0.000    1.667    1.667    3.000    0.000    4.000 
#    0.000    3.333    0.000    0.000    0.000    0.000 
#    0.000    0.000    0.000    0.000    0.000    0.000 
#
# Total GULP energy -134116.174064 kJ/mol
# GULP energy per Si atom -5588.173919 kJ/mol
# Density = 1.968331 g / cm^3
# Si number density = 19.728213 Si / 1000 Ang^3
#
#
#
# Elastic Constant Matrix: (Units=GPa)
#
#
# Indices 1 2 3 4 5 6 
#
# 1 106.6948 33.2106 37.0132 0.0000 -14.7259 0.0000
# 2 33.2106 40.4882 24.4700 0.0000 -12.9228 0.0000
# 3 37.0132 24.4700 94.5124 0.0000 -14.3248 0.0000
# 4 0.0000 0.0000 0.0000 22.9647 0.0000 1.2646
# 5 -14.7259 -12.9228 -14.3248 0.0000 25.4307 0.0000
# 6 0.0000 0.0000 0.0000 1.2646 0.0000 18.6660
#
#
#
# Elastic Compliance Matrix: (Units=1/GPa)
#
#
# Indices 1 2 3 4 5 6 
#
# 1 0.013246 -0.008693 -0.002672 0.000000 0.001748 0.000000
# 2 -0.008693 0.038488 -0.004766 0.000000 0.011840 0.000000
# 3 -0.002672 -0.004766 0.013404 0.000000 0.003581 0.000000
# 4 0.000000 0.000000 0.000000 0.043708 0.000000 -0.002961
# 5 0.001748 0.011840 0.003581 0.000000 0.048368 0.000000
# 6 0.000000 0.000000 0.000000 -0.002961 0.000000 0.053774
#
#
# Mechanical properties :
#
#
# Convention : Reuss Voigt Hill
#
# Bulk Modulus (GPa) = 30.41661 47.89810 39.15736
# Shear Modulus (GPa) = 19.66882 23.21240 21.44061
#
# Velocity S-wave (km/s) = 3.16094 3.43390 3.30024
# Velocity P-wave (km/s) = 5.36408 6.32881 5.86631
#
# Compressibility (1/GPa) = 0.03287677
#
# Stress axis : x y z
#
# Youngs Moduli (GPa) = 75.49172 25.98203 74.60561
#
# Poissons Ratio (x) = 0.22585 0.19935
# Poissons Ratio (y) = 0.65622 0.35558
# Poissons Ratio (z) = 0.20172 0.12383
#
# Static dielectric constant tensor:
#      x y z
#    x 1.683480 0.000000 -0.011610 
#    y 0.000000 1.669170 0.000000 
#    z -0.011610 0.000000 1.706500 
# 
# From -- ./inp_files/33928.got.cif
#   From: 2010.05.17/outbox.cif.g08.bks.cpg/sg11_17_cif.got.tgz:33928.got - 2010.06.03 12:22:45.
