data_PCOD9163920
_publ_section_title
;
Structure prediction by ZEFSAII (Michael W. Deem and Ramdas Pophale) SiO2 
 PCOD9163920
Probable space group: P 21/M
;
_chemical_formula_sum "Si O2"
_cell_formula_units_Z 24
_cell_length_a 29.933013
_cell_length_b 7.765925
_cell_length_c 8.580857
_cell_angle_alpha 90.000000
_cell_angle_beta 30.622620
_cell_angle_gamma 90.000000
_cell_volume 1016.054949
_symmetry_space_group_name_H-M "P 21/M"
_symmetry_group_IT_number 11
_symmetry_cell_setting 'monoclinic'
loop_
_space_group_symop_operation_xyz
x,y,z
-x,1/2+y,-z
-x,-y,-z
x,1/2-y,z
loop_
_atom_site_type_symbol
_atom_site_label
_atom_site_fract_x
_atom_site_fract_y
_atom_site_fract_z
Si Si1 0.292440 0.549018 0.305303
Si Si2 0.042873 0.044135 0.706105
Si Si3 0.631476 0.551961 0.248203
Si Si4 0.877327 0.039724 0.021385
Si Si5 0.467541 0.958085 0.925505
Si Si6 0.790488 0.050889 0.961267
O O1 0.286296 0.750000 0.364425
O O2 0.195908 0.481000 0.633275
O O3 0.325010 0.535631 0.031244
O O4 0.370760 0.475029 0.176193
O O5 0.052940 0.250000 0.664977
O O6 0.137319 0.963133 0.391592
O O7 0.973246 0.980415 0.784955
O O8 0.000000 0.000000 0.000000
O O9 0.618116 0.750000 0.244485
O O10 0.539654 0.477981 0.584557
O O11 0.701999 0.541312 0.175786
O O12 0.883343 0.250000 0.001508
O O13 0.839268 0.984045 0.969200
O O14 0.466221 0.750000 0.915451
O O15 0.500000 0.000000 0.000000
O O16 0.767394 0.250000 0.057646
#
# Coordination Sequence:
#
# PCOD9163920 Si02
#       6
#     4   4   4   4   4   4
#     4  10  20  38  61  85 113 152 196 237 282 344
#     4  11  22  38  59  87 119 152 191 238 287 343
#     4  11  23  38  56  86 120 151 190 240 289 340
#     4   9  20  37  59  84 112 147 192 237 282 337
#     4  10  22  38  59  86 118 153 194 239 287 341
#     4  11  22  39  61  84 112 153 195 237 289 343
#
# _framework density 23.62077
#
# number of rings (size 3 to 8) (size 9 to 14) (size 15 to 20)
#    0.000    1.667    0.000    4.500    0.000    4.667 
#    0.000    5.000    0.000    0.000    0.000    0.000 
#    0.000    0.000    0.000    0.000    0.000    0.000 
#
# Total GULP energy -134259.271173 kJ/mol
# GULP energy per Si atom -5594.136299 kJ/mol
# Density = 2.356701 g / cm^3
# Si number density = 23.620770 Si / 1000 Ang^3
#
#
#
# Elastic Constant Matrix: (Units=GPa)
#
#
# Indices 1 2 3 4 5 6 
#
# 1 63.3628 -7.1869 -18.7547 0.0000 -7.1646 0.0000
# 2 -7.1869 40.5496 -1.6916 0.0000 -6.5713 0.0000
# 3 -18.7547 -1.6916 78.2039 0.0000 -6.7829 0.0000
# 4 0.0000 0.0000 0.0000 15.7253 0.0000 2.1352
# 5 -7.1646 -6.5713 -6.7829 0.0000 43.6422 0.0000
# 6 0.0000 0.0000 0.0000 2.1352 0.0000 24.1429
#
#
#
# Elastic Compliance Matrix: (Units=1/GPa)
#
#
# Indices 1 2 3 4 5 6 
#
# 1 0.018171 0.004127 0.004825 0.000000 0.004354 0.000000
# 2 0.004127 0.026277 0.001987 0.000000 0.004943 0.000000
# 3 0.004825 0.001987 0.014274 0.000000 0.003310 0.000000
# 4 0.000000 0.000000 0.000000 0.064365 0.000000 -0.005692
# 5 0.004354 0.004943 0.003310 0.000000 0.024887 0.000000
# 6 0.000000 0.000000 0.000000 -0.005692 0.000000 0.041923
#
#
# Mechanical properties :
#
#
# Convention : Reuss Voigt Hill
#
# Bulk Modulus (GPa) = 12.40702 14.09441 13.25072
# Shear Modulus (GPa) = 25.65611 30.68539 28.17075
#
# Velocity S-wave (km/s) = 3.29928 3.60819 3.45719
# Velocity P-wave (km/s) = 4.44721 4.83101 4.64308
#
# Compressibility (1/GPa) = 0.08059953
#
# Stress axis : x y z
#
# Youngs Moduli (GPa) = 55.03367 38.05664 70.05669
#
# Poissons Ratio (x) = -0.15708 -0.33800
# Poissons Ratio (y) = -0.22715 -0.13920
# Poissons Ratio (z) = -0.26552 -0.07562
#
# Static dielectric constant tensor:
#      x y z
#    x 1.895590 0.000000 0.009550 
#    y 0.000000 1.867800 0.000000 
#    z 0.009550 0.000000 1.880380 
# 
# From -- ./inp_files/28931.got.cif
#   From: 2010.05.17/outbox.cif.g08.bks.cpg/sg11_15_cif.got.tgz:28931.got - 2010.06.03 12:22:45.
