data_PCOD9163496
_publ_section_title
;
Structure prediction by ZEFSAII (Michael W. Deem and Ramdas Pophale) SiO2 
 PCOD9163496
Probable space group: P 21/M
;
_chemical_formula_sum "Si O2"
_cell_formula_units_Z 32
_cell_length_a 12.975366
_cell_length_b 8.826575
_cell_length_c 32.205675
_cell_angle_alpha 90.000000
_cell_angle_beta 27.141390
_cell_angle_gamma 90.000000
_cell_volume 1682.627462
_symmetry_space_group_name_H-M "P 21/M"
_symmetry_group_IT_number 11
_symmetry_cell_setting 'monoclinic'
loop_
_space_group_symop_operation_xyz
x,y,z
-x,1/2+y,-z
-x,-y,-z
x,1/2-y,z
loop_
_atom_site_type_symbol
_atom_site_label
_atom_site_fract_x
_atom_site_fract_y
_atom_site_fract_z
Si Si1 0.091556 0.931885 0.211244
Si Si2 0.443815 0.930097 0.924138
Si Si3 0.171192 0.074162 0.406858
Si Si4 0.678106 0.432279 0.205247
Si Si5 0.606533 0.929684 0.143480
Si Si6 0.254544 0.068746 0.594871
Si Si7 0.116810 0.427398 0.331038
Si Si8 0.939664 0.431966 0.873548
O O1 0.125930 0.750000 0.200133
O O2 0.863044 0.965350 0.318604
O O3 0.074729 0.979435 0.169298
O O4 0.305621 0.007118 0.157126
O O5 0.453084 0.750000 0.914740
O O6 0.329930 0.003637 0.924217
O O7 0.291935 0.963499 0.018877
O O8 0.191520 0.250000 0.410909
O O9 0.428823 0.015144 0.310295
O O10 0.072050 0.063522 0.396067
O O11 0.000000 0.000000 0.500000
O O12 0.673856 0.250000 0.203409
O O13 0.717402 0.498718 0.144928
O O14 0.863002 0.487674 0.171480
O O15 0.634031 0.750000 0.134073
O O16 0.343406 0.978267 0.241410
O O17 0.261816 0.250000 0.587636
O O18 0.500000 0.000000 0.500000
O O19 0.086303 0.995554 0.621935
O O20 0.157060 0.250000 0.306388
O O21 0.976969 0.250000 0.861197
#
# Coordination Sequence:
#
# PCOD9163496 Si02
#       8
#     4   4   4   4   4   4   4   4
#     4  10  22  41  62  86 120 158 204 251 296 355
#     4  11  22  37  62  91 119 155 200 247 301 359
#     4   9  20  36  57  85 114 149 193 240 292 352
#     4  10  22  40  59  85 120 156 199 249 299 354
#     4  11  21  36  61  88 116 154 196 242 296 354
#     4  11  23  38  59  88 119 156 199 246 299 353
#     4  10  20  37  58  83 116 150 191 244 295 350
#     4  10  23  41  60  87 122 160 199 246 302 360
#
# _framework density 19.017876000000001
#
# number of rings (size 3 to 8) (size 9 to 14) (size 15 to 20)
#    0.000    1.750    1.250    3.750    0.000    6.500 
#    0.000    3.750    0.000    0.000    0.000    0.000 
#    0.000    0.000    0.000    0.000    0.000    0.000 
#
# Total GULP energy -178736.328655 kJ/mol
# GULP energy per Si atom -5585.510270 kJ/mol
# Density = 1.897459 g / cm^3
# Si number density = 19.017876 Si / 1000 Ang^3
#
#
#
# Elastic Constant Matrix: (Units=GPa)
#
#
# Indices 1 2 3 4 5 6 
#
# 1 93.4209 34.0209 41.6197 0.0000 6.9143 0.0000
# 2 34.0209 58.3531 37.2433 0.0000 12.4387 0.0000
# 3 41.6197 37.2433 94.8965 0.0000 17.9049 0.0000
# 4 0.0000 0.0000 0.0000 27.9251 0.0000 0.1854
# 5 6.9143 12.4387 17.9049 0.0000 24.1713 0.0000
# 6 0.0000 0.0000 0.0000 0.1854 0.0000 34.6123
#
#
#
# Elastic Compliance Matrix: (Units=1/GPa)
#
#
# Indices 1 2 3 4 5 6 
#
# 1 0.014808 -0.006273 -0.004467 0.000000 0.002301 0.000000
# 2 -0.006273 0.026282 -0.006220 0.000000 -0.007124 0.000000
# 3 -0.004467 -0.006220 0.016383 0.000000 -0.007657 0.000000
# 4 0.000000 0.000000 0.000000 0.035811 0.000000 -0.000192
# 5 0.002301 -0.007124 -0.007657 0.000000 0.050051 0.000000
# 6 0.000000 0.000000 0.000000 -0.000192 0.000000 0.028893
#
#
# Mechanical properties :
#
#
# Convention : Reuss Voigt Hill
#
# Bulk Modulus (GPa) = 42.45509 52.49313 47.47411
# Shear Modulus (GPa) = 23.36463 26.26083 24.81273
#
# Velocity S-wave (km/s) = 3.50889 3.72001 3.61599
# Velocity P-wave (km/s) = 6.22805 6.79067 6.51544
#
# Compressibility (1/GPa) = 0.02355430
#
# Stress axis : x y z
#
# Youngs Moduli (GPa) = 67.52915 38.04825 61.04074
#
# Poissons Ratio (x) = 0.23868 0.27266
# Poissons Ratio (y) = 0.42362 0.37965
# Poissons Ratio (z) = 0.30164 0.23664
#
# Static dielectric constant tensor:
#      x y z
#    x 1.669490 0.000000 -0.000630 
#    y 0.000000 1.643200 0.000000 
#    z -0.000630 0.000000 1.683990 
# 
# From -- ./inp_files/38284.got.cif
#   From: 2010.05.17/outbox.cif.g08.bks.cpg/sg11_20_cif.got.tgz:38284.got - 2010.06.03 12:22:45.
