data_PCOD9163050
_publ_section_title
;
Structure prediction by ZEFSAII (Michael W. Deem and Ramdas Pophale) SiO2 
 PCOD9163050
Probable space group: P 21/M
;
_chemical_formula_sum "Si O2"
_cell_formula_units_Z 30
_cell_length_a 11.114535
_cell_length_b 11.955554
_cell_length_c 16.724726
_cell_angle_alpha 90.000000
_cell_angle_beta 131.656562
_cell_angle_gamma 90.000000
_cell_volume 1660.440590
_symmetry_space_group_name_H-M "P 21/M"
_symmetry_group_IT_number 11
_symmetry_cell_setting 'monoclinic'
loop_
_space_group_symop_operation_xyz
x,y,z
-x,1/2+y,-z
-x,-y,-z
x,1/2-y,z
loop_
_atom_site_type_symbol
_atom_site_label
_atom_site_fract_x
_atom_site_fract_y
_atom_site_fract_z
Si Si1 0.667021 0.536689 0.154509
Si Si2 0.774477 0.009056 0.482448
Si Si3 0.182306 0.118667 0.333264
Si Si4 0.572268 0.616647 0.703558
Si Si5 0.169478 0.617759 0.897910
Si Si6 0.666666 0.962235 0.916629
Si Si7 0.327793 0.250000 0.962533
Si Si8 0.105946 0.121872 0.614057
O O1 0.706473 0.434930 0.111673
O O2 0.505136 0.512514 0.131245
O O3 0.658934 0.650194 0.100165
O O4 0.811206 0.546925 0.281533
O O5 0.786941 0.957961 0.576423
O O6 0.820851 0.914517 0.438290
O O7 0.600997 0.060603 0.387428
O O8 0.915635 0.099895 0.532397
O O9 0.185591 0.250000 0.358298
O O10 0.317086 0.100616 0.325390
O O11 0.008245 0.097745 0.216111
O O12 0.553162 0.750000 0.708319
O O13 0.656130 0.563103 0.818361
O O14 0.194886 0.750000 0.918017
O O15 0.201341 0.550668 0.993669
O O16 0.689005 0.848230 0.975714
O O17 0.142188 0.250000 0.646708
#
# Coordination Sequence:
#
# PCOD9163050 Si02
#       8
#     4   4   4   4   4   4   2   4
#     4  11  21  35  57  88 119 157 187 238 306 353
#     4  11  22  41  59  90 116 159 195 240 300 357
#     4  10  22  41  64  84 115 158 205 246 291 346
#     4  11  23  41  61  85 117 159 203 251 291 341
#     4  10  22  38  59  87 119 154 196 246 294 360
#     4  11  23  36  59  90 118 157 192 245 299 359
#     4  10  20  36  58  82 120 154 192 234 294 362
#     4  11  22  37  60  89 123 149 190 244 300 356
#
# _framework density 18.067495000000001
#
# number of rings (size 3 to 8) (size 9 to 14) (size 15 to 20)
#    0.000    1.333    4.000    2.800    3.733    0.533 
#    0.000    0.000    0.000    1.600    0.000    0.000 
#    0.000    0.000    0.000    0.000    0.000    0.000 
#
# Total GULP energy -167006.877417 kJ/mol
# GULP energy per Si atom -5566.895914 kJ/mol
# Density = 1.802637 g / cm^3
# Si number density = 18.067495 Si / 1000 Ang^3
#
#
#
# Elastic Constant Matrix: (Units=GPa)
#
#
# Indices 1 2 3 4 5 6 
#
# 1 77.2994 34.2087 38.4669 0.0000 -16.0792 0.0000
# 2 34.2087 102.3788 51.8607 0.0000 -15.7133 0.0000
# 3 38.4669 51.8607 92.6818 0.0000 -22.4975 0.0000
# 4 0.0000 0.0000 0.0000 25.1027 0.0000 -7.1963
# 5 -16.0792 -15.7133 -22.4975 0.0000 24.1850 0.0000
# 6 0.0000 0.0000 0.0000 -7.1963 0.0000 4.3613
#
#
#
# Elastic Compliance Matrix: (Units=1/GPa)
#
#
# Indices 1 2 3 4 5 6 
#
# 1 0.017522 -0.002781 -0.004298 0.000000 0.005845 0.000000
# 2 -0.002781 0.014170 -0.006444 0.000000 0.001364 0.000000
# 3 -0.004298 -0.006444 0.018689 0.000000 0.010341 0.000000
# 4 0.000000 0.000000 0.000000 0.075595 0.000000 0.124736
# 5 0.005845 0.001364 0.010341 0.000000 0.055739 0.000000
# 6 0.000000 0.000000 0.000000 0.124736 0.000000 0.435113
#
#
# Mechanical properties :
#
#
# Convention : Reuss Voigt Hill
#
# Bulk Modulus (GPa) = 42.85070 57.93696 50.39383
# Shear Modulus (GPa) = 7.67280 20.58471 14.12876
#
# Velocity S-wave (km/s) = 2.06300 3.37905 2.79946
# Velocity P-wave (km/s) = 5.42615 6.88190 6.19692
#
# Compressibility (1/GPa) = 0.02333684
#
# Stress axis : x y z
#
# Youngs Moduli (GPa) = 57.07219 70.57013 53.50658
#
# Poissons Ratio (x) = 0.19623 0.22995
# Poissons Ratio (y) = 0.15870 0.34480
# Poissons Ratio (z) = 0.24527 0.45475
#
# Static dielectric constant tensor:
#      x y z
#    x 1.599880 0.000000 0.005250 
#    y 0.000000 1.594820 0.000000 
#    z 0.005250 0.000000 1.644440 
# 
# From -- ./inp_files/59187.got.cif
#   From: 2010.05.17/outbox.cif.g08.bks.cpg/sg11_30_cif.got.tgz:59187.got - 2010.06.03 12:22:45.
