data_PCOD9163017
_publ_section_title
;
Structure prediction by ZEFSAII (Michael W. Deem and Ramdas Pophale) SiO2 
 PCOD9163017
Probable space group: P 21/M
;
_chemical_formula_sum "Si O2"
_cell_formula_units_Z 32
_cell_length_a 13.618191
_cell_length_b 8.686960
_cell_length_c 23.704742
_cell_angle_alpha 90.000000
_cell_angle_beta 34.900312
_cell_angle_gamma 90.000000
_cell_volume 1604.473822
_symmetry_space_group_name_H-M "P 21/M"
_symmetry_group_IT_number 11
_symmetry_cell_setting 'monoclinic'
loop_
_space_group_symop_operation_xyz
x,y,z
-x,1/2+y,-z
-x,-y,-z
x,1/2-y,z
loop_
_atom_site_type_symbol
_atom_site_label
_atom_site_fract_x
_atom_site_fract_y
_atom_site_fract_z
Si Si1 0.764606 0.935175 0.741204
Si Si2 0.620945 0.935194 0.393868
Si Si3 0.475385 0.563909 0.339821
Si Si4 0.432479 0.933848 0.822954
Si Si5 0.987332 0.563586 0.182811
Si Si6 0.923662 0.933249 0.977917
Si Si7 0.314291 0.933117 0.100349
Si Si8 0.920172 0.435080 0.480753
O O1 0.760536 0.750000 0.751030
O O2 0.613638 0.972082 0.767560
O O3 0.949620 0.980726 0.629855
O O4 0.731684 0.017997 0.815018
O O5 0.613929 0.750000 0.401279
O O6 0.553331 0.978762 0.363432
O O7 0.821405 0.982241 0.298117
O O8 0.500000 0.000000 0.500000
O O9 0.486815 0.750000 0.328854
O O10 0.562362 0.489622 0.244131
O O11 0.275664 0.516318 0.434029
O O12 0.409482 0.750000 0.835953
O O13 0.274887 0.013351 0.929185
O O14 0.986003 0.750000 0.179732
O O15 0.163530 0.512365 0.129473
O O16 0.983067 0.498921 0.121464
O O17 0.936088 0.750000 0.972831
O O18 0.000000 0.000000 0.000000
O O19 0.321869 0.750000 0.091642
O O20 0.500000 0.000000 0.000000
O O21 0.921659 0.250000 0.482859
O O22 0.000000 0.500000 0.500000
#
# Coordination Sequence:
#
# PCOD9163017 Si02
#       8
#     4   4   4   4   4   4   4   4
#     4  10  22  38  58  87 124 161 201 252 307 364
#     4  10  23  42  63  88 119 158 203 253 304 359
#     4  10  21  37  60  88 121 160 206 255 306 366
#     4  11  22  38  61  90 123 160 200 248 308 369
#     4  10  23  44  64  89 127 164 205 257 311 365
#     4  12  25  41  65  94 122 156 199 248 305 367
#     4  11  24  41  63  90 122 164 209 257 311 369
#     4  10  20  36  57  87 123 161 202 251 307 363
#
# _framework density 19.944233000000001
#
# number of rings (size 3 to 8) (size 9 to 14) (size 15 to 20)
#    0.000    1.500    1.250    3.375    1.750    7.500 
#    0.000    0.000    0.000    0.000    0.000    0.000 
#    0.000    0.000    0.000    0.000    0.000    0.000 
#
# Total GULP energy -178894.149093 kJ/mol
# GULP energy per Si atom -5590.442159 kJ/mol
# Density = 1.989884 g / cm^3
# Si number density = 19.944233 Si / 1000 Ang^3
#
#
#
# Elastic Constant Matrix: (Units=GPa)
#
#
# Indices 1 2 3 4 5 6 
#
# 1 96.0541 24.3294 39.9573 0.0000 4.0407 0.0000
# 2 24.3294 30.3298 31.5315 0.0000 1.4285 0.0000
# 3 39.9573 31.5315 153.0683 0.0000 4.6783 0.0000
# 4 0.0000 0.0000 0.0000 37.6259 0.0000 7.3854
# 5 4.0407 1.4285 4.6783 0.0000 37.7165 0.0000
# 6 0.0000 0.0000 0.0000 7.3854 0.0000 27.7486
#
#
#
# Elastic Compliance Matrix: (Units=1/GPa)
#
#
# Indices 1 2 3 4 5 6 
#
# 1 0.013408 -0.009039 -0.001611 0.000000 -0.000894 0.000000
# 2 -0.009039 0.048059 -0.007543 0.000000 0.000084 0.000000
# 3 -0.001611 -0.007543 0.008526 0.000000 -0.000599 0.000000
# 4 0.000000 0.000000 0.000000 0.028042 0.000000 -0.007464
# 5 -0.000894 0.000084 -0.000599 0.000000 0.026681 0.000000
# 6 0.000000 0.000000 0.000000 -0.007464 0.000000 0.038024
#
#
# Mechanical properties :
#
#
# Convention : Reuss Voigt Hill
#
# Bulk Modulus (GPa) = 29.75493 52.34318 41.04906
# Shear Modulus (GPa) = 23.77243 32.86045 28.31644
#
# Velocity S-wave (km/s) = 3.45620 4.06349 3.77209
# Velocity P-wave (km/s) = 5.55685 6.95109 6.29270
#
# Compressibility (1/GPa) = 0.03360787
#
# Stress axis : x y z
#
# Youngs Moduli (GPa) = 74.58325 20.80767 117.29259
#
# Poissons Ratio (x) = 0.18807 0.18893
# Poissons Ratio (y) = 0.67412 0.88476
# Poissons Ratio (z) = 0.12014 0.15696
#
# Static dielectric constant tensor:
#      x y z
#    x 1.696150 0.000000 -0.035210 
#    y 0.000000 1.675510 0.000000 
#    z -0.035210 0.000000 1.724870 
# 
# From -- ./inp_files/68972.got.cif
#   From: 2010.05.17/outbox.cif.g08.bks.cpg/sg11_35_cif.got.tgz:68972.got - 2010.06.03 12:22:45.
