data_PCOD9163230
_publ_section_title
;
Structure prediction by ZEFSAII (Michael W. Deem and Ramdas Pophale) SiO2 
 PCOD9163230
Probable space group: P 21/M
;
_chemical_formula_sum "Si O2"
_cell_formula_units_Z 26
_cell_length_a 15.628207
_cell_length_b 8.523906
_cell_length_c 11.727541
_cell_angle_alpha 90.000000
_cell_angle_beta 119.098799
_cell_angle_gamma 90.000000
_cell_volume 1365.079887
_symmetry_space_group_name_H-M "P 21/M"
_symmetry_group_IT_number 11
_symmetry_cell_setting 'monoclinic'
loop_
_space_group_symop_operation_xyz
x,y,z
-x,1/2+y,-z
-x,-y,-z
x,1/2-y,z
loop_
_atom_site_type_symbol
_atom_site_label
_atom_site_fract_x
_atom_site_fract_y
_atom_site_fract_z
Si Si1 0.271865 0.567145 0.027379
Si Si2 0.155123 0.502530 0.378308
Si Si3 0.774149 0.750000 0.138370
Si Si4 0.846076 0.750000 0.427994
Si Si5 0.007693 0.250000 0.670160
Si Si6 0.891316 0.931674 0.911677
Si Si7 0.626142 0.074289 0.525692
Si Si8 0.434956 0.432229 0.282104
O O1 0.262730 0.750000 0.981506
O O2 0.186615 0.532232 0.065717
O O3 0.375267 0.541615 0.158198
O O4 0.263516 0.416970 0.935806
O O5 0.163510 0.392428 0.492590
O O6 0.060976 0.606578 0.343885
O O7 0.135370 0.435780 0.239455
O O8 0.261960 0.578512 0.437838
O O9 0.770028 0.750000 0.273790
O O10 0.891703 0.750000 0.195104
O O11 0.951559 0.750000 0.432527
O O12 0.885918 0.750000 0.942983
O O13 0.000000 0.000000 0.000000
O O14 0.597126 0.250000 0.545808
O O15 0.549701 0.033181 0.376119
O O16 0.610899 0.959080 0.621863
O O17 0.422125 0.250000 0.240462
#
# Coordination Sequence:
#
# PCOD9163230 Si02
#       8
#     4   4   2   2   2   4   4   4
#     4  12  23  41  65  95 133 177 212 262 335 402
#     4  12  22  42  63  91 128 169 219 268 328 387
#     4  10  24  47  64  91 128 171 228 275 318 376
#     4  10  26  45  65  89 121 173 226 279 323 366
#     4  10  24  42  63  88 125 166 222 280 313 380
#     4  12  25  38  59  96 136 172 213 259 330 404
#     4  10  21  35  59  96 131 170 210 263 323 399
#     4  10  20  36  59  93 138 171 208 258 327 401
#
# _framework density 19.046505
#
# number of rings (size 3 to 8) (size 9 to 14) (size 15 to 20)
#    0.462    0.615    4.615    2.308    3.231    0.615 
#    2.769    0.000    0.000    0.923    0.000    0.000 
#    0.000    0.000    0.000    0.000    0.000    0.000 
#
# Total GULP energy -144870.745680 kJ/mol
# GULP energy per Si atom -5571.951757 kJ/mol
# Density = 1.900315 g / cm^3
# Si number density = 19.046505 Si / 1000 Ang^3
#
#
#
# Elastic Constant Matrix: (Units=GPa)
#
#
# Indices 1 2 3 4 5 6 
#
# 1 40.8032 10.1410 26.2592 0.0000 16.1914 0.0000
# 2 10.1410 116.6080 52.8266 0.0000 1.3993 0.0000
# 3 26.2592 52.8266 125.8901 0.0000 5.5680 0.0000
# 4 0.0000 0.0000 0.0000 34.4913 0.0000 6.1847
# 5 16.1914 1.3993 5.5680 0.0000 40.1948 0.0000
# 6 0.0000 0.0000 0.0000 6.1847 0.0000 27.4848
#
#
#
# Elastic Compliance Matrix: (Units=1/GPa)
#
#
# Indices 1 2 3 4 5 6 
#
# 1 0.033706 0.000188 -0.006549 0.000000 -0.012677 0.000000
# 2 0.000188 0.010592 -0.004492 0.000000 0.000178 0.000000
# 3 -0.006549 -0.004492 0.011139 0.000000 0.001251 0.000000
# 4 0.000000 0.000000 0.000000 0.030212 0.000000 -0.006798
# 5 -0.012677 0.000178 0.001251 0.000000 0.029806 0.000000
# 6 0.000000 0.000000 0.000000 -0.006798 0.000000 0.037914
#
#
# Mechanical properties :
#
#
# Convention : Reuss Voigt Hill
#
# Bulk Modulus (GPa) = 29.64589 51.30609 40.47599
# Shear Modulus (GPa) = 26.83582 33.37247 30.10414
#
# Velocity S-wave (km/s) = 3.75769 4.19042 3.97994
# Velocity P-wave (km/s) = 5.86735 7.09990 6.51285
#
# Compressibility (1/GPa) = 0.03373149
#
# Stress axis : x y z
#
# Youngs Moduli (GPa) = 29.66817 94.40928 89.77522
#
# Poissons Ratio (x) = -0.01771 0.58791
# Poissons Ratio (y) = -0.00557 0.40325
# Poissons Ratio (z) = 0.19429 0.42406
#
# Static dielectric constant tensor:
#      x y z
#    x 1.639780 0.000000 0.011900 
#    y 0.000000 1.768590 0.000000 
#    z 0.011900 0.000000 1.672950 
# 
# From -- ./inp_files/37830.got.cif
#   From: 2010.05.17/outbox.cif.g08.bks.cpg/sg11_19_cif.got.tgz:37830.got - 2010.06.03 12:22:45.
