data_PCOD9163189
_publ_section_title
;
Structure prediction by ZEFSAII (Michael W. Deem and Ramdas Pophale) SiO2 
 PCOD9163189
Probable space group: P 21/M
;
_chemical_formula_sum "Si O2"
_cell_formula_units_Z 32
_cell_length_a 30.811627
_cell_length_b 8.234645
_cell_length_c 12.875660
_cell_angle_alpha 90.000000
_cell_angle_beta 151.423891
_cell_angle_gamma 90.000000
_cell_volume 1562.617721
_symmetry_space_group_name_H-M "P 21/M"
_symmetry_group_IT_number 11
_symmetry_cell_setting 'monoclinic'
loop_
_space_group_symop_operation_xyz
x,y,z
-x,1/2+y,-z
-x,-y,-z
x,1/2-y,z
loop_
_atom_site_type_symbol
_atom_site_label
_atom_site_fract_x
_atom_site_fract_y
_atom_site_fract_z
Si Si1 0.870814 0.445098 0.981177
Si Si2 0.602486 0.944731 0.230585
Si Si3 0.898876 0.555954 0.808766
Si Si4 0.038209 0.053483 0.469448
Si Si5 0.245205 0.448883 0.866452
Si Si6 0.265410 0.447869 0.675081
Si Si7 0.326813 0.943894 0.396857
Si Si8 0.406241 0.443346 0.354037
O O1 0.871742 0.250000 0.991668
O O2 0.867279 0.489731 0.853116
O O3 0.777192 0.504687 0.836541
O O4 0.963999 0.504916 0.229093
O O5 0.607572 0.750000 0.243238
O O6 0.660903 0.002739 0.254266
O O7 0.641082 0.006997 0.420967
O O8 0.500000 0.000000 0.000000
O O9 0.895587 0.750000 0.806260
O O10 0.831668 0.503124 0.575908
O O11 0.000000 0.500000 0.000000
O O12 0.040297 0.250000 0.469040
O O13 0.141663 0.997424 0.669724
O O14 0.000000 0.000000 0.500000
O O15 0.244337 0.250000 0.866443
O O16 0.275217 0.501113 0.814081
O O17 0.318986 0.505163 0.105340
O O18 0.268271 0.250000 0.682866
O O19 0.325937 0.750000 0.389396
O O20 0.391853 0.006408 0.442911
O O21 0.500000 0.500000 0.500000
O O22 0.405004 0.250000 0.345892
#
# Coordination Sequence:
#
# PCOD9163189 Si02
#       8
#     4   4   4   4   4   4   4   4
#     4  10  21  37  59  87 120 157 199 250 305 359
#     4  11  23  40  64  94 124 160 205 254 308 369
#     4  11  21  35  57  86 121 161 202 246 297 361
#     4  10  20  36  59  86 118 156 200 249 300 360
#     4   9  19  37  60  86 118 158 200 246 304 367
#     4   9  19  37  60  86 120 159 199 245 302 365
#     4  11  23  41  64  90 126 164 202 253 308 369
#     4  11  24  41  64  91 120 158 207 259 313 375
#
# _framework density 20.478458
#
# number of rings (size 3 to 8) (size 9 to 14) (size 15 to 20)
#    0.000    1.750    1.250    3.000    1.750    3.000 
#    0.000    0.625    0.000    4.500    0.000    0.000 
#    0.000    0.000    0.000    0.000    0.000    0.000 
#
# Total GULP energy -178793.951937 kJ/mol
# GULP energy per Si atom -5587.310998 kJ/mol
# Density = 2.043185 g / cm^3
# Si number density = 20.478458 Si / 1000 Ang^3
#
#
#
# Elastic Constant Matrix: (Units=GPa)
#
#
# Indices 1 2 3 4 5 6 
#
# 1 152.6225 10.5812 49.0194 0.0000 10.8429 0.0000
# 2 10.5812 14.7810 14.1707 0.0000 6.7326 0.0000
# 3 49.0194 14.1707 108.2411 0.0000 11.8037 0.0000
# 4 0.0000 0.0000 0.0000 21.3346 0.0000 0.0410
# 5 10.8429 6.7326 11.8037 0.0000 41.2521 0.0000
# 6 0.0000 0.0000 0.0000 0.0410 0.0000 28.1886
#
#
#
# Elastic Compliance Matrix: (Units=1/GPa)
#
#
# Indices 1 2 3 4 5 6 
#
# 1 0.007770 -0.002188 -0.003147 0.000000 -0.000785 0.000000
# 2 -0.002188 0.082232 -0.008644 0.000000 -0.010372 0.000000
# 3 -0.003147 -0.008644 0.011923 0.000000 -0.001174 0.000000
# 4 0.000000 0.000000 0.000000 0.046872 0.000000 -0.000068
# 5 -0.000785 -0.010372 -0.001174 0.000000 0.026476 0.000000
# 6 0.000000 0.000000 0.000000 -0.000068 0.000000 0.035475
#
#
# Mechanical properties :
#
#
# Convention : Reuss Voigt Hill
#
# Bulk Modulus (GPa) = 13.51922 47.02081 30.27002
# Shear Modulus (GPa) = 18.98516 31.61327 25.29922
#
# Velocity S-wave (km/s) = 3.04810 3.93330 3.51865
# Velocity P-wave (km/s) = 4.35935 6.60596 5.59655
#
# Compressibility (1/GPa) = 0.07396874
#
# Stress axis : x y z
#
# Youngs Moduli (GPa) = 128.69527 12.16067 83.86853
#
# Poissons Ratio (x) = 0.02661 0.26393
# Poissons Ratio (y) = 0.28159 0.72494
# Poissons Ratio (z) = 0.40499 0.10511
#
# Static dielectric constant tensor:
#      x y z
#    x 1.709440 0.000000 0.009550 
#    y 0.000000 1.715720 0.000000 
#    z 0.009550 0.000000 1.725330 
# 
# From -- ./inp_files/45247.got.cif
#   From: 2010.05.17/outbox.cif.g08.bks.cpg/sg11_23_cif.got.tgz:45247.got - 2010.06.03 12:22:45.
