data_PCOD9163740
_publ_section_title
;
Structure prediction by ZEFSAII (Michael W. Deem and Ramdas Pophale) SiO2 
 PCOD9163740
Probable space group: P 21/M
;
_chemical_formula_sum "Si O2"
_cell_formula_units_Z 32
_cell_length_a 25.319767
_cell_length_b 8.716927
_cell_length_c 21.374684
_cell_angle_alpha 90.000000
_cell_angle_beta 21.733829
_cell_angle_gamma 90.000000
_cell_volume 1746.911850
_symmetry_space_group_name_H-M "P 21/M"
_symmetry_group_IT_number 11
_symmetry_cell_setting 'monoclinic'
loop_
_space_group_symop_operation_xyz
x,y,z
-x,1/2+y,-z
-x,-y,-z
x,1/2-y,z
loop_
_atom_site_type_symbol
_atom_site_label
_atom_site_fract_x
_atom_site_fract_y
_atom_site_fract_z
Si Si1 0.937470 0.432605 0.876830
Si Si2 0.375834 0.566227 0.556855
Si Si3 0.299081 0.432367 0.773241
Si Si4 0.493630 0.066652 0.203842
Si Si5 0.556279 0.934040 0.002839
Si Si6 0.750941 0.434227 0.438872
Si Si7 0.882029 0.933156 0.675240
Si Si8 0.198186 0.064833 0.099923
O O1 0.949224 0.250000 0.860636
O O2 0.876030 0.497765 0.879375
O O3 0.090993 0.505151 0.722299
O O4 0.825004 0.481056 0.053886
O O5 0.364282 0.750000 0.579555
O O6 0.309489 0.481080 0.689411
O O7 0.544977 0.529979 0.369386
O O8 0.300441 0.526936 0.574895
O O9 0.277159 0.250000 0.803007
O O10 0.502385 0.250000 0.195510
O O11 0.361121 0.007782 0.389940
O O12 0.482475 0.007553 0.144794
O O13 0.640290 0.995739 0.070024
O O14 0.540512 0.750000 0.022547
O O15 0.723868 0.971875 0.825138
O O16 0.500000 0.000000 0.000000
O O17 0.747102 0.250000 0.449362
O O18 0.895369 0.750000 0.659949
O O19 0.884669 0.981377 0.745163
O O20 0.000000 0.000000 0.500000
O O21 0.202698 0.250000 0.091651
#
# Coordination Sequence:
#
# PCOD9163740 Si02
#       8
#     4   4   4   4   4   4   4   4
#     4  12  25  39  57  85 118 151 192 242 291 342
#     4   9  20  38  61  87 113 146 191 236 280 339
#     4  10  20  37  62  88 115 149 188 233 287 346
#     4  11  22  38  61  88 115 149 194 241 288 343
#     4  10  21  38  58  84 116 152 193 238 289 345
#     4  11  23  40  60  83 116 156 193 236 291 345
#     4   9  20  36  57  83 112 145 184 230 279 335
#     4  10  21  40  61  83 113 152 195 236 285 345
#
# _framework density 18.318038999999999
#
# number of rings (size 3 to 8) (size 9 to 14) (size 15 to 20)
#    0.000    1.750    0.000    5.250    0.000    7.000 
#    0.000    2.500    0.000    0.000    0.000    0.000 
#    0.000    0.000    0.000    0.000    0.000    0.000 
#
# Total GULP energy -178830.583999 kJ/mol
# GULP energy per Si atom -5588.455750 kJ/mol
# Density = 1.827635 g / cm^3
# Si number density = 18.318039 Si / 1000 Ang^3
#
#
#
# Elastic Constant Matrix: (Units=GPa)
#
#
# Indices 1 2 3 4 5 6 
#
# 1 153.7067 61.2952 76.6448 0.0000 5.4808 0.0000
# 2 61.2952 85.8366 49.1919 0.0000 4.8461 0.0000
# 3 76.6448 49.1919 131.9938 0.0000 12.1711 0.0000
# 4 0.0000 0.0000 0.0000 37.1111 0.0000 3.3331
# 5 5.4808 4.8461 12.1711 0.0000 12.7902 0.0000
# 6 0.0000 0.0000 0.0000 3.3331 0.0000 33.2598
#
#
#
# Elastic Compliance Matrix: (Units=1/GPa)
#
#
# Indices 1 2 3 4 5 6 
#
# 1 0.010744 -0.005217 -0.004442 0.000000 0.001600 0.000000
# 2 -0.005217 0.017349 -0.003328 0.000000 -0.001170 0.000000
# 3 -0.004442 -0.003328 0.012172 0.000000 -0.008418 0.000000
# 4 0.000000 0.000000 0.000000 0.027191 0.000000 -0.002725
# 5 0.001600 -0.001170 -0.008418 0.000000 0.085954 0.000000
# 6 0.000000 0.000000 0.000000 -0.002725 0.000000 0.030339
#
#
# Mechanical properties :
#
#
# Convention : Reuss Voigt Hill
#
# Bulk Modulus (GPa) = 69.97657 82.86676 76.42167
# Shear Modulus (GPa) = 23.31134 28.92591 26.11863
#
# Velocity S-wave (km/s) = 3.57121 3.97809 3.78013
# Velocity P-wave (km/s) = 7.43563 8.15085 7.80144
#
# Compressibility (1/GPa) = 0.01429050
#
# Stress axis : x y z
#
# Youngs Moduli (GPa) = 93.07231 57.64013 82.15440
#
# Poissons Ratio (x) = 0.30071 0.36494
# Poissons Ratio (y) = 0.48556 0.27344
# Poissons Ratio (z) = 0.41344 0.19185
#
# Static dielectric constant tensor:
#      x y z
#    x 1.612110 0.000000 0.004340 
#    y 0.000000 1.613440 0.000000 
#    z 0.004340 0.000000 1.605920 
# 
# From -- ./inp_files/67041.got.cif
#   From: 2010.05.17/outbox.cif.g08.bks.cpg/sg11_34_cif.got.tgz:67041.got - 2010.06.03 12:22:45.
