data_PCOD9163627
_publ_section_title
;
Structure prediction by ZEFSAII (Michael W. Deem and Ramdas Pophale) SiO2 
 PCOD9163627
Probable space group: P 21/M
;
_chemical_formula_sum "Si O2"
_cell_formula_units_Z 32
_cell_length_a 22.932670
_cell_length_b 8.762746
_cell_length_c 15.448673
_cell_angle_alpha 90.000000
_cell_angle_beta 148.054805
_cell_angle_gamma 90.000000
_cell_volume 1642.593964
_symmetry_space_group_name_H-M "P 21/M"
_symmetry_group_IT_number 11
_symmetry_cell_setting 'monoclinic'
loop_
_space_group_symop_operation_xyz
x,y,z
-x,1/2+y,-z
-x,-y,-z
x,1/2-y,z
loop_
_atom_site_type_symbol
_atom_site_label
_atom_site_fract_x
_atom_site_fract_y
_atom_site_fract_z
Si Si1 0.222799 0.065656 0.626883
Si Si2 0.346947 0.065678 0.954935
Si Si3 0.377772 0.431093 0.338161
Si Si4 0.992226 0.066246 0.259697
Si Si5 0.304112 0.570814 0.421498
Si Si6 0.255481 0.933443 0.016979
Si Si7 0.050480 0.571367 0.149635
Si Si8 0.403577 0.933666 0.724880
O O1 0.223491 0.250000 0.625773
O O2 0.266380 0.017408 0.775882
O O3 0.099415 0.012704 0.448149
O O4 0.309646 0.007534 0.665225
O O5 0.343383 0.250000 0.958045
O O6 0.473200 0.023772 0.091884
O O7 0.312492 0.994151 0.002293
O O8 0.500000 0.500000 0.500000
O O9 0.383824 0.250000 0.335779
O O10 0.317064 0.475473 0.350880
O O11 0.315108 0.501763 0.177185
O O12 0.993550 0.250000 0.261907
O O13 0.873024 0.017497 0.144041
O O14 0.007167 0.010530 0.180503
O O15 0.322462 0.750000 0.423580
O O16 0.182246 0.556171 0.307559
O O17 0.386411 0.524858 0.602263
O O18 0.260293 0.750000 0.025697
O O19 0.023330 0.750000 0.120117
O O20 0.000000 0.500000 0.000000
O O21 0.391542 0.750000 0.714848
#
# Coordination Sequence:
#
# PCOD9163627 Si02
#       8
#     4   4   4   4   4   4   4   4
#     4  10  21  38  61  90 123 159 202 251 306 364
#     4  10  22  39  61  89 121 160 203 253 311 365
#     4  12  25  41  63  90 121 160 203 249 301 362
#     4  10  22  40  60  85 123 162 201 254 305 357
#     4  10  21  37  57  85 120 156 197 246 298 357
#     4  11  24  42  62  87 120 162 209 255 305 362
#     4  11  22  36  57  85 116 154 198 244 298 358
#     4  10  20  37  60  88 122 156 196 249 307 364
#
# _framework density 19.481382
#
# number of rings (size 3 to 8) (size 9 to 14) (size 15 to 20)
#    0.000    1.500    1.250    3.750    0.000    8.000 
#    0.000    0.000    0.000    0.000    0.000    0.000 
#    0.000    0.000    0.000    0.000    0.000    0.000 
#
# Total GULP energy -178889.851547 kJ/mol
# GULP energy per Si atom -5590.307861 kJ/mol
# Density = 1.943704 g / cm^3
# Si number density = 19.481382 Si / 1000 Ang^3
#
#
#
# Elastic Constant Matrix: (Units=GPa)
#
#
# Indices 1 2 3 4 5 6 
#
# 1 77.8112 22.0642 34.3787 0.0000 2.1052 0.0000
# 2 22.0642 29.4148 29.9147 0.0000 4.7736 0.0000
# 3 34.3787 29.9147 137.0023 0.0000 1.3732 0.0000
# 4 0.0000 0.0000 0.0000 22.7418 0.0000 -1.8639
# 5 2.1052 4.7736 1.3732 0.0000 33.8633 0.0000
# 6 0.0000 0.0000 0.0000 -1.8639 0.0000 33.7863
#
#
#
# Elastic Compliance Matrix: (Units=1/GPa)
#
#
# Indices 1 2 3 4 5 6 
#
# 1 0.016698 -0.010730 -0.001853 0.000000 0.000550 0.000000
# 2 -0.010730 0.051755 -0.008545 0.000000 -0.006282 0.000000
# 3 -0.001853 -0.008545 0.009621 0.000000 0.000930 0.000000
# 4 0.000000 0.000000 0.000000 0.044172 0.000000 0.002437
# 5 0.000550 -0.006282 0.000930 0.000000 0.030344 0.000000
# 6 0.000000 0.000000 0.000000 0.002437 0.000000 0.029732
#
#
# Mechanical properties :
#
#
# Convention : Reuss Voigt Hill
#
# Bulk Modulus (GPa) = 27.91937 46.32704 37.12320
# Shear Modulus (GPa) = 21.14007 28.60299 24.87153
#
# Velocity S-wave (km/s) = 3.29772 3.83590 3.57695
# Velocity P-wave (km/s) = 5.37237 6.59170 6.01303
#
# Compressibility (1/GPa) = 0.03581743
#
# Stress axis : x y z
#
# Youngs Moduli (GPa) = 59.88746 19.32168 103.94368
#
# Poissons Ratio (x) = 0.20733 0.19257
# Poissons Ratio (y) = 0.64261 0.88823
# Poissons Ratio (z) = 0.11095 0.16511
#
# Static dielectric constant tensor:
#      x y z
#    x 1.616110 0.000000 0.021630 
#    y 0.000000 1.662710 0.000000 
#    z 0.021630 0.000000 1.701760 
# 
# From -- ./inp_files/55681.got.cif
#   From: 2010.05.17/outbox.cif.g08.bks.cpg/sg11_28_cif.got.tgz:55681.got - 2010.06.03 12:22:45.
