data_PCOD9163904
_publ_section_title
;
Structure prediction by ZEFSAII (Michael W. Deem and Ramdas Pophale) SiO2 
 PCOD9163904
Probable space group: P 21/M
;
_chemical_formula_sum "Si O2"
_cell_formula_units_Z 32
_cell_length_a 6.749495
_cell_length_b 28.710598
_cell_length_c 8.358593
_cell_angle_alpha 90.000000
_cell_angle_beta 93.713610
_cell_angle_gamma 90.000000
_cell_volume 1616.344142
_symmetry_space_group_name_H-M "P 21/M"
_symmetry_group_IT_number 11
_symmetry_cell_setting 'monoclinic'
loop_
_space_group_symop_operation_xyz
x,y,z
-x,1/2+y,-z
-x,-y,-z
x,1/2-y,z
loop_
_atom_site_type_symbol
_atom_site_label
_atom_site_fract_x
_atom_site_fract_y
_atom_site_fract_z
Si Si1 0.416032 0.647617 0.533658
Si Si2 0.196834 0.198028 0.537475
Si Si3 0.028890 0.380334 0.056213
Si Si4 0.948297 0.384170 0.680003
Si Si5 0.750620 0.038023 0.091299
Si Si6 0.104972 0.983438 0.255258
Si Si7 0.370679 0.431619 0.260886
Si Si8 0.121885 0.698196 0.758175
O O1 0.577999 0.685270 0.489504
O O2 0.264494 0.636730 0.381624
O O3 0.525141 0.600945 0.601962
O O4 0.287925 0.669137 0.672062
O O5 0.179654 0.250000 0.612757
O O6 0.105557 0.152337 0.617416
O O7 0.065449 0.200435 0.370786
O O8 0.866522 0.413942 0.128432
O O9 0.962349 0.328665 0.094471
O O10 0.234626 0.397864 0.142927
O O11 0.009681 0.387242 0.867649
O O12 0.925559 0.438899 0.632858
O O13 0.536311 0.044253 0.156963
O O14 0.772457 0.030027 0.901411
O O15 0.887971 0.999244 0.182116
O O16 0.227930 0.027987 0.324366
O O17 0.193752 0.750000 0.796504
#
# Coordination Sequence:
#
# PCOD9163904 Si02
#       8
#     4   4   4   4   4   4   4   4
#     4  11  22  39  61  89 117 158 199 245 299 359
#     4  10  22  42  63  83 116 160 197 240 305 368
#     4  10  20  38  60  89 116 155 198 248 298 352
#     4  10  24  39  59  88 128 155 192 248 303 351
#     4   9  18  35  58  85 123 159 199 240 290 351
#     4   9  20  35  55  90 122 163 197 239 296 350
#     4  11  20  34  64  86 120 160 207 244 286 353
#     4  10  20  38  64  87 113 149 200 254 298 356
#
# _framework density 19.797764000000001
#
# number of rings (size 3 to 8) (size 9 to 14) (size 15 to 20)
#    0.000    2.000    2.500    1.500    0.000    4.500 
#    0.000    1.250    0.000    0.000    0.000    0.000 
#    0.000    0.000    0.000    0.000    0.000    0.000 
#
# Total GULP energy -178329.644574 kJ/mol
# GULP energy per Si atom -5572.801393 kJ/mol
# Density = 1.975270 g / cm^3
# Si number density = 19.797764 Si / 1000 Ang^3
#
#
#
# Elastic Constant Matrix: (Units=GPa)
#
#
# Indices 1 2 3 4 5 6 
#
# 1 85.8848 18.7039 13.8479 0.0000 1.2581 0.0000
# 2 18.7039 104.0339 7.6586 0.0000 -5.5271 0.0000
# 3 13.8479 7.6586 15.6156 0.0000 3.9959 0.0000
# 4 0.0000 0.0000 0.0000 26.5278 0.0000 2.8472
# 5 1.2581 -5.5271 3.9959 0.0000 9.2624 0.0000
# 6 0.0000 0.0000 0.0000 2.8472 0.0000 14.7464
#
#
#
# Elastic Compliance Matrix: (Units=1/GPa)
#
#
# Indices 1 2 3 4 5 6 
#
# 1 0.013901 -0.001463 -0.012257 0.000000 0.002527 0.000000
# 2 -0.001463 0.010852 -0.006444 0.000000 0.009454 0.000000
# 3 -0.012257 -0.006444 0.088383 0.000000 -0.040310 0.000000
# 4 0.000000 0.000000 0.000000 0.038494 0.000000 -0.007432
# 5 0.002527 0.009454 -0.040310 0.000000 0.130652 0.000000
# 6 0.000000 0.000000 0.000000 -0.007432 0.000000 0.069248
#
#
# Mechanical properties :
#
#
# Convention : Reuss Voigt Hill
#
# Bulk Modulus (GPa) = 13.73466 31.77280 22.75373
# Shear Modulus (GPa) = 12.01554 21.12891 16.57222
#
# Velocity S-wave (km/s) = 2.46623 3.27040 2.89636
# Velocity P-wave (km/s) = 3.88102 5.50856 4.76479
#
# Compressibility (1/GPa) = 0.07280850
#
# Stress axis : x y z
#
# Youngs Moduli (GPa) = 71.93565 92.14933 11.31437
#
# Poissons Ratio (x) = 0.13479 0.13868
# Poissons Ratio (y) = 0.10522 0.07291
# Poissons Ratio (z) = 0.88170 0.59385
#
# Static dielectric constant tensor:
#      x y z
#    x 1.691490 0.000000 -0.012170 
#    y 0.000000 1.775240 0.000000 
#    z -0.012170 0.000000 1.687880 
# 
# From -- ./inp_files/10847.got.cif
#   From: 2010.05.17/outbox.cif.g08.bks.cpg/sg11_6_cif.got.tgz:10847.got - 2010.06.03 12:22:45.
