data_PCOD9163102
_publ_section_title
;
Structure prediction by ZEFSAII (Michael W. Deem and Ramdas Pophale) SiO2 
 PCOD9163102
Probable space group: P 21/M
;
_chemical_formula_sum "Si O2"
_cell_formula_units_Z 28
_cell_length_a 9.788024
_cell_length_b 11.687793
_cell_length_c 15.025104
_cell_angle_alpha 90.000000
_cell_angle_beta 120.738195
_cell_angle_gamma 90.000000
_cell_volume 1477.395717
_symmetry_space_group_name_H-M "P 21/M"
_symmetry_group_IT_number 11
_symmetry_cell_setting 'monoclinic'
loop_
_space_group_symop_operation_xyz
x,y,z
-x,1/2+y,-z
-x,-y,-z
x,1/2-y,z
loop_
_atom_site_type_symbol
_atom_site_label
_atom_site_fract_x
_atom_site_fract_y
_atom_site_fract_z
Si Si1 0.939173 0.380078 0.645752
Si Si2 0.765209 0.624055 0.380256
Si Si3 0.632155 0.875334 0.765905
Si Si4 0.044954 0.382950 0.234918
Si Si5 0.521659 0.950091 0.151995
Si Si6 0.310985 0.874588 0.923592
Si Si7 0.386955 0.555796 0.536751
O O1 0.977684 0.250000 0.696206
O O2 0.955213 0.500651 0.705365
O O3 0.755285 0.375953 0.556223
O O4 0.060986 0.394615 0.603839
O O5 0.760602 0.750000 0.418423
O O6 0.641409 0.616209 0.256588
O O7 0.706400 0.536734 0.434419
O O8 0.628454 0.750000 0.807031
O O9 0.802824 0.892664 0.777691
O O10 0.501819 0.880279 0.643781
O O11 0.586408 0.971190 0.821007
O O12 0.053136 0.250000 0.277152
O O13 0.877524 0.386299 0.127690
O O14 0.628283 0.029852 0.123803
O O15 0.407695 0.882834 0.047242
O O16 0.340869 0.750000 0.892512
O O17 0.500000 0.500000 0.500000
#
# Coordination Sequence:
#
# PCOD9163102 Si02
#       7
#     4   4   4   4   4   4   4
#     4  11  22  40  59  88 122 156 201 248 297 352
#     4  10  22  38  59  85 121 156 196 245 297 350
#     4  10  21  38  57  82 116 154 195 245 294 351
#     4  10  21  39  60  86 119 158 198 242 295 355
#     4  10  20  36  58  86 116 146 198 239 300 346
#     4  10  20  36  60  85 114 152 195 241 293 354
#     4  11  22  38  59  85 118 155 203 243 294 354
#
# _framework density 18.952266999999999
#
# number of rings (size 3 to 8) (size 9 to 14) (size 15 to 20)
#    0.000    1.714    2.857    1.714    0.000    2.286 
#    0.000    2.143    0.000    0.000    0.000    0.000 
#    0.000    0.000    0.000    0.000    0.000    0.000 
#
# Total GULP energy -155995.143268 kJ/mol
# GULP energy per Si atom -5571.255117 kJ/mol
# Density = 1.890913 g / cm^3
# Si number density = 18.952267 Si / 1000 Ang^3
#
#
#
# Elastic Constant Matrix: (Units=GPa)
#
#
# Indices 1 2 3 4 5 6 
#
# 1 107.3333 47.8045 18.5700 0.0000 19.2786 0.0000
# 2 47.8045 106.2328 13.4205 0.0000 2.5577 0.0000
# 3 18.5700 13.4205 44.8084 0.0000 12.3119 0.0000
# 4 0.0000 0.0000 0.0000 -24.3062 0.0000 30.4228
# 5 19.2786 2.5577 12.3119 0.0000 29.4208 0.0000
# 6 0.0000 0.0000 0.0000 30.4228 0.0000 -4.4412
#
#
#
# Elastic Compliance Matrix: (Units=1/GPa)
#
#
# Indices 1 2 3 4 5 6 
#
# 1 0.013524 -0.005673 -0.001815 0.000000 -0.007609 0.000000
# 2 -0.005673 0.012168 -0.002287 0.000000 0.003617 0.000000
# 3 -0.001815 -0.002287 0.026410 0.000000 -0.009664 0.000000
# 4 0.000000 0.000000 0.000000 0.005432 0.000000 0.037210
# 5 -0.007609 0.003617 -0.009664 0.000000 0.042706 0.000000
# 6 0.000000 0.000000 0.000000 0.037210 0.000000 0.029729
#
#
# Mechanical properties :
#
#
# Convention : Reuss Voigt Hill
#
# Bulk Modulus (GPa) = 30.72049 46.44049 38.58049
# Shear Modulus (GPa) = 31.17793 12.03995 21.60894
#
# Velocity S-wave (km/s) = 4.06035 2.52321 3.38031
# Velocity P-wave (km/s) = 6.18276 5.74855 5.96961
#
# Compressibility (1/GPa) = 0.03255157
#
# Stress axis : x y z
#
# Youngs Moduli (GPa) = 73.94035 82.18154 37.86499
#
# Poissons Ratio (x) = 0.46626 0.06872
# Poissons Ratio (y) = 0.41950 0.08660
# Poissons Ratio (z) = 0.13419 0.18795
#
# Static dielectric constant tensor:
#      x y z
#    x 1.610070 0.000000 0.014680 
#    y 0.000000 1.761040 0.000000 
#    z 0.014680 0.000000 1.648470 
# 
# From -- ./inp_files/21197.got.cif
#   From: 2010.05.17/outbox.cif.g08.bks.cpg/sg11_11_cif.got.tgz:21197.got - 2010.06.03 12:22:45.
