data_PCOD9163938
_publ_section_title
;
Structure prediction by ZEFSAII (Michael W. Deem and Ramdas Pophale) SiO2 
 PCOD9163938
Probable space group: P 21/M
;
_chemical_formula_sum "Si O2"
_cell_formula_units_Z 28
_cell_length_a 12.085695
_cell_length_b 8.742750
_cell_length_c 15.841047
_cell_angle_alpha 90.000000
_cell_angle_beta 60.470870
_cell_angle_gamma 90.000000
_cell_volume 1456.382161
_symmetry_space_group_name_H-M "P 21/M"
_symmetry_group_IT_number 11
_symmetry_cell_setting 'monoclinic'
loop_
_space_group_symop_operation_xyz
x,y,z
-x,1/2+y,-z
-x,-y,-z
x,1/2-y,z
loop_
_atom_site_type_symbol
_atom_site_label
_atom_site_fract_x
_atom_site_fract_y
_atom_site_fract_z
Si Si1 0.546501 0.433501 0.070995
Si Si2 0.368150 0.063662 0.292925
Si Si3 0.179401 0.431487 0.995084
Si Si4 0.075543 0.434099 0.391915
Si Si5 0.146885 0.932314 0.646389
Si Si6 0.921516 0.569003 0.155228
Si Si7 0.601159 0.566713 0.528046
O O1 0.541811 0.250000 0.069926
O O2 0.457275 0.486063 0.182443
O O3 0.688985 0.489606 0.032883
O O4 0.500000 0.500000 0.000000
O O5 0.367385 0.250000 0.292842
O O6 0.221702 0.012994 0.335499
O O7 0.416798 0.016714 0.367624
O O8 0.185912 0.250000 0.008141
O O9 0.147108 0.456470 0.908553
O O10 0.062726 0.501697 0.091244
O O11 0.077893 0.250000 0.398217
O O12 0.000000 0.500000 0.500000
O O13 0.989975 0.472634 0.342739
O O14 0.163760 0.750000 0.634432
O O15 0.148430 0.986261 0.742018
O O16 0.258907 0.013192 0.552771
O O17 0.926746 0.750000 0.168969
O O18 0.500000 0.500000 0.500000
O O19 0.593797 0.750000 0.528093
#
# Coordination Sequence:
#
# PCOD9163938 Si02
#       7
#     4   4   4   4   4   4   4
#     4  11  24  42  64  91 123 165 212 260 312 372
#     4   9  21  41  63  86 120 164 204 251 312 364
#     4  10  22  42  64  89 122 159 203 258 314 371
#     4  10  20  38  61  87 118 156 199 248 299 357
#     4  11  23  37  61  94 125 161 201 250 308 368
#     4  10  22  40  64  93 122 159 204 255 308 368
#     4  11  23  41  63  90 125 165 208 257 308 371
#
# _framework density 19.225722999999999
#
# number of rings (size 3 to 8) (size 9 to 14) (size 15 to 20)
#    0.000    1.714    1.429    2.143    4.000    2.286 
#    0.000    3.571    0.000    0.000    0.000    0.000 
#    0.000    0.000    0.000    0.000    0.000    0.000 
#
# Total GULP energy -156456.738269 kJ/mol
# GULP energy per Si atom -5587.740652 kJ/mol
# Density = 1.918196 g / cm^3
# Si number density = 19.225723 Si / 1000 Ang^3
#
#
#
# Elastic Constant Matrix: (Units=GPa)
#
#
# Indices 1 2 3 4 5 6 
#
# 1 127.1182 48.4905 56.5832 0.0000 -7.5234 0.0000
# 2 48.4905 44.9690 33.2905 0.0000 7.7213 0.0000
# 3 56.5832 33.2905 118.1635 0.0000 5.6355 0.0000
# 4 0.0000 0.0000 0.0000 30.7733 0.0000 -1.0453
# 5 -7.5234 7.7213 5.6355 0.0000 20.0272 0.0000
# 6 0.0000 0.0000 0.0000 -1.0453 0.0000 33.0430
#
#
#
# Elastic Compliance Matrix: (Units=1/GPa)
#
#
# Indices 1 2 3 4 5 6 
#
# 1 0.017589 -0.018653 -0.003878 0.000000 0.014890 0.000000
# 2 -0.018653 0.049466 -0.003812 0.000000 -0.025006 0.000000
# 3 -0.003878 -0.003812 0.011548 0.000000 -0.003237 0.000000
# 4 0.000000 0.000000 0.000000 0.032531 0.000000 0.001029
# 5 0.014890 -0.025006 -0.003237 0.000000 0.066077 0.000000
# 6 0.000000 0.000000 0.000000 0.001029 0.000000 0.030296
#
#
# Mechanical properties :
#
#
# Convention : Reuss Voigt Hill
#
# Bulk Modulus (GPa) = 38.58158 62.99768 50.78963
# Shear Modulus (GPa) = 18.59903 26.89447 22.74675
#
# Velocity S-wave (km/s) = 3.11368 3.74422 3.44341
# Velocity P-wave (km/s) = 5.74787 7.17849 6.50264
#
# Compressibility (1/GPa) = 0.02591911
#
# Stress axis : x y z
#
# Youngs Moduli (GPa) = 56.85289 20.21585 86.59485
#
# Poissons Ratio (x) = 0.37708 0.33580
# Poissons Ratio (y) = 1.06045 0.33008
# Poissons Ratio (z) = 0.22046 0.07706
#
# Static dielectric constant tensor:
#      x y z
#    x 1.645450 0.000000 0.019990 
#    y 0.000000 1.650220 0.000000 
#    z 0.019990 0.000000 1.645140 
# 
# From -- ./inp_files/49148.got.cif
#   From: 2010.05.17/outbox.cif.g08.bks.cpg/sg11_25_cif.got.tgz:49148.got - 2010.06.03 12:22:45.
