data_PCOD9163864
_publ_section_title
;
Structure prediction by ZEFSAII (Michael W. Deem and Ramdas Pophale) SiO2 
 PCOD9163864
Probable space group: P 21/M
;
_chemical_formula_sum "Si O2"
_cell_formula_units_Z 30
_cell_length_a 12.023969
_cell_length_b 9.139707
_cell_length_c 14.274152
_cell_angle_alpha 90.000000
_cell_angle_beta 82.537653
_cell_angle_gamma 90.000000
_cell_volume 1555.379904
_symmetry_space_group_name_H-M "P 21/M"
_symmetry_group_IT_number 11
_symmetry_cell_setting 'monoclinic'
loop_
_space_group_symop_operation_xyz
x,y,z
-x,1/2+y,-z
-x,-y,-z
x,1/2-y,z
loop_
_atom_site_type_symbol
_atom_site_label
_atom_site_fract_x
_atom_site_fract_y
_atom_site_fract_z
Si Si1 0.198133 0.423826 0.118741
Si Si2 0.051923 0.577841 0.637601
Si Si3 0.224078 0.917036 0.930283
Si Si4 0.660485 0.577327 0.706760
Si Si5 0.533917 0.474852 0.142745
Si Si6 0.836303 0.421671 0.571379
Si Si7 0.458998 0.250000 0.992483
Si Si8 0.042444 0.075141 0.829167
O O1 0.203059 0.250000 0.093903
O O2 0.259387 0.443778 0.210776
O O3 0.072584 0.486400 0.140935
O O4 0.251408 0.520608 0.030347
O O5 0.039546 0.750000 0.663749
O O6 0.137975 0.565590 0.541828
O O7 0.083971 0.482056 0.723675
O O8 0.933884 0.514640 0.612152
O O9 0.182646 0.750000 0.941245
O O10 0.338890 0.919497 0.859691
O O11 0.131702 0.022708 0.896170
O O12 0.658870 0.750000 0.685341
O O13 0.538934 0.526491 0.755173
O O14 0.718603 0.485966 0.618293
O O15 0.542538 0.626258 0.089148
O O16 0.470980 0.372352 0.075048
O O17 0.847078 0.250000 0.595642
O O18 0.025426 0.250000 0.832936
#
# Coordination Sequence:
#
# PCOD9163864 Si02
#       8
#     4   4   4   4   4   4   2   4
#     4  11  23  38  59  85 120 158 199 242 289 343
#     4  10  20  39  60  86 118 150 191 240 299 351
#     4  12  25  40  59  82 119 163 205 241 286 345
#     4  11  22  36  58  89 123 155 192 240 295 345
#     4  11  23  38  59  86 116 157 195 246 290 344
#     4  10  21  35  60  91 119 149 188 241 296 356
#     4  10  20  38  58  82 114 150 202 242 288 330
#     4  12  25  41  60  84 116 157 203 245 290 351
#
# _framework density 19.287891999999999
#
# number of rings (size 3 to 8) (size 9 to 14) (size 15 to 20)
#    0.000    1.067    2.667    4.800    4.667    2.133 
#    0.000    0.000    0.000    0.800    0.000    0.000 
#    0.000    0.000    0.000    0.000    0.000    0.000 
#
# Total GULP energy -167115.261152 kJ/mol
# GULP energy per Si atom -5570.508705 kJ/mol
# Density = 1.924399 g / cm^3
# Si number density = 19.287892 Si / 1000 Ang^3
#
#
#
# Elastic Constant Matrix: (Units=GPa)
#
#
# Indices 1 2 3 4 5 6 
#
# 1 35.6570 -12.1476 2.5620 0.0000 -17.2169 0.0000
# 2 -12.1476 75.3458 12.3050 0.0000 -3.1488 0.0000
# 3 2.5620 12.3050 54.7170 0.0000 -24.4621 0.0000
# 4 0.0000 0.0000 0.0000 28.5006 0.0000 12.3340
# 5 -17.2169 -3.1488 -24.4621 0.0000 32.8472 0.0000
# 6 0.0000 0.0000 0.0000 12.3340 0.0000 23.7016
#
#
#
# Elastic Compliance Matrix: (Units=1/GPa)
#
#
# Indices 1 2 3 4 5 6 
#
# 1 0.045297 0.006888 0.010853 0.000000 0.032485 0.000000
# 2 0.006888 0.014874 -0.002123 0.000000 0.003456 0.000000
# 3 0.010853 -0.002123 0.031028 0.000000 0.028592 0.000000
# 4 0.000000 0.000000 0.000000 0.045286 0.000000 -0.023566
# 5 0.032485 0.003456 0.028592 0.000000 0.069096 0.000000
# 6 0.000000 0.000000 0.000000 -0.023566 0.000000 0.054455
#
#
# Mechanical properties :
#
#
# Convention : Reuss Voigt Hill
#
# Bulk Modulus (GPa) = 8.16753 19.01762 13.59258
# Shear Modulus (GPa) = 18.54538 27.87656 23.21097
#
# Velocity S-wave (km/s) = 3.10418 3.80582 3.47276
# Velocity P-wave (km/s) = 4.13420 5.40311 4.81068
#
# Compressibility (1/GPa) = 0.12243603
#
# Stress axis : x y z
#
# Youngs Moduli (GPa) = 22.07638 67.23263 32.22945
#
# Poissons Ratio (x) = -0.46311 -0.34979
# Poissons Ratio (y) = -0.15207 0.06841
# Poissons Ratio (z) = -0.23960 0.14270
#
# Static dielectric constant tensor:
#      x y z
#    x 1.712520 0.000000 -0.047460 
#    y 0.000000 1.151640 0.000000 
#    z -0.047460 0.000000 1.688480 
# 
# From -- ./inp_files/49241.got.cif
#   From: 2010.05.17/outbox.cif.g08.bks.cpg/sg11_25_cif.got.tgz:49241.got - 2010.06.03 12:22:45.
