data_PCOD9163175
_publ_section_title
;
Structure prediction by ZEFSAII (Michael W. Deem and Ramdas Pophale) SiO2 
 PCOD9163175
Probable space group: P 21/M
;
_chemical_formula_sum "Si O2"
_cell_formula_units_Z 24
_cell_length_a 14.596034
_cell_length_b 8.335725
_cell_length_c 10.396709
_cell_angle_alpha 90.000000
_cell_angle_beta 90.261561
_cell_angle_gamma 90.000000
_cell_volume 1264.939073
_symmetry_space_group_name_H-M "P 21/M"
_symmetry_group_IT_number 11
_symmetry_cell_setting 'monoclinic'
loop_
_space_group_symop_operation_xyz
x,y,z
-x,1/2+y,-z
-x,-y,-z
x,1/2-y,z
loop_
_atom_site_type_symbol
_atom_site_label
_atom_site_fract_x
_atom_site_fract_y
_atom_site_fract_z
Si Si1 0.052456 0.442534 0.127134
Si Si2 0.443970 0.557435 0.622908
Si Si3 0.448801 0.558963 0.127065
Si Si4 0.056880 0.943670 0.622490
Si Si5 0.249280 0.945606 0.519027
Si Si6 0.750582 0.055790 0.781521
O O1 0.053939 0.250000 0.127775
O O2 0.156772 0.501270 0.147131
O O3 0.993063 0.500799 0.249268
O O4 0.000000 0.500000 0.000000
O O5 0.500000 0.500000 0.500000
O O6 0.445686 0.750000 0.630373
O O7 0.490370 0.488826 0.750072
O O8 0.340341 0.504215 0.594035
O O9 0.442938 0.750000 0.119833
O O10 0.344273 0.500028 0.152249
O O11 0.500000 0.500000 0.000000
O O12 0.057753 0.750000 0.626485
O O13 0.160073 0.998940 0.596280
O O14 0.000000 0.000000 0.500000
O O15 0.249182 0.750000 0.515133
O O16 0.247959 0.997594 0.369031
O O17 0.749968 0.250000 0.780616
#
# Coordination Sequence:
#
# PCOD9163175 Si02
#       6
#     4   4   4   4   4   4
#     4  11  24  39  59  90 123 159 201 247 299 358
#     4  11  21  37  61  90 121 159 204 251 301 360
#     4  11  24  42  62  90 123 161 204 252 311 370
#     4  10  20  36  59  86 114 147 194 242 289 346
#     4   9  18  35  60  87 117 155 196 241 298 356
#     4  10  20  39  64  85 116 161 200 242 304 367
#
# _framework density 18.973247000000001
#
# number of rings (size 3 to 8) (size 9 to 14) (size 15 to 20)
#    0.000    1.667    3.333    1.500    0.000    3.333 
#    0.000    5.000    0.000    0.000    0.000    0.000 
#    0.000    0.000    0.000    0.000    0.000    0.000 
#
# Total GULP energy -134004.446855 kJ/mol
# GULP energy per Si atom -5583.518619 kJ/mol
# Density = 1.893006 g / cm^3
# Si number density = 18.973247 Si / 1000 Ang^3
#
#
#
# Elastic Constant Matrix: (Units=GPa)
#
#
# Indices 1 2 3 4 5 6 
#
# 1 232.0804 25.4066 112.1764 0.0000 -0.1586 0.0000
# 2 25.4066 21.8389 20.3558 0.0000 -3.8914 0.0000
# 3 112.1764 20.3558 179.5963 0.0000 -1.2257 0.0000
# 4 0.0000 0.0000 0.0000 31.1360 0.0000 5.0958
# 5 -0.1586 -3.8914 -1.2257 0.0000 30.1885 0.0000
# 6 0.0000 0.0000 0.0000 5.0958 0.0000 26.1864
#
#
#
# Elastic Compliance Matrix: (Units=1/GPa)
#
#
# Indices 1 2 3 4 5 6 
#
# 1 0.006517 -0.004364 -0.003580 0.000000 -0.000674 0.000000
# 2 -0.004364 0.055374 -0.003503 0.000000 0.006973 0.000000
# 3 -0.003580 -0.003503 0.008200 0.000000 -0.000137 0.000000
# 4 0.000000 0.000000 0.000000 0.033174 0.000000 -0.006455
# 5 -0.000674 0.006973 -0.000137 0.000000 0.034015 0.000000
# 6 0.000000 0.000000 0.000000 -0.006455 0.000000 0.039444
#
#
# Mechanical properties :
#
#
# Convention : Reuss Voigt Hill
#
# Bulk Modulus (GPa) = 21.18778 83.26590 52.22684
# Shear Modulus (GPa) = 23.21790 35.87395 29.54592
#
# Velocity S-wave (km/s) = 3.50196 4.35301 3.95047
# Velocity P-wave (km/s) = 5.24815 8.32143 6.95662
#
# Compressibility (1/GPa) = 0.04719702
#
# Stress axis : x y z
#
# Youngs Moduli (GPa) = 153.45208 18.05886 121.94543
#
# Poissons Ratio (x) = 0.07881 0.43660
# Poissons Ratio (y) = 0.66969 0.42715
# Poissons Ratio (z) = 0.54940 0.06326
#
# Static dielectric constant tensor:
#      x y z
#    x 1.621150 0.000000 -0.020830 
#    y 0.000000 1.659970 0.000000 
#    z -0.020830 0.000000 1.625190 
# 
# From -- ./inp_files/20316.got.cif
#   From: 2010.05.17/outbox.cif.g08.bks.cpg/sg11_11_cif.got.tgz:20316.got - 2010.06.03 12:22:45.
