data_PCOD9163874
_publ_section_title
;
Structure prediction by ZEFSAII (Michael W. Deem and Ramdas Pophale) SiO2 
 PCOD9163874
Probable space group: P 21/M
;
_chemical_formula_sum "Si O2"
_cell_formula_units_Z 28
_cell_length_a 9.581487
_cell_length_b 14.888391
_cell_length_c 12.633186
_cell_angle_alpha 90.000000
_cell_angle_beta 120.994522
_cell_angle_gamma 90.000000
_cell_volume 1544.842158
_symmetry_space_group_name_H-M "P 21/M"
_symmetry_group_IT_number 11
_symmetry_cell_setting 'monoclinic'
loop_
_space_group_symop_operation_xyz
x,y,z
-x,1/2+y,-z
-x,-y,-z
x,1/2-y,z
loop_
_atom_site_type_symbol
_atom_site_label
_atom_site_fract_x
_atom_site_fract_y
_atom_site_fract_z
Si Si1 0.302382 0.354383 0.671333
Si Si2 0.993847 0.958598 0.380872
Si Si3 0.132619 0.531489 0.877865
Si Si4 0.323318 0.034163 0.463306
Si Si5 0.739221 0.852685 0.987099
Si Si6 0.546834 0.145256 0.958974
Si Si7 0.820295 0.645123 0.785317
O O1 0.315924 0.250000 0.648482
O O2 0.124179 0.373381 0.652646
O O3 0.325895 0.415497 0.577234
O O4 0.437221 0.375285 0.813184
O O5 0.901635 0.022630 0.260913
O O6 0.000000 0.000000 0.500000
O O7 0.181136 0.957766 0.414883
O O8 0.141003 0.430152 0.925023
O O9 0.985814 0.589532 0.867119
O O10 0.300982 0.580322 0.969378
O O11 0.265589 0.102842 0.349891
O O12 0.500000 0.000000 0.500000
O O13 0.797410 0.750000 0.028868
O O14 0.573259 0.863718 0.987763
O O15 0.717581 0.863328 0.853051
O O16 0.598145 0.250000 0.972558
O O17 0.855770 0.750000 0.781832
#
# Coordination Sequence:
#
# PCOD9163874 Si02
#       7
#     4   4   4   4   4   4   4
#     4  10  20  38  59  82 117 153 191 244 298 345
#     4   9  20  36  57  85 109 149 197 237 285 350
#     4  11  20  35  60  84 115 153 194 237 292 351
#     4  10  22  38  60  84 115 153 199 245 293 357
#     4  10  21  35  54  84 117 150 188 235 290 342
#     4  10  21  35  57  89 117 149 196 243 288 346
#     4  10  22  39  57  81 116 154 191 237 293 354
#
# _framework density 18.124828000000001
#
# number of rings (size 3 to 8) (size 9 to 14) (size 15 to 20)
#    0.000    2.000    1.429    1.714    2.000    1.143 
#    0.000    2.143    0.000    0.857    0.000    0.000 
#    0.000    0.000    0.000    0.000    0.000    0.000 
#
# Total GULP energy -156113.794987 kJ/mol
# GULP energy per Si atom -5575.492678 kJ/mol
# Density = 1.808358 g / cm^3
# Si number density = 18.124828 Si / 1000 Ang^3
#
#
#
# Elastic Constant Matrix: (Units=GPa)
#
#
# Indices 1 2 3 4 5 6 
#
# 1 111.2825 60.5730 59.4430 0.0000 5.7238 0.0000
# 2 60.5730 83.6513 43.0628 0.0000 5.4985 0.0000
# 3 59.4430 43.0628 93.0181 0.0000 -6.8155 0.0000
# 4 0.0000 0.0000 0.0000 18.9344 0.0000 -1.9514
# 5 5.7238 5.4985 -6.8155 0.0000 31.8015 0.0000
# 6 0.0000 0.0000 0.0000 -1.9514 0.0000 23.0685
#
#
#
# Elastic Compliance Matrix: (Units=1/GPa)
#
#
# Indices 1 2 3 4 5 6 
#
# 1 0.018145 -0.008956 -0.007696 0.000000 -0.003367 0.000000
# 2 -0.008956 0.020728 -0.004081 0.000000 -0.002847 0.000000
# 3 -0.007696 -0.004081 0.017994 0.000000 0.005947 0.000000
# 4 0.000000 0.000000 0.000000 0.053278 0.000000 0.004507
# 5 -0.003367 -0.002847 0.005947 0.000000 0.033818 0.000000
# 6 0.000000 0.000000 0.000000 0.004507 0.000000 0.043730
#
#
# Mechanical properties :
#
#
# Convention : Reuss Voigt Hill
#
# Bulk Modulus (GPa) = 64.93431 68.23439 66.58435
# Shear Modulus (GPa) = 21.34081 23.08576 22.21329
#
# Velocity S-wave (km/s) = 3.43510 3.57278 3.50462
# Velocity P-wave (km/s) = 7.18590 7.39921 7.29333
#
# Compressibility (1/GPa) = 0.01540018
#
# Stress axis : x y z
#
# Youngs Moduli (GPa) = 55.11100 48.24499 55.57443
#
# Poissons Ratio (x) = 0.43208 0.42771
# Poissons Ratio (y) = 0.49357 0.22680
# Poissons Ratio (z) = 0.42414 0.19689
#
# Static dielectric constant tensor:
#      x y z
#    x 1.626060 0.000000 -0.008080 
#    y 0.000000 1.628100 0.000000 
#    z -0.008080 0.000000 1.618900 
# 
# From -- ./inp_files/17717.got.cif
#   From: 2010.05.17/outbox.cif.g08.bks.cpg/sg11_9_cif.got.tgz:17717.got - 2010.06.03 12:22:45.
