data_PCOD9163601
_publ_section_title
;
Structure prediction by ZEFSAII (Michael W. Deem and Ramdas Pophale) SiO2 
 PCOD9163601
Probable space group: P 21/M
;
_chemical_formula_sum "Si O2"
_cell_formula_units_Z 28
_cell_length_a 26.718328
_cell_length_b 9.316037
_cell_length_c 5.475026
_cell_angle_alpha 90.000000
_cell_angle_beta 108.463054
_cell_angle_gamma 90.000000
_cell_volume 1292.637805
_symmetry_space_group_name_H-M "P 21/M"
_symmetry_group_IT_number 11
_symmetry_cell_setting 'monoclinic'
loop_
_space_group_symop_operation_xyz
x,y,z
-x,1/2+y,-z
-x,-y,-z
x,1/2-y,z
loop_
_atom_site_type_symbol
_atom_site_label
_atom_site_fract_x
_atom_site_fract_y
_atom_site_fract_z
Si Si1 0.646940 0.078189 0.957763
Si Si2 0.039827 0.591033 0.725790
Si Si3 0.152242 0.592027 0.624103
Si Si4 0.294037 0.924833 0.455361
Si Si5 0.210095 0.088182 0.049057
Si Si6 0.897557 0.906823 0.854850
Si Si7 0.477599 0.573641 0.215303
O O1 0.650775 0.250000 0.970258
O O2 0.678031 0.029753 0.249014
O O3 0.670914 0.037014 0.731620
O O4 0.585192 0.044077 0.880062
O O5 0.019004 0.750000 0.727075
O O6 0.097832 0.606320 0.693071
O O7 0.000000 0.500000 0.500000
O O8 0.055673 0.510684 0.997239
O O9 0.161794 0.750000 0.528230
O O10 0.204995 0.538008 0.840885
O O11 0.135263 0.470074 0.414724
O O12 0.285931 0.750000 0.443944
O O13 0.241796 0.017145 0.320211
O O14 0.229292 0.250000 0.017914
O O15 0.148088 0.104352 0.012705
O O16 0.918100 0.750000 0.838160
O O17 0.500000 0.500000 0.500000
O O18 0.485532 0.750000 0.227600
O O19 0.500000 0.500000 0.000000
#
# Coordination Sequence:
#
# PCOD9163601 Si02
#       7
#     4   4   4   4   4   4   4
#     4   9  20  38  60  87 123 164 211 259 309 370
#     4  10  21  37  56  80 109 142 182 230 284 343
#     4  10  21  37  58  82 107 141 189 235 277 344
#     4  10  20  37  60  86 115 160 211 256 304 365
#     4  10  22  38  55  81 114 148 185 236 299 353
#     4  10  21  37  57  80 110 145 183 230 289 351
#     4  11  22  40  66  96 131 172 220 272 327 388
#
# _framework density 21.661131000000001
#
# number of rings (size 3 to 8) (size 9 to 14) (size 15 to 20)
#    0.000    2.000    0.000    3.000    2.000    6.286 
#    0.000    4.286    0.000    0.000    0.000    0.000 
#    0.000    0.000    0.000    0.000    0.000    0.000 
#
# Total GULP energy -156060.556369 kJ/mol
# GULP energy per Si atom -5573.591299 kJ/mol
# Density = 2.161183 g / cm^3
# Si number density = 21.661131 Si / 1000 Ang^3
#
#
#
# Elastic Constant Matrix: (Units=GPa)
#
#
# Indices 1 2 3 4 5 6 
#
# 1 107.7699 24.3278 35.6947 0.0000 0.8912 0.0000
# 2 24.3278 118.1831 34.6848 0.0000 10.0566 0.0000
# 3 35.6947 34.6848 135.9208 0.0000 20.4433 0.0000
# 4 0.0000 0.0000 0.0000 25.2688 0.0000 9.4087
# 5 0.8912 10.0566 20.4433 0.0000 35.6255 0.0000
# 6 0.0000 0.0000 0.0000 9.4087 0.0000 18.0939
#
#
#
# Elastic Compliance Matrix: (Units=1/GPa)
#
#
# Indices 1 2 3 4 5 6 
#
# 1 0.010476 -0.001532 -0.002611 0.000000 0.001669 0.000000
# 2 -0.001532 0.009431 -0.001762 0.000000 -0.001613 0.000000
# 3 -0.002611 -0.001762 0.009202 0.000000 -0.004718 0.000000
# 4 0.000000 0.000000 0.000000 0.049076 0.000000 -0.025519
# 5 0.001669 -0.001613 -0.004718 0.000000 0.031191 0.000000
# 6 0.000000 0.000000 0.000000 -0.025519 0.000000 0.068537
#
#
# Mechanical properties :
#
#
# Convention : Reuss Voigt Hill
#
# Bulk Modulus (GPa) = 57.80617 61.25427 59.53022
# Shear Modulus (GPa) = 25.57678 33.60874 29.59276
#
# Velocity S-wave (km/s) = 3.43996 3.94327 3.70018
# Velocity P-wave (km/s) = 6.52091 7.00516 6.76737
#
# Compressibility (1/GPa) = 0.01729919
#
# Stress axis : x y z
#
# Youngs Moduli (GPa) = 95.45690 106.03196 108.67070
#
# Poissons Ratio (x) = 0.16245 0.28376
# Poissons Ratio (y) = 0.14625 0.19145
# Poissons Ratio (z) = 0.24925 0.18680
#
# Static dielectric constant tensor:
#      x y z
#    x 1.894150 0.000000 -0.090360 
#    y 0.000000 1.811630 0.000000 
#    z -0.090360 0.000000 1.818220 
# 
# From -- ./inp_files/9637.got.cif
#   From: 2010.05.17/outbox.cif.g08.bks.cpg/sg11_5_cif.got.tgz:9637.got - 2010.06.03 12:22:45.
