data_PCOD9163840
_publ_section_title
;
Structure prediction by ZEFSAII (Michael W. Deem and Ramdas Pophale) SiO2 
 PCOD9163840
Probable space group: P 21/M
;
_chemical_formula_sum "Si O2"
_cell_formula_units_Z 26
_cell_length_a 19.634820
_cell_length_b 10.309118
_cell_length_c 7.906752
_cell_angle_alpha 90.000000
_cell_angle_beta 137.655117
_cell_angle_gamma 90.000000
_cell_volume 1078.060863
_symmetry_space_group_name_H-M "P 21/M"
_symmetry_group_IT_number 11
_symmetry_cell_setting 'monoclinic'
loop_
_space_group_symop_operation_xyz
x,y,z
-x,1/2+y,-z
-x,-y,-z
x,1/2-y,z
loop_
_atom_site_type_symbol
_atom_site_label
_atom_site_fract_x
_atom_site_fract_y
_atom_site_fract_z
Si Si1 0.953331 0.102083 0.048770
Si Si2 0.241169 0.385834 0.747915
Si Si3 0.664814 0.513472 0.597665
Si Si4 0.129838 0.391500 0.899992
Si Si5 0.477774 0.250000 0.727992
Si Si6 0.384763 0.750000 0.324959
Si Si7 0.751794 0.110673 0.472355
Si Si8 0.560354 0.750000 0.931764
O O1 0.994369 0.250000 0.141311
O O2 0.840258 0.122552 0.771479
O O3 0.941347 0.014726 0.195184
O O4 0.000000 0.000000 0.000000
O O5 0.214105 0.250000 0.607676
O O6 0.211038 0.511329 0.595327
O O7 0.363211 0.370049 0.975426
O O8 0.182996 0.388588 0.816138
O O9 0.770454 0.591584 0.800120
O O10 0.579110 0.621451 0.448102
O O11 0.667145 0.390259 0.729786
O O12 0.657946 0.448283 0.400459
O O13 0.081338 0.250000 0.843473
O O14 0.579306 0.250000 0.802485
O O15 0.468402 0.250000 0.918975
O O16 0.472815 0.750000 0.631510
O O17 0.728942 0.250000 0.359979
#
# Coordination Sequence:
#
# PCOD9163840 Si02
#       8
#     4   4   4   4   2   2   4   2
#     4  10  22  38  62  96 129 158 199 246 300 365
#     4   9  19  38  61  87 114 157 206 253 303 373
#     4  11  21  40  57  83 114 161 208 254 311 375
#     4  10  20  37  66  87 119 159 207 256 303 367
#     4  12  22  40  62  82 113 164 211 250 342 372
#     4  12  26  40  56  84 127 159 207 280 319 376
#     4  10  20  38  61  86 120 157 196 253 299 363
#     4  10  22  40  62  84 124 151 218 268 315 372
#
# _framework density 24.117374999999999
#
# number of rings (size 3 to 8) (size 9 to 14) (size 15 to 20)
#    0.462    1.231    3.077    1.846    1.077    2.462 
#    2.769    0.769    0.000    0.000    0.000    0.000 
#    0.000    0.000    0.000    0.000    0.000    0.000 
#
# Total GULP energy -144898.132658 kJ/mol
# GULP energy per Si atom -5573.005102 kJ/mol
# Density = 2.406248 g / cm^3
# Si number density = 24.117375 Si / 1000 Ang^3
#
#
#
# Elastic Constant Matrix: (Units=GPa)
#
#
# Indices 1 2 3 4 5 6 
#
# 1 109.5163 61.3899 0.6118 0.0000 -23.5742 0.0000
# 2 61.3899 221.8007 10.3684 0.0000 -21.3938 0.0000
# 3 0.6118 10.3684 34.3016 0.0000 0.2423 0.0000
# 4 0.0000 0.0000 0.0000 19.0566 0.0000 -2.4816
# 5 -23.5742 -21.3938 0.2423 0.0000 25.5602 0.0000
# 6 0.0000 0.0000 0.0000 -2.4816 0.0000 39.4503
#
#
#
# Elastic Compliance Matrix: (Units=1/GPa)
#
#
# Indices 1 2 3 4 5 6 
#
# 1 0.012625 -0.002605 0.000495 0.000000 0.009459 0.000000
# 2 -0.002605 0.005522 -0.001638 0.000000 0.002235 0.000000
# 3 0.000495 -0.001638 0.029648 0.000000 -0.001195 0.000000
# 4 0.000000 0.000000 0.000000 0.052909 0.000000 0.003328
# 5 0.009459 0.002235 -0.001195 0.000000 0.049729 0.000000
# 6 0.000000 0.000000 0.000000 0.003328 0.000000 0.025558
#
#
# Mechanical properties :
#
#
# Convention : Reuss Voigt Hill
#
# Bulk Modulus (GPa) = 24.81492 56.70653 40.76072
# Shear Modulus (GPa) = 25.39126 36.36331 30.87729
#
# Velocity S-wave (km/s) = 3.24824 3.88721 3.58200
# Velocity P-wave (km/s) = 4.93757 6.61142 5.83483
#
# Compressibility (1/GPa) = 0.04029834
#
# Stress axis : x y z
#
# Youngs Moduli (GPa) = 79.21051 181.10367 33.72906
#
# Poissons Ratio (x) = 0.47179 -0.01671
# Poissons Ratio (y) = 0.20635 0.05526
# Poissons Ratio (z) = -0.03924 0.29671
#
# Static dielectric constant tensor:
#      x y z
#    x 1.997380 0.000000 0.028850 
#    y 0.000000 2.019710 0.000000 
#    z 0.028850 0.000000 1.978170 
# 
# From -- ./inp_files/26225.got.cif
#   From: 2010.05.17/outbox.cif.g08.bks.cpg/sg11_14_cif.got.tgz:26225.got - 2010.06.03 12:22:45.
