data_PCOD9163185
_publ_section_title
;
Structure prediction by ZEFSAII (Michael W. Deem and Ramdas Pophale) SiO2 
 PCOD9163185
Probable space group: P 21/M
;
_chemical_formula_sum "Si O2"
_cell_formula_units_Z 16
_cell_length_a 6.960410
_cell_length_b 14.657950
_cell_length_c 6.878876
_cell_angle_alpha 90.000000
_cell_angle_beta 62.426907
_cell_angle_gamma 90.000000
_cell_volume 622.107735
_symmetry_space_group_name_H-M "P 21/M"
_symmetry_group_IT_number 11
_symmetry_cell_setting 'monoclinic'
loop_
_space_group_symop_operation_xyz
x,y,z
-x,1/2+y,-z
-x,-y,-z
x,1/2-y,z
loop_
_atom_site_type_symbol
_atom_site_label
_atom_site_fract_x
_atom_site_fract_y
_atom_site_fract_z
Si Si1 0.226843 0.033218 0.259962
Si Si2 0.630974 0.849677 0.139463
Si Si3 0.252218 0.585516 0.572964
Si Si4 0.119590 0.642015 0.057230
O O1 0.618839 0.917734 0.964619
O O2 0.303714 0.012258 0.443087
O O3 0.167004 0.934600 0.195002
O O4 0.004899 0.092485 0.360091
O O5 0.639351 0.750000 0.047400
O O6 0.862451 0.865530 0.132799
O O7 0.432519 0.854767 0.381346
O O8 0.243508 0.607923 0.804412
O O9 0.164169 0.750000 0.076819
#
# Coordination Sequence:
#
# PCOD9163185 Si02
#       4
#     4   4   4   4
#     4  10  22  38  60  86 114 152 194 234 282 344
#     4  10  20  36  59  86 117 151 190 237 285 337
#     4  10  20  38  59  80 112 153 188 234 290 332
#     4  10  22  38  57  86 119 151 192 237 281 337
#
# _framework density 25.719016
#
# number of rings (size 3 to 8) (size 9 to 14) (size 15 to 20)
#    0.000    2.000    0.000    4.500    0.000    7.000 
#    0.000    3.750    0.000    7.500    0.000    0.000 
#    0.000    0.000    0.000    0.000    0.000    0.000 
#
# Total GULP energy -89394.445557 kJ/mol
# GULP energy per Si atom -5587.152847 kJ/mol
# Density = 2.566048 g / cm^3
# Si number density = 25.719016 Si / 1000 Ang^3
#
#
#
# Elastic Constant Matrix: (Units=GPa)
#
#
# Indices 1 2 3 4 5 6 
#
# 1 96.5867 47.0722 42.2394 0.0000 -18.6274 0.0000
# 2 47.0722 147.2287 70.7378 0.0000 8.6547 0.0000
# 3 42.2394 70.7378 199.3282 0.0000 -6.8085 0.0000
# 4 0.0000 0.0000 0.0000 8.4068 0.0000 -30.3016
# 5 -18.6274 8.6547 -6.8085 0.0000 49.4590 0.0000
# 6 0.0000 0.0000 0.0000 -30.3016 0.0000 -8.7986
#
#
#
# Elastic Compliance Matrix: (Units=1/GPa)
#
#
# Indices 1 2 3 4 5 6 
#
# 1 0.014117 -0.004242 -0.001285 0.000000 0.005882 0.000000
# 2 -0.004242 0.009633 -0.002644 0.000000 -0.003647 0.000000
# 3 -0.001285 -0.002644 0.006256 0.000000 0.000840 0.000000
# 4 0.000000 0.000000 0.000000 0.008868 0.000000 -0.030541
# 5 0.005882 -0.003647 0.000840 0.000000 0.023188 0.000000
# 6 0.000000 0.000000 0.000000 -0.030541 0.000000 -0.008473
#
#
# Mechanical properties :
#
#
# Convention : Reuss Voigt Hill
#
# Bulk Modulus (GPa) = 73.18588 84.80470 78.99529
# Shear Modulus (GPa) = 67.12564 28.68639 47.90602
#
# Velocity S-wave (km/s) = 5.11432 3.34335 4.32055
# Velocity P-wave (km/s) = 7.96196 6.92453 7.46129
#
# Compressibility (1/GPa) = 0.01366384
#
# Stress axis : x y z
#
# Youngs Moduli (GPa) = 70.83575 103.80687 159.83778
#
# Poissons Ratio (x) = 0.44033 0.20544
# Poissons Ratio (y) = 0.30047 0.42267
# Poissons Ratio (z) = 0.09104 0.27450
#
# Static dielectric constant tensor:
#      x y z
#    x 2.126700 0.000000 -0.019170 
#    y 0.000000 2.036320 0.000000 
#    z -0.019170 0.000000 2.012830 
# 
# From -- ./inp_files/1590.got.cif
#   From: 2010.05.17/outbox.cif.g08.bks.cpg/sg11_1_cif.got.tgz:1590.got - 2010.06.03 12:22:45.
