data_PCOD9163618
_publ_section_title
;
Structure prediction by ZEFSAII (Michael W. Deem and Ramdas Pophale) SiO2 
 PCOD9163618
Probable space group: P 21/M
;
_chemical_formula_sum "Si O2"
_cell_formula_units_Z 28
_cell_length_a 20.586617
_cell_length_b 8.796187
_cell_length_c 23.548694
_cell_angle_alpha 90.000000
_cell_angle_beta 160.925803
_cell_angle_gamma 90.000000
_cell_volume 1393.535683
_symmetry_space_group_name_H-M "P 21/M"
_symmetry_group_IT_number 11
_symmetry_cell_setting 'monoclinic'
loop_
_space_group_symop_operation_xyz
x,y,z
-x,1/2+y,-z
-x,-y,-z
x,1/2-y,z
loop_
_atom_site_type_symbol
_atom_site_label
_atom_site_fract_x
_atom_site_fract_y
_atom_site_fract_z
Si Si1 0.893472 0.068186 0.466885
Si Si2 0.889009 0.931529 0.234745
Si Si3 0.152617 0.923065 0.083117
Si Si4 0.242690 0.065338 0.454520
Si Si5 0.546221 0.068480 0.887684
Si Si6 0.369120 0.068302 0.161800
Si Si7 0.559970 0.921106 0.491596
O O1 0.871090 0.250000 0.443175
O O2 0.024380 0.037942 0.631192
O O3 0.677647 0.993397 0.295675
O O4 0.000000 0.000000 0.500000
O O5 0.881927 0.750000 0.220511
O O6 0.042518 0.006153 0.317187
O O7 0.675200 0.003950 0.046184
O O8 0.093113 0.750000 0.020977
O O9 0.361979 0.917949 0.289474
O O10 0.195921 0.014899 0.061458
O O11 0.000000 0.000000 0.000000
O O12 0.253968 0.250000 0.465579
O O13 0.275878 0.014996 0.416378
O O14 0.424885 0.995938 0.641374
O O15 0.547327 0.250000 0.888023
O O16 0.645888 0.004164 0.912570
O O17 0.377904 0.250000 0.165770
O O18 0.620171 0.750000 0.555821
O O19 0.500000 0.000000 0.500000
#
# Coordination Sequence:
#
# PCOD9163618 Si02
#       7
#     4   4   4   4   4   4   4
#     4  11  25  46  72 101 136 176 217 266 327 391
#     4  11  24  42  67  99 133 171 219 269 322 387
#     4  10  21  37  55  81 116 158 207 261 321 384
#     4  10  20  37  60  87 121 163 212 264 324 389
#     4  12  25  42  68  99 133 173 219 271 326 389
#     4  11  21  37  61  88 120 163 213 267 326 390
#     4   9  20  35  53  79 113 154 201 253 309 373
#
# _framework density 20.092777000000002
#
# number of rings (size 3 to 8) (size 9 to 14) (size 15 to 20)
#    0.000    1.429    1.429    5.143    0.000    6.857 
#    0.000    2.857    0.000    0.000    0.000    0.000 
#    0.000    0.000    0.000    0.000    0.000    0.000 
#
# Total GULP energy -156520.714736 kJ/mol
# GULP energy per Si atom -5590.025526 kJ/mol
# Density = 2.004704 g / cm^3
# Si number density = 20.092777 Si / 1000 Ang^3
#
#
#
# Elastic Constant Matrix: (Units=GPa)
#
#
# Indices 1 2 3 4 5 6 
#
# 1 148.2454 75.5152 47.6544 0.0000 -2.3885 0.0000
# 2 75.5152 144.0535 58.2806 0.0000 -12.4482 0.0000
# 3 47.6544 58.2806 87.8754 0.0000 -11.9605 0.0000
# 4 0.0000 0.0000 0.0000 30.8566 0.0000 3.3979
# 5 -2.3885 -12.4482 -11.9605 0.0000 19.6648 0.0000
# 6 0.0000 0.0000 0.0000 3.3979 0.0000 31.8745
#
#
#
# Elastic Compliance Matrix: (Units=1/GPa)
#
#
# Indices 1 2 3 4 5 6 
#
# 1 0.009794 -0.004221 -0.002959 0.000000 -0.003282 0.000000
# 2 -0.004221 0.011409 -0.004759 0.000000 0.003815 0.000000
# 3 -0.002959 -0.004759 0.017097 0.000000 0.007027 0.000000
# 4 0.000000 0.000000 0.000000 0.032793 0.000000 -0.003496
# 5 -0.003282 0.003815 0.007027 0.000000 0.057143 0.000000
# 6 0.000000 0.000000 0.000000 -0.003496 0.000000 0.031746
#
#
# Mechanical properties :
#
#
# Convention : Reuss Voigt Hill
#
# Bulk Modulus (GPa) = 69.32967 82.56387 75.94677
# Shear Modulus (GPa) = 26.50202 29.72746 28.11474
#
# Velocity S-wave (km/s) = 3.63572 3.85061 3.74471
# Velocity P-wave (km/s) = 7.22525 7.80706 7.52178
#
# Compressibility (1/GPa) = 0.01442384
#
# Stress axis : x y z
#
# Youngs Moduli (GPa) = 102.10645 87.64713 58.49091
#
# Poissons Ratio (x) = 0.36993 0.17305
# Poissons Ratio (y) = 0.43096 0.27835
# Poissons Ratio (z) = 0.30208 0.41709
#
# Static dielectric constant tensor:
#      x y z
#    x 1.706190 0.000000 -0.003390 
#    y 0.000000 1.679880 0.000000 
#    z -0.003390 0.000000 1.738740 
# 
# From -- ./inp_files/69822.got.cif
#   From: 2010.05.17/outbox.cif.g08.bks.cpg/sg11_35_cif.got.tgz:69822.got - 2010.06.03 12:22:45.
