data_PCOD9163177
_publ_section_title
;
Structure prediction by ZEFSAII (Michael W. Deem and Ramdas Pophale) SiO2 
 PCOD9163177
Probable space group: P 21/M
;
_chemical_formula_sum "Si O2"
_cell_formula_units_Z 32
_cell_length_a 15.649688
_cell_length_b 8.657808
_cell_length_c 12.031248
_cell_angle_alpha 90.000000
_cell_angle_beta 85.954325
_cell_angle_gamma 90.000000
_cell_volume 1626.075682
_symmetry_space_group_name_H-M "P 21/M"
_symmetry_group_IT_number 11
_symmetry_cell_setting 'monoclinic'
loop_
_space_group_symop_operation_xyz
x,y,z
-x,1/2+y,-z
-x,-y,-z
x,1/2-y,z
loop_
_atom_site_type_symbol
_atom_site_label
_atom_site_fract_x
_atom_site_fract_y
_atom_site_fract_z
Si Si1 0.077181 0.435673 0.918411
Si Si2 0.042022 0.436110 0.666985
Si Si3 0.129869 0.566230 0.438375
Si Si4 0.262522 0.564555 0.941055
Si Si5 0.460670 0.437487 0.316319
Si Si6 0.343424 0.936122 0.696455
Si Si7 0.584009 0.935371 0.930373
Si Si8 0.302585 0.434148 0.471399
O O1 0.075490 0.250000 0.920881
O O2 0.167682 0.496132 0.955980
O O3 0.066457 0.484482 0.789494
O O4 0.000000 0.500000 0.000000
O O5 0.051806 0.250000 0.658715
O O6 0.943500 0.474073 0.644314
O O7 0.096463 0.510031 0.562161
O O8 0.138841 0.750000 0.439782
O O9 0.221517 0.490668 0.408884
O O10 0.258900 0.750000 0.947604
O O11 0.301727 0.520107 0.817148
O O12 0.329871 0.502469 0.024569
O O13 0.463632 0.250000 0.322337
O O14 0.558092 0.491947 0.319069
O O15 0.425964 0.477203 0.197799
O O16 0.392515 0.492769 0.413085
O O17 0.342877 0.750000 0.690249
O O18 0.293929 0.003813 0.596640
O O19 0.584119 0.750000 0.939943
O O20 0.500000 0.000000 0.000000
O O21 0.303779 0.250000 0.472213
#
# Coordination Sequence:
#
# PCOD9163177 Si02
#       8
#     4   4   4   4   4   4   4   4
#     4  11  24  42  62  88 122 157 196 247 299 355
#     4   9  20  39  62  86 113 146 192 243 289 344
#     4  10  20  36  59  86 115 149 187 235 292 350
#     4  11  23  40  63  90 119 157 200 246 298 354
#     4   9  20  38  57  81 116 154 191 239 294 344
#     4  10  20  38  60  82 115 154 194 241 292 346
#     4  11  21  39  63  88 118 154 199 249 298 351
#     4  11  22  35  54  83 118 153 192 236 285 347
#
# _framework density 19.679281
#
# number of rings (size 3 to 8) (size 9 to 14) (size 15 to 20)
#    0.000    1.750    1.250    3.000    0.000    5.500 
#    0.000    5.625    0.000    0.000    0.000    0.000 
#    0.000    0.000    0.000    0.000    0.000    0.000 
#
# Total GULP energy -178812.688316 kJ/mol
# GULP energy per Si atom -5587.896510 kJ/mol
# Density = 1.963449 g / cm^3
# Si number density = 19.679281 Si / 1000 Ang^3
#
#
#
# Elastic Constant Matrix: (Units=GPa)
#
#
# Indices 1 2 3 4 5 6 
#
# 1 136.3136 23.4113 14.6433 0.0000 15.5873 0.0000
# 2 23.4113 26.7946 12.9603 0.0000 4.2222 0.0000
# 3 14.6433 12.9603 45.6919 0.0000 20.1644 0.0000
# 4 0.0000 0.0000 0.0000 20.9420 0.0000 2.1971
# 5 15.5873 4.2222 20.1644 0.0000 28.5890 0.0000
# 6 0.0000 0.0000 0.0000 2.1971 0.0000 35.4910
#
#
#
# Elastic Compliance Matrix: (Units=1/GPa)
#
#
# Indices 1 2 3 4 5 6 
#
# 1 0.009084 -0.007878 0.001446 0.000000 -0.004809 0.000000
# 2 -0.007878 0.050302 -0.015042 0.000000 0.007476 0.000000
# 3 0.001446 -0.015042 0.036381 0.000000 -0.024227 0.000000
# 4 0.000000 0.000000 0.000000 0.048063 0.000000 -0.002975
# 5 -0.004809 0.007476 -0.024227 0.000000 0.053584 0.000000
# 6 0.000000 0.000000 0.000000 -0.002975 0.000000 0.028360
#
#
# Mechanical properties :
#
#
# Convention : Reuss Voigt Hill
#
# Bulk Modulus (GPa) = 18.93349 34.53664 26.73506
# Shear Modulus (GPa) = 17.46242 27.52340 22.49291
#
# Velocity S-wave (km/s) = 2.98207 3.74384 3.38446
# Velocity P-wave (km/s) = 4.63669 6.02298 5.37472
#
# Compressibility (1/GPa) = 0.05281648
#
# Stress axis : x y z
#
# Youngs Moduli (GPa) = 110.08803 19.87991 27.48710
#
# Poissons Ratio (x) = 0.15662 -0.03974
# Poissons Ratio (y) = 0.86729 0.41347
# Poissons Ratio (z) = -0.15915 0.29904
#
# Static dielectric constant tensor:
#      x y z
#    x 1.696170 0.000000 -0.001560 
#    y 0.000000 1.703010 0.000000 
#    z -0.001560 0.000000 1.669370 
# 
# From -- ./inp_files/38093.got.cif
#   From: 2010.05.17/outbox.cif.g08.bks.cpg/sg11_20_cif.got.tgz:38093.got - 2010.06.03 12:22:45.
