data_PCOD9163664
_publ_section_title
;
Structure prediction by ZEFSAII (Michael W. Deem and Ramdas Pophale) SiO2 
 PCOD9163664
Probable space group: P 21/M
;
_chemical_formula_sum "Si O2"
_cell_formula_units_Z 28
_cell_length_a 16.807729
_cell_length_b 8.985233
_cell_length_c 14.393256
_cell_angle_alpha 90.000000
_cell_angle_beta 45.644342
_cell_angle_gamma 90.000000
_cell_volume 1554.218028
_symmetry_space_group_name_H-M "P 21/M"
_symmetry_group_IT_number 11
_symmetry_cell_setting 'monoclinic'
loop_
_space_group_symop_operation_xyz
x,y,z
-x,1/2+y,-z
-x,-y,-z
x,1/2-y,z
loop_
_atom_site_type_symbol
_atom_site_label
_atom_site_fract_x
_atom_site_fract_y
_atom_site_fract_z
Si Si1 0.872190 0.928121 0.508721
Si Si2 0.450106 0.427615 0.738855
Si Si3 0.102103 0.577616 0.967795
Si Si4 0.674810 0.928123 0.530846
Si Si5 0.669114 0.422981 0.334192
Si Si6 0.130560 0.927528 0.290698
Si Si7 0.226637 0.072426 0.033163
O O1 0.866832 0.750000 0.528903
O O2 0.784834 0.965769 0.499726
O O3 0.999967 0.964022 0.378929
O O4 0.844541 0.010857 0.627120
O O5 0.464289 0.250000 0.723319
O O6 0.564718 0.508002 0.670114
O O7 0.411851 0.489230 0.669501
O O8 0.348817 0.462020 0.891709
O O9 0.076253 0.750000 0.008693
O O10 0.209789 0.571946 0.813056
O O11 0.138409 0.495630 0.032360
O O12 0.000000 0.500000 0.000000
O O13 0.667633 0.750000 0.528051
O O14 0.676804 0.002465 0.428047
O O15 0.634748 0.250000 0.369316
O O16 0.143137 0.750000 0.277767
O O17 0.204371 0.002809 0.151400
O O18 0.214738 0.250000 0.045675
#
# Coordination Sequence:
#
# PCOD9163664 Si02
#       7
#     4   4   4   4   4   4   4
#     4   9  21  39  57  83 113 144 180 226 279 331
#     4  10  21  38  57  80 111 148 189 230 274 326
#     4  10  21  35  52  79 113 147 186 229 271 326
#     4  11  22  36  57  82 112 147 186 231 278 326
#     4  10  21  36  54  79 111 149 189 226 273 327
#     4  10  20  37  61  86 111 143 181 227 280 334
#     4  10  21  37  58  81 109 148 185 225 279 332
#
# _framework density 18.015491000000001
#
# number of rings (size 3 to 8) (size 9 to 14) (size 15 to 20)
#    0.000    2.000    0.000    3.000    2.000    5.143 
#    0.000    0.714    0.000    0.000    0.000    0.000 
#    0.000    0.000    0.000    0.000    0.000    0.000 
#
# Total GULP energy -156418.965414 kJ/mol
# GULP energy per Si atom -5586.391622 kJ/mol
# Density = 1.797449 g / cm^3
# Si number density = 18.015491 Si / 1000 Ang^3
#
#
#
# Elastic Constant Matrix: (Units=GPa)
#
#
# Indices 1 2 3 4 5 6 
#
# 1 65.6200 30.0563 26.3931 0.0000 2.2918 0.0000
# 2 30.0563 70.8363 45.0043 0.0000 6.7441 0.0000
# 3 26.3931 45.0043 94.6988 0.0000 20.2965 0.0000
# 4 0.0000 0.0000 0.0000 34.7327 0.0000 1.7625
# 5 2.2918 6.7441 20.2965 0.0000 12.8841 0.0000
# 6 0.0000 0.0000 0.0000 1.7625 0.0000 31.0321
#
#
#
# Elastic Compliance Matrix: (Units=1/GPa)
#
#
# Indices 1 2 3 4 5 6 
#
# 1 0.019452 -0.006570 -0.003464 0.000000 0.005436 0.000000
# 2 -0.006570 0.022854 -0.010140 0.000000 0.005180 0.000000
# 3 -0.003464 -0.010140 0.022759 0.000000 -0.029928 0.000000
# 4 0.000000 0.000000 0.000000 0.028875 0.000000 -0.001640
# 5 0.005436 0.005180 -0.029928 0.000000 0.121082 0.000000
# 6 0.000000 0.000000 0.000000 -0.001640 0.000000 0.032318
#
#
# Mechanical properties :
#
#
# Convention : Reuss Voigt Hill
#
# Bulk Modulus (GPa) = 40.45995 48.22918 44.34456
# Shear Modulus (GPa) = 16.89606 24.37653 20.63629
#
# Velocity S-wave (km/s) = 3.06578 3.68242 3.38816
# Velocity P-wave (km/s) = 5.91939 6.70145 6.32252
#
# Compressibility (1/GPa) = 0.02471580
#
# Stress axis : x y z
#
# Youngs Moduli (GPa) = 51.40820 43.75597 43.93963
#
# Poissons Ratio (x) = 0.28750 0.15221
# Poissons Ratio (y) = 0.33777 0.44555
# Poissons Ratio (z) = 0.17808 0.44369
#
# Static dielectric constant tensor:
#      x y z
#    x 1.590840 0.000000 -0.022970 
#    y 0.000000 1.600710 0.000000 
#    z -0.022970 0.000000 1.615390 
# 
# From -- ./inp_files/37862.got.cif
#   From: 2010.05.17/outbox.cif.g08.bks.cpg/sg11_19_cif.got.tgz:37862.got - 2010.06.03 12:22:45.
