data_PCOD9163680
_publ_section_title
;
Structure prediction by ZEFSAII (Michael W. Deem and Ramdas Pophale) SiO2 
 PCOD9163680
Probable space group: P 21/M
;
_chemical_formula_sum "Si O2"
_cell_formula_units_Z 32
_cell_length_a 27.800773
_cell_length_b 7.671462
_cell_length_c 11.753058
_cell_angle_alpha 90.000000
_cell_angle_beta 145.148529
_cell_angle_gamma 90.000000
_cell_volume 1432.401911
_symmetry_space_group_name_H-M "P 21/M"
_symmetry_group_IT_number 11
_symmetry_cell_setting 'monoclinic'
loop_
_space_group_symop_operation_xyz
x,y,z
-x,1/2+y,-z
-x,-y,-z
x,1/2-y,z
loop_
_atom_site_type_symbol
_atom_site_label
_atom_site_fract_x
_atom_site_fract_y
_atom_site_fract_z
Si Si1 0.586360 0.551818 0.104773
Si Si2 0.616576 0.038299 0.664088
Si Si3 0.450195 0.952816 0.221073
Si Si4 0.878694 0.461870 0.930909
Si Si5 0.194042 0.962322 0.975915
Si Si6 0.770238 0.955582 0.514458
Si Si7 0.926134 0.457889 0.445529
Si Si8 0.938303 0.951114 0.727404
O O1 0.596428 0.750000 0.160142
O O2 0.677252 0.467626 0.311969
O O3 0.500000 0.500000 0.000000
O O4 0.572944 0.538350 0.943049
O O5 0.611383 0.250000 0.653138
O O6 0.593263 0.979644 0.747257
O O7 0.710693 0.983278 0.820046
O O8 0.548588 0.970939 0.442591
O O9 0.427973 0.750000 0.166311
O O10 0.880155 0.250000 0.931655
O O11 0.863464 0.519271 0.030726
O O12 0.801575 0.523475 0.704272
O O13 0.969606 0.526686 0.063788
O O14 0.192483 0.750000 0.972780
O O15 0.157554 0.016292 0.783803
O O16 0.766762 0.750000 0.476872
O O17 0.851179 0.031982 0.603424
O O18 0.923674 0.250000 0.458750
O O19 0.936317 0.544623 0.586721
O O20 0.000000 0.500000 0.500000
O O21 0.939110 0.750000 0.766739
#
# Coordination Sequence:
#
# PCOD9163680 Si02
#       8
#     4   4   4   4   4   4   4   4
#     4  11  25  44  63  86 118 156 197 247 303 358
#     4   9  19  37  61  87 119 155 192 238 291 349
#     4  10  21  38  61  89 119 151 193 242 294 353
#     4  10  20  37  61  86 119 158 198 239 287 347
#     4   9  19  35  56  85 117 153 192 236 287 343
#     4  10  24  42  61  87 119 152 196 250 299 347
#     4  11  21  36  58  85 120 157 196 237 284 344
#     4  10  21  40  61  86 122 157 192 243 297 350
#
# _framework density 22.340098999999999
#
# number of rings (size 3 to 8) (size 9 to 14) (size 15 to 20)
#    0.000    2.000    1.250    1.500    3.500    2.500 
#    0.000    1.250    0.000    0.000    0.000    0.000 
#    0.000    0.000    0.000    0.000    0.000    0.000 
#
# Total GULP energy -178662.769137 kJ/mol
# GULP energy per Si atom -5583.211536 kJ/mol
# Density = 2.228925 g / cm^3
# Si number density = 22.340099 Si / 1000 Ang^3
#
#
#
# Elastic Constant Matrix: (Units=GPa)
#
#
# Indices 1 2 3 4 5 6 
#
# 1 62.8629 3.7822 57.5828 0.0000 12.3992 0.0000
# 2 3.7822 43.3553 -4.5849 0.0000 10.4732 0.0000
# 3 57.5828 -4.5849 152.3962 0.0000 20.4477 0.0000
# 4 0.0000 0.0000 0.0000 22.2924 0.0000 -5.7643
# 5 12.3992 10.4732 20.4477 0.0000 42.2704 0.0000
# 6 0.0000 0.0000 0.0000 -5.7643 0.0000 20.0123
#
#
#
# Elastic Compliance Matrix: (Units=1/GPa)
#
#
# Indices 1 2 3 4 5 6 
#
# 1 0.024930 -0.002613 -0.009201 0.000000 -0.002214 0.000000
# 2 -0.002613 0.025207 0.002653 0.000000 -0.006762 0.000000
# 3 -0.009201 0.002653 0.010528 0.000000 -0.003051 0.000000
# 4 0.000000 0.000000 0.000000 0.048468 0.000000 0.013961
# 5 -0.002214 -0.006762 -0.003051 0.000000 0.027458 0.000000
# 6 0.000000 0.000000 0.000000 0.013961 0.000000 0.053991
#
#
# Mechanical properties :
#
#
# Convention : Reuss Voigt Hill
#
# Bulk Modulus (GPa) = 23.61685 41.35273 32.48479
# Shear Modulus (GPa) = 22.41965 30.37064 26.39515
#
# Velocity S-wave (km/s) = 3.17134 3.69110 3.44105
# Velocity P-wave (km/s) = 4.89942 6.05940 5.51002
#
# Compressibility (1/GPa) = 0.04234264
#
# Stress axis : x y z
#
# Youngs Moduli (GPa) = 40.11220 39.67101 94.98730
#
# Poissons Ratio (x) = 0.10366 0.87401
# Poissons Ratio (y) = 0.10481 -0.25200
# Poissons Ratio (z) = 0.36908 -0.10525
#
# Static dielectric constant tensor:
#      x y z
#    x 1.827040 0.000000 0.041830 
#    y 0.000000 1.850080 0.000000 
#    z 0.041830 0.000000 1.835850 
# 
# From -- ./inp_files/45340.got.cif
#   From: 2010.05.17/outbox.cif.g08.bks.cpg/sg11_23_cif.got.tgz:45340.got - 2010.06.03 12:22:45.
