data_PCOD9163331
_publ_section_title
;
Structure prediction by ZEFSAII (Michael W. Deem and Ramdas Pophale) SiO2 
 PCOD9163331
Probable space group: P 21/M
;
_chemical_formula_sum "Si O2"
_cell_formula_units_Z 24
_cell_length_a 5.231483
_cell_length_b 20.558625
_cell_length_c 11.873118
_cell_angle_alpha 90.000000
_cell_angle_beta 131.031562
_cell_angle_gamma 90.000000
_cell_volume 963.286447
_symmetry_space_group_name_H-M "P 21/M"
_symmetry_group_IT_number 11
_symmetry_cell_setting 'monoclinic'
loop_
_space_group_symop_operation_xyz
x,y,z
-x,1/2+y,-z
-x,-y,-z
x,1/2-y,z
loop_
_atom_site_type_symbol
_atom_site_label
_atom_site_fract_x
_atom_site_fract_y
_atom_site_fract_z
Si Si1 0.762905 0.250000 0.950234
Si Si2 0.737551 0.854361 0.290806
Si Si3 0.651362 0.381219 0.644639
Si Si4 0.210464 0.612154 0.829159
Si Si5 0.954507 0.010977 0.619581
Si Si6 0.013859 0.076754 0.982952
Si Si7 0.414620 0.750000 0.844602
O O1 0.572699 0.189756 0.837028
O O2 0.177568 0.250000 0.068824
O O3 0.600134 0.250000 0.025179
O O4 0.703437 0.854139 0.415537
O O5 0.091707 0.831600 0.339889
O O6 0.769879 0.931330 0.266990
O O7 0.963938 0.052648 0.286309
O O8 0.632173 0.443723 0.559144
O O9 0.815230 0.407629 0.808895
O O10 0.608139 0.596937 0.940980
O O11 0.210596 0.682456 0.765936
O O12 0.076994 0.609277 0.920527
O O13 0.000000 0.000000 0.500000
O O14 0.000000 0.000000 0.000000
#
# Coordination Sequence:
#
# PCOD9163331 Si02
#       7
#     2   4   4   4   4   4   2
#     4  12  22  42  63  95 138 166 206 260 330 412
#     4  10  21  38  62  93 124 165 212 260 322 372
#     4  10  20  36  60  95 121 161 203 259 332 368
#     4  12  25  39  62  93 133 167 210 263 326 395
#     4  10  25  44  65  93 126 174 225 273 307 368
#     4  12  20  36  62  96 125 158 201 266 330 387
#     4  12  26  38  61  95 134 176 196 262 342 402
#
# _framework density 24.914708999999998
#
# number of rings (size 3 to 8) (size 9 to 14) (size 15 to 20)
#    1.000    0.000    1.667    7.500    0.000    0.667 
#    0.000    0.833    0.000    0.000    0.000    0.000 
#    0.000    0.000    0.000    0.000    0.000    0.000 
#
# Total GULP energy -133642.027745 kJ/mol
# GULP energy per Si atom -5568.417823 kJ/mol
# Density = 2.485800 g / cm^3
# Si number density = 24.914709 Si / 1000 Ang^3
#
#
#
# Elastic Constant Matrix: (Units=GPa)
#
#
# Indices 1 2 3 4 5 6 
#
# 1 184.4922 11.3427 26.0282 0.0000 -34.7854 0.0000
# 2 11.3427 131.8617 36.6900 0.0000 -1.8009 0.0000
# 3 26.0282 36.6900 83.7583 0.0000 -13.6605 0.0000
# 4 0.0000 0.0000 0.0000 28.4857 0.0000 1.8068
# 5 -34.7854 -1.8009 -13.6605 0.0000 32.1376 0.0000
# 6 0.0000 0.0000 0.0000 1.8068 0.0000 27.8678
#
#
#
# Elastic Compliance Matrix: (Units=1/GPa)
#
#
# Indices 1 2 3 4 5 6 
#
# 1 0.006893 -0.000252 -0.000878 0.000000 0.007074 0.000000
# 2 -0.000252 0.008689 -0.003968 0.000000 -0.001473 0.000000
# 3 -0.000878 -0.003968 0.014784 0.000000 0.005111 0.000000
# 4 0.000000 0.000000 0.000000 0.035250 0.000000 -0.002285
# 5 0.007074 -0.001473 0.005111 0.000000 0.040863 0.000000
# 6 0.000000 0.000000 0.000000 -0.002285 0.000000 0.036032
#
#
# Mechanical properties :
#
#
# Convention : Reuss Voigt Hill
#
# Bulk Modulus (GPa) = 49.57822 60.91488 55.24655
# Shear Modulus (GPa) = 31.36134 39.43499 35.39816
#
# Velocity S-wave (km/s) = 3.55173 3.98276 3.77340
# Velocity P-wave (km/s) = 6.06318 6.75664 6.41928
#
# Compressibility (1/GPa) = 0.02017015
#
# Stress axis : x y z
#
# Youngs Moduli (GPa) = 145.06548 115.08257 67.64140
#
# Poissons Ratio (x) = 0.02901 0.05939
# Poissons Ratio (y) = 0.03656 0.26842
# Poissons Ratio (z) = 0.12737 0.45667
#
# Static dielectric constant tensor:
#      x y z
#    x 2.365980 0.000000 0.175740 
#    y 0.000000 2.303940 0.000000 
#    z 0.175740 0.000000 2.052260 
# 
# From -- ./inp_files/56891.got.cif
#   From: 2010.05.17/outbox.cif.g08.bks.cpg/sg11_29_cif.got.tgz:56891.got - 2010.06.03 12:22:45.
