data_PCOD9163146
_publ_section_title
;
Structure prediction by ZEFSAII (Michael W. Deem and Ramdas Pophale) SiO2 
 PCOD9163146
Probable space group: P 21/M
;
_chemical_formula_sum "Si O2"
_cell_formula_units_Z 28
_cell_length_a 14.638998
_cell_length_b 7.696099
_cell_length_c 17.677386
_cell_angle_alpha 90.000000
_cell_angle_beta 139.994919
_cell_angle_gamma 90.000000
_cell_volume 1280.304976
_symmetry_space_group_name_H-M "P 21/M"
_symmetry_group_IT_number 11
_symmetry_cell_setting 'monoclinic'
loop_
_space_group_symop_operation_xyz
x,y,z
-x,1/2+y,-z
-x,-y,-z
x,1/2-y,z
loop_
_atom_site_type_symbol
_atom_site_label
_atom_site_fract_x
_atom_site_fract_y
_atom_site_fract_z
Si Si1 0.059154 0.555523 0.456594
Si Si2 0.078664 0.956260 0.307906
Si Si3 0.327413 0.538535 0.203893
Si Si4 0.622998 0.539168 0.311949
Si Si5 0.337611 0.540861 0.379457
Si Si6 0.821728 0.460372 0.040062
Si Si7 0.533205 0.042255 0.935141
O O1 0.003535 0.750000 0.415082
O O2 0.025343 0.467419 0.354245
O O3 0.229962 0.543474 0.569625
O O4 0.000000 0.500000 0.500000
O O5 0.099025 0.750000 0.333406
O O6 0.228444 0.028105 0.372898
O O7 0.964940 0.977682 0.169398
O O8 0.324815 0.750000 0.202576
O O9 0.486268 0.491998 0.276152
O O10 0.301013 0.476474 0.271871
O O11 0.215603 0.482211 0.068889
O O12 0.638931 0.750000 0.324571
O O13 0.581701 0.484432 0.200179
O O14 0.500000 0.500000 0.500000
O O15 0.323435 0.750000 0.369064
O O16 0.824398 0.250000 0.041897
O O17 0.687685 0.520105 0.005852
O O18 0.536682 0.250000 0.930152
O O19 0.500000 0.000000 0.000000
#
# Coordination Sequence:
#
# PCOD9163146 Si02
#       7
#     4   4   4   4   4   4   4
#     4  11  24  39  54  75 107 145 184 228 277 329
#     4  10  23  39  54  80 116 145 177 231 284 321
#     4   8  16  34  59  83 111 145 179 220 270 323
#     4   9  18  35  56  79 106 137 177 224 271 321
#     4  10  20  36  59  85 113 146 183 225 274 326
#     4   9  19  36  56  80 110 146 187 222 262 329
#     4   9  19  33  52  78 106 137 177 226 270 316
#
# _framework density 21.869789000000001
#
# number of rings (size 3 to 8) (size 9 to 14) (size 15 to 20)
#    0.000    2.571    0.000    3.000    2.000    3.429 
#    0.000    2.857    0.000    0.000    0.000    0.000 
#    0.000    0.000    0.000    0.000    0.000    0.000 
#
# Total GULP energy -156266.858864 kJ/mol
# GULP energy per Si atom -5580.959245 kJ/mol
# Density = 2.182001 g / cm^3
# Si number density = 21.869789 Si / 1000 Ang^3
#
#
#
# Elastic Constant Matrix: (Units=GPa)
#
#
# Indices 1 2 3 4 5 6 
#
# 1 123.3745 12.2308 50.6863 0.0000 -39.0946 0.0000
# 2 12.2308 29.2800 -9.5292 0.0000 -8.3848 0.0000
# 3 50.6863 -9.5292 92.5517 0.0000 -12.8907 0.0000
# 4 0.0000 0.0000 0.0000 24.9712 0.0000 3.2045
# 5 -39.0946 -8.3848 -12.8907 0.0000 34.2425 0.0000
# 6 0.0000 0.0000 0.0000 3.2045 0.0000 14.2630
#
#
#
# Elastic Compliance Matrix: (Units=1/GPa)
#
#
# Indices 1 2 3 4 5 6 
#
# 1 0.016246 -0.005029 -0.007391 0.000000 0.014534 0.000000
# 2 -0.005029 0.040940 0.007985 0.000000 0.007288 0.000000
# 3 -0.007391 0.007985 0.015589 0.000000 -0.000614 0.000000
# 4 0.000000 0.000000 0.000000 0.041235 0.000000 -0.009264
# 5 0.014534 0.007288 -0.000614 0.000000 0.047350 0.000000
# 6 0.000000 0.000000 0.000000 -0.009264 0.000000 0.072193
#
#
# Mechanical properties :
#
#
# Convention : Reuss Voigt Hill
#
# Bulk Modulus (GPa) = 15.64852 39.10912 27.37882
# Shear Modulus (GPa) = 18.95919 27.48324 23.22121
#
# Velocity S-wave (km/s) = 2.94753 3.54881 3.26205
# Velocity P-wave (km/s) = 4.33068 5.89182 5.17051
#
# Compressibility (1/GPa) = 0.06390380
#
# Stress axis : x y z
#
# Youngs Moduli (GPa) = 61.55428 24.42613 64.14855
#
# Poissons Ratio (x) = 0.12285 0.47410
# Poissons Ratio (y) = 0.30958 -0.51221
# Poissons Ratio (z) = 0.45492 -0.19504
#
# Static dielectric constant tensor:
#      x y z
#    x 1.832440 0.000000 -0.041930 
#    y 0.000000 2.613440 0.000000 
#    z -0.041930 0.000000 1.789800 
# 
# From -- ./inp_files/60140.got.cif
#   From: 2010.05.17/outbox.cif.g08.bks.cpg/sg11_31_cif.got.tgz:60140.got - 2010.06.03 12:22:45.
