data_PCOD9163305
_publ_section_title
;
Structure prediction by ZEFSAII (Michael W. Deem and Ramdas Pophale) SiO2 
 PCOD9163305
Probable space group: P 21/M
;
_chemical_formula_sum "Si O2"
_cell_formula_units_Z 32
_cell_length_a 20.332847
_cell_length_b 8.465344
_cell_length_c 25.986136
_cell_angle_alpha 90.000000
_cell_angle_beta 21.713485
_cell_angle_gamma 90.000000
_cell_volume 1654.800526
_symmetry_space_group_name_H-M "P 21/M"
_symmetry_group_IT_number 11
_symmetry_cell_setting 'monoclinic'
loop_
_space_group_symop_operation_xyz
x,y,z
-x,1/2+y,-z
-x,-y,-z
x,1/2-y,z
loop_
_atom_site_type_symbol
_atom_site_label
_atom_site_fract_x
_atom_site_fract_y
_atom_site_fract_z
Si Si1 0.550958 0.059966 0.605723
Si Si2 0.829789 0.439203 0.093554
Si Si3 0.432693 0.439594 0.103577
Si Si4 0.672317 0.442811 0.629457
Si Si5 0.034622 0.059316 0.417615
Si Si6 0.328482 0.559973 0.593195
Si Si7 0.387343 0.439414 0.923688
Si Si8 0.062572 0.560780 0.098692
O O1 0.560465 0.250000 0.599502
O O2 0.626320 0.001450 0.605555
O O3 0.648383 0.006832 0.483077
O O4 0.346452 0.009397 0.753338
O O5 0.821979 0.250000 0.100994
O O6 0.850982 0.489632 0.018647
O O7 0.000000 0.500000 0.000000
O O8 0.435745 0.250000 0.101909
O O9 0.228806 0.494313 0.259044
O O10 0.547291 0.499884 0.068628
O O11 0.500000 0.500000 0.000000
O O12 0.667808 0.250000 0.632420
O O13 0.528368 0.493532 0.777054
O O14 0.869008 0.493059 0.503272
O O15 0.034420 0.250000 0.417790
O O16 0.000000 0.000000 0.500000
O O17 0.500000 0.500000 0.500000
O O18 0.328748 0.750000 0.594902
O O19 0.139210 0.499658 0.751219
O O20 0.388705 0.250000 0.923328
O O21 0.192409 0.497125 0.048699
O O22 0.060352 0.750000 0.101903
#
# Coordination Sequence:
#
# PCOD9163305 Si02
#       8
#     4   4   4   4   4   4   4   4
#     4  10  21  39  61  87 117 152 199 251 300 357
#     4  11  23  37  58  87 118 154 198 249 301 359
#     4  11  24  40  61  91 130 168 208 256 304 363
#     4   9  18  35  61  89 117 151 196 249 303 360
#     4  10  20  36  60  89 119 158 203 251 302 360
#     4  11  24  41  63  89 122 164 207 253 310 370
#     4  11  21  38  66  91 120 162 202 251 313 370
#     4  11  24  41  61  89 125 161 203 251 305 370
#
# _framework density 19.337679000000001
#
# number of rings (size 3 to 8) (size 9 to 14) (size 15 to 20)
#    0.000    1.500    2.500    2.625    0.000    7.000 
#    0.000    3.125    0.000    0.000    0.000    0.000 
#    0.000    0.000    0.000    0.000    0.000    0.000 
#
# Total GULP energy -178820.227517 kJ/mol
# GULP energy per Si atom -5588.132110 kJ/mol
# Density = 1.929367 g / cm^3
# Si number density = 19.337679 Si / 1000 Ang^3
#
#
#
# Elastic Constant Matrix: (Units=GPa)
#
#
# Indices 1 2 3 4 5 6 
#
# 1 94.1293 16.2283 15.3333 0.0000 -6.9411 0.0000
# 2 16.2283 24.7624 15.0584 0.0000 2.7786 0.0000
# 3 15.3333 15.0584 91.9580 0.0000 -2.0806 0.0000
# 4 0.0000 0.0000 0.0000 26.6290 0.0000 -0.6388
# 5 -6.9411 2.7786 -2.0806 0.0000 43.0929 0.0000
# 6 0.0000 0.0000 0.0000 -0.6388 0.0000 29.9160
#
#
#
# Elastic Compliance Matrix: (Units=1/GPa)
#
#
# Indices 1 2 3 4 5 6 
#
# 1 0.012280 -0.007898 -0.000699 0.000000 0.002454 0.000000
# 2 -0.007898 0.050389 -0.007044 0.000000 -0.004861 0.000000
# 3 -0.000699 -0.007044 0.012166 0.000000 0.000929 0.000000
# 4 0.000000 0.000000 0.000000 0.037572 0.000000 0.000802
# 5 0.002454 -0.004861 0.000929 0.000000 0.023959 0.000000
# 6 0.000000 0.000000 0.000000 0.000802 0.000000 0.033444
#
#
# Mechanical properties :
#
#
# Convention : Reuss Voigt Hill
#
# Bulk Modulus (GPa) = 22.96095 33.78773 28.37434
# Shear Modulus (GPa) = 23.18991 30.87622 27.03307
#
# Velocity S-wave (km/s) = 3.46672 4.00019 3.74297
# Velocity P-wave (km/s) = 5.28428 6.23264 5.77795
#
# Compressibility (1/GPa) = 0.04355221
#
# Stress axis : x y z
#
# Youngs Moduli (GPa) = 81.43230 19.84544 82.19900
#
# Poissons Ratio (x) = 0.15675 0.05744
# Poissons Ratio (y) = 0.64318 0.57904
# Poissons Ratio (z) = 0.05690 0.13980
#
# Static dielectric constant tensor:
#      x y z
#    x 1.665850 0.000000 0.009810 
#    y 0.000000 1.618140 0.000000 
#    z 0.009810 0.000000 1.612590 
# 
# From -- ./inp_files/72055.got.cif
#   From: 2010.05.17/outbox.cif.g08.bks.cpg/sg11_37_cif.got.tgz:72055.got - 2010.06.03 12:22:45.
