data_PCOD9163138
_publ_section_title
;
Structure prediction by ZEFSAII (Michael W. Deem and Ramdas Pophale) SiO2 
 PCOD9163138
Probable space group: P 21/M
;
_chemical_formula_sum "Si O2"
_cell_formula_units_Z 32
_cell_length_a 8.349974
_cell_length_b 12.469046
_cell_length_c 14.068689
_cell_angle_alpha 90.000000
_cell_angle_beta 88.381594
_cell_angle_gamma 90.000000
_cell_volume 1464.194268
_symmetry_space_group_name_H-M "P 21/M"
_symmetry_group_IT_number 11
_symmetry_cell_setting 'monoclinic'
loop_
_space_group_symop_operation_xyz
x,y,z
-x,1/2+y,-z
-x,-y,-z
x,1/2-y,z
loop_
_atom_site_type_symbol
_atom_site_label
_atom_site_fract_x
_atom_site_fract_y
_atom_site_fract_z
Si Si1 0.154792 0.630953 0.206063
Si Si2 0.281595 0.373384 0.562713
Si Si3 0.690429 0.624524 0.651596
Si Si4 0.625106 0.951647 0.072159
Si Si5 0.122162 0.441102 0.067463
Si Si6 0.039145 0.986911 0.661675
Si Si7 0.523588 0.074939 0.729108
Si Si8 0.174710 0.868151 0.822262
O O1 0.128807 0.750000 0.167294
O O2 0.194224 0.539042 0.128329
O O3 0.303804 0.631953 0.275862
O O4 0.002260 0.583917 0.264028
O O5 0.223746 0.250000 0.568683
O O6 0.360526 0.385967 0.457889
O O7 0.134388 0.456142 0.575931
O O8 0.405019 0.393431 0.646659
O O9 0.691804 0.750000 0.678253
O O10 0.574193 0.550484 0.716733
O O11 0.871718 0.575614 0.650714
O O12 0.549713 0.897851 0.166398
O O13 0.724366 0.049378 0.117420
O O14 0.747651 0.887168 0.002495
O O15 0.500000 0.000000 0.000000
O O16 0.009600 0.371318 0.136811
O O17 0.000000 0.500000 0.000000
O O18 0.160389 0.908946 0.714991
O O19 0.240834 0.750000 0.828949
#
# Coordination Sequence:
#
# PCOD9163138 Si02
#       8
#     4   4   4   4   4   4   4   4
#     4  10  20  36  59  84 114 160 201 240 301 362
#     4  11  22  40  64  94 124 158 205 256 309 369
#     4  10  23  41  65  92 123 162 203 249 312 373
#     4  11  21  40  60  84 125 157 200 254 298 354
#     4   9  20  36  56  80 116 152 194 252 291 345
#     4  10  20  39  63  89 122 156 200 259 304 358
#     4  11  22  40  62  87 128 161 199 252 304 363
#     4  10  21  39  62  86 119 163 205 249 304 360
#
# _framework density 21.855022000000002
#
# number of rings (size 3 to 8) (size 9 to 14) (size 15 to 20)
#    0.000    1.750    2.500    1.875    0.000    2.500 
#    0.000    1.875    0.000    5.250    0.000    0.000 
#    0.000    0.000    0.000    0.000    0.000    0.000 
#
# Total GULP energy -178512.728666 kJ/mol
# GULP energy per Si atom -5578.522771 kJ/mol
# Density = 2.180528 g / cm^3
# Si number density = 21.855022 Si / 1000 Ang^3
#
#
#
# Elastic Constant Matrix: (Units=GPa)
#
#
# Indices 1 2 3 4 5 6 
#
# 1 40.2243 -11.5699 -1.8323 0.0000 10.1705 0.0000
# 2 -11.5699 84.4506 -4.6017 0.0000 -4.6213 0.0000
# 3 -1.8323 -4.6017 72.7715 0.0000 5.7988 0.0000
# 4 0.0000 0.0000 0.0000 6.2811 0.0000 6.5969
# 5 10.1705 -4.6213 5.7988 0.0000 43.3982 0.0000
# 6 0.0000 0.0000 0.0000 6.5969 0.0000 11.1540
#
#
#
# Elastic Compliance Matrix: (Units=1/GPa)
#
#
# Indices 1 2 3 4 5 6 
#
# 1 0.027517 0.003504 0.001414 0.000000 -0.006264 0.000000
# 2 0.003504 0.012388 0.000841 0.000000 0.000386 0.000000
# 3 0.001414 0.000841 0.013999 0.000000 -0.002112 0.000000
# 4 0.000000 0.000000 0.000000 0.420265 0.000000 -0.248560
# 5 -0.006264 0.000386 -0.002112 0.000000 0.024834 0.000000
# 6 0.000000 0.000000 0.000000 -0.248560 0.000000 0.236661
#
#
# Mechanical properties :
#
#
# Convention : Reuss Voigt Hill
#
# Bulk Modulus (GPa) = 15.28565 17.93762 16.61164
# Shear Modulus (GPa) = 6.70283 26.53001 16.61642
#
# Velocity S-wave (km/s) = 1.75317 3.48790 2.76035
# Velocity P-wave (km/s) = 3.33278 4.94429 4.21624
#
# Compressibility (1/GPa) = 0.06542085
#
# Stress axis : x y z
#
# Youngs Moduli (GPa) = 36.34144 80.72184 71.43508
#
# Poissons Ratio (x) = -0.28286 -0.10098
# Poissons Ratio (y) = -0.12734 -0.06007
# Poissons Ratio (z) = -0.05137 -0.06788
#
# Static dielectric constant tensor:
#      x y z
#    x 1.885930 0.000000 0.045080 
#    y 0.000000 1.820400 0.000000 
#    z 0.045080 0.000000 1.940470 
# 
# From -- ./inp_files/47196.got.cif
#   From: 2010.05.17/outbox.cif.g08.bks.cpg/sg11_24_cif.got.tgz:47196.got - 2010.06.03 12:22:45.
