data_PCOD9163330
_publ_section_title
;
Structure prediction by ZEFSAII (Michael W. Deem and Ramdas Pophale) SiO2 
 PCOD9163330
Probable space group: P 21/M
;
_chemical_formula_sum "Si O2"
_cell_formula_units_Z 20
_cell_length_a 10.076653
_cell_length_b 16.845863
_cell_length_c 12.699274
_cell_angle_alpha 90.000000
_cell_angle_beta 156.613099
_cell_angle_gamma 90.000000
_cell_volume 855.679657
_symmetry_space_group_name_H-M "P 21/M"
_symmetry_group_IT_number 11
_symmetry_cell_setting 'monoclinic'
loop_
_space_group_symop_operation_xyz
x,y,z
-x,1/2+y,-z
-x,-y,-z
x,1/2-y,z
loop_
_atom_site_type_symbol
_atom_site_label
_atom_site_fract_x
_atom_site_fract_y
_atom_site_fract_z
Si Si1 0.749352 0.431287 0.145936
Si Si2 0.305274 0.341637 0.663030
Si Si3 0.921548 0.070115 0.711181
Si Si4 0.741160 0.160237 0.771110
Si Si5 0.452313 0.158961 0.220932
O O1 0.980778 0.394891 0.405003
O O2 0.990200 0.478968 0.240098
O O3 0.500000 0.500000 0.000000
O O4 0.531878 0.367239 0.925574
O O5 0.209450 0.250000 0.601097
O O6 0.533942 0.351422 0.725008
O O7 0.699816 0.094279 0.650870
O O8 0.743263 0.105383 0.479030
O O9 0.261460 0.119780 0.983316
O O10 0.667614 0.250000 0.675998
O O11 0.143134 0.159142 0.079965
O O12 0.551083 0.250000 0.275292
#
# Coordination Sequence:
#
# PCOD9163330 Si02
#       5
#     4   4   4   4   4
#     4  12  27  47  65  92 134 171 219 272 312 368
#     4  11  25  46  71  95 124 169 215 262 325 393
#     4  10  20  36  60  93 128 169 206 261 330 368
#     4   8  19  36  63  97 133 166 210 262 318 386
#     4   9  17  33  56  93 134 164 203 254 318 385
#
# _framework density 23.373232000000002
#
# number of rings (size 3 to 8) (size 9 to 14) (size 15 to 20)
#    1.200    0.800    0.000    3.600    2.800    1.600 
#    0.000    8.000    0.000    0.000    0.000    0.000 
#    0.000    0.000    0.000    0.000    0.000    0.000 
#
# Total GULP energy -111724.720210 kJ/mol
# GULP energy per Si atom -5586.236011 kJ/mol
# Density = 2.332003 g / cm^3
# Si number density = 23.373232 Si / 1000 Ang^3
#
#
#
# Elastic Constant Matrix: (Units=GPa)
#
#
# Indices 1 2 3 4 5 6 
#
# 1 62.3455 0.3985 14.7525 0.0000 13.2607 0.0000
# 2 0.3985 46.9851 33.4697 0.0000 1.7302 0.0000
# 3 14.7525 33.4697 135.6947 0.0000 -15.5307 0.0000
# 4 0.0000 0.0000 0.0000 44.5617 0.0000 -12.6227
# 5 13.2607 1.7302 -15.5307 0.0000 30.1229 0.0000
# 6 0.0000 0.0000 0.0000 -12.6227 0.0000 16.8413
#
#
#
# Elastic Compliance Matrix: (Units=1/GPa)
#
#
# Indices 1 2 3 4 5 6 
#
# 1 0.019288 0.003163 -0.004113 0.000000 -0.010793 0.000000
# 2 0.003163 0.027087 -0.007824 0.000000 -0.006983 0.000000
# 3 -0.004113 -0.007824 0.010633 0.000000 0.007742 0.000000
# 4 0.000000 0.000000 0.000000 0.028489 0.000000 0.021353
# 5 -0.010793 -0.006983 0.007742 0.000000 0.042341 0.000000
# 6 0.000000 0.000000 0.000000 0.021353 0.000000 0.075382
#
#
# Mechanical properties :
#
#
# Convention : Reuss Voigt Hill
#
# Bulk Modulus (GPa) = 25.34131 38.02963 31.68547
# Shear Modulus (GPa) = 21.37468 31.39880 26.38674
#
# Velocity S-wave (km/s) = 3.02734 3.66917 3.36360
# Velocity P-wave (km/s) = 4.80471 5.85289 5.35451
#
# Compressibility (1/GPa) = 0.03946126
#
# Stress axis : x y z
#
# Youngs Moduli (GPa) = 51.84502 36.91774 94.05068
#
# Poissons Ratio (x) = -0.11679 0.38679
# Poissons Ratio (y) = -0.16401 0.73588
# Poissons Ratio (z) = 0.21322 0.28885
#
# Static dielectric constant tensor:
#      x y z
#    x 1.963740 0.000000 0.073400 
#    y 0.000000 1.841720 0.000000 
#    z 0.073400 0.000000 1.862230 
# 
# From -- ./inp_files/50628.got.cif
#   From: 2010.05.17/outbox.cif.g08.bks.cpg/sg11_26_cif.got.tgz:50628.got - 2010.06.03 12:22:45.
