data_PCOD9163621
_publ_section_title
;
Structure prediction by ZEFSAII (Michael W. Deem and Ramdas Pophale) SiO2 
 PCOD9163621
Probable space group: P 21/M
;
_chemical_formula_sum "Si O2"
_cell_formula_units_Z 28
_cell_length_a 9.916898
_cell_length_b 8.639200
_cell_length_c 27.556539
_cell_angle_alpha 90.000000
_cell_angle_beta 38.310507
_cell_angle_gamma 90.000000
_cell_volume 1463.564105
_symmetry_space_group_name_H-M "P 21/M"
_symmetry_group_IT_number 11
_symmetry_cell_setting 'monoclinic'
loop_
_space_group_symop_operation_xyz
x,y,z
-x,1/2+y,-z
-x,-y,-z
x,1/2-y,z
loop_
_atom_site_type_symbol
_atom_site_label
_atom_site_fract_x
_atom_site_fract_y
_atom_site_fract_z
Si Si1 0.513400 0.934461 0.233497
Si Si2 0.245322 0.935954 0.928938
Si Si3 0.107820 0.935904 0.810546
Si Si4 0.687170 0.065356 0.981205
Si Si5 0.170815 0.562429 0.685488
Si Si6 0.966740 0.563992 0.640034
Si Si7 0.389647 0.435810 0.482119
O O1 0.517957 0.750000 0.234759
O O2 0.621925 0.990121 0.152417
O O3 0.664264 0.005011 0.232935
O O4 0.268210 0.996021 0.304731
O O5 0.240175 0.750000 0.924236
O O6 0.348462 0.972794 0.952220
O O7 0.000000 0.000000 0.000000
O O8 0.104008 0.750000 0.812838
O O9 0.077050 0.988780 0.763478
O O10 0.916517 0.998832 0.898428
O O11 0.693909 0.250000 0.975440
O O12 0.500000 0.000000 0.000000
O O13 0.160455 0.750000 0.687524
O O14 0.427568 0.522059 0.609177
O O15 0.046242 0.511433 0.671764
O O16 0.959080 0.750000 0.642282
O O17 0.150731 0.508110 0.550209
O O18 0.500000 0.500000 0.500000
O O19 0.373298 0.250000 0.488724
#
# Coordination Sequence:
#
# PCOD9163621 Si02
#       7
#     4   4   4   4   4   4   4
#     4  12  25  40  58  86 119 154 196 242 291 350
#     4  11  23  41  64  86 114 154 197 238 286 344
#     4  11  22  40  62  85 116 156 194 239 295 347
#     4  11  25  42  61  88 119 152 193 241 290 344
#     4   8  18  35  59  87 116 149 189 236 288 343
#     4  10  20  37  60  88 117 150 194 243 290 344
#     4   9  16  32  56  85 118 152 190 236 287 344
#
# _framework density 19.131378999999999
#
# number of rings (size 3 to 8) (size 9 to 14) (size 15 to 20)
#    0.000    1.714    1.429    4.286    2.000    1.714 
#    0.000    8.571    0.000    0.000    0.000    0.000 
#    0.000    0.000    0.000    0.000    0.000    0.000 
#
# Total GULP energy -156348.188897 kJ/mol
# GULP energy per Si atom -5583.863889 kJ/mol
# Density = 1.908784 g / cm^3
# Si number density = 19.131379 Si / 1000 Ang^3
#
#
#
# Elastic Constant Matrix: (Units=GPa)
#
#
# Indices 1 2 3 4 5 6 
#
# 1 69.2900 12.6180 -7.6922 0.0000 -14.2968 0.0000
# 2 12.6180 51.1539 -4.8726 0.0000 0.6000 0.0000
# 3 -7.6922 -4.8726 27.6162 0.0000 -15.1978 0.0000
# 4 0.0000 0.0000 0.0000 32.5836 0.0000 -6.7226
# 5 -14.2968 0.6000 -15.1978 0.0000 36.9558 0.0000
# 6 0.0000 0.0000 0.0000 -6.7226 0.0000 26.4306
#
#
#
# Elastic Compliance Matrix: (Units=1/GPa)
#
#
# Indices 1 2 3 4 5 6 
#
# 1 0.018804 -0.003717 0.011140 0.000000 0.011916 0.000000
# 2 -0.003717 0.020678 0.002116 0.000000 -0.000904 0.000000
# 3 0.011140 0.002116 0.054337 0.000000 0.026621 0.000000
# 4 0.000000 0.000000 0.000000 0.032390 0.000000 0.008238
# 5 0.011916 -0.000904 0.026621 0.000000 0.042632 0.000000
# 6 0.000000 0.000000 0.000000 0.008238 0.000000 0.039930
#
#
# Mechanical properties :
#
#
# Convention : Reuss Voigt Hill
#
# Bulk Modulus (GPa) = 8.85773 16.46293 12.66033
# Shear Modulus (GPa) = 21.99482 29.06113 25.52798
#
# Velocity S-wave (km/s) = 3.39436 3.90170 3.65684
# Velocity P-wave (km/s) = 4.47239 5.37788 4.94590
#
# Compressibility (1/GPa) = 0.11289571
#
# Stress axis : x y z
#
# Youngs Moduli (GPa) = 53.17911 48.36093 18.40372
#
# Poissons Ratio (x) = 0.17976 -0.20501
# Poissons Ratio (y) = 0.19767 -0.03894
# Poissons Ratio (z) = -0.59240 -0.10232
#
# Static dielectric constant tensor:
#      x y z
#    x 1.654910 0.000000 0.009210 
#    y 0.000000 1.644520 0.000000 
#    z 0.009210 0.000000 1.661410 
# 
# From -- ./inp_files/70778.got.cif
#   From: 2010.05.17/outbox.cif.g08.bks.cpg/sg11_36_cif.got.tgz:70778.got - 2010.06.03 12:22:45.
