data_PCOD9163799
_publ_section_title
;
Structure prediction by ZEFSAII (Michael W. Deem and Ramdas Pophale) SiO2 
 PCOD9163799
Probable space group: P 21/M
;
_chemical_formula_sum "Si O2"
_cell_formula_units_Z 24
_cell_length_a 5.987130
_cell_length_b 28.242084
_cell_length_c 6.849486
_cell_angle_alpha 90.000000
_cell_angle_beta 77.196565
_cell_angle_gamma 90.000000
_cell_volume 1129.376202
_symmetry_space_group_name_H-M "P 21/M"
_symmetry_group_IT_number 11
_symmetry_cell_setting 'monoclinic'
loop_
_space_group_symop_operation_xyz
x,y,z
-x,1/2+y,-z
-x,-y,-z
x,1/2-y,z
loop_
_atom_site_type_symbol
_atom_site_label
_atom_site_fract_x
_atom_site_fract_y
_atom_site_fract_z
Si Si1 0.733069 0.694670 0.958982
Si Si2 0.905496 0.378211 0.998390
Si Si3 0.455987 0.135358 0.320970
Si Si4 0.604039 0.370674 0.722208
Si Si5 0.338223 0.528961 0.386513
Si Si6 0.897802 0.943007 0.729695
O O1 0.731704 0.750000 0.997322
O O2 0.652170 0.681791 0.756193
O O3 0.975862 0.669760 0.950500
O O4 0.559581 0.665085 0.130172
O O5 0.655475 0.383110 0.140475
O O6 0.047528 0.420858 0.068685
O O7 0.852408 0.372621 0.779464
O O8 0.575583 0.143668 0.503636
O O9 0.259985 0.095365 0.352196
O O10 0.536539 0.426227 0.733011
O O11 0.500000 0.500000 0.500000
O O12 0.129520 0.548836 0.560484
O O13 0.233381 0.492870 0.249499
#
# Coordination Sequence:
#
# PCOD9163799 Si02
#       6
#     4   4   4   4   4   4
#     4  10  25  44  64  92 123 159 209 269 328 387
#     4  10  22  40  63  93 128 165 212 268 313 374
#     4  10  21  43  66  89 128 167 209 259 319 373
#     4  11  23  39  68  95 128 166 210 264 313 381
#     4  11  21  36  65  95 134 175 215 254 308 377
#     4  10  20  37  63  91 131 174 214 253 305 374
#
# _framework density 21.250668999999998
#
# number of rings (size 3 to 8) (size 9 to 14) (size 15 to 20)
#    0.000    1.667    3.333    0.000    2.333    4.000 
#    0.000   11.667    0.000    0.000    0.000    0.000 
#    0.000    0.000    0.000    0.000    0.000    0.000 
#
# Total GULP energy -133928.940366 kJ/mol
# GULP energy per Si atom -5580.372515 kJ/mol
# Density = 2.120230 g / cm^3
# Si number density = 21.250669 Si / 1000 Ang^3
#
#
#
# Elastic Constant Matrix: (Units=GPa)
#
#
# Indices 1 2 3 4 5 6 
#
# 1 74.7201 43.5453 33.3317 0.0000 23.6236 0.0000
# 2 43.5453 159.1269 33.8821 0.0000 6.2763 0.0000
# 3 33.3317 33.8821 88.2383 0.0000 39.2715 0.0000
# 4 0.0000 0.0000 0.0000 28.8575 0.0000 -4.8389
# 5 23.6236 6.2763 39.2715 0.0000 44.5060 0.0000
# 6 0.0000 0.0000 0.0000 -4.8389 0.0000 19.7592
#
#
#
# Elastic Compliance Matrix: (Units=1/GPa)
#
#
# Indices 1 2 3 4 5 6 
#
# 1 0.019461 -0.004566 -0.002120 0.000000 -0.007815 0.000000
# 2 -0.004566 0.008052 -0.003195 0.000000 0.004107 0.000000
# 3 -0.002120 -0.003195 0.020846 0.000000 -0.016818 0.000000
# 4 0.000000 0.000000 0.000000 0.036137 0.000000 0.008850
# 5 -0.007815 0.004107 -0.016818 0.000000 0.040878 0.000000
# 6 0.000000 0.000000 0.000000 0.008850 0.000000 0.052777
#
#
# Mechanical properties :
#
#
# Convention : Reuss Voigt Hill
#
# Bulk Modulus (GPa) = 34.96862 60.40039 47.68451
# Shear Modulus (GPa) = 24.10290 32.71295 28.40792
#
# Velocity S-wave (km/s) = 3.37147 3.92776 3.66020
# Velocity P-wave (km/s) = 5.62555 7.00387 6.35220
#
# Compressibility (1/GPa) = 0.02859707
#
# Stress axis : x y z
#
# Youngs Moduli (GPa) = 51.38582 124.19161 47.97152
#
# Poissons Ratio (x) = 0.56704 0.10168
# Poissons Ratio (y) = 0.23462 0.15328
# Poissons Ratio (z) = 0.10892 0.39682
#
# Static dielectric constant tensor:
#      x y z
#    x 1.801850 0.000000 0.018930 
#    y 0.000000 1.735780 0.000000 
#    z 0.018930 0.000000 1.827180 
# 
# From -- ./inp_files/10533.got.cif
#   From: 2010.05.17/outbox.cif.g08.bks.cpg/sg11_6_cif.got.tgz:10533.got - 2010.06.03 12:22:45.
