data_PCOD9163586
_publ_section_title
;
Structure prediction by ZEFSAII (Michael W. Deem and Ramdas Pophale) SiO2 
 PCOD9163586
Probable space group: P 21/M
;
_chemical_formula_sum "Si O2"
_cell_formula_units_Z 28
_cell_length_a 8.273750
_cell_length_b 14.228267
_cell_length_c 12.546372
_cell_angle_alpha 90.000000
_cell_angle_beta 107.498626
_cell_angle_gamma 90.000000
_cell_volume 1408.624851
_symmetry_space_group_name_H-M "P 21/M"
_symmetry_group_IT_number 11
_symmetry_cell_setting 'monoclinic'
loop_
_space_group_symop_operation_xyz
x,y,z
-x,1/2+y,-z
-x,-y,-z
x,1/2-y,z
loop_
_atom_site_type_symbol
_atom_site_label
_atom_site_fract_x
_atom_site_fract_y
_atom_site_fract_z
Si Si1 0.135041 0.350998 0.482065
Si Si2 0.568406 0.051851 0.863990
Si Si3 0.441767 0.858971 0.911097
Si Si4 0.750514 0.350454 0.332986
Si Si5 0.825031 0.361956 0.742230
Si Si6 0.683920 0.463475 0.516566
Si Si7 0.801991 0.639833 0.252659
O O1 0.219577 0.250000 0.473704
O O2 0.203354 0.445007 0.444761
O O3 0.148399 0.363415 0.612281
O O4 0.944487 0.345740 0.404157
O O5 0.703200 0.083373 0.801108
O O6 0.373281 0.083873 0.799702
O O7 0.566567 0.939976 0.889185
O O8 0.607524 0.106869 0.981417
O O9 0.502057 0.750000 0.924917
O O10 0.284787 0.863198 0.797883
O O11 0.668829 0.250000 0.345647
O O12 0.681070 0.430079 0.394669
O O13 0.816158 0.250000 0.760800
O O14 0.748175 0.384160 0.609921
O O15 0.025900 0.389010 0.776489
O O16 0.500000 0.500000 0.500000
O O17 0.769040 0.750000 0.220673
#
# Coordination Sequence:
#
# PCOD9163586 Si02
#       7
#     4   4   4   4   4   4   4
#     4  10  21  37  58  87 121 162 204 246 303 368
#     4  11  23  42  67  92 121 165 210 254 310 361
#     4  10  22  40  65  91 122 165 207 251 304 367
#     4  10  20  37  60  84 118 161 197 241 304 369
#     4  11  23  39  62  94 125 157 207 262 311 361
#     4  12  23  34  57  90 123 160 197 251 311 367
#     4  10  20  37  64  94 125 161 207 261 307 360
#
# _framework density 19.87754
#
# number of rings (size 3 to 8) (size 9 to 14) (size 15 to 20)
#    0.000    1.429    1.429    4.714    2.000    2.286 
#    0.000    3.571    3.143    2.571    0.000    0.000 
#    0.000    0.000    0.000    0.000    0.000    0.000 
#
# Total GULP energy -156126.948560 kJ/mol
# GULP energy per Si atom -5575.962449 kJ/mol
# Density = 1.983230 g / cm^3
# Si number density = 19.877540 Si / 1000 Ang^3
#
#
#
# Elastic Constant Matrix: (Units=GPa)
#
#
# Indices 1 2 3 4 5 6 
#
# 1 83.8712 35.4425 20.0715 0.0000 0.2012 0.0000
# 2 35.4425 119.8760 27.4242 0.0000 -4.0314 0.0000
# 3 20.0715 27.4242 107.5261 0.0000 5.1658 0.0000
# 4 0.0000 0.0000 0.0000 -41.7811 0.0000 29.0934
# 5 0.2012 -4.0314 5.1658 0.0000 15.3857 0.0000
# 6 0.0000 0.0000 0.0000 29.0934 0.0000 0.6455
#
#
#
# Elastic Compliance Matrix: (Units=1/GPa)
#
#
# Indices 1 2 3 4 5 6 
#
# 1 0.013899 -0.003763 -0.001604 0.000000 -0.000629 0.000000
# 2 -0.003763 0.010029 -0.002016 0.000000 0.003354 0.000000
# 3 -0.001604 -0.002016 0.010304 0.000000 -0.003967 0.000000
# 4 0.000000 0.000000 0.000000 -0.000739 0.000000 0.033311
# 5 -0.000629 0.003354 -0.003967 0.000000 0.067215 0.000000
# 6 0.000000 0.000000 0.000000 0.033311 0.000000 0.047838
#
#
# Mechanical properties :
#
#
# Convention : Reuss Voigt Hill
#
# Bulk Modulus (GPa) = 51.37811 53.01664 52.19738
# Shear Modulus (GPa) = 29.44618 10.07236 19.75927
#
# Velocity S-wave (km/s) = 3.85304 2.25349 3.15628
# Velocity P-wave (km/s) = 6.76003 5.78796 6.29279
#
# Compressibility (1/GPa) = 0.01946354
#
# Stress axis : x y z
#
# Youngs Moduli (GPa) = 71.94829 99.71335 97.04571
#
# Poissons Ratio (x) = 0.37527 0.15570
# Poissons Ratio (y) = 0.27077 0.19569
# Poissons Ratio (z) = 0.11543 0.20106
#
# Static dielectric constant tensor:
#      x y z
#    x 1.679770 0.000000 0.013120 
#    y 0.000000 1.679130 0.000000 
#    z 0.013120 0.000000 1.691710 
# 
# From -- ./inp_files/31721.got.cif
#   From: 2010.05.17/outbox.cif.g08.bks.cpg/sg11_16_cif.got.tgz:31721.got - 2010.06.03 12:22:45.
