data_PCOD9163898
_publ_section_title
;
Structure prediction by ZEFSAII (Michael W. Deem and Ramdas Pophale) SiO2 
 PCOD9163898
Probable space group: P 21/M
;
_chemical_formula_sum "Si O2"
_cell_formula_units_Z 24
_cell_length_a 10.384643
_cell_length_b 8.561627
_cell_length_c 23.671729
_cell_angle_alpha 90.000000
_cell_angle_beta 39.673184
_cell_angle_gamma 90.000000
_cell_volume 1343.618378
_symmetry_space_group_name_H-M "P 21/M"
_symmetry_group_IT_number 11
_symmetry_cell_setting 'monoclinic'
loop_
_space_group_symop_operation_xyz
x,y,z
-x,1/2+y,-z
-x,-y,-z
x,1/2-y,z
loop_
_atom_site_type_symbol
_atom_site_label
_atom_site_fract_x
_atom_site_fract_y
_atom_site_fract_z
Si Si1 0.637719 0.061295 0.763420
Si Si2 0.211452 0.062842 0.950426
Si Si3 0.015416 0.063918 0.431387
Si Si4 0.929435 0.061067 0.767024
Si Si5 0.713778 0.061755 0.949789
Si Si6 0.275437 0.438033 0.567430
O O1 0.648039 0.250000 0.754471
O O2 0.405134 0.013206 0.847452
O O3 0.748962 0.018982 0.784855
O O4 0.773326 0.988287 0.668527
O O5 0.210176 0.250000 0.950643
O O6 0.244557 0.003945 0.002693
O O7 0.000000 0.000000 0.000000
O O8 0.001761 0.250000 0.436411
O O9 0.000000 0.000000 0.500000
O O10 0.839149 0.997196 0.450091
O O11 0.934836 0.250000 0.766490
O O12 0.877723 0.009416 0.847499
O O13 0.134632 0.009179 0.667639
O O14 0.710821 0.250000 0.952594
O O15 0.500000 0.000000 0.000000
O O16 0.500000 0.500000 0.500000
O O17 0.276787 0.250000 0.565488
#
# Coordination Sequence:
#
# PCOD9163898 Si02
#       6
#     4   4   4   4   4   4
#     4   9  18  37  60  81 112 152 190 234 287 342
#     4  11  23  40  58  83 118 156 192 236 291 340
#     4  11  22  38  61  88 114 148 193 238 285 342
#     4   8  16  33  57  82 111 147 186 226 281 338
#     4  11  20  35  59  87 114 150 192 235 281 336
#     4  10  20  38  60  85 117 153 189 233 287 340
#
# _framework density 17.862214999999999
#
# number of rings (size 3 to 8) (size 9 to 14) (size 15 to 20)
#    0.000    2.000    1.667    4.000    0.000    1.333 
#    3.000    2.500    0.000    0.000    0.000    0.000 
#    0.000    0.000    0.000    0.000    0.000    0.000 
#
# Total GULP energy -133931.268873 kJ/mol
# GULP energy per Si atom -5580.469536 kJ/mol
# Density = 1.782156 g / cm^3
# Si number density = 17.862215 Si / 1000 Ang^3
#
#
#
# Elastic Constant Matrix: (Units=GPa)
#
#
# Indices 1 2 3 4 5 6 
#
# 1 129.1771 43.2878 101.8709 0.0000 -11.2479 0.0000
# 2 43.2878 73.5111 51.7013 0.0000 -4.0375 0.0000
# 3 101.8709 51.7013 173.1819 0.0000 -6.1420 0.0000
# 4 0.0000 0.0000 0.0000 30.2141 0.0000 -0.9552
# 5 -11.2479 -4.0375 -6.1420 0.0000 37.3354 0.0000
# 6 0.0000 0.0000 0.0000 -0.9552 0.0000 32.9053
#
#
#
# Elastic Compliance Matrix: (Units=1/GPa)
#
#
# Indices 1 2 3 4 5 6 
#
# 1 0.015380 -0.003297 -0.007957 0.000000 0.002968 0.000000
# 2 -0.003297 0.017964 -0.003410 0.000000 0.000388 0.000000
# 3 -0.007957 -0.003410 0.011442 0.000000 -0.000884 0.000000
# 4 0.000000 0.000000 0.000000 0.033127 0.000000 0.000962
# 5 0.002968 0.000388 -0.000884 0.000000 0.027575 0.000000
# 6 0.000000 0.000000 0.000000 0.000962 0.000000 0.030418
#
#
# Mechanical properties :
#
#
# Convention : Reuss Voigt Hill
#
# Bulk Modulus (GPa) = 64.69389 85.51001 75.10195
# Shear Modulus (GPa) = 29.34486 32.02498 30.68492
#
# Velocity S-wave (km/s) = 4.05760 4.23885 4.14921
# Velocity P-wave (km/s) = 7.63211 8.48133 8.06790
#
# Compressibility (1/GPa) = 0.01545741
#
# Stress axis : x y z
#
# Youngs Moduli (GPa) = 65.01994 55.66557 87.39994
#
# Poissons Ratio (x) = 0.18353 0.69547
# Poissons Ratio (y) = 0.21438 0.29802
# Poissons Ratio (z) = 0.51739 0.18981
#
# Static dielectric constant tensor:
#      x y z
#    x 1.573190 0.000000 -0.005960 
#    y 0.000000 1.603740 0.000000 
#    z -0.005960 0.000000 1.628450 
# 
# From -- ./inp_files/61846.got.cif
#   From: 2010.05.17/outbox.cif.g08.bks.cpg/sg11_31_cif.got.tgz:61846.got - 2010.06.03 12:22:45.
