data_PCOD9163922
_publ_section_title
;
Structure prediction by ZEFSAII (Michael W. Deem and Ramdas Pophale) SiO2 
 PCOD9163922
Probable space group: P 21/M
;
_chemical_formula_sum "Si O2"
_cell_formula_units_Z 28
_cell_length_a 24.877258
_cell_length_b 8.639384
_cell_length_c 8.343186
_cell_angle_alpha 90.000000
_cell_angle_beta 47.168240
_cell_angle_gamma 90.000000
_cell_volume 1315.013954
_symmetry_space_group_name_H-M "P 21/M"
_symmetry_group_IT_number 11
_symmetry_cell_setting 'monoclinic'
loop_
_space_group_symop_operation_xyz
x,y,z
-x,1/2+y,-z
-x,-y,-z
x,1/2-y,z
loop_
_atom_site_type_symbol
_atom_site_label
_atom_site_fract_x
_atom_site_fract_y
_atom_site_fract_z
Si Si1 0.671287 0.936799 0.461490
Si Si2 0.076868 0.572857 0.889520
Si Si3 0.662412 0.434025 0.839080
Si Si4 0.928610 0.927896 0.568369
Si Si5 0.417992 0.063460 0.681120
Si Si6 0.160126 0.068757 0.952067
Si Si7 0.178075 0.066322 0.463291
O O1 0.667501 0.750000 0.483710
O O2 0.624676 0.982692 0.397694
O O3 0.755829 0.976915 0.250303
O O4 0.649466 0.003319 0.682096
O O5 0.081762 0.750000 0.832268
O O6 0.094417 0.550594 0.040223
O O7 0.147972 0.468757 0.700795
O O8 0.000000 0.500000 0.000000
O O9 0.653523 0.250000 0.853732
O O10 0.746140 0.480832 0.710963
O O11 0.615677 0.502614 0.082080
O O12 0.946890 0.750000 0.493258
O O13 0.893979 0.001090 0.479584
O O14 0.855305 0.927284 0.825075
O O15 0.000000 0.000000 0.500000
O O16 0.416789 0.250000 0.689021
O O17 0.500000 0.000000 0.500000
O O18 0.145939 0.250000 0.937760
O O19 0.187098 0.250000 0.420960
#
# Coordination Sequence:
#
# PCOD9163922 Si02
#       7
#     4   4   4   4   4   4   4
#     4  10  22  43  72 100 133 180 230 280 339 405
#     4  12  24  37  55  84 119 162 210 264 322 382
#     4  12  25  42  69 105 140 179 225 280 342 410
#     4  10  22  37  56  83 116 160 213 269 334 397
#     4  11  25  47  74 106 142 183 226 277 338 406
#     4  10  20  38  61  85 116 158 209 267 323 389
#     4  11  22  40  62  87 121 164 213 268 326 396
#
# _framework density 21.292548
#
# number of rings (size 3 to 8) (size 9 to 14) (size 15 to 20)
#    0.000    1.143    1.429    5.143    0.000    8.000 
#    0.000    1.429    0.000    0.000    0.000    0.000 
#    0.000    0.000    0.000    0.000    0.000    0.000 
#
# Total GULP energy -155985.302817 kJ/mol
# GULP energy per Si atom -5570.903672 kJ/mol
# Density = 2.124409 g / cm^3
# Si number density = 21.292548 Si / 1000 Ang^3
#
#
#
# Elastic Constant Matrix: (Units=GPa)
#
#
# Indices 1 2 3 4 5 6 
#
# 1 153.7092 45.5283 56.7287 0.0000 -13.9731 0.0000
# 2 45.5283 80.9212 38.1579 0.0000 3.5879 0.0000
# 3 56.7287 38.1579 156.0597 0.0000 -8.3285 0.0000
# 4 0.0000 0.0000 0.0000 30.6050 0.0000 -2.7686
# 5 -13.9731 3.5879 -8.3285 0.0000 22.4285 0.0000
# 6 0.0000 0.0000 0.0000 -2.7686 0.0000 26.8321
#
#
#
# Elastic Compliance Matrix: (Units=1/GPa)
#
#
# Indices 1 2 3 4 5 6 
#
# 1 0.009032 -0.004437 -0.001898 0.000000 0.005632 0.000000
# 2 -0.004437 0.016434 -0.002748 0.000000 -0.006413 0.000000
# 3 -0.001898 -0.002748 0.007886 0.000000 0.002186 0.000000
# 4 0.000000 0.000000 0.000000 0.032982 0.000000 0.003403
# 5 0.005632 -0.006413 0.002186 0.000000 0.049932 0.000000
# 6 0.000000 0.000000 0.000000 0.003403 0.000000 0.037620
#
#
# Mechanical properties :
#
#
# Convention : Reuss Voigt Hill
#
# Bulk Modulus (GPa) = 65.84211 74.61333 70.22772
# Shear Modulus (GPa) = 28.23035 32.65813 30.44424
#
# Velocity S-wave (km/s) = 3.64515 3.92060 3.78538
# Velocity P-wave (km/s) = 6.97896 7.45741 7.22215
#
# Compressibility (1/GPa) = 0.01518785
#
# Stress axis : x y z
#
# Youngs Moduli (GPa) = 110.71304 60.84994 126.80351
#
# Poissons Ratio (x) = 0.26997 0.24067
# Poissons Ratio (y) = 0.49119 0.34843
# Poissons Ratio (z) = 0.21013 0.16720
#
# Static dielectric constant tensor:
#      x y z
#    x 1.807130 0.000000 0.033430 
#    y 0.000000 1.958900 0.000000 
#    z 0.033430 0.000000 1.473670 
# 
# From -- ./inp_files/28284.got.cif
#   From: 2010.05.17/outbox.cif.g08.bks.cpg/sg11_15_cif.got.tgz:28284.got - 2010.06.03 12:22:45.
