data_PCOD9163924
_publ_section_title
;
Structure prediction by ZEFSAII (Michael W. Deem and Ramdas Pophale) SiO2 
 PCOD9163924
Probable space group: P 21/M
;
_chemical_formula_sum "Si O2"
_cell_formula_units_Z 32
_cell_length_a 22.629818
_cell_length_b 7.810935
_cell_length_c 24.384979
_cell_angle_alpha 90.000000
_cell_angle_beta 159.584065
_cell_angle_gamma 90.000000
_cell_volume 1503.570068
_symmetry_space_group_name_H-M "P 21/M"
_symmetry_group_IT_number 11
_symmetry_cell_setting 'monoclinic'
loop_
_space_group_symop_operation_xyz
x,y,z
-x,1/2+y,-z
-x,-y,-z
x,1/2-y,z
loop_
_atom_site_type_symbol
_atom_site_label
_atom_site_fract_x
_atom_site_fract_y
_atom_site_fract_z
Si Si1 0.317319 0.545420 0.322859
Si Si2 0.926055 0.052309 0.793884
Si Si3 0.132896 0.953394 0.065964
Si Si4 0.010947 0.545874 0.573183
Si Si5 0.279893 0.040443 0.597275
Si Si6 0.982016 0.947875 0.722470
Si Si7 0.362899 0.947399 0.049826
Si Si8 0.372149 0.051976 0.936949
O O1 0.500000 0.500000 0.500000
O O2 0.285462 0.750000 0.294642
O O3 0.196302 0.475604 0.265661
O O4 0.296922 0.489542 0.242149
O O5 0.884120 0.250000 0.746556
O O6 0.927349 0.957242 0.738011
O O7 0.099848 0.042133 0.979749
O O8 0.129260 0.750000 0.053458
O O9 0.000000 0.000000 0.000000
O O10 0.023336 0.750000 0.589270
O O11 0.179866 0.473419 0.748611
O O12 0.000000 0.500000 0.500000
O O13 0.840375 0.491310 0.456256
O O14 0.290568 0.250000 0.605154
O O15 0.473609 0.980093 0.775417
O O16 0.167561 0.983466 0.446921
O O17 0.003050 0.750000 0.722846
O O18 0.172566 0.026418 0.887046
O O19 0.344652 0.750000 0.052809
O O20 0.404739 0.951148 0.021481
O O21 0.398939 0.250000 0.973330
O O22 0.500000 0.000000 0.000000
#
# Coordination Sequence:
#
# PCOD9163924 Si02
#       8
#     4   4   4   4   4   4   4   4
#     4   9  19  34  54  82 116 148 185 231 283 335
#     4  10  21  37  56  82 115 152 192 236 283 339
#     4   9  17  32  54  80 108 142 182 224 273 330
#     4  11  21  37  59  88 122 155 196 246 304 367
#     4   9  19  37  61  86 114 151 193 240 297 355
#     4  10  20  38  61  85 117 159 199 240 294 354
#     4  10  20  39  64  87 116 151 195 248 299 362
#     4  12  24  38  58  86 119 156 200 250 306 366
#
# _framework density 21.282679000000002
#
# number of rings (size 3 to 8) (size 9 to 14) (size 15 to 20)
#    0.000    2.000    1.250    3.750    0.000    4.500 
#    2.250    1.250    0.000    0.000    0.000    0.000 
#    0.000    0.000    0.000    0.000    0.000    0.000 
#
# Total GULP energy -178333.949111 kJ/mol
# GULP energy per Si atom -5572.935910 kJ/mol
# Density = 2.123424 g / cm^3
# Si number density = 21.282679 Si / 1000 Ang^3
#
#
#
# Elastic Constant Matrix: (Units=GPa)
#
#
# Indices 1 2 3 4 5 6 
#
# 1 77.4190 -6.6668 41.9192 0.0000 -24.9270 0.0000
# 2 -6.6668 38.7950 -3.1003 0.0000 4.3454 0.0000
# 3 41.9192 -3.1003 167.6197 0.0000 -19.0367 0.0000
# 4 0.0000 0.0000 0.0000 18.8029 0.0000 -4.6191
# 5 -24.9270 4.3454 -19.0367 0.0000 31.3355 0.0000
# 6 0.0000 0.0000 0.0000 -4.6191 0.0000 20.6529
#
#
#
# Elastic Compliance Matrix: (Units=1/GPa)
#
#
# Indices 1 2 3 4 5 6 
#
# 1 0.018961 0.001555 -0.003249 0.000000 0.012894 0.000000
# 2 0.001555 0.026312 -0.000189 0.000000 -0.002527 0.000000
# 3 -0.003249 -0.000189 0.006965 0.000000 0.001673 0.000000
# 4 0.000000 0.000000 0.000000 0.056275 0.000000 0.012586
# 5 0.012894 -0.002527 0.001673 0.000000 0.043537 0.000000
# 6 0.000000 0.000000 0.000000 0.012586 0.000000 0.051234
#
#
# Mechanical properties :
#
#
# Convention : Reuss Voigt Hill
#
# Bulk Modulus (GPa) = 20.63086 38.68199 29.65642
# Shear Modulus (GPa) = 22.40066 30.93703 26.66884
#
# Velocity S-wave (km/s) = 3.24779 3.81678 3.54372
# Velocity P-wave (km/s) = 4.87637 6.13503 5.54155
#
# Compressibility (1/GPa) = 0.04847109
#
# Stress axis : x y z
#
# Youngs Moduli (GPa) = 52.73910 38.00606 143.57764
#
# Poissons Ratio (x) = -0.05908 0.46645
# Poissons Ratio (y) = -0.08199 0.02715
# Poissons Ratio (z) = 0.17134 0.00719
#
# Static dielectric constant tensor:
#      x y z
#    x 1.748040 0.000000 0.022970 
#    y 0.000000 1.792520 0.000000 
#    z 0.022970 0.000000 1.908660 
# 
# From -- ./inp_files/70020.got.cif
#   From: 2010.05.17/outbox.cif.g08.bks.cpg/sg11_36_cif.got.tgz:70020.got - 2010.06.03 12:22:45.
