data_PCOD9163070
_publ_section_title
;
Structure prediction by ZEFSAII (Michael W. Deem and Ramdas Pophale) SiO2 
 PCOD9163070
Probable space group: P 21/M
;
_chemical_formula_sum "Si O2"
_cell_formula_units_Z 26
_cell_length_a 8.141174
_cell_length_b 22.863868
_cell_length_c 10.556612
_cell_angle_alpha 90.000000
_cell_angle_beta 138.927073
_cell_angle_gamma 90.000000
_cell_volume 1291.038812
_symmetry_space_group_name_H-M "P 21/M"
_symmetry_group_IT_number 11
_symmetry_cell_setting 'monoclinic'
loop_
_space_group_symop_operation_xyz
x,y,z
-x,1/2+y,-z
-x,-y,-z
x,1/2-y,z
loop_
_atom_site_type_symbol
_atom_site_label
_atom_site_fract_x
_atom_site_fract_y
_atom_site_fract_z
Si Si1 0.992277 0.250000 0.409717
Si Si2 0.568387 0.943452 0.456163
Si Si3 0.823271 0.343892 0.120264
Si Si4 0.847056 0.036331 0.236651
Si Si5 0.427954 0.250000 0.171253
Si Si6 0.595225 0.750000 0.136310
Si Si7 0.602572 0.512315 0.856124
Si Si8 0.704630 0.630454 0.759076
O O1 0.193651 0.250000 0.636106
O O2 0.989943 0.305708 0.315307
O O3 0.722928 0.250000 0.318548
O O4 0.557540 0.887296 0.542510
O O5 0.859136 0.951067 0.584922
O O6 0.500000 0.000000 0.500000
O O7 0.394715 0.955418 0.233799
O O8 0.727405 0.401050 0.134499
O O9 0.008186 0.362106 0.116198
O O10 0.587570 0.304911 0.948565
O O11 0.682163 0.014380 0.256859
O O12 0.787568 0.995923 0.081406
O O13 0.365658 0.190714 0.211857
O O14 0.321240 0.250000 0.963756
O O15 0.664105 0.572892 0.821411
#
# Coordination Sequence:
#
# PCOD9163070 Si02
#       8
#     2   4   4   4   2   2   4   4
#     4  10  21  39  59  81 111 146 190 232 280 338
#     4   9  20  35  54  82 114 150 188 229 277 329
#     4   9  20  37  58  81 113 147 183 235 283 330
#     4  10  20  36  58  84 114 152 189 234 282 326
#     4  10  20  40  60  82 114 144 186 234 280 336
#     4  10  21  39  61  83 107 148 190 230 284 338
#     4  10  20  36  58  84 114 150 192 230 276 337
#     4  10  20  38  59  82 116 150 182 233 285 327
#
# _framework density 20.138822999999999
#
# number of rings (size 3 to 8) (size 9 to 14) (size 15 to 20)
#    0.000    2.462    0.000    3.231    0.000    8.000 
#    0.000   18.462    0.000    0.000    0.000    0.000 
#    0.000    0.000    0.000    0.000    0.000    0.000 
#
# Total GULP energy -144884.036234 kJ/mol
# GULP energy per Si atom -5572.462932 kJ/mol
# Density = 2.009299 g / cm^3
# Si number density = 20.138823 Si / 1000 Ang^3
#
#
#
# Elastic Constant Matrix: (Units=GPa)
#
#
# Indices 1 2 3 4 5 6 
#
# 1 85.7717 38.1736 40.0052 0.0000 -20.9488 0.0000
# 2 38.1736 106.9980 41.3187 0.0000 -18.8213 0.0000
# 3 40.0052 41.3187 87.4886 0.0000 -15.3738 0.0000
# 4 0.0000 0.0000 0.0000 -0.2916 0.0000 -0.2057
# 5 -20.9488 -18.8213 -15.3738 0.0000 19.1715 0.0000
# 6 0.0000 0.0000 0.0000 -0.2057 0.0000 41.0054
#
#
#
# Elastic Compliance Matrix: (Units=1/GPa)
#
#
# Indices 1 2 3 4 5 6 
#
# 1 0.018323 -0.002195 -0.004891 0.000000 0.013944 0.000000
# 2 -0.002195 0.012862 -0.003810 0.000000 0.007173 0.000000
# 3 -0.004891 -0.003810 0.016145 0.000000 0.003861 0.000000
# 4 0.000000 0.000000 0.000000 -3.416744 0.000000 -0.017140
# 5 0.013944 0.007173 0.003861 0.000000 0.077535 0.000000
# 6 0.000000 0.000000 0.000000 -0.017140 0.000000 0.024301
#
#
# Mechanical properties :
#
#
# Convention : Reuss Voigt Hill
#
# Bulk Modulus (GPa) = 39.16030 57.69480 48.42755
# Shear Modulus (GPa) = -1.54451 22.69445 10.57497
#
# Velocity S-wave (km/s) = -0.87670 3.36058 2.29400
# Velocity P-wave (km/s) = 4.29681 6.61579 5.57814
#
# Compressibility (1/GPa) = 0.02553607
#
# Stress axis : x y z
#
# Youngs Moduli (GPa) = 54.57622 77.74634 61.94011
#
# Poissons Ratio (x) = 0.17069 0.30297
# Poissons Ratio (y) = 0.11982 0.23601
# Poissons Ratio (z) = 0.26695 0.29623
#
# Static dielectric constant tensor:
#      x y z
#    x 1.750280 0.000000 -0.052070 
#    y 0.000000 1.727930 0.000000 
#    z -0.052070 0.000000 1.747690 
# 
# From -- ./inp_files/32953.got.cif
#   From: 2010.05.17/outbox.cif.g08.bks.cpg/sg11_17_cif.got.tgz:32953.got - 2010.06.03 12:22:45.
