data_PCOD9163502
_publ_section_title
;
Structure prediction by ZEFSAII (Michael W. Deem and Ramdas Pophale) SiO2 
 PCOD9163502
Probable space group: P 21/M
;
_chemical_formula_sum "Si O2"
_cell_formula_units_Z 24
_cell_length_a 7.801968
_cell_length_b 10.457624
_cell_length_c 13.278574
_cell_angle_alpha 90.000000
_cell_angle_beta 111.376211
_cell_angle_gamma 90.000000
_cell_volume 1008.869437
_symmetry_space_group_name_H-M "P 21/M"
_symmetry_group_IT_number 11
_symmetry_cell_setting 'monoclinic'
loop_
_space_group_symop_operation_xyz
x,y,z
-x,1/2+y,-z
-x,-y,-z
x,1/2-y,z
loop_
_atom_site_type_symbol
_atom_site_label
_atom_site_fract_x
_atom_site_fract_y
_atom_site_fract_z
Si Si1 0.868493 0.523048 0.650866
Si Si2 0.308330 0.525891 0.778103
Si Si3 0.897260 0.250000 0.570613
Si Si4 0.247620 0.894903 0.990265
Si Si5 0.665055 0.750000 0.297644
Si Si6 0.195394 0.103280 0.138425
Si Si7 0.651975 0.750000 0.514553
Si Si8 0.384427 0.750000 0.649764
O O1 0.828990 0.379436 0.608508
O O2 0.791906 0.555341 0.744719
O O3 0.776437 0.623603 0.555629
O O4 0.089051 0.536314 0.705962
O O5 0.324493 0.567495 0.897487
O O6 0.364831 0.380218 0.769359
O O7 0.402842 0.624935 0.722555
O O8 0.820258 0.250000 0.441621
O O9 0.117234 0.250000 0.627106
O O10 0.302786 0.750000 0.029026
O O11 0.024826 0.894120 0.931044
O O12 0.284471 0.003401 0.080685
O O13 0.566941 0.750000 0.385103
O O14 0.256472 0.250000 0.140411
O O15 0.512294 0.750000 0.578642
#
# Coordination Sequence:
#
# PCOD9163502 Si02
#       8
#     4   4   2   4   2   4   2   2
#     4  10  20  37  58  84 116 148 183 228 282 335
#     4  10  20  37  58  84 116 148 183 228 282 335
#     4  10  22  36  57  84 112 146 187 232 281 336
#     4   9  17  29  51  83 115 142 173 221 276 328
#     4  10  22  36  57  84 112 146 187 232 281 336
#     4   9  17  29  51  83 115 142 173 221 276 328
#     4  12  24  38  57  80 110 150 195 234 277 330
#     4  12  24  38  57  80 110 150 195 234 277 330
#
# _framework density 23.789003999999998
#
# number of rings (size 3 to 8) (size 9 to 14) (size 15 to 20)
#    0.000    2.000    1.667    2.500    2.333    5.333 
#    0.000    0.000    0.000    1.000    0.000    0.000 
#    0.000    0.000    0.000    0.000    0.000    0.000 
#
# Total GULP energy -134480.524404 kJ/mol
# GULP energy per Si atom -5603.355184 kJ/mol
# Density = 2.373486 g / cm^3
# Si number density = 23.789004 Si / 1000 Ang^3
#
#
#
# Elastic Constant Matrix: (Units=GPa)
#
#
# Indices 1 2 3 4 5 6 
#
# 1 102.1755 48.5989 24.2175 0.0000 -14.0426 0.0000
# 2 48.5989 246.7371 95.6809 0.0000 -29.7185 0.0000
# 3 24.2175 95.6809 100.3588 0.0000 -23.9435 0.0000
# 4 0.0000 0.0000 0.0000 46.5591 0.0000 -5.0105
# 5 -14.0426 -29.7185 -23.9435 0.0000 36.2495 0.0000
# 6 0.0000 0.0000 0.0000 -5.0105 0.0000 23.4588
#
#
#
# Elastic Compliance Matrix: (Units=1/GPa)
#
#
# Indices 1 2 3 4 5 6 
#
# 1 0.011054 -0.001698 -0.000427 0.000000 0.002609 0.000000
# 2 -0.001698 0.006756 -0.005777 0.000000 0.001065 0.000000
# 3 -0.000427 -0.005777 0.017100 0.000000 0.006394 0.000000
# 4 0.000000 0.000000 0.000000 0.021983 0.000000 0.004695
# 5 0.002609 0.001065 0.006394 0.000000 0.033693 0.000000
# 6 0.000000 0.000000 0.000000 0.004695 0.000000 0.043631
#
#
# Mechanical properties :
#
#
# Convention : Reuss Voigt Hill
#
# Bulk Modulus (GPa) = 52.33494 87.36288 69.84891
# Shear Modulus (GPa) = 31.97130 39.97176 35.97153
#
# Velocity S-wave (km/s) = 3.66997 4.10355 3.89280
# Velocity P-wave (km/s) = 6.32500 7.69779 7.04491
#
# Compressibility (1/GPa) = 0.01910769
#
# Stress axis : x y z
#
# Youngs Moduli (GPa) = 90.46332 148.01925 58.47786
#
# Poissons Ratio (x) = 0.25129 0.02494
# Poissons Ratio (y) = 0.15358 0.33784
# Poissons Ratio (z) = 0.03859 0.85514
#
# Static dielectric constant tensor:
#      x y z
#    x 1.966380 0.000000 0.029360 
#    y 0.000000 1.828220 0.000000 
#    z 0.029360 0.000000 1.840370 
# 
# From -- ./inp_files/31179.got.cif
#   From: 2010.05.17/outbox.cif.g08.bks.cpg/sg11_16_cif.got.tgz:31179.got - 2010.06.03 12:22:45.
