data_PCOD9163970
_publ_section_title
;
Structure prediction by ZEFSAII (Michael W. Deem and Ramdas Pophale) SiO2 
 PCOD9163970
Probable space group: P 21/M
;
_chemical_formula_sum "Si O2"
_cell_formula_units_Z 32
_cell_length_a 11.859509
_cell_length_b 13.516393
_cell_length_c 9.794603
_cell_angle_alpha 90.000000
_cell_angle_beta 90.164794
_cell_angle_gamma 90.000000
_cell_volume 1570.046666
_symmetry_space_group_name_H-M "P 21/M"
_symmetry_group_IT_number 11
_symmetry_cell_setting 'monoclinic'
loop_
_space_group_symop_operation_xyz
x,y,z
-x,1/2+y,-z
-x,-y,-z
x,1/2-y,z
loop_
_atom_site_type_symbol
_atom_site_label
_atom_site_fract_x
_atom_site_fract_y
_atom_site_fract_z
Si Si1 0.569522 0.541693 0.815027
Si Si2 0.683978 0.633723 0.551833
Si Si3 0.060069 0.132498 0.384136
Si Si4 0.270746 0.633224 0.219825
Si Si5 0.664829 0.507118 0.301586
Si Si6 0.816551 0.365648 0.473279
Si Si7 0.293100 0.133230 0.956156
Si Si8 0.901913 0.979301 0.892988
O O1 0.640993 0.599149 0.699022
O O2 0.617253 0.429584 0.812133
O O3 0.441011 0.545187 0.769354
O O4 0.600415 0.590445 0.959060
O O5 0.664066 0.750000 0.534517
O O6 0.818808 0.614369 0.545712
O O7 0.626181 0.570869 0.432629
O O8 0.059487 0.250000 0.348566
O O9 0.054450 0.066625 0.248420
O O10 0.950245 0.113210 0.475406
O O11 0.279063 0.750000 0.192241
O O12 0.240073 0.618816 0.379540
O O13 0.170843 0.578041 0.137755
O O14 0.754701 0.429923 0.359310
O O15 0.714581 0.581336 0.190084
O O16 0.803600 0.250000 0.440070
O O17 0.300135 0.250000 0.944107
O O18 0.185428 0.099171 0.043354
O O19 0.000000 0.000000 0.000000
#
# Coordination Sequence:
#
# PCOD9163970 Si02
#       8
#     4   4   4   4   4   4   4   4
#     4  11  23  44  63  90 125 173 211 256 315 376
#     4  11  22  39  66  94 121 161 216 262 313 373
#     4  10  20  38  62  87 122 165 207 250 310 377
#     4  10  22  40  60  89 125 168 212 257 314 374
#     4  12  24  41  62  98 128 160 212 270 313 364
#     4  10  22  39  62  94 130 167 205 257 318 375
#     4  11  24  43  64  90 127 166 213 260 317 375
#     4  11  22  38  61  89 123 168 207 260 309 373
#
# _framework density 20.38156
#
# number of rings (size 3 to 8) (size 9 to 14) (size 15 to 20)
#    0.000    1.250    3.750    2.625    0.000    6.000 
#    0.000    5.000    0.000    0.000    0.000    0.000 
#    0.000    0.000    0.000    0.000    0.000    0.000 
#
# Total GULP energy -178974.375595 kJ/mol
# GULP energy per Si atom -5592.949237 kJ/mol
# Density = 2.033517 g / cm^3
# Si number density = 20.381560 Si / 1000 Ang^3
#
#
#
# Elastic Constant Matrix: (Units=GPa)
#
#
# Indices 1 2 3 4 5 6 
#
# 1 62.2620 24.8371 1.3113 0.0000 9.2084 0.0000
# 2 24.8371 112.3278 24.9422 0.0000 6.8497 0.0000
# 3 1.3113 24.9422 75.6865 0.0000 9.6176 0.0000
# 4 0.0000 0.0000 0.0000 31.2206 0.0000 -1.2655
# 5 9.2084 6.8497 9.6176 0.0000 33.3476 0.0000
# 6 0.0000 0.0000 0.0000 -1.2655 0.0000 11.9037
#
#
#
# Elastic Compliance Matrix: (Units=1/GPa)
#
#
# Indices 1 2 3 4 5 6 
#
# 1 0.018373 -0.004141 0.001643 0.000000 -0.004697 0.000000
# 2 -0.004141 0.010578 -0.003408 0.000000 -0.000046 0.000000
# 3 0.001643 -0.003408 0.014819 0.000000 -0.004027 0.000000
# 4 0.000000 0.000000 0.000000 0.032169 0.000000 0.003420
# 5 -0.004697 -0.000046 -0.004027 0.000000 0.032455 0.000000
# 6 0.000000 0.000000 0.000000 0.003420 0.000000 0.084371
#
#
# Mechanical properties :
#
#
# Convention : Reuss Voigt Hill
#
# Bulk Modulus (GPa) = 31.29146 39.16195 35.22671
# Shear Modulus (GPa) = 23.23105 28.57342 25.90223
#
# Velocity S-wave (km/s) = 3.37977 3.74829 3.56879
# Velocity P-wave (km/s) = 5.53323 6.16352 5.85686
#
# Compressibility (1/GPa) = 0.03195760
#
# Stress axis : x y z
#
# Youngs Moduli (GPa) = 54.42743 94.53801 67.48146
#
# Poissons Ratio (x) = 0.39148 -0.11088
# Poissons Ratio (y) = 0.22538 0.22999
# Poissons Ratio (z) = -0.08943 0.32221
#
# Static dielectric constant tensor:
#      x y z
#    x 1.724290 0.000000 -0.018560 
#    y 0.000000 1.719840 0.000000 
#    z -0.018560 0.000000 1.705930 
# 
# From -- ./inp_files/18091.got.cif
#   From: 2010.05.17/outbox.cif.g08.bks.cpg/sg11_10_cif.got.tgz:18091.got - 2010.06.03 12:22:45.
