data_PCOD9163608
_publ_section_title
;
Structure prediction by ZEFSAII (Michael W. Deem and Ramdas Pophale) SiO2 
 PCOD9163608
Probable space group: P 21/M
;
_chemical_formula_sum "Si O2"
_cell_formula_units_Z 30
_cell_length_a 12.940915
_cell_length_b 7.462552
_cell_length_c 13.592614
_cell_angle_alpha 90.000000
_cell_angle_beta 90.361693
_cell_angle_gamma 90.000000
_cell_volume 1312.643177
_symmetry_space_group_name_H-M "P 21/M"
_symmetry_group_IT_number 11
_symmetry_cell_setting 'monoclinic'
loop_
_space_group_symop_operation_xyz
x,y,z
-x,1/2+y,-z
-x,-y,-z
x,1/2-y,z
loop_
_atom_site_type_symbol
_atom_site_label
_atom_site_fract_x
_atom_site_fract_y
_atom_site_fract_z
Si Si1 0.503748 0.964285 0.384745
Si Si2 0.915908 0.031467 0.778687
Si Si3 0.200947 0.453528 0.892790
Si Si4 0.728733 0.968974 0.321651
Si Si5 0.000000 0.000000 0.000000
Si Si6 0.318567 0.531771 0.248518
Si Si7 0.060518 0.036083 0.600609
Si Si8 0.384035 0.537634 0.031260
O O1 0.504707 0.750000 0.369344
O O2 0.613414 0.033121 0.343812
O O3 0.400564 0.031949 0.330087
O O4 0.500000 0.000000 0.500000
O O5 0.917344 0.250000 0.781363
O O6 0.946200 0.974891 0.888842
O O7 0.800496 0.973751 0.747235
O O8 0.996919 0.971335 0.695718
O O9 0.157199 0.250000 0.882001
O O10 0.231362 0.521770 0.786056
O O11 0.112203 0.548436 0.952931
O O12 0.304149 0.449198 0.956753
O O13 0.723866 0.750000 0.321490
O O14 0.820275 0.026419 0.395891
O O15 0.316371 0.750000 0.252959
O O16 0.362576 0.479726 0.142295
O O17 0.065081 0.250000 0.611142
O O18 0.000000 0.000000 0.500000
O O19 0.365072 0.750000 0.026305
O O20 0.500000 0.500000 0.000000
#
# Coordination Sequence:
#
# PCOD9163608 Si02
#       8
#     4   4   4   4   2   4   4   4
#     4  10  21  38  61  84 110 148 197 248 301 358
#     4  10  20  37  60  86 119 160 203 246 303 374
#     4  11  22  38  62  90 121 162 207 249 302 371
#     4   9  19  38  60  82 115 160 200 239 301 376
#     4  12  20  34  62  92 126 160 208 256 302 368
#     4   9  19  36  57  80 110 152 194 231 284 359
#     4  10  21  38  61  86 116 156 201 251 304 367
#     4  11  22  38  61  87 118 156 199 247 298 360
#
# _framework density 22.854651
#
# number of rings (size 3 to 8) (size 9 to 14) (size 15 to 20)
#    0.000    1.867    2.667    1.600    1.867    2.667 
#    0.000    5.333    0.000    0.000    0.000    0.000 
#    0.000    0.000    0.000    0.000    0.000    0.000 
#
# Total GULP energy -167201.593756 kJ/mol
# GULP energy per Si atom -5573.386459 kJ/mol
# Density = 2.280263 g / cm^3
# Si number density = 22.854651 Si / 1000 Ang^3
#
#
#
# Elastic Constant Matrix: (Units=GPa)
#
#
# Indices 1 2 3 4 5 6 
#
# 1 214.9131 2.9251 77.3385 0.0000 27.1534 0.0000
# 2 2.9251 68.2256 -3.8853 0.0000 -0.8664 0.0000
# 3 77.3385 -3.8853 148.7541 0.0000 28.5071 0.0000
# 4 0.0000 0.0000 0.0000 8.0035 0.0000 6.4754
# 5 27.1534 -0.8664 28.5071 0.0000 51.0122 0.0000
# 6 0.0000 0.0000 0.0000 6.4754 0.0000 -25.6652
#
#
#
# Elastic Compliance Matrix: (Units=1/GPa)
#
#
# Indices 1 2 3 4 5 6 
#
# 1 0.005848 -0.000427 -0.002748 0.000000 -0.001584 0.000000
# 2 -0.000427 0.014710 0.000577 0.000000 0.000155 0.000000
# 3 -0.002748 0.000577 0.008830 0.000000 -0.003462 0.000000
# 4 0.000000 0.000000 0.000000 0.103764 0.000000 0.026180
# 5 -0.001584 0.000155 -0.003462 0.000000 0.022384 0.000000
# 6 0.000000 0.000000 0.000000 0.026180 0.000000 -0.032358
#
#
# Mechanical properties :
#
#
# Convention : Reuss Voigt Hill
#
# Bulk Modulus (GPa) = 41.33799 64.96106 53.14952
# Shear Modulus (GPa) = 36.64664 30.37107 33.50885
#
# Velocity S-wave (km/s) = 4.00867 3.64933 3.83322
# Velocity P-wave (km/s) = 6.28908 6.80016 6.54961
#
# Compressibility (1/GPa) = 0.02419082
#
# Stress axis : x y z
#
# Youngs Moduli (GPa) = 171.00140 67.97923 113.25501
#
# Poissons Ratio (x) = 0.02905 0.31121
# Poissons Ratio (y) = 0.07307 -0.06531
# Poissons Ratio (z) = 0.46989 -0.03920
#
# Static dielectric constant tensor:
#      x y z
#    x 1.827100 0.000000 0.022980 
#    y 0.000000 1.950900 0.000000 
#    z 0.022980 0.000000 1.801540 
# 
# From -- ./inp_files/34841.got.cif
#   From: 2010.05.17/outbox.cif.g08.bks.cpg/sg11_18_cif.got.tgz:34841.got - 2010.06.03 12:22:45.
