data_PCOD9163373
_publ_section_title
;
Structure prediction by ZEFSAII (Michael W. Deem and Ramdas Pophale) SiO2 
 PCOD9163373
Probable space group: P 21/M
;
_chemical_formula_sum "Si O2"
_cell_formula_units_Z 32
_cell_length_a 9.158137
_cell_length_b 15.373635
_cell_length_c 14.778324
_cell_angle_alpha 90.000000
_cell_angle_beta 129.943325
_cell_angle_gamma 90.000000
_cell_volume 1595.228714
_symmetry_space_group_name_H-M "P 21/M"
_symmetry_group_IT_number 11
_symmetry_cell_setting 'monoclinic'
loop_
_space_group_symop_operation_xyz
x,y,z
-x,1/2+y,-z
-x,-y,-z
x,1/2-y,z
loop_
_atom_site_type_symbol
_atom_site_label
_atom_site_fract_x
_atom_site_fract_y
_atom_site_fract_z
Si Si1 0.936312 0.979590 0.577346
Si Si2 0.782495 0.978304 0.930913
Si Si3 0.578436 0.595916 0.011800
Si Si4 0.397493 0.153948 0.594210
Si Si5 0.466710 0.847541 0.149535
Si Si6 0.626080 0.086455 0.536342
Si Si7 0.243097 0.653495 0.752761
Si Si8 0.451423 0.151850 0.282897
O O1 0.763546 0.912472 0.497948
O O2 0.100598 0.927861 0.695985
O O3 0.839030 0.060110 0.591232
O O4 0.000000 0.000000 0.500000
O O5 0.686478 0.923782 0.810163
O O6 0.676658 0.070631 0.905459
O O7 0.743937 0.918074 0.004189
O O8 0.000000 0.000000 0.000000
O O9 0.607960 0.638947 0.120750
O O10 0.500000 0.500000 0.000000
O O11 0.403883 0.644989 0.893392
O O12 0.332114 0.250000 0.544775
O O13 0.428616 0.147424 0.713180
O O14 0.592397 0.135969 0.616901
O O15 0.381286 0.750000 0.108291
O O16 0.523092 0.135774 0.412755
O O17 0.500000 0.000000 0.500000
O O18 0.154180 0.750000 0.722715
O O19 0.362191 0.647287 0.706931
O O20 0.371408 0.250000 0.241806
#
# Coordination Sequence:
#
# PCOD9163373 Si02
#       8
#     4   4   4   4   4   4   4   4
#     4  11  21  35  61  93 122 153 200 258 317 373
#     4  10  21  39  62  94 123 158 205 269 327 382
#     4   9  20  38  62  86 119 162 208 250 314 373
#     4  10  22  40  59  82 122 167 205 249 306 373
#     4  10  21  41  64  84 121 171 218 257 309 375
#     4  10  20  37  58  86 123 166 205 247 313 383
#     4  10  20  36  61  92 124 155 202 259 309 370
#     4  10  20  37  62  90 125 166 206 258 320 385
#
# _framework density 20.059819999999998
#
# number of rings (size 3 to 8) (size 9 to 14) (size 15 to 20)
#    0.000    2.000    1.250    2.625    3.500    1.000 
#   13.500    0.000    0.000    3.000    0.000    0.000 
#    0.000    0.000    0.000    0.000    0.000    0.000 
#
# Total GULP energy -178401.428933 kJ/mol
# GULP energy per Si atom -5575.044654 kJ/mol
# Density = 2.001416 g / cm^3
# Si number density = 20.059820 Si / 1000 Ang^3
#
#
#
# Elastic Constant Matrix: (Units=GPa)
#
#
# Indices 1 2 3 4 5 6 
#
# 1 83.1685 24.4575 48.1113 0.0000 1.3722 0.0000
# 2 24.4575 98.4138 26.6693 0.0000 6.6867 0.0000
# 3 48.1113 26.6693 64.5306 0.0000 -21.5652 0.0000
# 4 0.0000 0.0000 0.0000 27.1855 0.0000 -0.5567
# 5 1.3722 6.6867 -21.5652 0.0000 29.6168 0.0000
# 6 0.0000 0.0000 0.0000 -0.5567 0.0000 14.9776
#
#
#
# Elastic Compliance Matrix: (Units=1/GPa)
#
#
# Indices 1 2 3 4 5 6 
#
# 1 0.030339 0.003002 -0.032453 0.000000 -0.025714 0.000000
# 2 0.003002 0.013363 -0.011651 0.000000 -0.011640 0.000000
# 3 -0.032453 -0.011651 0.060646 0.000000 0.048293 0.000000
# 4 0.000000 0.000000 0.000000 0.036812 0.000000 0.001368
# 5 -0.025714 -0.011640 0.048293 0.000000 0.072748 0.000000
# 6 0.000000 0.000000 0.000000 0.001368 0.000000 0.066817
#
#
# Mechanical properties :
#
#
# Convention : Reuss Voigt Hill
#
# Bulk Modulus (GPa) = 45.15833 49.39878 47.27856
# Shear Modulus (GPa) = 13.50211 24.14762 18.82487
#
# Velocity S-wave (km/s) = 2.59722 3.47332 3.06671
# Velocity P-wave (km/s) = 5.61736 6.38470 6.01329
#
# Compressibility (1/GPa) = 0.02214431
#
# Stress axis : x y z
#
# Youngs Moduli (GPa) = 32.96098 74.83223 16.48900
#
# Poissons Ratio (x) = -0.22465 0.53512
# Poissons Ratio (y) = -0.09895 0.19211
# Poissons Ratio (z) = 1.06970 0.87185
#
# Static dielectric constant tensor:
#      x y z
#    x 1.740700 0.000000 -0.031180 
#    y 0.000000 1.739320 0.000000 
#    z -0.031180 0.000000 1.717630 
# 
# From -- ./inp_files/47645.got.cif
#   From: 2010.05.17/outbox.cif.g08.bks.cpg/sg11_24_cif.got.tgz:47645.got - 2010.06.03 12:22:45.
