data_PCOD9163362
_publ_section_title
;
Structure prediction by ZEFSAII (Michael W. Deem and Ramdas Pophale) SiO2 
 PCOD9163362
Probable space group: P 21/M
;
_chemical_formula_sum "Si O2"
_cell_formula_units_Z 28
_cell_length_a 7.752348
_cell_length_b 14.064390
_cell_length_c 14.753813
_cell_angle_alpha 90.000000
_cell_angle_beta 42.782931
_cell_angle_gamma 90.000000
_cell_volume 1092.623708
_symmetry_space_group_name_H-M "P 21/M"
_symmetry_group_IT_number 11
_symmetry_cell_setting 'monoclinic'
loop_
_space_group_symop_operation_xyz
x,y,z
-x,1/2+y,-z
-x,-y,-z
x,1/2-y,z
loop_
_atom_site_type_symbol
_atom_site_label
_atom_site_fract_x
_atom_site_fract_y
_atom_site_fract_z
Si Si1 0.646472 0.401327 0.947661
Si Si2 0.717485 0.647813 0.760718
Si Si3 0.500740 0.635163 0.520089
Si Si4 0.060339 0.558966 0.334630
Si Si5 0.743569 0.361460 0.205190
Si Si6 0.370493 0.863410 0.364902
Si Si7 0.908647 0.866374 0.084025
O O1 0.440095 0.343856 0.084943
O O2 0.134592 0.589545 0.406933
O O3 0.897579 0.397953 0.912742
O O4 0.750608 0.382892 0.806774
O O5 0.851919 0.750000 0.693754
O O6 0.877705 0.551972 0.702579
O O7 0.505284 0.635157 0.763502
O O8 0.528367 0.750000 0.518573
O O9 0.776540 0.589652 0.423702
O O10 0.324279 0.599569 0.670443
O O11 0.400002 0.616216 0.458984
O O12 0.500000 0.500000 0.000000
O O13 0.801529 0.250000 0.196842
O O14 0.977976 0.399558 0.055898
O O15 0.357874 0.750000 0.358511
O O16 0.626714 0.898883 0.215877
O O17 0.911523 0.750000 0.084106
#
# Coordination Sequence:
#
# PCOD9163362 Si02
#       7
#     4   4   4   4   4   4   4
#     4   9  17  31  55  86 113 150 197 249 306 358
#     4   9  19  36  60  87 122 168 211 256 314 372
#     4  10  20  36  61  90 127 170 202 254 324 375
#     4  11  21  35  61  97 125 159 212 263 309 377
#     4   8  16  33  59  83 114 169 215 245 309 378
#     4  10  21  35  58  94 128 162 206 259 318 380
#     4   9  16  32  58  84 119 167 208 248 308 378
#
# _framework density 25.626387999999999
#
# number of rings (size 3 to 8) (size 9 to 14) (size 15 to 20)
#    0.000    2.571    1.429    1.714    0.000    2.286 
#    0.000    7.143    6.286    0.857    0.000    0.000 
#    0.000    1.143    0.000    0.000    0.000    0.000 
#
# Total GULP energy -156911.118855 kJ/mol
# GULP energy per Si atom -5603.968531 kJ/mol
# Density = 2.556806 g / cm^3
# Si number density = 25.626388 Si / 1000 Ang^3
#
#
#
# Elastic Constant Matrix: (Units=GPa)
#
#
# Indices 1 2 3 4 5 6 
#
# 1 105.7591 54.5594 61.2194 0.0000 17.4856 0.0000
# 2 54.5594 105.7176 42.6571 0.0000 16.0353 0.0000
# 3 61.2194 42.6571 193.5449 0.0000 22.2223 0.0000
# 4 0.0000 0.0000 0.0000 31.1287 0.0000 -5.1587
# 5 17.4856 16.0353 22.2223 0.0000 31.7436 0.0000
# 6 0.0000 0.0000 0.0000 -5.1587 0.0000 36.2262
#
#
#
# Elastic Compliance Matrix: (Units=1/GPa)
#
#
# Indices 1 2 3 4 5 6 
#
# 1 0.014767 -0.005947 -0.003013 0.000000 -0.003021 0.000000
# 2 -0.005947 0.013257 -0.000705 0.000000 -0.002928 0.000000
# 3 -0.003013 -0.000705 0.006572 0.000000 -0.002585 0.000000
# 4 0.000000 0.000000 0.000000 0.032901 0.000000 0.004685
# 5 -0.003021 -0.002928 -0.002585 0.000000 0.036455 0.000000
# 6 0.000000 0.000000 0.000000 0.004685 0.000000 0.028272
#
#
# Mechanical properties :
#
#
# Convention : Reuss Voigt Hill
#
# Bulk Modulus (GPa) = 65.50565 80.21039 72.85802
# Shear Modulus (GPa) = 31.91994 36.25875 34.08935
#
# Velocity S-wave (km/s) = 3.53312 3.76560 3.65121
# Velocity P-wave (km/s) = 6.50086 7.09043 6.80203
#
# Compressibility (1/GPa) = 0.01526586
#
# Stress axis : x y z
#
# Youngs Moduli (GPa) = 67.71771 75.43365 152.16074
#
# Poissons Ratio (x) = 0.44861 0.45852
# Poissons Ratio (y) = 0.40272 0.10720
# Poissons Ratio (z) = 0.20406 0.05315
#
# Static dielectric constant tensor:
#      x y z
#    x 1.931740 0.000000 -0.000570 
#    y 0.000000 2.027290 0.000000 
#    z -0.000570 0.000000 2.030810 
# 
# From -- ./inp_files/50233.got.cif
#   From: 2010.05.17/outbox.cif.g08.bks.cpg/sg11_26_cif.got.tgz:50233.got - 2010.06.03 12:22:45.
