data_PCOD9163728
_publ_section_title
;
Structure prediction by ZEFSAII (Michael W. Deem and Ramdas Pophale) SiO2 
 PCOD9163728
Probable space group: P 21/M
;
_chemical_formula_sum "Si O2"
_cell_formula_units_Z 26
_cell_length_a 21.441261
_cell_length_b 9.341844
_cell_length_c 12.290971
_cell_angle_alpha 90.000000
_cell_angle_beta 150.511034
_cell_angle_gamma 90.000000
_cell_volume 1211.881322
_symmetry_space_group_name_H-M "P 21/M"
_symmetry_group_IT_number 11
_symmetry_cell_setting 'monoclinic'
loop_
_space_group_symop_operation_xyz
x,y,z
-x,1/2+y,-z
-x,-y,-z
x,1/2-y,z
loop_
_atom_site_type_symbol
_atom_site_label
_atom_site_fract_x
_atom_site_fract_y
_atom_site_fract_z
Si Si1 0.877544 0.579364 0.768255
Si Si2 0.942711 0.579142 0.637321
Si Si3 0.798039 0.586373 0.215765
Si Si4 0.635533 0.919709 0.556934
Si Si5 0.766783 0.419841 0.945377
Si Si6 0.528995 0.982553 0.882790
Si Si7 0.558548 0.250000 0.090923
O O1 0.903124 0.750000 0.804016
O O2 0.862649 0.530498 0.619985
O O3 0.755979 0.559425 0.658929
O O4 0.000000 0.500000 0.000000
O O5 0.923496 0.750000 0.597110
O O6 0.899483 0.521488 0.454909
O O7 0.090585 0.555554 0.884452
O O8 0.830675 0.750000 0.232668
O O9 0.775375 0.488705 0.077257
O O10 0.667255 0.588139 0.084282
O O11 0.619826 0.750000 0.552261
O O12 0.667954 0.001827 0.716901
O O13 0.520115 0.982589 0.312629
O O14 0.743788 0.250000 0.915179
O O15 0.439083 0.874837 0.810556
O O16 0.540998 0.126144 0.970116
#
# Coordination Sequence:
#
# PCOD9163728 Si02
#       7
#     4   4   4   4   4   4   2
#     4  10  20  37  61  92 125 162 204 251 317 376
#     4   9  20  39  64  93 126 165 208 263 320 375
#     4  11  24  43  67  91 127 172 213 260 321 383
#     4  11  24  41  65  93 133 174 208 260 321 383
#     4  11  24  42  65  92 127 167 218 270 312 372
#     4  11  24  43  67  99 127 169 212 255 323 373
#     4  10  24  42  66  92 136 158 206 264 308 382
#
# _framework density 21.454245
#
# number of rings (size 3 to 8) (size 9 to 14) (size 15 to 20)
#    0.000    1.538    3.077    0.923    6.462    0.615 
#    0.000    1.538    0.000    0.000    0.000    0.000 
#    0.000    0.000    0.000    0.000    0.000    0.000 
#
# Total GULP energy -144753.169786 kJ/mol
# GULP energy per Si atom -5567.429607 kJ/mol
# Density = 2.140541 g / cm^3
# Si number density = 21.454245 Si / 1000 Ang^3
#
#
#
# Elastic Constant Matrix: (Units=GPa)
#
#
# Indices 1 2 3 4 5 6 
#
# 1 42.0481 20.3397 15.4801 0.0000 -25.2699 0.0000
# 2 20.3397 83.5688 17.0498 0.0000 -14.2803 0.0000
# 3 15.4801 17.0498 95.3616 0.0000 -32.2162 0.0000
# 4 0.0000 0.0000 0.0000 4.0848 0.0000 -16.7489
# 5 -25.2699 -14.2803 -32.2162 0.0000 44.6795 0.0000
# 6 0.0000 0.0000 0.0000 -16.7489 0.0000 28.4116
#
#
#
# Elastic Compliance Matrix: (Units=1/GPa)
#
#
# Indices 1 2 3 4 5 6 
#
# 1 0.038984 -0.006227 0.002064 0.000000 0.021547 0.000000
# 2 -0.006227 0.013754 -0.001524 0.000000 -0.000225 0.000000
# 3 0.002064 -0.001524 0.014085 0.000000 0.010836 0.000000
# 4 0.000000 0.000000 0.000000 -0.172744 0.000000 -0.101834
# 5 0.021547 -0.000225 0.010836 0.000000 0.042309 0.000000
# 6 0.000000 0.000000 0.000000 -0.101834 0.000000 -0.024835
#
#
# Mechanical properties :
#
#
# Convention : Reuss Voigt Hill
#
# Bulk Modulus (GPa) = 18.03500 36.30197 27.16849
# Shear Modulus (GPa) = -85.33921 26.64242 -29.34839
#
# Velocity S-wave (km/s) = -6.31377 3.52778 -3.70260
# Velocity P-wave (km/s) = 6.68783 5.79232 2.36390
#
# Compressibility (1/GPa) = 0.05544773
#
# Stress axis : x y z
#
# Youngs Moduli (GPa) = 25.65174 72.70392 70.99955
#
# Poissons Ratio (x) = 0.45276 -0.14656
# Poissons Ratio (y) = 0.15975 0.10823
# Poissons Ratio (z) = -0.05295 0.11082
#
# Static dielectric constant tensor:
#      x y z
#    x 1.823260 0.000000 0.015860 
#    y 0.000000 1.724230 0.000000 
#    z 0.015860 0.000000 1.784780 
# 
# From -- ./inp_files/42962.got.cif
#   From: 2010.05.17/outbox.cif.g08.bks.cpg/sg11_22_cif.got.tgz:42962.got - 2010.06.03 12:22:45.
