data_PCOD9163477
_publ_section_title
;
Structure prediction by ZEFSAII (Michael W. Deem and Ramdas Pophale) SiO2 
 PCOD9163477
Probable space group: P 21/M
;
_chemical_formula_sum "Si O2"
_cell_formula_units_Z 28
_cell_length_a 15.822810
_cell_length_b 12.219777
_cell_length_c 7.997684
_cell_angle_alpha 90.000000
_cell_angle_beta 69.005974
_cell_angle_gamma 90.000000
_cell_volume 1443.710953
_symmetry_space_group_name_H-M "P 21/M"
_symmetry_group_IT_number 11
_symmetry_cell_setting 'monoclinic'
loop_
_space_group_symop_operation_xyz
x,y,z
-x,1/2+y,-z
-x,-y,-z
x,1/2-y,z
loop_
_atom_site_type_symbol
_atom_site_label
_atom_site_fract_x
_atom_site_fract_y
_atom_site_fract_z
Si Si1 0.870628 0.005492 0.741567
Si Si2 0.655313 0.537979 0.431683
Si Si3 0.524434 0.134805 0.355367
Si Si4 0.064734 0.380900 0.633135
Si Si5 0.722978 0.126806 0.643582
Si Si6 0.180381 0.121320 0.883763
Si Si7 0.464237 0.872183 0.030386
O O1 0.887581 0.926110 0.569416
O O2 0.793603 0.089152 0.734243
O O3 0.841432 0.944146 0.931706
O O4 0.964979 0.067299 0.706711
O O5 0.583887 0.614858 0.579401
O O6 0.584106 0.456336 0.398422
O O7 0.719074 0.464389 0.502789
O O8 0.717865 0.598648 0.254124
O O9 0.537799 0.250000 0.437149
O O10 0.561757 0.140264 0.143192
O O11 0.060643 0.250000 0.625428
O O12 0.116445 0.408282 0.770053
O O13 0.744672 0.250000 0.569946
O O14 0.622030 0.126066 0.789429
O O15 0.168637 0.250000 0.924592
O O16 0.511608 0.750000 0.034801
O O17 0.500000 0.000000 0.000000
#
# Coordination Sequence:
#
# PCOD9163477 Si02
#       7
#     4   4   4   4   4   4   4
#     4  11  22  41  66  92 129 164 206 254 314 375
#     4  11  21  38  60  86 126 160 212 256 316 370
#     4  10  21  37  58  82 119 165 210 259 315 369
#     4  10  22  41  66  94 126 164 204 256 309 373
#     4  11  22  38  61  90 127 165 211 262 314 378
#     4  11  23  41  64  95 127 163 209 257 313 378
#     4  10  20  37  57  85 119 160 211 264 313 375
#
# _framework density 19.394463999999999
#
# number of rings (size 3 to 8) (size 9 to 14) (size 15 to 20)
#    0.000    1.429    2.857    3.000    0.000    0.000 
#    0.000    5.714    0.000    0.000    0.000    0.000 
#    0.000    0.000    0.000    0.000    0.000    0.000 
#
# Total GULP energy -155897.643721 kJ/mol
# GULP energy per Si atom -5567.772990 kJ/mol
# Density = 1.935032 g / cm^3
# Si number density = 19.394464 Si / 1000 Ang^3
#
#
#
# Elastic Constant Matrix: (Units=GPa)
#
#
# Indices 1 2 3 4 5 6 
#
# 1 64.5635 17.8473 -1.3948 0.0000 8.9718 0.0000
# 2 17.8473 73.9316 -7.0011 0.0000 7.5556 0.0000
# 3 -1.3948 -7.0011 55.3816 0.0000 11.1668 0.0000
# 4 0.0000 0.0000 0.0000 47.8021 0.0000 1.4185
# 5 8.9718 7.5556 11.1668 0.0000 19.6120 0.0000
# 6 0.0000 0.0000 0.0000 1.4185 0.0000 29.7517
#
#
#
# Elastic Compliance Matrix: (Units=1/GPa)
#
#
# Indices 1 2 3 4 5 6 
#
# 1 0.017493 -0.003296 0.001560 0.000000 -0.007621 0.000000
# 2 -0.003296 0.015238 0.003076 0.000000 -0.006114 0.000000
# 3 0.001560 0.003076 0.021315 0.000000 -0.014035 0.000000
# 4 0.000000 0.000000 0.000000 0.020949 0.000000 -0.000999
# 5 -0.007621 -0.006114 -0.014035 0.000000 0.064822 0.000000
# 6 0.000000 0.000000 0.000000 -0.000999 0.000000 0.033659
#
#
# Mechanical properties :
#
#
# Convention : Reuss Voigt Hill
#
# Bulk Modulus (GPa) = 17.62862 23.64217 20.63540
# Shear Modulus (GPa) = 26.35689 31.72816 29.04253
#
# Velocity S-wave (km/s) = 3.69045 4.04906 3.87391
# Velocity P-wave (km/s) = 5.22192 5.83751 5.53827
#
# Compressibility (1/GPa) = 0.05672594
#
# Stress axis : x y z
#
# Youngs Moduli (GPa) = 57.16733 65.62608 46.91597
#
# Poissons Ratio (x) = 0.21631 -0.07321
# Poissons Ratio (y) = 0.18843 -0.14432
# Poissons Ratio (z) = -0.08921 -0.20187
#
# Static dielectric constant tensor:
#      x y z
#    x 1.676980 0.000000 -0.000020 
#    y 0.000000 1.780300 0.000000 
#    z -0.000020 0.000000 1.657050 
# 
# From -- ./inp_files/21400.got.cif
#   From: 2010.05.17/outbox.cif.g08.bks.cpg/sg11_11_cif.got.tgz:21400.got - 2010.06.03 12:22:45.
