data_PCOD9163302
_publ_section_title
;
Structure prediction by ZEFSAII (Michael W. Deem and Ramdas Pophale) SiO2 
 PCOD9163302
Probable space group: P 21/M
;
_chemical_formula_sum "Si O2"
_cell_formula_units_Z 32
_cell_length_a 9.503910
_cell_length_b 13.523774
_cell_length_c 22.413436
_cell_angle_alpha 90.000000
_cell_angle_beta 33.517323
_cell_angle_gamma 90.000000
_cell_volume 1590.730004
_symmetry_space_group_name_H-M "P 21/M"
_symmetry_group_IT_number 11
_symmetry_cell_setting 'monoclinic'
loop_
_space_group_symop_operation_xyz
x,y,z
-x,1/2+y,-z
-x,-y,-z
x,1/2-y,z
loop_
_atom_site_type_symbol
_atom_site_label
_atom_site_fract_x
_atom_site_fract_y
_atom_site_fract_z
Si Si1 0.066008 0.864113 0.106547
Si Si2 0.377604 0.997939 0.907558
Si Si3 0.563385 0.638049 0.208360
Si Si4 0.727484 0.365054 0.305431
Si Si5 0.592719 0.137516 0.218096
Si Si6 0.933162 0.455794 0.764851
Si Si7 0.711126 0.560474 0.460158
Si Si8 0.125350 0.479023 0.393031
O O1 0.152881 0.750000 0.065088
O O2 0.776803 0.868898 0.184189
O O3 0.092869 0.891555 0.166268
O O4 0.216917 0.947523 0.016196
O O5 0.342308 0.925841 0.862927
O O6 0.315268 0.102240 0.897633
O O7 0.664578 0.012316 0.830842
O O8 0.474829 0.750000 0.235028
O O9 0.329452 0.565706 0.306244
O O10 0.805809 0.250000 0.283339
O O11 0.707605 0.390787 0.241975
O O12 0.915966 0.443932 0.269306
O O13 0.448525 0.376458 0.435440
O O14 0.657968 0.250000 0.183855
O O15 0.289816 0.119952 0.333085
O O16 0.102796 0.395988 0.656274
O O17 0.500000 0.500000 0.500000
O O18 0.897450 0.484470 0.427356
O O19 0.000000 0.500000 0.500000
#
# Coordination Sequence:
#
# PCOD9163302 Si02
#       8
#     4   4   4   4   4   4   4   4
#     4  11  25  43  64  90 122 161 207 255 309 369
#     4  11  22  42  66  91 119 161 201 265 307 360
#     4  10  23  41  64  94 124 159 205 255 309 367
#     4  10  22  38  60  90 125 165 204 246 301 369
#     4  10  20  36  60  89 118 156 201 251 306 356
#     4  11  22  41  62  87 126 164 204 251 309 362
#     4  10  21  37  58  85 122 162 204 242 302 361
#     4  11  20  37  61  87 122 160 201 251 304 353
#
# _framework density 20.116551000000001
#
# number of rings (size 3 to 8) (size 9 to 14) (size 15 to 20)
#    0.000    1.500    3.750    2.625    1.750    3.000 
#    0.000    1.875    0.000    0.000    0.000    0.000 
#    0.000    0.000    0.000    0.000    0.000    0.000 
#
# Total GULP energy -178425.509072 kJ/mol
# GULP energy per Si atom -5575.797158 kJ/mol
# Density = 2.007076 g / cm^3
# Si number density = 20.116551 Si / 1000 Ang^3
#
#
#
# Elastic Constant Matrix: (Units=GPa)
#
#
# Indices 1 2 3 4 5 6 
#
# 1 119.0199 20.9361 20.3805 0.0000 3.0236 0.0000
# 2 20.9361 75.4031 6.1011 0.0000 -2.8591 0.0000
# 3 20.3805 6.1011 67.1248 0.0000 13.2709 0.0000
# 4 0.0000 0.0000 0.0000 19.1881 0.0000 -3.4389
# 5 3.0236 -2.8591 13.2709 0.0000 39.8951 0.0000
# 6 0.0000 0.0000 0.0000 -3.4389 0.0000 10.0807
#
#
#
# Elastic Compliance Matrix: (Units=1/GPa)
#
#
# Indices 1 2 3 4 5 6 
#
# 1 0.009262 -0.002362 -0.002596 0.000000 -0.000008 0.000000
# 2 -0.002362 0.014042 -0.000849 0.000000 0.001468 0.000000
# 3 -0.002596 -0.000849 0.016844 0.000000 -0.005467 0.000000
# 4 0.000000 0.000000 0.000000 0.055509 0.000000 0.018936
# 5 -0.000008 0.001468 -0.005467 0.000000 0.026990 0.000000
# 6 0.000000 0.000000 0.000000 0.018936 0.000000 0.105659
#
#
# Mechanical properties :
#
#
# Convention : Reuss Voigt Hill
#
# Bulk Modulus (GPa) = 35.04634 39.59815 37.32224
# Shear Modulus (GPa) = 20.04545 28.10811 24.07678
#
# Velocity S-wave (km/s) = 3.16011 3.74205 3.46333
# Velocity P-wave (km/s) = 5.54748 6.19659 5.88100
#
# Compressibility (1/GPa) = 0.02853365
#
# Stress axis : x y z
#
# Youngs Moduli (GPa) = 107.96628 71.21365 59.36864
#
# Poissons Ratio (x) = 0.16820 0.15412
# Poissons Ratio (y) = 0.25501 0.05043
# Poissons Ratio (z) = 0.28028 0.06049
#
# Static dielectric constant tensor:
#      x y z
#    x 1.709890 0.000000 0.014710 
#    y 0.000000 1.729090 0.000000 
#    z 0.014710 0.000000 1.773160 
# 
# From -- ./inp_files/55041.got.cif
#   From: 2010.05.17/outbox.cif.g08.bks.cpg/sg11_28_cif.got.tgz:55041.got - 2010.06.03 12:22:45.
