data_PCOD9163344
_publ_section_title
;
Structure prediction by ZEFSAII (Michael W. Deem and Ramdas Pophale) SiO2 
 PCOD9163344
Probable space group: P 21/M
;
_chemical_formula_sum "Si O2"
_cell_formula_units_Z 32
_cell_length_a 32.138183
_cell_length_b 7.924364
_cell_length_c 12.681558
_cell_angle_alpha 90.000000
_cell_angle_beta 151.287293
_cell_angle_gamma 90.000000
_cell_volume 1551.592370
_symmetry_space_group_name_H-M "P 21/M"
_symmetry_group_IT_number 11
_symmetry_cell_setting 'monoclinic'
loop_
_space_group_symop_operation_xyz
x,y,z
-x,1/2+y,-z
-x,-y,-z
x,1/2-y,z
loop_
_atom_site_type_symbol
_atom_site_label
_atom_site_fract_x
_atom_site_fract_y
_atom_site_fract_z
Si Si1 0.724194 0.545905 0.969857
Si Si2 0.825187 0.955817 0.387674
Si Si3 0.440772 0.942848 0.273273
Si Si4 0.491210 0.060582 0.165125
Si Si5 0.684985 0.949696 0.642999
Si Si6 0.805135 0.052762 0.722507
Si Si7 0.306258 0.449068 0.722687
Si Si8 0.996430 0.453308 0.114770
O O1 0.713478 0.750000 0.946349
O O2 0.652846 0.464784 0.886462
O O3 0.705520 0.490178 0.808434
O O4 0.809245 0.505882 0.228518
O O5 0.823443 0.750000 0.391849
O O6 0.749455 0.015258 0.301042
O O7 0.917689 0.017156 0.635678
O O8 0.459130 0.750000 0.283091
O O9 0.500000 0.000000 0.500000
O O10 0.459721 0.058909 0.216423
O O11 0.503722 0.250000 0.151216
O O12 0.586355 0.979894 0.384285
O O13 0.403941 0.980110 0.920131
O O14 0.699438 0.750000 0.674492
O O15 0.751088 0.031103 0.708443
O O16 0.810218 0.250000 0.706461
O O17 0.753143 0.968144 0.511584
O O18 0.903291 0.986997 0.950028
O O19 0.320397 0.250000 0.772939
O O20 0.998673 0.250000 0.129000
O O21 0.000000 0.500000 0.000000
#
# Coordination Sequence:
#
# PCOD9163344 Si02
#       8
#     4   4   4   4   4   4   4   4
#     4  10  20  37  59  85 115 152 199 245 292 344
#     4   9  17  34  60  90 120 148 183 237 301 354
#     4  12  22  32  52  82 117 155 196 242 287 339
#     4  11  22  37  58  86 119 154 195 245 295 346
#     4  11  24  40  60  82 113 161 206 241 285 349
#     4  11  24  40  59  85 119 155 196 244 293 349
#     4  10  20  36  61  88 117 154 191 236 297 355
#     4  10  20  36  62  91 117 149 187 237 296 353
#
# _framework density 20.623975000000002
#
# number of rings (size 3 to 8) (size 9 to 14) (size 15 to 20)
#    0.000    1.500    3.750    2.250    0.000    2.500 
#    0.000    1.250    0.000    0.000    0.000    0.000 
#    0.000    0.000    0.000    0.000    0.000    0.000 
#
# Total GULP energy -178484.153148 kJ/mol
# GULP energy per Si atom -5577.629786 kJ/mol
# Density = 2.057703 g / cm^3
# Si number density = 20.623975 Si / 1000 Ang^3
#
#
#
# Elastic Constant Matrix: (Units=GPa)
#
#
# Indices 1 2 3 4 5 6 
#
# 1 66.3122 -0.6320 33.4605 0.0000 18.7025 0.0000
# 2 -0.6320 32.0101 9.3521 0.0000 1.7660 0.0000
# 3 33.4605 9.3521 159.5804 0.0000 13.1388 0.0000
# 4 0.0000 0.0000 0.0000 15.0724 0.0000 -1.1452
# 5 18.7025 1.7660 13.1388 0.0000 22.2517 0.0000
# 6 0.0000 0.0000 0.0000 -1.1452 0.0000 18.0678
#
#
#
# Elastic Compliance Matrix: (Units=1/GPa)
#
#
# Indices 1 2 3 4 5 6 
#
# 1 0.021310 0.002268 -0.003271 0.000000 -0.016160 0.000000
# 2 0.002268 0.032073 -0.002090 0.000000 -0.003217 0.000000
# 3 -0.003271 -0.002090 0.007184 0.000000 -0.001327 0.000000
# 4 0.000000 0.000000 0.000000 0.066668 0.000000 0.004226
# 5 -0.016160 -0.003217 -0.001327 0.000000 0.059561 0.000000
# 6 0.000000 0.000000 0.000000 0.004226 0.000000 0.055615
#
#
# Mechanical properties :
#
#
# Convention : Reuss Voigt Hill
#
# Bulk Modulus (GPa) = 18.38890 38.02932 28.20911
# Shear Modulus (GPa) = 18.74598 25.45984 22.10291
#
# Velocity S-wave (km/s) = 3.01814 3.51733 3.27725
# Velocity P-wave (km/s) = 4.59142 5.91395 5.29415
#
# Compressibility (1/GPa) = 0.05438063
#
# Stress axis : x y z
#
# Youngs Moduli (GPa) = 46.92693 31.17877 139.19888
#
# Poissons Ratio (x) = -0.07071 0.45526
# Poissons Ratio (y) = -0.10642 0.29096
# Poissons Ratio (z) = 0.15348 0.06517
#
# Static dielectric constant tensor:
#      x y z
#    x 1.699770 0.000000 0.000620 
#    y 0.000000 1.754160 0.000000 
#    z 0.000620 0.000000 1.798220 
# 
# From -- ./inp_files/45252.got.cif
#   From: 2010.05.17/outbox.cif.g08.bks.cpg/sg11_23_cif.got.tgz:45252.got - 2010.06.03 12:22:45.
