data_PCOD9163928
_publ_section_title
;
Structure prediction by ZEFSAII (Michael W. Deem and Ramdas Pophale) SiO2 
 PCOD9163928
Probable space group: P 21/M
;
_chemical_formula_sum "Si O2"
_cell_formula_units_Z 28
_cell_length_a 18.657092
_cell_length_b 8.663041
_cell_length_c 23.098521
_cell_angle_alpha 90.000000
_cell_angle_beta 156.248453
_cell_angle_gamma 90.000000
_cell_volume 1503.685888
_symmetry_space_group_name_H-M "P 21/M"
_symmetry_group_IT_number 11
_symmetry_cell_setting 'monoclinic'
loop_
_space_group_symop_operation_xyz
x,y,z
-x,1/2+y,-z
-x,-y,-z
x,1/2-y,z
loop_
_atom_site_type_symbol
_atom_site_label
_atom_site_fract_x
_atom_site_fract_y
_atom_site_fract_z
Si Si1 0.344461 0.064301 0.216524
Si Si2 0.004842 0.935836 0.438547
Si Si3 0.694041 0.435836 0.127748
Si Si4 0.960634 0.435699 0.088573
Si Si5 0.702924 0.435481 0.001851
Si Si6 0.654551 0.434183 0.654546
Si Si7 0.599709 0.064518 0.300787
O O1 0.335872 0.250000 0.213310
O O2 0.501043 0.019227 0.287331
O O3 0.163369 0.000020 0.054456
O O4 0.371133 0.995147 0.299293
O O5 0.995702 0.750000 0.433108
O O6 0.195618 0.983215 0.552574
O O7 0.000000 0.000000 0.500000
O O8 0.842481 0.999996 0.280827
O O9 0.692083 0.250000 0.129493
O O10 0.500000 0.500000 0.000000
O O11 0.733509 0.483206 0.090466
O O12 0.968140 0.250000 0.090701
O O13 0.859899 0.480756 0.073614
O O14 0.155608 0.504830 0.227456
O O15 0.691531 0.250000 0.992251
O O16 0.519867 0.500012 0.839954
O O17 0.500000 0.500000 0.500000
O O18 0.652429 0.250000 0.652417
O O19 0.593709 0.250000 0.293001
#
# Coordination Sequence:
#
# PCOD9163928 Si02
#       7
#     4   4   4   4   4   4   4
#     4  10  20  38  61  86 114 149 189 231 277 333
#     4  11  23  39  58  84 115 151 190 233 281 334
#     4  11  23  39  58  84 115 151 190 233 281 334
#     4  10  20  38  61  86 114 149 189 231 277 333
#     4   9  20  37  59  85 114 146 186 231 279 331
#     4  12  25  40  57  82 114 150 188 234 285 336
#     4   9  20  37  59  85 114 146 186 231 279 331
#
# _framework density 18.620909999999999
#
# number of rings (size 3 to 8) (size 9 to 14) (size 15 to 20)
#    0.000    1.714    0.000    4.286    0.000    6.857 
#    0.000    2.857    0.000    0.000    0.000    0.000 
#    0.000    0.000    0.000    0.000    0.000    0.000 
#
# Total GULP energy -156495.970761 kJ/mol
# GULP energy per Si atom -5589.141813 kJ/mol
# Density = 1.857853 g / cm^3
# Si number density = 18.620910 Si / 1000 Ang^3
#
#
#
# Elastic Constant Matrix: (Units=GPa)
#
#
# Indices 1 2 3 4 5 6 
#
# 1 128.8612 52.0694 123.5966 0.0000 -14.4247 0.0000
# 2 52.0694 78.8200 62.3794 0.0000 -2.1007 0.0000
# 3 123.5966 62.3794 204.9469 0.0000 -1.1282 0.0000
# 4 0.0000 0.0000 0.0000 38.4638 0.0000 -2.4652
# 5 -14.4247 -2.1007 -1.1282 0.0000 35.1403 0.0000
# 6 0.0000 0.0000 0.0000 -2.4652 0.0000 26.4377
#
#
#
# Elastic Compliance Matrix: (Units=1/GPa)
#
#
# Indices 1 2 3 4 5 6 
#
# 1 0.021845 -0.005032 -0.011597 0.000000 0.008294 0.000000
# 2 -0.005032 0.017897 -0.002418 0.000000 -0.001073 0.000000
# 3 -0.011597 -0.002418 0.012584 0.000000 -0.004501 0.000000
# 4 0.000000 0.000000 0.000000 0.026155 0.000000 0.002439
# 5 0.008294 -0.001073 -0.004501 0.000000 0.031653 0.000000
# 6 0.000000 0.000000 0.000000 0.002439 0.000000 0.038052
#
#
# Mechanical properties :
#
#
# Convention : Reuss Voigt Hill
#
# Bulk Modulus (GPa) = 70.26692 98.74656 84.50674
# Shear Modulus (GPa) = 26.17460 31.64718 28.91089
#
# Velocity S-wave (km/s) = 3.75328 4.12703 3.94458
# Velocity P-wave (km/s) = 7.52331 8.70947 8.13803
#
# Compressibility (1/GPa) = 0.01423145
#
# Stress axis : x y z
#
# Youngs Moduli (GPa) = 45.77692 55.87590 79.46465
#
# Poissons Ratio (x) = 0.28118 0.92153
# Poissons Ratio (y) = 0.23036 0.19217
# Poissons Ratio (z) = 0.53086 0.13513
#
# Static dielectric constant tensor:
#      x y z
#    x 1.651980 0.000000 0.002200 
#    y 0.000000 1.626200 0.000000 
#    z 0.002200 0.000000 1.641240 
# 
# From -- ./inp_files/69841.got.cif
#   From: 2010.05.17/outbox.cif.g08.bks.cpg/sg11_35_cif.got.tgz:69841.got - 2010.06.03 12:22:45.
