data_PCOD9163761
_publ_section_title
;
Structure prediction by ZEFSAII (Michael W. Deem and Ramdas Pophale) SiO2 
 PCOD9163761
Probable space group: P 21/M
;
_chemical_formula_sum "Si O2"
_cell_formula_units_Z 32
_cell_length_a 11.763576
_cell_length_b 13.646409
_cell_length_c 17.661528
_cell_angle_alpha 90.000000
_cell_angle_beta 31.271744
_cell_angle_gamma 90.000000
_cell_volume 1471.753558
_symmetry_space_group_name_H-M "P 21/M"
_symmetry_group_IT_number 11
_symmetry_cell_setting 'monoclinic'
loop_
_space_group_symop_operation_xyz
x,y,z
-x,1/2+y,-z
-x,-y,-z
x,1/2-y,z
loop_
_atom_site_type_symbol
_atom_site_label
_atom_site_fract_x
_atom_site_fract_y
_atom_site_fract_z
Si Si1 0.921725 0.359980 0.173147
Si Si2 0.977596 0.138575 0.818762
Si Si3 0.205277 0.628874 0.916694
Si Si4 0.319688 0.444812 0.384516
Si Si5 0.432792 0.097364 0.492256
Si Si6 0.733376 0.367857 0.805593
Si Si7 0.084544 0.445336 0.370445
Si Si8 0.228677 0.132964 0.127489
O O1 0.009246 0.250000 0.115309
O O2 0.920821 0.398685 0.088482
O O3 0.669708 0.355208 0.343898
O O4 0.061822 0.408815 0.159582
O O5 0.896463 0.250000 0.866932
O O6 0.235697 0.138779 0.654663
O O7 0.851729 0.100399 0.816466
O O8 0.919384 0.103063 0.935467
O O9 0.244647 0.750000 0.890699
O O10 0.431444 0.568522 0.783951
O O11 0.331067 0.406577 0.464845
O O12 0.188766 0.400000 0.386825
O O13 0.178813 0.544772 0.475562
O O14 0.500000 0.000000 0.500000
O O15 0.766780 0.250000 0.773157
O O16 0.828561 0.441847 0.689036
O O17 0.476988 0.388444 0.962767
O O18 0.167306 0.396752 0.247043
O O19 0.207790 0.250000 0.139189
#
# Coordination Sequence:
#
# PCOD9163761 Si02
#       8
#     4   4   4   4   4   4   4   4
#     4   9  19  36  58  83 116 158 197 243 300 359
#     4  10  20  37  62  90 115 150 203 255 303 354
#     4   9  19  37  60  88 120 156 201 255 304 351
#     4  10  22  37  56  87 121 154 200 246 299 366
#     4  11  21  38  59  84 118 155 199 246 300 363
#     4  10  21  37  61  90 117 155 203 254 308 361
#     4  11  21  38  59  85 126 159 203 249 306 358
#     4  10  21  38  61  90 123 162 205 245 305 372
#
# _framework density 21.742771000000001
#
# number of rings (size 3 to 8) (size 9 to 14) (size 15 to 20)
#    0.000    2.000    1.250    2.250    0.000    2.500 
#    2.250    3.125    0.000    0.750    0.000    0.000 
#    0.000    0.000    0.000    0.000    0.000    0.000 
#
# Total GULP energy -178217.204429 kJ/mol
# GULP energy per Si atom -5569.287638 kJ/mol
# Density = 2.169328 g / cm^3
# Si number density = 21.742771 Si / 1000 Ang^3
#
#
#
# Elastic Constant Matrix: (Units=GPa)
#
#
# Indices 1 2 3 4 5 6 
#
# 1 130.6439 33.6723 70.2231 0.0000 4.3433 0.0000
# 2 33.6723 49.6506 18.9023 0.0000 0.5104 0.0000
# 3 70.2231 18.9023 124.9539 0.0000 30.2965 0.0000
# 4 0.0000 0.0000 0.0000 19.0617 0.0000 -5.1259
# 5 4.3433 0.5104 30.2965 0.0000 36.0232 0.0000
# 6 0.0000 0.0000 0.0000 -5.1259 0.0000 14.8922
#
#
#
# Elastic Compliance Matrix: (Units=1/GPa)
#
#
# Indices 1 2 3 4 5 6 
#
# 1 0.013193 -0.006066 -0.007702 0.000000 0.004973 0.000000
# 2 -0.006066 0.024428 -0.000477 0.000000 0.000786 0.000000
# 3 -0.007702 -0.000477 0.015296 0.000000 -0.011929 0.000000
# 4 0.000000 0.000000 0.000000 0.057812 0.000000 0.019899
# 5 0.004973 0.000786 -0.011929 0.000000 0.037182 0.000000
# 6 0.000000 0.000000 0.000000 0.019899 0.000000 0.073998
#
#
# Mechanical properties :
#
#
# Convention : Reuss Voigt Hill
#
# Bulk Modulus (GPa) = 40.93958 61.20487 51.07222
# Shear Modulus (GPa) = 19.33924 26.15880 22.74902
#
# Velocity S-wave (km/s) = 2.98561 3.47234 3.23813
# Velocity P-wave (km/s) = 5.54573 6.65484 6.12544
#
# Compressibility (1/GPa) = 0.02442624
#
# Stress axis : x y z
#
# Youngs Moduli (GPa) = 75.80013 40.93659 65.37622
#
# Poissons Ratio (x) = 0.24831 0.50355
# Poissons Ratio (y) = 0.45979 0.03119
# Poissons Ratio (z) = 0.58384 0.01953
#
# Static dielectric constant tensor:
#      x y z
#    x 1.830540 0.000000 -0.022110 
#    y 0.000000 1.870590 0.000000 
#    z -0.022110 0.000000 1.786760 
# 
# From -- ./inp_files/59433.got.cif
#   From: 2010.05.17/outbox.cif.g08.bks.cpg/sg11_30_cif.got.tgz:59433.got - 2010.06.03 12:22:45.
