data_PCOD9163165
_publ_section_title
;
Structure prediction by ZEFSAII (Michael W. Deem and Ramdas Pophale) SiO2 
 PCOD9163165
Probable space group: P 21/M
;
_chemical_formula_sum "Si O2"
_cell_formula_units_Z 30
_cell_length_a 14.721127
_cell_length_b 9.625647
_cell_length_c 12.031785
_cell_angle_alpha 90.000000
_cell_angle_beta 67.054804
_cell_angle_gamma 90.000000
_cell_volume 1570.012937
_symmetry_space_group_name_H-M "P 21/M"
_symmetry_group_IT_number 11
_symmetry_cell_setting 'monoclinic'
loop_
_space_group_symop_operation_xyz
x,y,z
-x,1/2+y,-z
-x,-y,-z
x,1/2-y,z
loop_
_atom_site_type_symbol
_atom_site_label
_atom_site_fract_x
_atom_site_fract_y
_atom_site_fract_z
Si Si1 0.083690 0.585985 0.897599
Si Si2 0.943172 0.085274 0.349877
Si Si3 0.468547 0.516792 0.356076
Si Si4 0.251971 0.913349 0.981783
Si Si5 0.448827 0.414757 0.924739
Si Si6 0.509767 0.250000 0.465704
Si Si7 0.253108 0.916369 0.420741
Si Si8 0.137183 0.587807 0.263340
O O1 0.065409 0.750000 0.924539
O O2 0.078858 0.558820 0.769189
O O3 0.190403 0.556611 0.899659
O O4 0.000000 0.500000 0.000000
O O5 0.959721 0.250000 0.357277
O O6 0.846042 0.047712 0.465349
O O7 0.041318 0.002633 0.334106
O O8 0.494431 0.563896 0.219013
O O9 0.516675 0.372395 0.367207
O O10 0.498400 0.630591 0.432337
O O11 0.349206 0.505183 0.416662
O O12 0.282311 0.750000 0.968243
O O13 0.341894 0.016380 0.957008
O O14 0.175179 0.931438 0.120294
O O15 0.444241 0.250000 0.951706
O O16 0.500000 0.500000 0.000000
O O17 0.271661 0.750000 0.426916
O O18 0.226334 0.943023 0.305351
O O19 0.112082 0.750000 0.291822
#
# Coordination Sequence:
#
# PCOD9163165 Si02
#       8
#     4   4   4   4   4   2   4   4
#     4  10  20  36  59  85 120 159 202 251 308 374
#     4  10  21  36  57  89 121 158 202 249 307 369
#     4  11  23  47  68  97 129 170 218 269 330 387
#     4  10  22  39  62  92 121 167 212 257 326 384
#     4  12  26  44  68 100 134 172 220 273 330 392
#     4  10  24  42  74  92 128 170 214 272 330 384
#     4  10  20  38  62  88 119 163 203 249 312 379
#     4  10  20  38  61  84 123 164 202 251 309 373
#
# _framework density 19.108122000000002
#
# number of rings (size 3 to 8) (size 9 to 14) (size 15 to 20)
#    0.000    1.600    2.667    1.600    1.867    4.267 
#    4.800    0.000    0.000    0.000    0.000    0.000 
#    0.000    0.000    0.000    0.000    0.000    0.000 
#
# Total GULP energy -167024.081736 kJ/mol
# GULP energy per Si atom -5567.469391 kJ/mol
# Density = 1.906463 g / cm^3
# Si number density = 19.108122 Si / 1000 Ang^3
#
#
#
# Elastic Constant Matrix: (Units=GPa)
#
#
# Indices 1 2 3 4 5 6 
#
# 1 56.4067 38.1828 9.0017 0.0000 -0.2898 0.0000
# 2 38.1828 94.9919 18.4294 0.0000 6.7480 0.0000
# 3 9.0017 18.4294 43.0005 0.0000 7.5965 0.0000
# 4 0.0000 0.0000 0.0000 17.3538 0.0000 3.6595
# 5 -0.2898 6.7480 7.5965 0.0000 25.5237 0.0000
# 6 0.0000 0.0000 0.0000 3.6595 0.0000 9.6874
#
#
#
# Elastic Compliance Matrix: (Units=1/GPa)
#
#
# Indices 1 2 3 4 5 6 
#
# 1 0.024659 -0.009852 -0.001530 0.000000 0.003340 0.000000
# 2 -0.009852 0.015485 -0.004044 0.000000 -0.003002 0.000000
# 3 -0.001530 -0.004044 0.026517 0.000000 -0.006840 0.000000
# 4 0.000000 0.000000 0.000000 0.062612 0.000000 -0.023653
# 5 0.003340 -0.003002 -0.006840 0.000000 0.042047 0.000000
# 6 0.000000 0.000000 0.000000 -0.023653 0.000000 0.112162
#
#
# Mechanical properties :
#
#
# Convention : Reuss Voigt Hill
#
# Bulk Modulus (GPa) = 27.92522 36.18076 32.05299
# Shear Modulus (GPa) = 15.32468 19.09866 17.21167
#
# Velocity S-wave (km/s) = 2.83503 3.16492 3.00451
# Velocity P-wave (km/s) = 5.03613 5.68608 5.37094
#
# Compressibility (1/GPa) = 0.03580992
#
# Stress axis : x y z
#
# Youngs Moduli (GPa) = 40.55333 64.57746 37.71124
#
# Poissons Ratio (x) = 0.63624 0.05768
# Poissons Ratio (y) = 0.39955 0.15250
# Poissons Ratio (z) = 0.06203 0.26114
#
# Static dielectric constant tensor:
#      x y z
#    x 1.673090 0.000000 0.022520 
#    y 0.000000 1.638390 0.000000 
#    z 0.022520 0.000000 1.676810 
# 
# From -- ./inp_files/38053.got.cif
#   From: 2010.05.17/outbox.cif.g08.bks.cpg/sg11_20_cif.got.tgz:38053.got - 2010.06.03 12:22:45.
