data_PCOD9163484
_publ_section_title
;
Structure prediction by ZEFSAII (Michael W. Deem and Ramdas Pophale) SiO2 
 PCOD9163484
Probable space group: P 21/M
;
_chemical_formula_sum "Si O2"
_cell_formula_units_Z 32
_cell_length_a 22.426154
_cell_length_b 13.663113
_cell_length_c 17.168633
_cell_angle_alpha 90.000000
_cell_angle_beta 15.213713
_cell_angle_gamma 90.000000
_cell_volume 1380.502929
_symmetry_space_group_name_H-M "P 21/M"
_symmetry_group_IT_number 11
_symmetry_cell_setting 'monoclinic'
loop_
_space_group_symop_operation_xyz
x,y,z
-x,1/2+y,-z
-x,-y,-z
x,1/2-y,z
loop_
_atom_site_type_symbol
_atom_site_label
_atom_site_fract_x
_atom_site_fract_y
_atom_site_fract_z
Si Si1 0.331581 0.855943 0.591898
Si Si2 0.716084 0.635224 0.652648
Si Si3 0.835082 0.867610 0.668961
Si Si4 0.344162 0.632748 0.987574
Si Si5 0.288533 0.068953 0.594757
Si Si6 0.298219 0.143061 0.752798
Si Si7 0.940859 0.990608 0.255109
Si Si8 0.518909 0.361685 0.762149
O O1 0.210159 0.750000 0.737879
O O2 0.455168 0.860509 0.518527
O O3 0.511306 0.854935 0.292898
O O4 0.226017 0.959970 0.704315
O O5 0.777804 0.750000 0.571086
O O6 0.683036 0.610442 0.784528
O O7 0.502199 0.620760 0.865221
O O8 0.915463 0.568680 0.366046
O O9 0.855140 0.750000 0.651119
O O10 0.700288 0.898795 0.915507
O O11 0.090345 0.900306 0.328687
O O12 0.340396 0.750000 0.974849
O O13 0.473716 0.581266 0.752011
O O14 0.297411 0.132090 0.661053
O O15 0.107271 0.087001 0.754284
O O16 0.199969 0.250000 0.896911
O O17 0.161333 0.053834 0.962477
O O18 0.733004 0.069078 0.511036
O O19 0.569146 0.250000 0.724829
#
# Coordination Sequence:
#
# PCOD9163484 Si02
#       8
#     4   4   4   4   4   4   4   4
#     4   9  20  37  55  79 113 147 185 234 277 330
#     4   9  19  36  54  81 118 149 193 241 279 337
#     4   9  18  34  58  84 114 155 193 233 287 339
#     4   9  18  34  57  85 116 150 189 239 291 337
#     4  10  20  37  58  81 110 150 187 231 284 341
#     4  11  22  37  58  85 112 144 187 234 283 340
#     4  10  21  36  56  82 113 149 186 229 287 336
#     4   9  18  37  58  80 114 151 188 229 279 341
#
# _framework density 23.179957000000002
#
# number of rings (size 3 to 8) (size 9 to 14) (size 15 to 20)
#    0.000    2.500    0.000    1.500    1.750    1.500 
#    2.250    6.250    0.000    0.000    0.000    0.000 
#    0.000    0.000    0.000    0.000    0.000    0.000 
#
# Total GULP energy -178573.577710 kJ/mol
# GULP energy per Si atom -5580.424303 kJ/mol
# Density = 2.312720 g / cm^3
# Si number density = 23.179957 Si / 1000 Ang^3
#
#
#
# Elastic Constant Matrix: (Units=GPa)
#
#
# Indices 1 2 3 4 5 6 
#
# 1 62.3303 21.3952 19.2218 0.0000 9.1451 0.0000
# 2 21.3952 84.0680 14.7382 0.0000 0.4866 0.0000
# 3 19.2218 14.7382 88.3501 0.0000 4.3032 0.0000
# 4 0.0000 0.0000 0.0000 30.2303 0.0000 -0.0360
# 5 9.1451 0.4866 4.3032 0.0000 25.9218 0.0000
# 6 0.0000 0.0000 0.0000 -0.0360 0.0000 25.4263
#
#
#
# Elastic Compliance Matrix: (Units=1/GPa)
#
#
# Indices 1 2 3 4 5 6 
#
# 1 0.019440 -0.004350 -0.003199 0.000000 -0.006246 0.000000
# 2 -0.004350 0.013227 -0.001333 0.000000 0.001508 0.000000
# 3 -0.003199 -0.001333 0.012280 0.000000 -0.000885 0.000000
# 4 0.000000 0.000000 0.000000 0.033079 0.000000 0.000047
# 5 -0.006246 0.001508 -0.000885 0.000000 0.040900 0.000000
# 6 0.000000 0.000000 0.000000 0.000047 0.000000 0.039329
#
#
# Mechanical properties :
#
#
# Convention : Reuss Voigt Hill
#
# Bulk Modulus (GPa) = 36.79078 38.38433 37.58755
# Shear Modulus (GPa) = 27.01492 28.27521 27.64507
#
# Velocity S-wave (km/s) = 3.41756 3.49637 3.45719
# Velocity P-wave (km/s) = 5.61064 5.73539 5.67336
#
# Compressibility (1/GPa) = 0.02718073
#
# Stress axis : x y z
#
# Youngs Moduli (GPa) = 51.44072 75.60094 81.43164
#
# Poissons Ratio (x) = 0.32889 0.26054
# Poissons Ratio (y) = 0.22379 0.10859
# Poissons Ratio (z) = 0.16458 0.10081
#
# Static dielectric constant tensor:
#      x y z
#    x 1.849830 0.000000 0.003830 
#    y 0.000000 1.936220 0.000000 
#    z 0.003830 0.000000 1.921100 
# 
# From -- ./inp_files/26845.got.cif
#   From: 2010.05.17/outbox.cif.g08.bks.cpg/sg11_14_cif.got.tgz:26845.got - 2010.06.03 12:22:45.
