data_PCOD9163580
_publ_section_title
;
Structure prediction by ZEFSAII (Michael W. Deem and Ramdas Pophale) SiO2 
 PCOD9163580
Probable space group: P 21/M
;
_chemical_formula_sum "Si O2"
_cell_formula_units_Z 28
_cell_length_a 10.533885
_cell_length_b 8.378525
_cell_length_c 30.945611
_cell_angle_alpha 90.000000
_cell_angle_beta 146.058114
_cell_angle_gamma 90.000000
_cell_volume 1524.976242
_symmetry_space_group_name_H-M "P 21/M"
_symmetry_group_IT_number 11
_symmetry_cell_setting 'monoclinic'
loop_
_space_group_symop_operation_xyz
x,y,z
-x,1/2+y,-z
-x,-y,-z
x,1/2-y,z
loop_
_atom_site_type_symbol
_atom_site_label
_atom_site_fract_x
_atom_site_fract_y
_atom_site_fract_z
Si Si1 0.177130 0.940622 0.168391
Si Si2 0.643632 0.556746 0.161329
Si Si3 0.599280 0.943122 0.594055
Si Si4 0.137045 0.940724 0.996807
Si Si5 0.153301 0.557264 0.422593
Si Si6 0.094279 0.059277 0.241146
Si Si7 0.656557 0.555480 0.265944
O O1 0.178175 0.750000 0.165149
O O2 0.426685 0.000271 0.223997
O O3 0.991006 0.004171 0.082256
O O4 0.124733 0.988689 0.202377
O O5 0.656060 0.750000 0.163151
O O6 0.854018 0.488109 0.194303
O O7 0.656352 0.509644 0.215383
O O8 0.398795 0.504934 0.073930
O O9 0.603879 0.750000 0.594706
O O10 0.341586 0.995814 0.510641
O O11 0.710242 0.997074 0.670174
O O12 0.752306 0.003290 0.597373
O O13 0.139152 0.750000 0.998845
O O14 0.000000 0.000000 0.000000
O O15 0.151247 0.750000 0.422345
O O16 0.894067 0.501551 0.354092
O O17 0.107185 0.250000 0.241784
O O18 0.654342 0.750000 0.266362
#
# Coordination Sequence:
#
# PCOD9163580 Si02
#       7
#     4   4   4   4   4   4   4
#     4  11  23  40  59  81 111 149 190 231 278 332
#     4  10  20  37  60  84 109 144 187 228 270 329
#     4   9  18  31  50  80 114 143 176 224 275 324
#     4  11  22  38  60  86 115 144 183 231 279 329
#     4   9  16  30  55  81 107 141 182 226 270 319
#     4  11  23  38  54  82 118 150 184 226 282 335
#     4   9  17  33  57  84 108 139 187 230 268 322
#
# _framework density 18.360942999999999
#
# number of rings (size 3 to 8) (size 9 to 14) (size 15 to 20)
#    0.000    2.000    2.857    1.286    0.000    2.286 
#    0.000    2.143    0.000    0.000    0.000    0.000 
#    0.000    0.000    0.000    0.000    0.000    0.000 
#
# Total GULP energy -156276.762202 kJ/mol
# GULP energy per Si atom -5581.312936 kJ/mol
# Density = 1.831915 g / cm^3
# Si number density = 18.360943 Si / 1000 Ang^3
#
#
#
# Elastic Constant Matrix: (Units=GPa)
#
#
# Indices 1 2 3 4 5 6 
#
# 1 104.8179 9.8833 75.6800 0.0000 0.8715 0.0000
# 2 9.8833 18.0242 22.7839 0.0000 0.9726 0.0000
# 3 75.6800 22.7839 188.0299 0.0000 6.5992 0.0000
# 4 0.0000 0.0000 0.0000 20.7493 0.0000 -1.3249
# 5 0.8715 0.9726 6.5992 0.0000 32.0629 0.0000
# 6 0.0000 0.0000 0.0000 -1.3249 0.0000 19.1178
#
#
#
# Elastic Compliance Matrix: (Units=1/GPa)
#
#
# Indices 1 2 3 4 5 6 
#
# 1 0.013473 -0.000638 -0.005372 0.000000 0.000759 0.000000
# 2 -0.000638 0.065550 -0.007672 0.000000 -0.000392 0.000000
# 3 -0.005372 -0.007672 0.008458 0.000000 -0.001362 0.000000
# 4 0.000000 0.000000 0.000000 0.048409 0.000000 0.003355
# 5 0.000759 -0.000392 -0.001362 0.000000 0.031460 0.000000
# 6 0.000000 0.000000 0.000000 0.003355 0.000000 0.052540
#
#
# Mechanical properties :
#
#
# Convention : Reuss Voigt Hill
#
# Bulk Modulus (GPa) = 16.63438 58.61848 37.62643
# Shear Modulus (GPa) = 18.70607 27.88766 23.29687
#
# Velocity S-wave (km/s) = 3.19532 3.90148 3.56592
# Velocity P-wave (km/s) = 4.76369 7.23121 6.12304
#
# Compressibility (1/GPa) = 0.06011644
#
# Stress axis : x y z
#
# Youngs Moduli (GPa) = 74.22328 15.25549 118.23204
#
# Poissons Ratio (x) = 0.00973 0.63514
# Poissons Ratio (y) = 0.04735 0.90711
# Poissons Ratio (z) = 0.39873 0.11704
#
# Static dielectric constant tensor:
#      x y z
#    x 1.591020 0.000000 0.009800 
#    y 0.000000 1.629420 0.000000 
#    z 0.009800 0.000000 1.675570 
# 
# From -- ./inp_files/28440.got.cif
#   From: 2010.05.17/outbox.cif.g08.bks.cpg/sg11_15_cif.got.tgz:28440.got - 2010.06.03 12:22:45.
