data_PCOD9163990
_publ_section_title
;
Structure prediction by ZEFSAII (Michael W. Deem and Ramdas Pophale) SiO2 
 PCOD9163990
Probable space group: P 21/M
;
_chemical_formula_sum "Si O2"
_cell_formula_units_Z 20
_cell_length_a 25.666081
_cell_length_b 8.420291
_cell_length_c 9.860449
_cell_angle_alpha 90.000000
_cell_angle_beta 152.513857
_cell_angle_gamma 90.000000
_cell_volume 983.528895
_symmetry_space_group_name_H-M "P 21/M"
_symmetry_group_IT_number 11
_symmetry_cell_setting 'monoclinic'
loop_
_space_group_symop_operation_xyz
x,y,z
-x,1/2+y,-z
-x,-y,-z
x,1/2-y,z
loop_
_atom_site_type_symbol
_atom_site_label
_atom_site_fract_x
_atom_site_fract_y
_atom_site_fract_z
Si Si1 0.158324 0.556046 0.228038
Si Si2 0.784714 0.059963 0.343111
Si Si3 0.400051 0.941323 0.673404
Si Si4 0.031113 0.439879 0.422255
Si Si5 0.467093 0.059661 0.276823
O O1 0.156216 0.750000 0.224057
O O2 0.155539 0.504340 0.378728
O O3 0.278392 0.503475 0.443327
O O4 0.059571 0.502105 0.899778
O O5 0.789049 0.250000 0.349212
O O6 0.848671 0.994162 0.359274
O O7 0.654660 0.007627 0.046518
O O8 0.397602 0.750000 0.672490
O O9 0.436675 0.990535 0.607619
O O10 0.500000 0.000000 0.000000
O O11 0.027450 0.250000 0.416869
O O12 0.000000 0.500000 0.500000
O O13 0.460236 0.250000 0.259583
O O14 0.500000 0.000000 0.500000
#
# Coordination Sequence:
#
# PCOD9163990 Si02
#       5
#     4   4   4   4   4
#     4   9  20  39  64  89 120 160 202 252 307 363
#     4  11  22  41  66  89 120 162 205 254 310 366
#     4  10  20  38  62  91 122 158 199 248 303 361
#     4  11  24  42  63  91 124 160 206 256 308 366
#     4  11  24  39  61  93 128 164 203 251 305 366
#
# _framework density 20.33494
#
# number of rings (size 3 to 8) (size 9 to 14) (size 15 to 20)
#    0.000    1.600    2.000    2.400    2.800    0.800 
#    0.000    5.000    0.000    0.000    0.000    0.000 
#    0.000    0.000    0.000    0.000    0.000    0.000 
#
# Total GULP energy -111766.437243 kJ/mol
# GULP energy per Si atom -5588.321862 kJ/mol
# Density = 2.028866 g / cm^3
# Si number density = 20.334940 Si / 1000 Ang^3
#
#
#
# Elastic Constant Matrix: (Units=GPa)
#
#
# Indices 1 2 3 4 5 6 
#
# 1 155.1120 25.4370 14.3744 0.0000 -7.7179 0.0000
# 2 25.4370 33.8246 4.7337 0.0000 -4.0460 0.0000
# 3 14.3744 4.7337 51.1248 0.0000 -8.0997 0.0000
# 4 0.0000 0.0000 0.0000 28.7972 0.0000 -1.4432
# 5 -7.7179 -4.0460 -8.0997 0.0000 41.2689 0.0000
# 6 0.0000 0.0000 0.0000 -1.4432 0.0000 27.3829
#
#
#
# Elastic Compliance Matrix: (Units=1/GPa)
#
#
# Indices 1 2 3 4 5 6 
#
# 1 0.007495 -0.005354 -0.001520 0.000000 0.000578 0.000000
# 2 -0.005354 0.034023 -0.001316 0.000000 0.002076 0.000000
# 3 -0.001520 -0.001316 0.020687 0.000000 0.003647 0.000000
# 4 0.000000 0.000000 0.000000 0.034818 0.000000 0.001835
# 5 0.000578 0.002076 0.003647 0.000000 0.025259 0.000000
# 6 0.000000 0.000000 0.000000 0.001835 0.000000 0.036616
#
#
# Mechanical properties :
#
#
# Convention : Reuss Voigt Hill
#
# Bulk Modulus (GPa) = 21.82222 36.57239 29.19730
# Shear Modulus (GPa) = 26.23954 32.52423 29.38189
#
# Velocity S-wave (km/s) = 3.59607 4.00362 3.80530
# Velocity P-wave (km/s) = 5.29121 6.27662 5.80487
#
# Compressibility (1/GPa) = 0.04582485
#
# Stress axis : x y z
#
# Youngs Moduli (GPa) = 133.42885 29.39156 48.33977
#
# Poissons Ratio (x) = 0.15737 0.07347
# Poissons Ratio (y) = 0.71442 0.06361
# Poissons Ratio (z) = 0.20279 0.03868
#
# Static dielectric constant tensor:
#      x y z
#    x 1.726140 0.000000 -0.004060 
#    y 0.000000 1.708570 0.000000 
#    z -0.004060 0.000000 1.700130 
# 
# From -- ./inp_files/15916.got.cif
#   From: 2010.05.17/outbox.cif.g08.bks.cpg/sg11_8_cif.got.tgz:15916.got - 2010.06.03 12:22:45.
