data_PCOD9163238
_publ_section_title
;
Structure prediction by ZEFSAII (Michael W. Deem and Ramdas Pophale) SiO2 
 PCOD9163238
Probable space group: P 21/M
;
_chemical_formula_sum "Si O2"
_cell_formula_units_Z 32
_cell_length_a 30.521988
_cell_length_b 8.657354
_cell_length_c 11.647452
_cell_angle_alpha 90.000000
_cell_angle_beta 145.525224
_cell_angle_gamma 90.000000
_cell_volume 1742.122255
_symmetry_space_group_name_H-M "P 21/M"
_symmetry_group_IT_number 11
_symmetry_cell_setting 'monoclinic'
loop_
_space_group_symop_operation_xyz
x,y,z
-x,1/2+y,-z
-x,-y,-z
x,1/2-y,z
loop_
_atom_site_type_symbol
_atom_site_label
_atom_site_fract_x
_atom_site_fract_y
_atom_site_fract_z
Si Si1 0.072734 0.063526 0.088058
Si Si2 0.496385 0.934896 0.822433
Si Si3 0.435421 0.064399 0.275701
Si Si4 0.266442 0.934359 0.878014
Si Si5 0.882643 0.935291 0.314787
Si Si6 0.232751 0.062576 0.550394
Si Si7 0.377777 0.435327 0.717255
Si Si8 0.040619 0.063329 0.758253
O O1 0.070980 0.250000 0.084960
O O2 0.149548 0.015511 0.322284
O O3 0.069396 0.015736 0.946808
O O4 0.000000 0.000000 0.000000
O O5 0.492105 0.750000 0.818393
O O6 0.531131 0.979595 0.776415
O O7 0.412768 0.000518 0.675284
O O8 0.560188 0.986851 0.052817
O O9 0.430740 0.250000 0.273233
O O10 0.500000 0.000000 0.500000
O O11 0.349220 0.996952 0.100714
O O12 0.267417 0.750000 0.879301
O O13 0.195546 0.993266 0.803427
O O14 0.252539 0.995081 0.717804
O O15 0.877565 0.750000 0.310967
O O16 0.902912 0.978180 0.226199
O O17 0.956785 0.992070 0.548371
O O18 0.235620 0.250000 0.567283
O O19 0.295508 0.016532 0.589532
O O20 0.378167 0.250000 0.711695
O O21 0.033168 0.250000 0.741072
#
# Coordination Sequence:
#
# PCOD9163238 Si02
#       8
#     4   4   4   4   4   4   4   4
#     4  10  21  36  56  82 116 150 186 231 284 339
#     4   9  18  34  56  80 111 143 177 226 280 333
#     4  11  23  42  62  84 116 151 190 236 288 343
#     4  12  24  38  59  86 115 148 193 240 285 342
#     4  10  20  36  60  85 113 154 196 238 288 337
#     4  10  20  37  58  82 113 150 190 236 287 341
#     4   9  17  32  55  82 109 142 184 228 276 334
#     4   9  19  37  58  84 117 151 194 239 284 344
#
# _framework density 18.368400999999999
#
# number of rings (size 3 to 8) (size 9 to 14) (size 15 to 20)
#    0.000    2.000    1.250    2.625    0.000    5.000 
#    2.250    0.000    0.000    0.000    0.000    0.000 
#    0.000    0.000    0.000    0.000    0.000    0.000 
#
# Total GULP energy -178541.523170 kJ/mol
# GULP energy per Si atom -5579.422599 kJ/mol
# Density = 1.832659 g / cm^3
# Si number density = 18.368401 Si / 1000 Ang^3
#
#
#
# Elastic Constant Matrix: (Units=GPa)
#
#
# Indices 1 2 3 4 5 6 
#
# 1 113.4711 37.7154 69.8004 0.0000 35.9255 0.0000
# 2 37.7154 35.2375 36.0731 0.0000 7.9520 0.0000
# 3 69.8004 36.0731 130.5325 0.0000 23.2381 0.0000
# 4 0.0000 0.0000 0.0000 26.1033 0.0000 3.9934
# 5 35.9255 7.9520 23.2381 0.0000 35.7523 0.0000
# 6 0.0000 0.0000 0.0000 3.9934 0.0000 31.2601
#
#
#
# Elastic Compliance Matrix: (Units=1/GPa)
#
#
# Indices 1 2 3 4 5 6 
#
# 1 0.021360 -0.014657 -0.004671 0.000000 -0.015167 0.000000
# 2 -0.014657 0.049749 -0.007421 0.000000 0.008487 0.000000
# 3 -0.004671 -0.007421 0.012530 0.000000 -0.001800 0.000000
# 4 0.000000 0.000000 0.000000 0.039073 0.000000 -0.004991
# 5 -0.015167 0.008487 -0.001800 0.000000 0.042493 0.000000
# 6 0.000000 0.000000 0.000000 -0.004991 0.000000 0.032627
#
#
# Mechanical properties :
#
#
# Convention : Reuss Voigt Hill
#
# Bulk Modulus (GPa) = 33.17931 62.93546 48.05738
# Shear Modulus (GPa) = 19.12928 27.66662 23.39795
#
# Velocity S-wave (km/s) = 3.23061 3.88520 3.57293
# Velocity P-wave (km/s) = 5.65847 7.37995 6.57578
#
# Compressibility (1/GPa) = 0.03013927
#
# Stress axis : x y z
#
# Youngs Moduli (GPa) = 46.81607 20.10088 79.80759
#
# Poissons Ratio (x) = 0.29463 0.37280
# Poissons Ratio (y) = 0.68620 0.59228
# Poissons Ratio (z) = 0.21869 0.14918
#
# Static dielectric constant tensor:
#      x y z
#    x 1.657620 0.000000 -0.008750 
#    y 0.000000 1.626130 0.000000 
#    z -0.008750 0.000000 1.647010 
# 
# From -- ./inp_files/45274.got.cif
#   From: 2010.05.17/outbox.cif.g08.bks.cpg/sg11_23_cif.got.tgz:45274.got - 2010.06.03 12:22:45.
