data_PCOD9163499
_publ_section_title
;
Structure prediction by ZEFSAII (Michael W. Deem and Ramdas Pophale) SiO2 
 PCOD9163499
Probable space group: P 21/M
;
_chemical_formula_sum "Si O2"
_cell_formula_units_Z 20
_cell_length_a 19.659705
_cell_length_b 8.553040
_cell_length_c 13.956572
_cell_angle_alpha 90.000000
_cell_angle_beta 152.192463
_cell_angle_gamma 90.000000
_cell_volume 1094.789694
_symmetry_space_group_name_H-M "P 21/M"
_symmetry_group_IT_number 11
_symmetry_cell_setting 'monoclinic'
loop_
_space_group_symop_operation_xyz
x,y,z
-x,1/2+y,-z
-x,-y,-z
x,1/2-y,z
loop_
_atom_site_type_symbol
_atom_site_label
_atom_site_fract_x
_atom_site_fract_y
_atom_site_fract_z
Si Si1 0.561997 0.060348 0.880195
Si Si2 0.152712 0.937854 0.650345
Si Si3 0.557407 0.561969 0.471132
Si Si4 0.860231 0.063479 0.770433
Si Si5 0.754288 0.937975 0.439403
O O1 0.563090 0.250000 0.884188
O O2 0.542163 0.015045 0.744356
O O3 0.414229 0.011345 0.751574
O O4 0.710222 0.005953 0.114302
O O5 0.150265 0.750000 0.649515
O O6 0.183798 0.994269 0.581453
O O7 0.000000 0.000000 0.500000
O O8 0.500000 0.500000 0.500000
O O9 0.565186 0.750000 0.482185
O O10 0.716156 0.493895 0.646194
O O11 0.863568 0.250000 0.770338
O O12 0.844889 0.995235 0.644241
O O13 0.000000 0.000000 0.000000
O O14 0.757102 0.750000 0.439853
#
# Coordination Sequence:
#
# PCOD9163499 Si02
#       5
#     4   4   4   4   4
#     4   8  18  36  58  79 107 145 187 229 275 328
#     4  11  22  37  55  81 113 148 187 232 282 334
#     4  10  20  37  58  84 114 149 191 237 284 335
#     4  11  22  38  59  85 114 149 188 231 280 337
#     4  10  20  38  60  83 109 143 185 233 283 338
#
# _framework density 18.268350000000002
#
# number of rings (size 3 to 8) (size 9 to 14) (size 15 to 20)
#    0.000    2.000    0.000    5.400    0.000    1.600 
#    0.000   17.000    0.000    0.000    0.000    0.000 
#    0.000    0.000    0.000    0.000    0.000    0.000 
#
# Total GULP energy -111695.627538 kJ/mol
# GULP energy per Si atom -5584.781377 kJ/mol
# Density = 1.822677 g / cm^3
# Si number density = 18.268350 Si / 1000 Ang^3
#
#
#
# Elastic Constant Matrix: (Units=GPa)
#
#
# Indices 1 2 3 4 5 6 
#
# 1 184.9669 46.6404 111.4257 0.0000 -17.3098 0.0000
# 2 46.6404 85.4746 47.6058 0.0000 -0.7510 0.0000
# 3 111.4257 47.6058 194.8394 0.0000 -3.4325 0.0000
# 4 0.0000 0.0000 0.0000 26.8804 0.0000 -0.0150
# 5 -17.3098 -0.7510 -3.4325 0.0000 12.4064 0.0000
# 6 0.0000 0.0000 0.0000 -0.0150 0.0000 36.6833
#
#
#
# Elastic Compliance Matrix: (Units=1/GPa)
#
#
# Indices 1 2 3 4 5 6 
#
# 1 0.010309 -0.002726 -0.005003 0.000000 0.012834 0.000000
# 2 -0.002726 0.014263 -0.001988 0.000000 -0.003489 0.000000
# 3 -0.005003 -0.001988 0.008395 0.000000 -0.004778 0.000000
# 4 0.000000 0.000000 0.000000 0.037202 0.000000 0.000015
# 5 0.012834 -0.003489 -0.004778 0.000000 0.096976 0.000000
# 6 0.000000 0.000000 0.000000 0.000015 0.000000 0.027260
#
#
# Mechanical properties :
#
#
# Convention : Reuss Voigt Hill
#
# Bulk Modulus (GPa) = 73.88963 97.40273 85.64618
# Shear Modulus (GPa) = 22.89900 32.50129 27.70015
#
# Velocity S-wave (km/s) = 3.54429 4.22252 3.89818
# Velocity P-wave (km/s) = 7.56862 8.78672 8.20032
#
# Compressibility (1/GPa) = 0.01353370
#
# Stress axis : x y z
#
# Youngs Moduli (GPa) = 97.00484 70.11118 119.11514
#
# Poissons Ratio (x) = 0.19110 0.59598
# Poissons Ratio (y) = 0.26441 0.23676
# Poissons Ratio (z) = 0.48535 0.13936
#
# Static dielectric constant tensor:
#      x y z
#    x 1.591070 0.000000 -0.006990 
#    y 0.000000 1.625720 0.000000 
#    z -0.006990 0.000000 1.622610 
# 
# From -- ./inp_files/23905.got.cif
#   From: 2010.05.17/outbox.cif.g08.bks.cpg/sg11_12_cif.got.tgz:23905.got - 2010.06.03 12:22:45.
