data_PCOD9163522
_publ_section_title
;
Structure prediction by ZEFSAII (Michael W. Deem and Ramdas Pophale) SiO2 
 PCOD9163522
Probable space group: P 21/M
;
_chemical_formula_sum "Si O2"
_cell_formula_units_Z 28
_cell_length_a 19.380895
_cell_length_b 13.122338
_cell_length_c 5.373834
_cell_angle_alpha 90.000000
_cell_angle_beta 106.210694
_cell_angle_gamma 90.000000
_cell_volume 1312.350408
_symmetry_space_group_name_H-M "P 21/M"
_symmetry_group_IT_number 11
_symmetry_cell_setting 'monoclinic'
loop_
_space_group_symop_operation_xyz
x,y,z
-x,1/2+y,-z
-x,-y,-z
x,1/2-y,z
loop_
_atom_site_type_symbol
_atom_site_label
_atom_site_fract_x
_atom_site_fract_y
_atom_site_fract_z
Si Si1 0.649257 0.432495 0.946952
Si Si2 0.357096 0.136380 0.370032
Si Si3 0.259486 0.012321 0.591069
Si Si4 0.864864 0.869879 0.401354
Si Si5 0.080395 0.033034 0.019950
Si Si6 0.199269 0.869196 0.147969
Si Si7 0.502177 0.931763 0.253232
O O1 0.636587 0.545235 0.820738
O O2 0.723996 0.388044 0.915178
O O3 0.575000 0.374515 0.830982
O O4 0.667954 0.456969 0.249484
O O5 0.353361 0.250000 0.262228
O O6 0.284354 0.102322 0.434581
O O7 0.424814 0.130706 0.629015
O O8 0.209885 0.071234 0.735513
O O9 0.215097 0.919899 0.430868
O O10 0.854552 0.750000 0.408030
O O11 0.889559 0.912819 0.697111
O O12 0.916265 0.896369 0.221765
O O13 0.130401 0.935501 0.999050
O O14 0.000000 0.000000 0.000000
O O15 0.184458 0.750000 0.135511
O O16 0.500000 0.000000 0.500000
O O17 0.500000 0.000000 0.000000
#
# Coordination Sequence:
#
# PCOD9163522 Si02
#       7
#     4   4   4   4   4   4   4
#     4  10  20  39  61  83 123 164 207 263 317 373
#     4  10  21  35  57  90 122 162 211 259 319 378
#     4  10  20  39  60  90 125 165 208 266 311 375
#     4  11  23  41  67  98 131 168 208 258 321 381
#     4  11  24  45  67  97 133 167 210 264 313 378
#     4  10  23  41  63  90 124 169 215 260 316 378
#     4  10  20  37  59  81 119 164 205 257 316 365
#
# _framework density 21.335764999999999
#
# number of rings (size 3 to 8) (size 9 to 14) (size 15 to 20)
#    0.000    1.714    2.857    1.286    0.000    3.429 
#    0.000    0.000    0.000    0.000    0.000    0.000 
#    0.000    0.000    0.000    0.000    0.000    0.000 
#
# Total GULP energy -155916.068965 kJ/mol
# GULP energy per Si atom -5568.431034 kJ/mol
# Density = 2.128720 g / cm^3
# Si number density = 21.335765 Si / 1000 Ang^3
#
#
#
# Elastic Constant Matrix: (Units=GPa)
#
#
# Indices 1 2 3 4 5 6 
#
# 1 93.2837 30.2801 11.2569 0.0000 2.4953 0.0000
# 2 30.2801 137.1469 25.9612 0.0000 3.9806 0.0000
# 3 11.2569 25.9612 58.3612 0.0000 -4.8814 0.0000
# 4 0.0000 0.0000 0.0000 13.9514 0.0000 2.6640
# 5 2.4953 3.9806 -4.8814 0.0000 35.3078 0.0000
# 6 0.0000 0.0000 0.0000 2.6640 0.0000 11.8147
#
#
#
# Elastic Compliance Matrix: (Units=1/GPa)
#
#
# Indices 1 2 3 4 5 6 
#
# 1 0.011643 -0.002307 -0.001282 0.000000 -0.000740 0.000000
# 2 -0.002307 0.008488 -0.003437 0.000000 -0.001269 0.000000
# 3 -0.001282 -0.003437 0.019173 0.000000 0.003129 0.000000
# 4 0.000000 0.000000 0.000000 0.074902 0.000000 -0.016889
# 5 -0.000740 -0.001269 0.003129 0.000000 0.028950 0.000000
# 6 0.000000 0.000000 0.000000 -0.016889 0.000000 0.088448
#
#
# Mechanical properties :
#
#
# Convention : Reuss Voigt Hill
#
# Bulk Modulus (GPa) = 39.59884 47.08757 43.34320
# Shear Modulus (GPa) = 19.67938 26.96769 23.32353
#
# Velocity S-wave (km/s) = 3.04034 3.55909 3.30989
# Velocity P-wave (km/s) = 5.56103 6.24557 5.91321
#
# Compressibility (1/GPa) = 0.02525326
#
# Stress axis : x y z
#
# Youngs Moduli (GPa) = 85.88733 117.81099 52.15801
#
# Poissons Ratio (x) = 0.27174 0.06685
# Poissons Ratio (y) = 0.19810 0.17927
# Poissons Ratio (z) = 0.11008 0.40493
#
# Static dielectric constant tensor:
#      x y z
#    x 1.898200 0.000000 0.016120 
#    y 0.000000 1.754220 0.000000 
#    z 0.016120 0.000000 1.887270 
# 
# From -- ./inp_files/8633.got.cif
#   From: 2010.05.17/outbox.cif.g08.bks.cpg/sg11_5_cif.got.tgz:8633.got - 2010.06.03 12:22:45.
