data_PCOD9163685
_publ_section_title
;
Structure prediction by ZEFSAII (Michael W. Deem and Ramdas Pophale) SiO2 
 PCOD9163685
Probable space group: P 21/M
;
_chemical_formula_sum "Si O2"
_cell_formula_units_Z 28
_cell_length_a 9.648165
_cell_length_b 8.757286
_cell_length_c 29.920472
_cell_angle_alpha 90.000000
_cell_angle_beta 36.676531
_cell_angle_gamma 90.000000
_cell_volume 1509.985569
_symmetry_space_group_name_H-M "P 21/M"
_symmetry_group_IT_number 11
_symmetry_cell_setting 'monoclinic'
loop_
_space_group_symop_operation_xyz
x,y,z
-x,1/2+y,-z
-x,-y,-z
x,1/2-y,z
loop_
_atom_site_type_symbol
_atom_site_label
_atom_site_fract_x
_atom_site_fract_y
_atom_site_fract_z
Si Si1 0.333751 0.932559 0.626735
Si Si2 0.963476 0.567091 0.375325
Si Si3 0.758408 0.433034 0.932035
Si Si4 0.898872 0.931334 0.802555
Si Si5 0.923006 0.934272 0.067406
Si Si6 0.391941 0.933280 0.201376
Si Si7 0.840756 0.432260 0.502371
O O1 0.352756 0.750000 0.616216
O O2 0.141519 0.963378 0.714619
O O3 0.233703 0.006333 0.607325
O O4 0.580661 0.003404 0.574206
O O5 0.944851 0.750000 0.384675
O O6 0.935795 0.488696 0.430048
O O7 0.207811 0.530008 0.287960
O O8 0.745464 0.250000 0.936258
O O9 0.876452 0.486671 0.855600
O O10 0.908563 0.484526 0.936059
O O11 0.500000 0.500000 0.000000
O O12 0.876908 0.750000 0.814355
O O13 0.699476 0.988442 0.820170
O O14 0.933383 0.750000 0.062769
O O15 0.654428 0.977434 0.144850
O O16 0.000000 0.000000 0.000000
O O17 0.383754 0.750000 0.196882
O O18 0.838965 0.250000 0.504747
O O19 0.000000 0.500000 0.500000
#
# Coordination Sequence:
#
# PCOD9163685 Si02
#       7
#     4   4   4   4   4   4   4
#     4  10  21  39  61  86 116 151 191 234 281 340
#     4  10  20  37  61  87 114 149 191 234 283 342
#     4  11  23  38  57  82 114 150 190 234 283 338
#     4  10  21  37  59  87 116 146 185 231 279 332
#     4  10  22  38  56  81 110 144 185 229 276 329
#     4   9  19  37  60  84 112 146 185 229 279 335
#     4  12  25  40  58  83 116 152 191 239 291 342
#
# _framework density 18.543223000000001
#
# number of rings (size 3 to 8) (size 9 to 14) (size 15 to 20)
#    0.000    1.714    0.000    4.286    0.000    7.429 
#    0.000    1.429    0.000    0.000    0.000    0.000 
#    0.000    0.000    0.000    0.000    0.000    0.000 
#
# Total GULP energy -156513.866269 kJ/mol
# GULP energy per Si atom -5589.780938 kJ/mol
# Density = 1.850102 g / cm^3
# Si number density = 18.543223 Si / 1000 Ang^3
#
#
#
# Elastic Constant Matrix: (Units=GPa)
#
#
# Indices 1 2 3 4 5 6 
#
# 1 189.4845 60.4576 104.7209 0.0000 -10.0035 0.0000
# 2 60.4576 65.7609 51.2756 0.0000 -1.7482 0.0000
# 3 104.7209 51.2756 97.8258 0.0000 -5.2571 0.0000
# 4 0.0000 0.0000 0.0000 33.9355 0.0000 4.0650
# 5 -10.0035 -1.7482 -5.2571 0.0000 34.6508 0.0000
# 6 0.0000 0.0000 0.0000 4.0650 0.0000 33.8088
#
#
#
# Elastic Compliance Matrix: (Units=1/GPa)
#
#
# Indices 1 2 3 4 5 6 
#
# 1 0.013160 -0.001929 -0.012983 0.000000 0.001732 0.000000
# 2 -0.001929 0.026019 -0.011627 0.000000 -0.001008 0.000000
# 3 -0.012983 -0.011627 0.030228 0.000000 0.000251 0.000000
# 4 0.000000 0.000000 0.000000 0.029898 0.000000 -0.003595
# 5 0.001732 -0.001008 0.000251 0.000000 0.029347 0.000000
# 6 0.000000 0.000000 0.000000 -0.003595 0.000000 0.030010
#
#
# Mechanical properties :
#
#
# Convention : Reuss Voigt Hill
#
# Bulk Modulus (GPa) = 61.24181 87.33104 74.28642
# Shear Modulus (GPa) = 23.02200 29.58683 26.30442
#
# Velocity S-wave (km/s) = 3.52736 3.99878 3.77045
# Velocity P-wave (km/s) = 7.04896 8.27759 7.68786
#
# Compressibility (1/GPa) = 0.01632872
#
# Stress axis : x y z
#
# Youngs Moduli (GPa) = 75.99031 38.43277 33.08185
#
# Poissons Ratio (x) = 0.07414 0.42950
# Poissons Ratio (y) = 0.14660 0.38465
# Poissons Ratio (z) = 0.98657 0.44686
#
# Static dielectric constant tensor:
#      x y z
#    x 1.606090 0.000000 -0.010680 
#    y 0.000000 1.627660 0.000000 
#    z -0.010680 0.000000 1.633970 
# 
# From -- ./inp_files/70795.got.cif
#   From: 2010.05.17/outbox.cif.g08.bks.cpg/sg11_36_cif.got.tgz:70795.got - 2010.06.03 12:22:45.
