data_PCOD9163795
_publ_section_title
;
Structure prediction by ZEFSAII (Michael W. Deem and Ramdas Pophale) SiO2 
 PCOD9163795
Probable space group: P 21/M
;
_chemical_formula_sum "Si O2"
_cell_formula_units_Z 32
_cell_length_a 8.426879
_cell_length_b 28.544154
_cell_length_c 11.649644
_cell_angle_alpha 90.000000
_cell_angle_beta 37.162371
_cell_angle_gamma 90.000000
_cell_volume 1692.731481
_symmetry_space_group_name_H-M "P 21/M"
_symmetry_group_IT_number 11
_symmetry_cell_setting 'monoclinic'
loop_
_space_group_symop_operation_xyz
x,y,z
-x,1/2+y,-z
-x,-y,-z
x,1/2-y,z
loop_
_atom_site_type_symbol
_atom_site_label
_atom_site_fract_x
_atom_site_fract_y
_atom_site_fract_z
Si Si1 0.272964 0.977636 0.881173
Si Si2 0.277361 0.302379 0.268248
Si Si3 0.226546 0.537820 0.392791
Si Si4 0.666221 0.070737 0.924367
Si Si5 0.126149 0.664108 0.087364
Si Si6 0.649847 0.697114 0.507105
Si Si7 0.789549 0.378371 0.199995
Si Si8 0.075803 0.393831 0.268277
O O1 0.312199 0.926743 0.799051
O O2 0.514297 0.011313 0.713364
O O3 0.268077 0.969532 0.021549
O O4 0.000000 0.000000 0.000000
O O5 0.206291 0.250000 0.273494
O O6 0.238741 0.307269 0.427411
O O7 0.117035 0.341941 0.294922
O O8 0.590888 0.310335 0.069122
O O9 0.283560 0.559572 0.235800
O O10 0.000000 0.500000 0.500000
O O11 0.127138 0.576336 0.539606
O O12 0.833034 0.115874 0.866475
O O13 0.359713 0.082224 0.116748
O O14 0.884754 0.691117 0.281780
O O15 0.083858 0.650178 0.978971
O O16 0.536771 0.750000 0.563320
O O17 0.438481 0.655393 0.619224
O O18 0.985033 0.391131 0.189401
#
# Coordination Sequence:
#
# PCOD9163795 Si02
#       8
#     4   4   4   4   4   4   4   4
#     4  11  24  42  63  88 125 165 210 259 310 371
#     4   9  19  37  62  91 119 156 201 249 307 369
#     4  12  25  38  65  90 120 165 210 254 312 363
#     4  10  22  40  59  87 123 156 206 259 301 359
#     4   9  19  37  63  85 120 158 201 248 309 366
#     4  10  20  37  63  90 119 155 203 253 302 371
#     4  10  24  39  58  88 125 160 202 252 312 364
#     4  11  23  41  61  89 125 162 203 256 309 368
#
# _framework density 18.904357000000001
#
# number of rings (size 3 to 8) (size 9 to 14) (size 15 to 20)
#    0.000    1.750    1.250    3.000    3.500    4.500 
#    0.000    0.000    0.000    0.000    0.000    0.000 
#    0.000    0.000    0.000    0.000    0.000    0.000 
#
# Total GULP energy -178755.420028 kJ/mol
# GULP energy per Si atom -5586.106876 kJ/mol
# Density = 1.886133 g / cm^3
# Si number density = 18.904357 Si / 1000 Ang^3
#
#
#
# Elastic Constant Matrix: (Units=GPa)
#
#
# Indices 1 2 3 4 5 6 
#
# 1 80.6276 27.1504 23.3609 0.0000 -2.3847 0.0000
# 2 27.1504 87.0024 39.8585 0.0000 0.5868 0.0000
# 3 23.3609 39.8585 85.9991 0.0000 2.1356 0.0000
# 4 0.0000 0.0000 0.0000 27.7490 0.0000 -0.2003
# 5 -2.3847 0.5868 2.1356 0.0000 22.0582 0.0000
# 6 0.0000 0.0000 0.0000 -0.2003 0.0000 21.9262
#
#
#
# Elastic Compliance Matrix: (Units=1/GPa)
#
#
# Indices 1 2 3 4 5 6 
#
# 1 0.014282 -0.003391 -0.002354 0.000000 0.001862 0.000000
# 2 -0.003391 0.015399 -0.006212 0.000000 -0.000175 0.000000
# 3 -0.002354 -0.006212 0.015185 0.000000 -0.001559 0.000000
# 4 0.000000 0.000000 0.000000 0.036040 0.000000 0.000329
# 5 0.001862 -0.000175 -0.001559 0.000000 0.045691 0.000000
# 6 0.000000 0.000000 0.000000 0.000329 0.000000 0.045611
#
#
# Mechanical properties :
#
#
# Convention : Reuss Voigt Hill
#
# Bulk Modulus (GPa) = 47.72677 48.26318 47.99497
# Shear Modulus (GPa) = 24.61779 25.23064 24.92422
#
# Velocity S-wave (km/s) = 3.61256 3.65725 3.63497
# Velocity P-wave (km/s) = 6.53468 6.58935 6.56207
#
# Compressibility (1/GPa) = 0.02095260
#
# Stress axis : x y z
#
# Youngs Moduli (GPa) = 70.01970 64.93916 65.85372
#
# Poissons Ratio (x) = 0.22020 0.15503
# Poissons Ratio (y) = 0.23743 0.40906
# Poissons Ratio (z) = 0.16484 0.40338
#
# Static dielectric constant tensor:
#      x y z
#    x 1.646990 0.000000 0.002020 
#    y 0.000000 1.676710 0.000000 
#    z 0.002020 0.000000 1.648120 
# 
# From -- ./inp_files/33203.got.cif
#   From: 2010.05.17/outbox.cif.g08.bks.cpg/sg11_17_cif.got.tgz:33203.got - 2010.06.03 12:22:45.
