data_PCOD9163351
_publ_section_title
;
Structure prediction by ZEFSAII (Michael W. Deem and Ramdas Pophale) SiO2 
 PCOD9163351
Probable space group: P 21/M
;
_chemical_formula_sum "Si O2"
_cell_formula_units_Z 26
_cell_length_a 7.462077
_cell_length_b 18.861132
_cell_length_c 9.125716
_cell_angle_alpha 90.000000
_cell_angle_beta 82.955445
_cell_angle_gamma 90.000000
_cell_volume 1274.686949
_symmetry_space_group_name_H-M "P 21/M"
_symmetry_group_IT_number 11
_symmetry_cell_setting 'monoclinic'
loop_
_space_group_symop_operation_xyz
x,y,z
-x,1/2+y,-z
-x,-y,-z
x,1/2-y,z
loop_
_atom_site_type_symbol
_atom_site_label
_atom_site_fract_x
_atom_site_fract_y
_atom_site_fract_z
Si Si1 0.294778 0.388864 0.370175
Si Si2 0.697504 0.364067 0.326528
Si Si3 0.108596 0.750000 0.209595
Si Si4 0.805628 0.750000 0.491995
Si Si5 0.851562 0.985101 0.389685
Si Si6 0.889969 0.380566 0.012378
Si Si7 0.144186 0.489323 0.137989
Si Si8 0.621794 0.250000 0.564498
O O1 0.488379 0.360249 0.307378
O O2 0.172437 0.319658 0.408358
O O3 0.280786 0.426464 0.531087
O O4 0.246765 0.448200 0.255922
O O5 0.745637 0.443672 0.366373
O O6 0.811904 0.347807 0.170598
O O7 0.709140 0.315960 0.468669
O O8 0.299549 0.750000 0.279374
O O9 0.950164 0.750000 0.347235
O O10 0.091771 0.819363 0.108808
O O11 0.597474 0.750000 0.443832
O O12 0.000000 0.000000 0.500000
O O13 0.975131 0.971498 0.236389
O O14 0.065012 0.425631 0.047430
O O15 0.767740 0.446333 0.961124
#
# Coordination Sequence:
#
# PCOD9163351 Si02
#       8
#     4   4   2   2   4   4   4   2
#     4  10  20  36  61  89 117 155 198 250 303 348
#     4  10  21  39  59  86 123 156 194 251 299 358
#     4  12  25  40  69  84 121 169 196 246 310 358
#     4  10  24  41  58  95 116 151 210 254 296 358
#     4   9  18  32  58  87 114 149 198 247 283 347
#     4  10  22  39  57  90 119 157 200 236 303 364
#     4   9  20  37  59  85 122 151 198 250 286 364
#     4  10  25  41  61  91 121 152 208 254 294 352
#
# _framework density 20.397165000000001
#
# number of rings (size 3 to 8) (size 9 to 14) (size 15 to 20)
#    0.000    2.154    0.000    1.846   10.769    1.231 
#    2.769    0.000    0.000    0.000    0.000    0.000 
#    0.000    0.000    0.000    0.000    0.000    0.000 
#
# Total GULP energy -144785.562770 kJ/mol
# GULP energy per Si atom -5568.675491 kJ/mol
# Density = 2.035074 g / cm^3
# Si number density = 20.397165 Si / 1000 Ang^3
#
#
#
# Elastic Constant Matrix: (Units=GPa)
#
#
# Indices 1 2 3 4 5 6 
#
# 1 31.2622 -9.0728 7.7961 0.0000 -2.7894 0.0000
# 2 -9.0728 80.8889 12.9992 0.0000 4.7091 0.0000
# 3 7.7961 12.9992 70.5050 0.0000 9.9640 0.0000
# 4 0.0000 0.0000 0.0000 45.2861 0.0000 -8.5575
# 5 -2.7894 4.7091 9.9640 0.0000 18.0490 0.0000
# 6 0.0000 0.0000 0.0000 -8.5575 0.0000 -9.5574
#
#
#
# Elastic Compliance Matrix: (Units=1/GPa)
#
#
# Indices 1 2 3 4 5 6 
#
# 1 0.035399 0.004465 -0.005798 0.000000 0.007507 0.000000
# 2 0.004465 0.013384 -0.002783 0.000000 -0.001266 0.000000
# 3 -0.005798 -0.002783 0.016662 0.000000 -0.009368 0.000000
# 4 0.000000 0.000000 0.000000 0.018886 0.000000 -0.016910
# 5 0.007507 -0.001266 -0.009368 0.000000 0.062067 0.000000
# 6 0.000000 0.000000 0.000000 -0.016910 0.000000 -0.089490
#
#
# Mechanical properties :
#
#
# Convention : Reuss Voigt Hill
#
# Bulk Modulus (GPa) = 17.47832 22.90012 20.18922
# Shear Modulus (GPa) = 59.37450 22.15113 40.76281
#
# Velocity S-wave (km/s) = 5.40115 3.29901 4.47526
# Velocity P-wave (km/s) = 6.89087 5.07571 6.05173
#
# Compressibility (1/GPa) = 0.05721373
#
# Stress axis : x y z
#
# Youngs Moduli (GPa) = 28.24919 74.71415 60.01845
#
# Poissons Ratio (x) = -0.33362 0.34802
# Poissons Ratio (y) = -0.12614 0.16701
# Poissons Ratio (z) = 0.16380 0.20790
#
# Static dielectric constant tensor:
#      x y z
#    x 1.755060 0.000000 0.004170 
#    y 0.000000 1.773100 0.000000 
#    z 0.004170 0.000000 1.766860 
# 
# From -- ./inp_files/13505.got.cif
#   From: 2010.05.17/outbox.cif.g08.bks.cpg/sg11_7_cif.got.tgz:13505.got - 2010.06.03 12:22:45.
