data_PCOD9163696
_publ_section_title
;
Structure prediction by ZEFSAII (Michael W. Deem and Ramdas Pophale) SiO2 
 PCOD9163696
Probable space group: P 21/M
;
_chemical_formula_sum "Si O2"
_cell_formula_units_Z 28
_cell_length_a 12.172265
_cell_length_b 8.524954
_cell_length_c 13.695717
_cell_angle_alpha 90.000000
_cell_angle_beta 76.565482
_cell_angle_gamma 90.000000
_cell_volume 1382.288179
_symmetry_space_group_name_H-M "P 21/M"
_symmetry_group_IT_number 11
_symmetry_cell_setting 'monoclinic'
loop_
_space_group_symop_operation_xyz
x,y,z
-x,1/2+y,-z
-x,-y,-z
x,1/2-y,z
loop_
_atom_site_type_symbol
_atom_site_label
_atom_site_fract_x
_atom_site_fract_y
_atom_site_fract_z
Si Si1 0.935523 0.060790 0.231454
Si Si2 0.701928 0.062607 0.203892
Si Si3 0.526972 0.935239 0.387165
Si Si4 0.189827 0.059001 0.170220
Si Si5 0.896660 0.938026 0.456245
Si Si6 0.299362 0.060900 0.354858
Si Si7 0.617146 0.562381 0.018389
O O1 0.937781 0.250000 0.227693
O O2 0.832013 0.007780 0.185030
O O3 0.061602 0.003339 0.181085
O O4 0.906447 0.010652 0.347527
O O5 0.699615 0.250000 0.196574
O O6 0.635690 0.012646 0.314950
O O7 0.639660 0.991442 0.123630
O O8 0.543807 0.750000 0.388923
O O9 0.500000 0.000000 0.500000
O O10 0.418865 0.978234 0.343164
O O11 0.187462 0.250000 0.168709
O O12 0.235656 0.016136 0.268203
O O13 0.278917 0.006049 0.070823
O O14 0.902967 0.750000 0.448542
O O15 0.781528 0.977814 0.537234
O O16 0.000000 0.000000 0.500000
O O17 0.316443 0.250000 0.349936
O O18 0.614595 0.750000 0.015205
O O19 0.500000 0.500000 0.000000
#
# Coordination Sequence:
#
# PCOD9163696 Si02
#       7
#     4   4   4   4   4   4   4
#     4  10  21  40  62  87 121 163 207 251 306 368
#     4  11  24  42  65  91 125 163 203 254 311 370
#     4  12  25  41  62  89 123 160 206 253 305 369
#     4   9  19  38  62  88 118 157 201 250 305 359
#     4  11  21  34  57  88 124 164 202 248 302 362
#     4  10  20  37  61  87 121 161 205 255 309 362
#     4  11  23  41  67  93 122 160 207 257 312 370
#
# _framework density 20.256269
#
# number of rings (size 3 to 8) (size 9 to 14) (size 15 to 20)
#    0.000    1.429    1.429    4.286    0.000    6.286 
#    0.000    2.143    0.000    0.000    0.000    0.000 
#    0.000    0.000    0.000    0.000    0.000    0.000 
#
# Total GULP energy -156578.672322 kJ/mol
# GULP energy per Si atom -5592.095440 kJ/mol
# Density = 2.021016 g / cm^3
# Si number density = 20.256269 Si / 1000 Ang^3
#
#
#
# Elastic Constant Matrix: (Units=GPa)
#
#
# Indices 1 2 3 4 5 6 
#
# 1 148.9333 27.1568 50.4053 0.0000 -1.5902 0.0000
# 2 27.1568 32.8492 13.2310 0.0000 -1.9223 0.0000
# 3 50.4053 13.2310 107.9215 0.0000 -7.9973 0.0000
# 4 0.0000 0.0000 0.0000 28.6834 0.0000 2.6024
# 5 -1.5902 -1.9223 -7.9973 0.0000 36.4637 0.0000
# 6 0.0000 0.0000 0.0000 2.6024 0.0000 26.0019
#
#
#
# Elastic Compliance Matrix: (Units=1/GPa)
#
#
# Indices 1 2 3 4 5 6 
#
# 1 0.009002 -0.006068 -0.003512 0.000000 -0.000698 0.000000
# 2 -0.006068 0.036139 -0.001499 0.000000 0.001312 0.000000
# 3 -0.003512 -0.001499 0.011256 0.000000 0.002236 0.000000
# 4 0.000000 0.000000 0.000000 0.035183 0.000000 -0.003521
# 5 -0.000698 0.001312 0.002236 0.000000 0.027954 0.000000
# 6 0.000000 0.000000 0.000000 -0.003521 0.000000 0.038811
#
#
# Mechanical properties :
#
#
# Convention : Reuss Voigt Hill
#
# Bulk Modulus (GPa) = 29.20726 52.36557 40.78642
# Shear Modulus (GPa) = 26.05286 31.49054 28.77170
#
# Velocity S-wave (km/s) = 3.59020 3.94713 3.77289
# Velocity P-wave (km/s) = 5.62461 6.83233 6.25768
#
# Compressibility (1/GPa) = 0.03423806
#
# Stress axis : x y z
#
# Youngs Moduli (GPa) = 111.08426 27.67056 88.84209
#
# Poissons Ratio (x) = 0.16792 0.31203
# Poissons Ratio (y) = 0.67410 0.13319
# Poissons Ratio (z) = 0.39015 0.04148
#
# Static dielectric constant tensor:
#      x y z
#    x 1.709610 0.000000 0.025470 
#    y 0.000000 1.685810 0.000000 
#    z 0.025470 0.000000 1.582900 
# 
# From -- ./inp_files/48917.got.cif
#   From: 2010.05.17/outbox.cif.g08.bks.cpg/sg11_25_cif.got.tgz:48917.got - 2010.06.03 12:22:45.
