data_PCOD9163274
_publ_section_title
;
Structure prediction by ZEFSAII (Michael W. Deem and Ramdas Pophale) SiO2 
 PCOD9163274
Probable space group: P 21/M
;
_chemical_formula_sum "Si O2"
_cell_formula_units_Z 32
_cell_length_a 25.420305
_cell_length_b 8.654993
_cell_length_c 26.573590
_cell_angle_alpha 90.000000
_cell_angle_beta 163.186054
_cell_angle_gamma 90.000000
_cell_volume 1691.193504
_symmetry_space_group_name_H-M "P 21/M"
_symmetry_group_IT_number 11
_symmetry_cell_setting 'monoclinic'
loop_
_space_group_symop_operation_xyz
x,y,z
-x,1/2+y,-z
-x,-y,-z
x,1/2-y,z
loop_
_atom_site_type_symbol
_atom_site_label
_atom_site_fract_x
_atom_site_fract_y
_atom_site_fract_z
Si Si1 0.802507 0.564306 0.800837
Si Si2 0.478791 0.564718 0.203903
Si Si3 0.914952 0.563534 0.188853
Si Si4 0.189481 0.933227 0.690166
Si Si5 0.585937 0.063319 0.508088
Si Si6 0.302497 0.563287 0.502171
Si Si7 0.419953 0.065423 0.809361
Si Si8 0.801380 0.565597 0.189659
O O1 0.816355 0.750000 0.813440
O O2 0.624464 0.520423 0.671827
O O3 0.730099 0.506446 0.679981
O O4 0.000000 0.500000 0.000000
O O5 0.471283 0.750000 0.198015
O O6 0.563895 0.500546 0.332768
O O7 0.611433 0.521753 0.277789
O O8 0.273156 0.504527 0.005406
O O9 0.897581 0.750000 0.170293
O O10 0.940936 0.525928 0.272470
O O11 0.095416 0.514414 0.324691
O O12 0.199755 0.750000 0.700178
O O13 0.318544 0.994033 0.764175
O O14 0.202772 0.992724 0.759144
O O15 0.000000 0.000000 0.500000
O O16 0.596988 0.250000 0.522427
O O17 0.636847 0.017111 0.498135
O O18 0.307003 0.750000 0.508829
O O19 0.406815 0.250000 0.801676
O O20 0.620129 0.001167 0.999795
O O21 0.800020 0.750000 0.194588
#
# Coordination Sequence:
#
# PCOD9163274 Si02
#       8
#     4   4   4   4   4   4   4   4
#     4  10  20  36  60  87 119 159 197 240 290 339
#     4  10  22  38  58  85 116 151 190 237 290 344
#     4   9  20  38  60  84 110 148 193 235 283 344
#     4  12  25  38  54  79 108 139 176 227 283 345
#     4   9  20  38  58  85 119 155 199 243 286 337
#     4  10  21  38  61  86 116 155 196 241 287 338
#     4  10  21  39  58  79 106 142 182 225 281 341
#     4  10  20  37  58  81 106 138 179 226 281 341
#
# _framework density 18.921548999999999
#
# number of rings (size 3 to 8) (size 9 to 14) (size 15 to 20)
#    0.000    2.000    0.000    3.000    1.750    4.500 
#    0.000    5.000    0.000    0.000    0.000    0.000 
#    0.000    0.000    0.000    0.000    0.000    0.000 
#
# Total GULP energy -178248.973340 kJ/mol
# GULP energy per Si atom -5570.280417 kJ/mol
# Density = 1.887848 g / cm^3
# Si number density = 18.921549 Si / 1000 Ang^3
#
#
#
# Elastic Constant Matrix: (Units=GPa)
#
#
# Indices 1 2 3 4 5 6 
#
# 1 209.5431 59.6197 93.6518 0.0000 -11.2084 0.0000
# 2 59.6197 57.9981 35.5603 0.0000 -4.4570 0.0000
# 3 93.6518 35.5603 136.0949 0.0000 -6.4748 0.0000
# 4 0.0000 0.0000 0.0000 46.2610 0.0000 -24.7612
# 5 -11.2084 -4.4570 -6.4748 0.0000 27.4960 0.0000
# 6 0.0000 0.0000 0.0000 -24.7612 0.0000 46.2626
#
#
#
# Elastic Compliance Matrix: (Units=1/GPa)
#
#
# Indices 1 2 3 4 5 6 
#
# 1 0.008411 -0.005986 -0.004153 0.000000 0.001480 0.000000
# 2 -0.005986 0.024910 -0.002340 0.000000 0.001047 0.000000
# 3 -0.004153 -0.002340 0.010840 0.000000 0.000480 0.000000
# 4 0.000000 0.000000 0.000000 0.030296 0.000000 0.016215
# 5 0.001480 0.001047 0.000480 0.000000 0.037255 0.000000
# 6 0.000000 0.000000 0.000000 0.016215 0.000000 0.030295
#
#
# Mechanical properties :
#
#
# Convention : Reuss Voigt Hill
#
# Bulk Modulus (GPa) = 52.07516 86.81107 69.44312
# Shear Modulus (GPa) = 28.84080 38.32421 33.58251
#
# Velocity S-wave (km/s) = 3.90838 4.50536 4.21744
# Velocity P-wave (km/s) = 6.92449 8.54654 7.77792
#
# Compressibility (1/GPa) = 0.01920301
#
# Stress axis : x y z
#
# Youngs Moduli (GPa) = 118.89501 40.14427 92.24959
#
# Poissons Ratio (x) = 0.24029 0.38314
# Poissons Ratio (y) = 0.71166 0.21587
# Poissons Ratio (z) = 0.49381 0.09394
#
# Static dielectric constant tensor:
#      x y z
#    x 1.243770 0.000000 0.043180 
#    y 0.000000 1.640540 0.000000 
#    z 0.043180 0.000000 1.637440 
# 
# From -- ./inp_files/70039.got.cif
#   From: 2010.05.17/outbox.cif.g08.bks.cpg/sg11_36_cif.got.tgz:70039.got - 2010.06.03 12:22:45.
