data_PCOD9163229
_publ_section_title
;
Structure prediction by ZEFSAII (Michael W. Deem and Ramdas Pophale) SiO2 
 PCOD9163229
Probable space group: P 21/M
;
_chemical_formula_sum "Si O2"
_cell_formula_units_Z 24
_cell_length_a 20.986232
_cell_length_b 8.945828
_cell_length_c 10.737963
_cell_angle_alpha 90.000000
_cell_angle_beta 34.218968
_cell_angle_gamma 90.000000
_cell_volume 1133.676494
_symmetry_space_group_name_H-M "P 21/M"
_symmetry_group_IT_number 11
_symmetry_cell_setting 'monoclinic'
loop_
_space_group_symop_operation_xyz
x,y,z
-x,1/2+y,-z
-x,-y,-z
x,1/2-y,z
loop_
_atom_site_type_symbol
_atom_site_label
_atom_site_fract_x
_atom_site_fract_y
_atom_site_fract_z
Si Si1 0.826883 0.423514 0.340544
Si Si2 0.826499 0.571554 0.091272
Si Si3 0.378536 0.076430 0.201064
Si Si4 0.955231 0.424700 0.397939
Si Si5 0.248703 0.077790 0.146265
Si Si6 0.623719 0.427943 0.287579
O O1 0.823697 0.250000 0.309927
O O2 0.870444 0.519504 0.154574
O O3 0.703308 0.486416 0.574802
O O4 0.897102 0.435471 0.354921
O O5 0.815862 0.750000 0.106686
O O6 0.707758 0.492438 0.256756
O O7 0.916421 0.527979 0.838542
O O8 0.386733 0.250000 0.225673
O O9 0.319553 0.072139 0.160601
O O10 0.500000 0.000000 0.000000
O O11 0.952852 0.250000 0.438568
O O12 0.876859 0.519676 0.616232
O O13 0.244012 0.250000 0.110840
O O14 0.315684 0.979681 0.938089
O O15 0.500000 0.500000 0.500000
O O16 0.615863 0.250000 0.307277
#
# Coordination Sequence:
#
# PCOD9163229 Si02
#       6
#     4   4   4   4   4   4
#     4  10  20  36  59  91 128 162 202 251 304 364
#     4  11  23  40  63  92 126 165 208 253 305 365
#     4  10  21  36  58  87 120 159 203 250 304 365
#     4   9  20  39  64  94 127 163 204 251 306 364
#     4  10  22  41  64  90 122 159 204 255 306 361
#     4  12  27  46  66  88 120 162 208 256 308 366
#
# _framework density 21.170058999999998
#
# number of rings (size 3 to 8) (size 9 to 14) (size 15 to 20)
#    0.000    1.667    0.000    4.000    2.333    4.667 
#    0.000    0.000    0.000    0.000    0.000    0.000 
#    0.000    0.000    0.000    0.000    0.000    0.000 
#
# Total GULP energy -134262.942890 kJ/mol
# GULP energy per Si atom -5594.289287 kJ/mol
# Density = 2.112187 g / cm^3
# Si number density = 21.170059 Si / 1000 Ang^3
#
#
#
# Elastic Constant Matrix: (Units=GPa)
#
#
# Indices 1 2 3 4 5 6 
#
# 1 51.7459 33.0548 27.2386 0.0000 -0.6963 0.0000
# 2 33.0548 123.3814 54.4959 0.0000 -5.9189 0.0000
# 3 27.2386 54.4959 123.6622 0.0000 -13.5186 0.0000
# 4 0.0000 0.0000 0.0000 37.8793 0.0000 5.1134
# 5 -0.6963 -5.9189 -13.5186 0.0000 42.5718 0.0000
# 6 0.0000 0.0000 0.0000 5.1134 0.0000 29.8588
#
#
#
# Elastic Compliance Matrix: (Units=1/GPa)
#
#
# Indices 1 2 3 4 5 6 
#
# 1 0.024295 -0.005147 -0.003230 0.000000 -0.001344 0.000000
# 2 -0.005147 0.011154 -0.003752 0.000000 0.000275 0.000000
# 3 -0.003230 -0.003752 0.010762 0.000000 0.002843 0.000000
# 4 0.000000 0.000000 0.000000 0.027024 0.000000 -0.004628
# 5 -0.001344 0.000275 0.002843 0.000000 0.024409 0.000000
# 6 0.000000 0.000000 0.000000 -0.004628 0.000000 0.034284
#
#
# Mechanical properties :
#
#
# Convention : Reuss Voigt Hill
#
# Bulk Modulus (GPa) = 45.54932 58.70755 52.12843
# Shear Modulus (GPa) = 30.58046 34.32868 32.45457
#
# Velocity S-wave (km/s) = 3.80480 4.03124 3.91965
# Velocity P-wave (km/s) = 6.39254 7.03274 6.72027
#
# Compressibility (1/GPa) = 0.02195423
#
# Stress axis : x y z
#
# Youngs Moduli (GPa) = 41.16062 89.65380 92.91796
#
# Poissons Ratio (x) = 0.46140 0.30015
# Poissons Ratio (y) = 0.21183 0.34860
# Poissons Ratio (z) = 0.13296 0.33635
#
# Static dielectric constant tensor:
#      x y z
#    x 1.815560 0.000000 0.007880 
#    y 0.000000 1.704540 0.000000 
#    z 0.007880 0.000000 1.745060 
# 
# From -- ./inp_files/33925.got.cif
#   From: 2010.05.17/outbox.cif.g08.bks.cpg/sg11_17_cif.got.tgz:33925.got - 2010.06.03 12:22:45.
