data_PCOD9163818
_publ_section_title
;
Structure prediction by ZEFSAII (Michael W. Deem and Ramdas Pophale) SiO2 
 PCOD9163818
Probable space group: P 21/M
;
_chemical_formula_sum "Si O2"
_cell_formula_units_Z 32
_cell_length_a 11.717652
_cell_length_b 13.100015
_cell_length_c 11.653050
_cell_angle_alpha 90.000000
_cell_angle_beta 64.539045
_cell_angle_gamma 90.000000
_cell_volume 1615.032578
_symmetry_space_group_name_H-M "P 21/M"
_symmetry_group_IT_number 11
_symmetry_cell_setting 'monoclinic'
loop_
_space_group_symop_operation_xyz
x,y,z
-x,1/2+y,-z
-x,-y,-z
x,1/2-y,z
loop_
_atom_site_type_symbol
_atom_site_label
_atom_site_fract_x
_atom_site_fract_y
_atom_site_fract_z
Si Si1 0.306387 0.450474 0.094591
Si Si2 0.086078 0.494805 0.696930
Si Si3 0.241430 0.862632 0.787542
Si Si4 0.098791 0.137764 0.344623
Si Si5 0.460235 0.627494 0.157376
Si Si6 0.267597 0.135826 0.488165
Si Si7 0.094541 0.557470 0.045376
Si Si8 0.493095 0.509596 0.643838
O O1 0.224609 0.380300 0.214465
O O2 0.356520 0.550459 0.143743
O O3 0.203039 0.484037 0.046085
O O4 0.419339 0.395084 0.977814
O O5 0.136449 0.589299 0.750092
O O6 0.211928 0.435508 0.609915
O O7 0.000539 0.548690 0.637862
O O8 0.994559 0.419681 0.808015
O O9 0.280230 0.750000 0.734516
O O10 0.362716 0.935810 0.734457
O O11 0.172389 0.860806 0.940349
O O12 0.045086 0.250000 0.342189
O O13 0.151809 0.137398 0.449498
O O14 0.432108 0.750000 0.169497
O O15 0.486890 0.586053 0.276729
O O16 0.296835 0.250000 0.513875
O O17 0.390309 0.085134 0.380476
O O18 0.000000 0.500000 0.000000
O O19 0.500000 0.500000 0.500000
#
# Coordination Sequence:
#
# PCOD9163818 Si02
#       8
#     4   4   4   4   4   4   4   4
#     4  10  20  41  65  96 135 162 212 269 317 395
#     4  10  21  40  62  87 127 159 208 261 306 382
#     4  11  22  39  63  91 122 162 209 261 322 376
#     4  10  20  37  64  92 122 164 203 250 317 381
#     4  11  24  41  66  96 130 175 218 272 338 386
#     4  11  23  40  62  89 122 165 208 255 322 380
#     4   9  20  38  63  91 128 165 203 262 317 374
#     4  12  24  45  63  87 129 166 219 279 318 388
#
# _framework density 19.813841
#
# number of rings (size 3 to 8) (size 9 to 14) (size 15 to 20)
#    0.000    1.500    3.750    1.500    0.000    2.000 
#    0.000    2.500    0.000    0.000    0.000    0.000 
#    0.000    0.000    0.000    0.000    0.000    0.000 
#
# Total GULP energy -178174.309209 kJ/mol
# GULP energy per Si atom -5567.947163 kJ/mol
# Density = 1.976874 g / cm^3
# Si number density = 19.813841 Si / 1000 Ang^3
#
#
#
# Elastic Constant Matrix: (Units=GPa)
#
#
# Indices 1 2 3 4 5 6 
#
# 1 77.0829 21.6232 7.9633 0.0000 -4.2642 0.0000
# 2 21.6232 104.7125 37.9545 0.0000 5.5681 0.0000
# 3 7.9633 37.9545 44.7241 0.0000 0.5947 0.0000
# 4 0.0000 0.0000 0.0000 12.8524 0.0000 4.2292
# 5 -4.2642 5.5681 0.5947 0.0000 32.8895 0.0000
# 6 0.0000 0.0000 0.0000 4.2292 0.0000 11.9391
#
#
#
# Elastic Compliance Matrix: (Units=1/GPa)
#
#
# Indices 1 2 3 4 5 6 
#
# 1 0.013943 -0.003021 0.000050 0.000000 0.002318 0.000000
# 2 -0.003021 0.014597 -0.011814 0.000000 -0.002649 0.000000
# 3 0.000050 -0.011814 0.032358 0.000000 0.001422 0.000000
# 4 0.000000 0.000000 0.000000 0.088072 0.000000 -0.031198
# 5 0.002318 -0.002649 0.001422 0.000000 0.031128 0.000000
# 6 0.000000 0.000000 0.000000 -0.031198 0.000000 0.094810
#
#
# Mechanical properties :
#
#
# Convention : Reuss Voigt Hill
#
# Bulk Modulus (GPa) = 31.92057 40.17796 36.04927
# Shear Modulus (GPa) = 15.87698 22.13476 19.00587
#
# Velocity S-wave (km/s) = 2.83381 3.34598 3.10049
# Velocity P-wave (km/s) = 5.18194 5.93711 5.57233
#
# Compressibility (1/GPa) = 0.03132776
#
# Stress axis : x y z
#
# Youngs Moduli (GPa) = 71.71803 68.50767 30.90459
#
# Poissons Ratio (x) = 0.20694 -0.00154
# Poissons Ratio (y) = 0.21664 0.36512
# Poissons Ratio (z) = -0.00359 0.80938
#
# Static dielectric constant tensor:
#      x y z
#    x 1.701790 0.000000 0.032550 
#    y 0.000000 1.804900 0.000000 
#    z 0.032550 0.000000 1.800770 
# 
# From -- ./inp_files/35061.got.cif
#   From: 2010.05.17/outbox.cif.g08.bks.cpg/sg11_18_cif.got.tgz:35061.got - 2010.06.03 12:22:45.
