data_PCOD9163025
_publ_section_title
;
Structure prediction by ZEFSAII (Michael W. Deem and Ramdas Pophale) SiO2 
 PCOD9163025
Probable space group: P 21/M
;
_chemical_formula_sum "Si O2"
_cell_formula_units_Z 28
_cell_length_a 8.647169
_cell_length_b 14.154602
_cell_length_c 16.451360
_cell_angle_alpha 90.000000
_cell_angle_beta 144.837399
_cell_angle_gamma 90.000000
_cell_volume 1159.630419
_symmetry_space_group_name_H-M "P 21/M"
_symmetry_group_IT_number 11
_symmetry_cell_setting 'monoclinic'
loop_
_space_group_symop_operation_xyz
x,y,z
-x,1/2+y,-z
-x,-y,-z
x,1/2-y,z
loop_
_atom_site_type_symbol
_atom_site_label
_atom_site_fract_x
_atom_site_fract_y
_atom_site_fract_z
Si Si1 0.408313 0.942455 0.039607
Si Si2 0.780879 0.143057 0.753451
Si Si3 0.413134 0.502709 0.214155
Si Si4 0.821606 0.861791 0.761430
Si Si5 0.180182 0.356237 0.421289
Si Si6 0.935781 0.866843 0.460365
Si Si7 0.026635 0.358727 0.697311
O O1 0.380905 0.011488 0.105063
O O2 0.654030 0.872414 0.167559
O O3 0.133893 0.885448 0.911720
O O4 0.500000 0.000000 0.000000
O O5 0.867288 0.250000 0.808138
O O6 0.793978 0.080758 0.839195
O O7 0.473533 0.146152 0.588690
O O8 0.934980 0.098553 0.743210
O O9 0.358068 0.414881 0.248808
O O10 0.691528 0.559000 0.346320
O O11 0.766945 0.750000 0.742310
O O12 0.779569 0.898628 0.650467
O O13 0.090390 0.250000 0.363871
O O14 0.982160 0.385780 0.410317
O O15 0.880636 0.750000 0.433761
O O16 0.087853 0.886454 0.440309
O O17 0.947663 0.250000 0.672411
#
# Coordination Sequence:
#
# PCOD9163025 Si02
#       7
#     4   4   4   4   4   4   4
#     4  11  23  40  56  75 105 142 187 234 278 327
#     4   9  17  32  59  90 114 141 186 238 275 310
#     4  10  20  36  58  80 104 143 189 234 273 316
#     4  11  23  38  57  82 115 151 181 218 276 342
#     4   8  16  32  53  81 115 148 181 219 272 332
#     4   8  15  30  54  83 114 148 189 233 271 311
#     4   9  17  31  54  82 108 138 181 233 278 312
#
# _framework density 24.145623000000001
#
# number of rings (size 3 to 8) (size 9 to 14) (size 15 to 20)
#    0.000    2.571    0.000    3.000    0.000    4.000 
#    0.000    4.286    0.000   10.286    0.000    0.000 
#    0.000    0.000    0.000    0.000    0.000    0.000 
#
# Total GULP energy -156044.555733 kJ/mol
# GULP energy per Si atom -5573.019848 kJ/mol
# Density = 2.409067 g / cm^3
# Si number density = 24.145623 Si / 1000 Ang^3
#
#
#
# Elastic Constant Matrix: (Units=GPa)
#
#
# Indices 1 2 3 4 5 6 
#
# 1 126.2914 26.9696 42.3241 0.0000 -58.7831 0.0000
# 2 26.9696 113.3773 11.6277 0.0000 -13.0894 0.0000
# 3 42.3241 11.6277 66.9444 0.0000 -30.1212 0.0000
# 4 0.0000 0.0000 0.0000 20.4559 0.0000 1.2108
# 5 -58.7831 -13.0894 -30.1212 0.0000 62.6612 0.0000
# 6 0.0000 0.0000 0.0000 1.2108 0.0000 29.7881
#
#
#
# Elastic Compliance Matrix: (Units=1/GPa)
#
#
# Indices 1 2 3 4 5 6 
#
# 1 0.015203 -0.001831 -0.003890 0.000000 0.012009 0.000000
# 2 -0.001831 0.009303 -0.000455 0.000000 0.000007 0.000000
# 3 -0.003890 -0.000455 0.020150 0.000000 0.005942 0.000000
# 4 0.000000 0.000000 0.000000 0.049003 0.000000 -0.001992
# 5 0.012009 0.000007 0.005942 0.000000 0.030083 0.000000
# 6 0.000000 0.000000 0.000000 -0.001992 0.000000 0.033651
#
#
# Mechanical properties :
#
#
# Convention : Reuss Voigt Hill
#
# Bulk Modulus (GPa) = 30.95674 52.05069 41.50372
# Shear Modulus (GPa) = 27.69887 37.62716 32.66301
#
# Velocity S-wave (km/s) = 3.39065 3.95187 3.68197
# Velocity P-wave (km/s) = 5.30823 6.51359 5.94155
#
# Compressibility (1/GPa) = 0.03230314
#
# Stress axis : x y z
#
# Youngs Moduli (GPa) = 65.77776 107.49085 49.62891
#
# Poissons Ratio (x) = 0.19681 0.19306
# Poissons Ratio (y) = 0.12043 0.02259
# Poissons Ratio (z) = 0.25588 0.04893
#
# Static dielectric constant tensor:
#      x y z
#    x 2.051000 0.000000 0.024380 
#    y 0.000000 1.946160 0.000000 
#    z 0.024380 0.000000 1.980900 
# 
# From -- ./inp_files/22116.got.cif
#   From: 2010.05.17/outbox.cif.g08.bks.cpg/sg11_12_cif.got.tgz:22116.got - 2010.06.03 12:22:45.
