data_PCOD9163830
_publ_section_title
;
Structure prediction by ZEFSAII (Michael W. Deem and Ramdas Pophale) SiO2 
 PCOD9163830
Probable space group: P 21/M
;
_chemical_formula_sum "Si O2"
_cell_formula_units_Z 28
_cell_length_a 20.591649
_cell_length_b 14.207662
_cell_length_c 9.745578
_cell_angle_alpha 90.000000
_cell_angle_beta 153.245017
_cell_angle_gamma 90.000000
_cell_volume 1283.523372
_symmetry_space_group_name_H-M "P 21/M"
_symmetry_group_IT_number 11
_symmetry_cell_setting 'monoclinic'
loop_
_space_group_symop_operation_xyz
x,y,z
-x,1/2+y,-z
-x,-y,-z
x,1/2-y,z
loop_
_atom_site_type_symbol
_atom_site_label
_atom_site_fract_x
_atom_site_fract_y
_atom_site_fract_z
Si Si1 0.997741 0.360330 0.193415
Si Si2 0.189420 0.856176 0.412500
Si Si3 0.625744 0.861918 0.410632
Si Si4 0.887235 0.137110 0.292747
Si Si5 0.084299 0.357808 0.902808
Si Si6 0.694209 0.543113 0.262681
Si Si7 0.589050 0.465800 0.800238
O O1 0.031638 0.250000 0.231528
O O2 0.142526 0.417893 0.439023
O O3 0.942331 0.370961 0.242523
O O4 0.868514 0.384208 0.846081
O O5 0.249221 0.750000 0.524317
O O6 0.045005 0.855419 0.232253
O O7 0.291287 0.934005 0.667963
O O8 0.633282 0.750000 0.410131
O O9 0.616524 0.904945 0.241167
O O10 0.505023 0.891438 0.291063
O O11 0.775423 0.899187 0.761296
O O12 0.864434 0.250000 0.278943
O O13 0.012824 0.100745 0.631796
O O14 0.740382 0.081132 0.042638
O O15 0.124189 0.250000 0.942490
O O16 0.622137 0.546633 0.976674
O O17 0.500000 0.500000 0.500000
#
# Coordination Sequence:
#
# PCOD9163830 Si02
#       7
#     4   4   4   4   4   4   4
#     4  10  22  39  67 105 136 166 222 291 344 394
#     4  10  20  37  65 103 135 166 215 282 347 400
#     4  11  25  47  72  98 137 180 225 281 341 408
#     4  10  22  43  68  95 132 177 223 274 342 407
#     4   9  18  37  68 100 124 165 224 273 334 402
#     4  12  24  42  70 100 131 179 229 284 334 405
#     4  12  29  45  62  95 142 185 232 272 336 408
#
# _framework density 21.814952999999999
#
# number of rings (size 3 to 8) (size 9 to 14) (size 15 to 20)
#    0.000    1.429    2.857    1.714    4.000    1.143 
#    0.000    2.143    0.000    0.000    0.000    0.000 
#    0.000    0.000    0.000    0.000    0.000    0.000 
#
# Total GULP energy -156642.849532 kJ/mol
# GULP energy per Si atom -5594.387483 kJ/mol
# Density = 2.176530 g / cm^3
# Si number density = 21.814953 Si / 1000 Ang^3
#
#
#
# Elastic Constant Matrix: (Units=GPa)
#
#
# Indices 1 2 3 4 5 6 
#
# 1 103.0372 31.8042 56.2633 0.0000 -12.0539 0.0000
# 2 31.8042 85.2984 50.5701 0.0000 -3.2896 0.0000
# 3 56.2633 50.5701 131.6029 0.0000 -28.7450 0.0000
# 4 0.0000 0.0000 0.0000 22.9763 0.0000 3.7658
# 5 -12.0539 -3.2896 -28.7450 0.0000 43.0296 0.0000
# 6 0.0000 0.0000 0.0000 3.7658 0.0000 20.9193
#
#
#
# Elastic Compliance Matrix: (Units=1/GPa)
#
#
# Indices 1 2 3 4 5 6 
#
# 1 0.012923 -0.002039 -0.004665 0.000000 0.000348 0.000000
# 2 -0.002039 0.015891 -0.005964 0.000000 -0.003341 0.000000
# 3 -0.004665 -0.005964 0.013465 0.000000 0.007232 0.000000
# 4 0.000000 0.000000 0.000000 0.044846 0.000000 -0.008073
# 5 0.000348 -0.003341 0.007232 0.000000 0.027913 0.000000
# 6 0.000000 0.000000 0.000000 -0.008073 0.000000 0.049256
#
#
# Mechanical properties :
#
#
# Convention : Reuss Voigt Hill
#
# Bulk Modulus (GPa) = 59.02807 66.35709 62.69258
# Shear Modulus (GPa) = 25.60456 29.47178 27.53817
#
# Velocity S-wave (km/s) = 3.42967 3.67957 3.55682
# Velocity P-wave (km/s) = 6.54223 6.96681 6.75786
#
# Compressibility (1/GPa) = 0.01694109
#
# Stress axis : x y z
#
# Youngs Moduli (GPa) = 77.38266 62.92896 74.26893
#
# Poissons Ratio (x) = 0.12832 0.34649
# Poissons Ratio (y) = 0.15779 0.44296
# Poissons Ratio (z) = 0.36102 0.37532
#
# Static dielectric constant tensor:
#      x y z
#    x 1.754480 0.000000 -0.028850 
#    y 0.000000 1.835970 0.000000 
#    z -0.028850 0.000000 1.846480 
# 
# From -- ./inp_files/26936.got.cif
#   From: 2010.05.17/outbox.cif.g08.bks.cpg/sg11_14_cif.got.tgz:26936.got - 2010.06.03 12:22:45.
