data_PCOD9163361
_publ_section_title
;
Structure prediction by ZEFSAII (Michael W. Deem and Ramdas Pophale) SiO2 
 PCOD9163361
Probable space group: P 21/M
;
_chemical_formula_sum "Si O2"
_cell_formula_units_Z 20
_cell_length_a 7.997382
_cell_length_b 18.421703
_cell_length_c 6.199490
_cell_angle_alpha 90.000000
_cell_angle_beta 109.093715
_cell_angle_gamma 90.000000
_cell_volume 863.094609
_symmetry_space_group_name_H-M "P 21/M"
_symmetry_group_IT_number 11
_symmetry_cell_setting 'monoclinic'
loop_
_space_group_symop_operation_xyz
x,y,z
-x,1/2+y,-z
-x,-y,-z
x,1/2-y,z
loop_
_atom_site_type_symbol
_atom_site_label
_atom_site_fract_x
_atom_site_fract_y
_atom_site_fract_z
Si Si1 0.596075 0.169397 0.047488
Si Si2 0.955745 0.120036 0.360161
Si Si3 0.732303 0.862607 0.789100
Si Si4 0.526752 0.564770 0.344445
Si Si5 0.857324 0.960179 0.198984
O O1 0.617260 0.250000 0.964151
O O2 0.760273 0.153079 0.275285
O O3 0.404896 0.168118 0.089271
O O4 0.606321 0.106378 0.869972
O O5 0.086524 0.163542 0.252449
O O6 0.034056 0.104171 0.632460
O O7 0.947781 0.037430 0.265251
O O8 0.610038 0.873809 0.530605
O O9 0.798624 0.935119 0.939488
O O10 0.500000 0.500000 0.500000
O O11 0.675843 0.533311 0.252217
#
# Coordination Sequence:
#
# PCOD9163361 Si02
#       5
#     4   4   4   4   4
#     4  11  25  41  58  87 124 163 210 256 305 375
#     4  10  20  36  61  90 121 157 198 248 306 362
#     4  10  21  38  60  86 119 159 198 248 307 365
#     4  10  20  37  63  91 122 162 205 256 314 366
#     4   9  19  36  60  95 125 148 195 257 307 364
#
# _framework density 23.172429000000001
#
# number of rings (size 3 to 8) (size 9 to 14) (size 15 to 20)
#    0.000    2.000    0.000    3.000    0.000    9.600 
#    0.000    8.000    0.000    0.000    0.000    0.000 
#    0.000    0.000    0.000    0.000    0.000    0.000 
#
# Total GULP energy -111349.267179 kJ/mol
# GULP energy per Si atom -5567.463359 kJ/mol
# Density = 2.311969 g / cm^3
# Si number density = 23.172429 Si / 1000 Ang^3
#
#
#
# Elastic Constant Matrix: (Units=GPa)
#
#
# Indices 1 2 3 4 5 6 
#
# 1 84.8954 30.7316 21.2735 0.0000 -2.5057 0.0000
# 2 30.7316 79.6435 8.0300 0.0000 -2.4523 0.0000
# 3 21.2735 8.0300 64.8664 0.0000 5.9522 0.0000
# 4 0.0000 0.0000 0.0000 3.9771 0.0000 1.6525
# 5 -2.5057 -2.4523 5.9522 0.0000 35.5225 0.0000
# 6 0.0000 0.0000 0.0000 1.6525 0.0000 5.3841
#
#
#
# Elastic Compliance Matrix: (Units=1/GPa)
#
#
# Indices 1 2 3 4 5 6 
#
# 1 0.014801 -0.005231 -0.004336 0.000000 0.001409 0.000000
# 2 -0.005231 0.014610 -0.000154 0.000000 0.000666 0.000000
# 3 -0.004336 -0.000154 0.017150 0.000000 -0.003190 0.000000
# 4 0.000000 0.000000 0.000000 0.288190 0.000000 -0.088451
# 5 0.001409 0.000666 -0.003190 0.000000 0.028831 0.000000
# 6 0.000000 0.000000 0.000000 -0.088451 0.000000 0.212880
#
#
# Mechanical properties :
#
#
# Convention : Reuss Voigt Hill
#
# Bulk Modulus (GPa) = 36.87352 38.83059 37.85206
# Shear Modulus (GPa) = 8.26523 20.26809 14.26666
#
# Velocity S-wave (km/s) = 1.89066 2.96068 2.48397
# Velocity P-wave (km/s) = 4.55119 5.33677 4.95956
#
# Compressibility (1/GPa) = 0.02711973
#
# Stress axis : x y z
#
# Youngs Moduli (GPa) = 67.56432 68.44500 58.30870
#
# Poissons Ratio (x) = 0.35800 0.25282
# Poissons Ratio (y) = 0.35340 0.00900
# Poissons Ratio (z) = 0.29295 0.01056
#
# Static dielectric constant tensor:
#      x y z
#    x 1.939370 0.000000 0.000850 
#    y 0.000000 1.936140 0.000000 
#    z 0.000850 0.000000 1.867490 
# 
# From -- ./inp_files/2304.got.cif
#   From: 2010.05.17/outbox.cif.g08.bks.cpg/sg11_2_cif.got.tgz:2304.got - 2010.06.03 12:22:45.
