data_PCOD9163655
_publ_section_title
;
Structure prediction by ZEFSAII (Michael W. Deem and Ramdas Pophale) SiO2 
 PCOD9163655
Probable space group: P 21/M
;
_chemical_formula_sum "Si O2"
_cell_formula_units_Z 28
_cell_length_a 7.904285
_cell_length_b 14.213181
_cell_length_c 11.365589
_cell_angle_alpha 90.000000
_cell_angle_beta 120.060177
_cell_angle_gamma 90.000000
_cell_volume 1105.128523
_symmetry_space_group_name_H-M "P 21/M"
_symmetry_group_IT_number 11
_symmetry_cell_setting 'monoclinic'
loop_
_space_group_symop_operation_xyz
x,y,z
-x,1/2+y,-z
-x,-y,-z
x,1/2-y,z
loop_
_atom_site_type_symbol
_atom_site_label
_atom_site_fract_x
_atom_site_fract_y
_atom_site_fract_z
Si Si1 0.142740 0.645378 0.794899
Si Si2 0.854537 0.492859 0.666705
Si Si3 0.273206 0.863288 0.173326
Si Si4 0.547978 0.639891 0.064449
Si Si5 0.171259 0.136701 0.034114
Si Si6 0.137194 0.853087 0.513725
Si Si7 0.399297 0.358772 0.353248
O O1 0.083909 0.750000 0.819905
O O2 0.366302 0.635764 0.909971
O O3 0.111514 0.645995 0.643930
O O4 0.015378 0.556904 0.786418
O O5 0.749185 0.416356 0.712061
O O6 0.951016 0.436315 0.593538
O O7 0.691873 0.571962 0.581975
O O8 0.289262 0.750000 0.193559
O O9 0.451050 0.897070 0.151638
O O10 0.059925 0.883019 0.041017
O O11 0.589192 0.750000 0.103298
O O12 0.729087 0.600893 0.052747
O O13 0.186784 0.250000 0.032185
O O14 0.302094 0.112724 0.193624
O O15 0.074384 0.750000 0.447462
O O16 0.369639 0.864144 0.576527
O O17 0.350335 0.250000 0.361067
#
# Coordination Sequence:
#
# PCOD9163655 Si02
#       7
#     4   4   4   4   4   4   4
#     4  10  20  37  61  85 110 147 198 247 289 333
#     4  12  23  36  55  89 123 151 184 235 296 360
#     4  10  22  38  57  87 124 161 192 229 294 363
#     4   9  17  35  61  85 114 154 200 246 288 336
#     4   9  17  35  61  85 114 154 200 246 288 336
#     4  10  21  40  62  81 111 155 194 236 292 349
#     4  10  20  37  61  85 110 147 198 247 289 333
#
# _framework density 25.33642
#
# number of rings (size 3 to 8) (size 9 to 14) (size 15 to 20)
#    0.000    2.000    1.429    2.571    0.000    4.571 
#    2.571    1.429    0.000    0.000    0.000    0.000 
#    0.000    0.000    0.000    0.000    0.000    0.000 
#
# Total GULP energy -156549.665249 kJ/mol
# GULP energy per Si atom -5591.059473 kJ/mol
# Density = 2.527875 g / cm^3
# Si number density = 25.336420 Si / 1000 Ang^3
#
#
#
# Elastic Constant Matrix: (Units=GPa)
#
#
# Indices 1 2 3 4 5 6 
#
# 1 85.5250 26.6240 2.5494 0.0000 -18.2319 0.0000
# 2 26.6240 116.6146 27.8999 0.0000 -16.6144 0.0000
# 3 2.5494 27.8999 52.5554 0.0000 -19.0456 0.0000
# 4 0.0000 0.0000 0.0000 28.6074 0.0000 -5.9340
# 5 -18.2319 -16.6144 -19.0456 0.0000 40.3565 0.0000
# 6 0.0000 0.0000 0.0000 -5.9340 0.0000 19.8737
#
#
#
# Elastic Compliance Matrix: (Units=1/GPa)
#
#
# Indices 1 2 3 4 5 6 
#
# 1 0.013952 -0.003040 0.003339 0.000000 0.006627 0.000000
# 2 -0.003040 0.010609 -0.005307 0.000000 0.000490 0.000000
# 3 0.003339 -0.005307 0.025860 0.000000 0.011528 0.000000
# 4 0.000000 0.000000 0.000000 0.037264 0.000000 0.011127
# 5 0.006627 0.000490 0.011528 0.000000 0.033415 0.000000
# 6 0.000000 0.000000 0.000000 0.011127 0.000000 0.053640
#
#
# Mechanical properties :
#
#
# Convention : Reuss Voigt Hill
#
# Bulk Modulus (GPa) = 24.74948 40.98241 32.86594
# Shear Modulus (GPa) = 25.22385 30.94231 28.08308
#
# Velocity S-wave (km/s) = 3.15867 3.49844 3.33289
# Velocity P-wave (km/s) = 4.80546 5.70344 5.27360
#
# Compressibility (1/GPa) = 0.04040488
#
# Stress axis : x y z
#
# Youngs Moduli (GPa) = 71.67393 94.26198 38.66908
#
# Poissons Ratio (x) = 0.28655 -0.12910
# Poissons Ratio (y) = 0.21788 0.20521
# Poissons Ratio (z) = -0.23929 0.50024
#
# Static dielectric constant tensor:
#      x y z
#    x 2.037320 0.000000 -0.044130 
#    y 0.000000 2.023150 0.000000 
#    z -0.044130 0.000000 2.006720 
# 
# From -- ./inp_files/17799.got.cif
#   From: 2010.05.17/outbox.cif.g08.bks.cpg/sg11_9_cif.got.tgz:17799.got - 2010.06.03 12:22:45.
