data_PCOD9163084
_publ_section_title
;
Structure prediction by ZEFSAII (Michael W. Deem and Ramdas Pophale) SiO2 
 PCOD9163084
Probable space group: P 21/M
;
_chemical_formula_sum "Si O2"
_cell_formula_units_Z 28
_cell_length_a 6.110631
_cell_length_b 14.709524
_cell_length_c 17.908470
_cell_angle_alpha 90.000000
_cell_angle_beta 124.635150
_cell_angle_gamma 90.000000
_cell_volume 1324.436169
_symmetry_space_group_name_H-M "P 21/M"
_symmetry_group_IT_number 11
_symmetry_cell_setting 'monoclinic'
loop_
_space_group_symop_operation_xyz
x,y,z
-x,1/2+y,-z
-x,-y,-z
x,1/2-y,z
loop_
_atom_site_type_symbol
_atom_site_label
_atom_site_fract_x
_atom_site_fract_y
_atom_site_fract_z
Si Si1 0.877325 0.521721 0.132431
Si Si2 0.952344 0.646507 0.010142
Si Si3 0.540670 0.022863 0.707119
Si Si4 0.610948 0.350010 0.137316
Si Si5 0.730528 0.953633 0.490235
Si Si6 0.827253 0.147861 0.342522
Si Si7 0.468513 0.353920 0.840031
O O1 0.911725 0.562188 0.057466
O O2 0.691908 0.434264 0.102489
O O3 0.763080 0.606379 0.155710
O O4 0.152216 0.499374 0.226114
O O5 0.922302 0.750000 0.037372
O O6 0.265579 0.641445 0.057293
O O7 0.705809 0.641119 0.905158
O O8 0.444327 0.076301 0.614974
O O9 0.486103 0.081889 0.770829
O O10 0.381910 0.928418 0.673068
O O11 0.649631 0.250000 0.110097
O O12 0.787128 0.353301 0.245593
O O13 0.883605 0.882043 0.572333
O O14 0.500000 0.000000 0.500000
O O15 0.000000 0.000000 0.500000
O O16 0.766150 0.250000 0.356794
O O17 0.431600 0.250000 0.810136
#
# Coordination Sequence:
#
# PCOD9163084 Si02
#       7
#     4   4   4   4   4   4   4
#     4  11  20  36  61  89 121 161 210 259 326 380
#     4   9  20  37  55  85 121 160 207 264 314 378
#     4  10  22  39  64  90 128 159 206 266 325 383
#     4  10  20  36  58  84 123 162 207 257 314 385
#     4  10  22  41  69  94 129 170 214 265 323 382
#     4  10  21  41  65  93 127 171 212 257 320 393
#     4  10  21  38  60  85 120 163 212 266 323 385
#
# _framework density 21.141071
#
# number of rings (size 3 to 8) (size 9 to 14) (size 15 to 20)
#    0.000    2.000    1.429    1.714    2.000    2.286 
#    2.571    4.286    0.000    0.000    0.000    0.000 
#    0.000    0.000    0.000    0.000    0.000    0.000 
#
# Total GULP energy -155868.391668 kJ/mol
# GULP energy per Si atom -5566.728274 kJ/mol
# Density = 2.109295 g / cm^3
# Si number density = 21.141071 Si / 1000 Ang^3
#
#
#
# Elastic Constant Matrix: (Units=GPa)
#
#
# Indices 1 2 3 4 5 6 
#
# 1 65.1944 30.5105 24.2567 0.0000 16.5976 0.0000
# 2 30.5105 103.9557 38.5195 0.0000 25.4353 0.0000
# 3 24.2567 38.5195 115.1853 0.0000 18.2430 0.0000
# 4 0.0000 0.0000 0.0000 29.5867 0.0000 8.2699
# 5 16.5976 25.4353 18.2430 0.0000 29.6428 0.0000
# 6 0.0000 0.0000 0.0000 8.2699 0.0000 23.3916
#
#
#
# Elastic Compliance Matrix: (Units=1/GPa)
#
#
# Indices 1 2 3 4 5 6 
#
# 1 0.019323 -0.003303 -0.001884 0.000000 -0.006826 0.000000
# 2 -0.003303 0.013535 -0.002531 0.000000 -0.008206 0.000000
# 3 -0.001884 -0.002531 0.010430 0.000000 -0.003193 0.000000
# 4 0.000000 0.000000 0.000000 0.037505 0.000000 -0.013260
# 5 -0.006826 -0.008206 -0.003193 0.000000 0.046564 0.000000
# 6 0.000000 0.000000 0.000000 -0.013260 0.000000 0.047438
#
#
# Mechanical properties :
#
#
# Convention : Reuss Voigt Hill
#
# Bulk Modulus (GPa) = 35.90263 52.32319 44.11291
# Shear Modulus (GPa) = 25.06081 29.26081 27.16081
#
# Velocity S-wave (km/s) = 3.44671 3.72435 3.58822
# Velocity P-wave (km/s) = 5.73228 6.58010 6.17077
#
# Compressibility (1/GPa) = 0.02785311
#
# Stress axis : x y z
#
# Youngs Moduli (GPa) = 51.75128 73.88448 95.87411
#
# Poissons Ratio (x) = 0.24406 0.18058
# Poissons Ratio (y) = 0.17095 0.24264
# Poissons Ratio (z) = 0.09747 0.18699
#
# Static dielectric constant tensor:
#      x y z
#    x 1.847940 0.000000 -0.027740 
#    y 0.000000 1.817870 0.000000 
#    z -0.027740 0.000000 1.770300 
# 
# From -- ./inp_files/57121.got.cif
#   From: 2010.05.17/outbox.cif.g08.bks.cpg/sg11_29_cif.got.tgz:57121.got - 2010.06.03 12:22:45.
