data_PCOD9163061
_publ_section_title
;
Structure prediction by ZEFSAII (Michael W. Deem and Ramdas Pophale) SiO2 
 PCOD9163061
Probable space group: P 21/M
;
_chemical_formula_sum "Si O2"
_cell_formula_units_Z 32
_cell_length_a 12.563409
_cell_length_b 8.670683
_cell_length_c 15.466200
_cell_angle_alpha 90.000000
_cell_angle_beta 91.854215
_cell_angle_gamma 90.000000
_cell_volume 1683.902606
_symmetry_space_group_name_H-M "P 21/M"
_symmetry_group_IT_number 11
_symmetry_cell_setting 'monoclinic'
loop_
_space_group_symop_operation_xyz
x,y,z
-x,1/2+y,-z
-x,-y,-z
x,1/2-y,z
loop_
_atom_site_type_symbol
_atom_site_label
_atom_site_fract_x
_atom_site_fract_y
_atom_site_fract_z
Si Si1 0.328359 0.934908 0.529395
Si Si2 0.905702 0.566180 0.438043
Si Si3 0.528656 0.436064 0.630961
Si Si4 0.724800 0.935193 0.947042
Si Si5 0.703916 0.563961 0.144515
Si Si6 0.101352 0.565470 0.751553
Si Si7 0.044341 0.436120 0.091380
Si Si8 0.459327 0.565032 0.174377
O O1 0.320701 0.750000 0.534207
O O2 0.384386 0.977674 0.439461
O O3 0.211419 0.004890 0.537824
O O4 0.414371 0.994147 0.601773
O O5 0.905881 0.750000 0.443245
O O6 0.923996 0.512136 0.340063
O O7 0.000000 0.500000 0.500000
O O8 0.517402 0.250000 0.629882
O O9 0.562784 0.484650 0.727672
O O10 0.719696 0.750000 0.947802
O O11 0.832211 0.983003 0.900815
O O12 0.621461 0.996534 0.896527
O O13 0.732432 0.983924 0.047364
O O14 0.716295 0.750000 0.152538
O O15 0.781383 0.483142 0.214069
O O16 0.581148 0.524983 0.156908
O O17 0.094611 0.750000 0.742300
O O18 0.023268 0.514285 0.827337
O O19 0.039140 0.250000 0.087342
O O20 0.000000 0.500000 0.000000
O O21 0.450634 0.750000 0.170335
#
# Coordination Sequence:
#
# PCOD9163061 Si02
#       8
#     4   4   4   4   4   4   4   4
#     4  10  20  37  62  89 118 153 198 247 298 358
#     4  12  26  44  64  87 120 158 198 251 309 367
#     4   9  19  36  58  87 121 156 197 244 297 356
#     4  10  21  36  54  80 116 155 194 238 290 342
#     4  10  20  36  58  83 117 157 196 239 289 347
#     4  11  23  39  63  93 119 152 199 247 296 358
#     4  10  21  38  60  86 118 153 196 245 290 346
#     4  10  21  35  53  81 115 152 195 239 289 347
#
# _framework density 19.003474000000001
#
# number of rings (size 3 to 8) (size 9 to 14) (size 15 to 20)
#    0.000    1.750    1.250    3.000    0.000    5.000 
#    0.000    2.500    0.000    0.000    0.000    0.000 
#    0.000    0.000    0.000    0.000    0.000    0.000 
#
# Total GULP energy -178790.398964 kJ/mol
# GULP energy per Si atom -5587.199968 kJ/mol
# Density = 1.896022 g / cm^3
# Si number density = 19.003474 Si / 1000 Ang^3
#
#
#
# Elastic Constant Matrix: (Units=GPa)
#
#
# Indices 1 2 3 4 5 6 
#
# 1 93.2787 36.0496 71.2101 0.0000 0.4725 0.0000
# 2 36.0496 41.8536 36.4743 0.0000 0.4659 0.0000
# 3 71.2101 36.4743 118.2264 0.0000 13.6015 0.0000
# 4 0.0000 0.0000 0.0000 28.6405 0.0000 9.7248
# 5 0.4725 0.4659 13.6015 0.0000 29.9877 0.0000
# 6 0.0000 0.0000 0.0000 9.7248 0.0000 21.2638
#
#
#
# Elastic Compliance Matrix: (Units=1/GPa)
#
#
# Indices 1 2 3 4 5 6 
#
# 1 0.023463 -0.010182 -0.011570 0.000000 0.005037 0.000000
# 2 -0.010182 0.037629 -0.005726 0.000000 0.002173 0.000000
# 3 -0.011570 -0.005726 0.018108 0.000000 -0.007942 0.000000
# 4 0.000000 0.000000 0.000000 0.041334 0.000000 -0.018904
# 5 0.005037 0.002173 -0.007942 0.000000 0.036836 0.000000
# 6 0.000000 0.000000 0.000000 -0.018904 0.000000 0.055674
#
#
# Mechanical properties :
#
#
# Convention : Reuss Voigt Hill
#
# Bulk Modulus (GPa) = 41.25002 60.09188 50.67095
# Shear Modulus (GPa) = 18.11055 23.28671 20.69863
#
# Velocity S-wave (km/s) = 3.09044 3.50436 3.30389
# Velocity P-wave (km/s) = 5.87266 6.93283 6.42465
#
# Compressibility (1/GPa) = 0.02424241
#
# Stress axis : x y z
#
# Youngs Moduli (GPa) = 42.61989 26.57532 55.22513
#
# Poissons Ratio (x) = 0.27060 0.63898
# Poissons Ratio (y) = 0.43396 0.31622
# Poissons Ratio (z) = 0.49313 0.15217
#
# Static dielectric constant tensor:
#      x y z
#    x 1.641790 0.000000 -0.032550 
#    y 0.000000 1.641840 0.000000 
#    z -0.032550 0.000000 1.655400 
# 
# From -- ./inp_files/49344.got.cif
#   From: 2010.05.17/outbox.cif.g08.bks.cpg/sg11_25_cif.got.tgz:49344.got - 2010.06.03 12:22:45.
