data_PCOD9163357
_publ_section_title
;
Structure prediction by ZEFSAII (Michael W. Deem and Ramdas Pophale) SiO2 
 PCOD9163357
Probable space group: P 21/M
;
_chemical_formula_sum "Si O2"
_cell_formula_units_Z 28
_cell_length_a 22.450859
_cell_length_b 8.842820
_cell_length_c 15.062492
_cell_angle_alpha 90.000000
_cell_angle_beta 30.488514
_cell_angle_gamma 90.000000
_cell_volume 1517.195740
_symmetry_space_group_name_H-M "P 21/M"
_symmetry_group_IT_number 11
_symmetry_cell_setting 'monoclinic'
loop_
_space_group_symop_operation_xyz
x,y,z
-x,1/2+y,-z
-x,-y,-z
x,1/2-y,z
loop_
_atom_site_type_symbol
_atom_site_label
_atom_site_fract_x
_atom_site_fract_y
_atom_site_fract_z
Si Si1 0.768524 0.569068 0.267156
Si Si2 0.859238 0.568335 0.338458
Si Si3 0.378585 0.067556 0.051869
Si Si4 0.285330 0.431349 0.983715
Si Si5 0.119716 0.931278 0.053322
Si Si6 0.648871 0.069341 0.721257
Si Si7 0.520782 0.431059 0.570504
O O1 0.762812 0.750000 0.264741
O O2 0.851050 0.530092 0.244534
O O3 0.639722 0.504563 0.453637
O O4 0.812631 0.498062 0.118793
O O5 0.850554 0.750000 0.356343
O O6 0.749493 0.497606 0.530233
O O7 0.983882 0.521403 0.219018
O O8 0.372835 0.250000 0.067944
O O9 0.338940 0.992711 0.194362
O O10 0.303422 0.022814 0.062582
O O11 0.516297 0.027902 0.861162
O O12 0.268422 0.250000 0.002286
O O13 0.407727 0.463789 0.775833
O O14 0.182304 0.510131 0.061531
O O15 0.125894 0.750000 0.041655
O O16 0.656457 0.250000 0.711180
O O17 0.500000 0.500000 0.500000
O O18 0.534255 0.250000 0.547570
#
# Coordination Sequence:
#
# PCOD9163357 Si02
#       7
#     4   4   4   4   4   4   4
#     4  11  22  37  57  81 111 149 191 233 282 335
#     4  10  23  40  57  80 111 149 190 234 282 332
#     4   9  19  37  60  86 116 146 176 223 282 336
#     4  10  21  37  57  81 113 151 187 225 277 335
#     4  11  23  38  56  79 111 150 192 236 279 328
#     4  10  20  36  61  90 113 140 181 230 280 334
#     4  11  21  34  54  82 115 147 183 227 277 328
#
# _framework density 18.455099000000001
#
# number of rings (size 3 to 8) (size 9 to 14) (size 15 to 20)
#    0.000    1.714    1.429    3.000    0.000    5.143 
#    0.000    0.714    0.000    0.000    0.000    0.000 
#    0.000    0.000    0.000    0.000    0.000    0.000 
#
# Total GULP energy -156442.869922 kJ/mol
# GULP energy per Si atom -5587.245354 kJ/mol
# Density = 1.841309 g / cm^3
# Si number density = 18.455099 Si / 1000 Ang^3
#
#
#
# Elastic Constant Matrix: (Units=GPa)
#
#
# Indices 1 2 3 4 5 6 
#
# 1 153.9504 36.4946 34.3590 0.0000 -12.1298 0.0000
# 2 36.4946 23.0460 12.8063 0.0000 -5.6805 0.0000
# 3 34.3590 12.8063 40.6834 0.0000 -10.3197 0.0000
# 4 0.0000 0.0000 0.0000 28.6699 0.0000 -1.7750
# 5 -12.1298 -5.6805 -10.3197 0.0000 22.4465 0.0000
# 6 0.0000 0.0000 0.0000 -1.7750 0.0000 25.6676
#
#
#
# Elastic Compliance Matrix: (Units=1/GPa)
#
#
# Indices 1 2 3 4 5 6 
#
# 1 0.011080 -0.014954 -0.004632 0.000000 0.000074 0.000000
# 2 -0.014954 0.073611 -0.008905 0.000000 0.006454 0.000000
# 3 -0.004632 -0.008905 0.034060 0.000000 0.010903 0.000000
# 4 0.000000 0.000000 0.000000 0.035030 0.000000 0.002422
# 5 0.000074 0.006454 0.010903 0.000000 0.051236 0.000000
# 6 0.000000 0.000000 0.000000 0.002422 0.000000 0.039127
#
#
# Mechanical properties :
#
#
# Convention : Reuss Voigt Hill
#
# Bulk Modulus (GPa) = 16.18901 42.77773 29.48337
# Shear Modulus (GPa) = 15.54171 24.29144 19.91658
#
# Velocity S-wave (km/s) = 2.90511 3.63195 3.28867
# Velocity P-wave (km/s) = 4.47705 6.38887 5.51642
#
# Compressibility (1/GPa) = 0.06177029
#
# Stress axis : x y z
#
# Youngs Moduli (GPa) = 90.25264 13.58497 29.35967
#
# Poissons Ratio (x) = 0.20315 0.13599
# Poissons Ratio (y) = 1.34963 0.26144
# Poissons Ratio (z) = 0.41802 0.12097
#
# Static dielectric constant tensor:
#      x y z
#    x 1.643470 0.000000 -0.015230 
#    y 0.000000 1.616340 0.000000 
#    z -0.015230 0.000000 1.608910 
# 
# From -- ./inp_files/37647.got.cif
#   From: 2010.05.17/outbox.cif.g08.bks.cpg/sg11_19_cif.got.tgz:37647.got - 2010.06.03 12:22:45.
