data_PCOD9163150
_publ_section_title
;
Structure prediction by ZEFSAII (Michael W. Deem and Ramdas Pophale) SiO2 
 PCOD9163150
Probable space group: P 21/M
;
_chemical_formula_sum "Si O2"
_cell_formula_units_Z 32
_cell_length_a 26.901392
_cell_length_b 8.129075
_cell_length_c 25.829700
_cell_angle_alpha 90.000000
_cell_angle_beta 163.772499
_cell_angle_gamma 90.000000
_cell_volume 1578.492291
_symmetry_space_group_name_H-M "P 21/M"
_symmetry_group_IT_number 11
_symmetry_cell_setting 'monoclinic'
loop_
_space_group_symop_operation_xyz
x,y,z
-x,1/2+y,-z
-x,-y,-z
x,1/2-y,z
loop_
_atom_site_type_symbol
_atom_site_label
_atom_site_fract_x
_atom_site_fract_y
_atom_site_fract_z
Si Si1 0.295430 0.946978 0.433328
Si Si2 0.000200 0.054070 0.059384
Si Si3 0.680767 0.050102 0.930758
Si Si4 0.999640 0.554068 0.558825
Si Si5 0.704930 0.051854 0.842184
Si Si6 0.704358 0.446978 0.342226
Si Si7 0.294858 0.551857 0.932138
Si Si8 0.272111 0.556734 0.522128
O O1 0.291964 0.750000 0.432592
O O2 0.221875 0.013457 0.415455
O O3 0.175574 0.003705 0.266118
O O4 0.500052 0.000198 0.631540
O O5 0.989079 0.250000 0.048682
O O6 0.833375 0.986941 0.925916
O O7 0.000000 0.000000 0.000000
O O8 0.658455 0.250000 0.908450
O O9 0.766843 0.002429 0.962172
O O10 0.486456 0.967012 0.736459
O O11 0.766939 0.002408 0.071576
O O12 0.010737 0.750000 0.570347
O O13 0.166387 0.486938 0.758961
O O14 0.000000 0.500000 0.500000
O O15 0.824189 0.503672 0.414693
O O16 0.709176 0.250000 0.844780
O O17 0.707777 0.250000 0.348379
O O18 0.778030 0.513454 0.471568
O O19 0.499745 0.500248 0.131229
O O20 0.290567 0.750000 0.926201
O O21 0.226574 0.750000 0.476594
#
# Coordination Sequence:
#
# PCOD9163150 Si02
#       8
#     4   4   4   4   4   4   4   4
#     4  10  20  36  59  85 114 146 179 221 273 328
#     4  11  24  40  57  79 109 146 191 236 276 325
#     4   8  14  29  54  82 109 135 171 219 269 323
#     4  11  24  40  57  79 109 146 191 236 276 325
#     4   9  19  36  58  83 110 142 179 222 273 326
#     4  10  20  36  59  85 114 146 179 221 273 328
#     4   9  19  36  58  83 110 142 179 222 273 326
#     4   8  16  31  52  82 115 143 173 211 265 331
#
# _framework density 20.27251
#
# number of rings (size 3 to 8) (size 9 to 14) (size 15 to 20)
#    0.000    2.500    0.000    1.500    0.000    5.000 
#    0.000    1.250    0.000    4.500    0.000    0.000 
#    0.000    0.000    0.000    0.000    0.000    0.000 
#
# Total GULP energy -178471.501203 kJ/mol
# GULP energy per Si atom -5577.234413 kJ/mol
# Density = 2.022637 g / cm^3
# Si number density = 20.272510 Si / 1000 Ang^3
#
#
#
# Elastic Constant Matrix: (Units=GPa)
#
#
# Indices 1 2 3 4 5 6 
#
# 1 230.2194 24.4540 97.9565 0.0000 -16.8102 0.0000
# 2 24.4540 24.4430 7.4187 0.0000 -4.7457 0.0000
# 3 97.9565 7.4187 111.4754 0.0000 -16.2127 0.0000
# 4 0.0000 0.0000 0.0000 0.4168 0.0000 18.8901
# 5 -16.8102 -4.7457 -16.2127 0.0000 36.0428 0.0000
# 6 0.0000 0.0000 0.0000 18.8901 0.0000 -67.1839
#
#
#
# Elastic Compliance Matrix: (Units=1/GPa)
#
#
# Indices 1 2 3 4 5 6 
#
# 1 0.007651 -0.005736 -0.006347 0.000000 -0.000042 0.000000
# 2 -0.005736 0.046763 0.002605 0.000000 0.004654 0.000000
# 3 -0.006347 0.002605 0.014974 0.000000 0.004118 0.000000
# 4 0.000000 0.000000 0.000000 0.174575 0.000000 0.049085
# 5 -0.000042 0.004654 0.004118 0.000000 0.030190 0.000000
# 6 0.000000 0.000000 0.000000 0.049085 0.000000 -0.001083
#
#
# Mechanical properties :
#
#
# Convention : Reuss Voigt Hill
#
# Bulk Modulus (GPa) = 19.82913 69.53290 44.68102
# Shear Modulus (GPa) = 16.18986 9.60907 12.89947
#
# Velocity S-wave (km/s) = 2.82904 2.17950 2.52524
# Velocity P-wave (km/s) = 4.52480 6.38022 5.53087
#
# Compressibility (1/GPa) = 0.05043085
#
# Stress axis : x y z
#
# Youngs Moduli (GPa) = 130.71038 21.38458 66.78448
#
# Poissons Ratio (x) = 0.12266 0.42389
# Poissons Ratio (y) = 0.74971 -0.17397
# Poissons Ratio (z) = 0.82963 -0.05570
#
# Static dielectric constant tensor:
#      x y z
#    x 1.782010 0.000000 -0.015610 
#    y 0.000000 1.718660 0.000000 
#    z -0.015610 0.000000 1.725920 
# 
# From -- ./inp_files/69995.got.cif
#   From: 2010.05.17/outbox.cif.g08.bks.cpg/sg11_35_cif.got.tgz:69995.got - 2010.06.03 12:22:45.
