data_PCOD9163868
_publ_section_title
;
Structure prediction by ZEFSAII (Michael W. Deem and Ramdas Pophale) SiO2 
 PCOD9163868
Probable space group: P 21/M
;
_chemical_formula_sum "Si O2"
_cell_formula_units_Z 20
_cell_length_a 19.531169
_cell_length_b 10.025144
_cell_length_c 5.638868
_cell_angle_alpha 90.000000
_cell_angle_beta 45.678058
_cell_angle_gamma 90.000000
_cell_volume 789.905302
_symmetry_space_group_name_H-M "P 21/M"
_symmetry_group_IT_number 11
_symmetry_cell_setting 'monoclinic'
loop_
_space_group_symop_operation_xyz
x,y,z
-x,1/2+y,-z
-x,-y,-z
x,1/2-y,z
loop_
_atom_site_type_symbol
_atom_site_label
_atom_site_fract_x
_atom_site_fract_y
_atom_site_fract_z
Si Si1 0.608822 0.464273 0.163043
Si Si2 0.409840 0.250000 0.821265
Si Si3 0.951801 0.901426 0.427118
Si Si4 0.321925 0.960535 0.508486
Si Si5 0.417458 0.250000 0.302651
Si Si6 0.139875 0.898008 0.662948
O O1 0.500000 0.500000 0.500000
O O2 0.650744 0.615433 0.032564
O O3 0.655178 0.402948 0.286212
O O4 0.621362 0.409977 0.865870
O O5 0.468240 0.250000 0.434559
O O6 0.468101 0.250000 0.925347
O O7 0.928199 0.750000 0.566858
O O8 0.866040 0.985822 0.517365
O O9 0.000000 0.000000 0.500000
O O10 0.034768 0.886381 0.029072
O O11 0.213629 0.937391 0.690955
O O12 0.354728 0.115166 0.452981
O O13 0.166218 0.750000 0.506578
#
# Coordination Sequence:
#
# PCOD9163868 Si02
#       6
#     4   2   4   4   2   4
#     4  10  20  38  58  86 121 164 216 266 329 396
#     4   8  16  32  52  76 108 150 186 268 308 360
#     4  10  22  42  68  97 131 177 219 270 334 404
#     4  10  21  37  60  90 121 167 211 272 330 387
#     4   8  16  32  54  78 114 142 204 252 316 362
#     4  10  23  42  62  94 137 171 217 278 335 404
#
# _framework density 25.319490999999999
#
# number of rings (size 3 to 8) (size 9 to 14) (size 15 to 20)
#    0.000    2.400    0.000    1.200    4.200    0.800 
#    3.600    0.000    0.000    0.000    0.000    0.000 
#    0.000    0.000    0.000    0.000    0.000    0.000 
#
# Total GULP energy -111482.287668 kJ/mol
# GULP energy per Si atom -5574.114383 kJ/mol
# Density = 2.526186 g / cm^3
# Si number density = 25.319491 Si / 1000 Ang^3
#
#
#
# Elastic Constant Matrix: (Units=GPa)
#
#
# Indices 1 2 3 4 5 6 
#
# 1 203.7073 52.6541 41.6856 0.0000 47.5876 0.0000
# 2 52.6541 193.3745 9.1087 0.0000 14.2541 0.0000
# 3 41.6856 9.1087 77.2083 0.0000 29.6488 0.0000
# 4 0.0000 0.0000 0.0000 14.8524 0.0000 -4.2307
# 5 47.5876 14.2541 29.6488 0.0000 60.1890 0.0000
# 6 0.0000 0.0000 0.0000 -4.2307 0.0000 19.2541
#
#
#
# Elastic Compliance Matrix: (Units=1/GPa)
#
#
# Indices 1 2 3 4 5 6 
#
# 1 0.006578 -0.001412 -0.001870 0.000000 -0.003946 0.000000
# 2 -0.001412 0.005568 0.000226 0.000000 -0.000313 0.000000
# 3 -0.001870 0.000226 0.016511 0.000000 -0.006708 0.000000
# 4 0.000000 0.000000 0.000000 0.071825 0.000000 0.015782
# 5 -0.003946 -0.000313 -0.006708 0.000000 0.023112 0.000000
# 6 0.000000 0.000000 0.000000 0.015782 0.000000 0.055405
#
#
# Mechanical properties :
#
#
# Convention : Reuss Voigt Hill
#
# Bulk Modulus (GPa) = 44.35589 75.68743 60.02166
# Shear Modulus (GPa) = 25.95683 43.58188 34.76935
#
# Velocity S-wave (km/s) = 3.20530 4.15333 3.70972
# Velocity P-wave (km/s) = 5.59063 7.27723 6.48896
#
# Compressibility (1/GPa) = 0.02254492
#
# Stress axis : x y z
#
# Youngs Moduli (GPa) = 152.01181 179.58695 60.56570
#
# Poissons Ratio (x) = 0.25364 0.11326
# Poissons Ratio (y) = 0.21469 -0.01368
# Poissons Ratio (z) = 0.28427 -0.04057
#
# Static dielectric constant tensor:
#      x y z
#    x 1.982190 0.000000 0.048030 
#    y 0.000000 1.987720 0.000000 
#    z 0.048030 0.000000 2.039910 
# 
# From -- ./inp_files/7645.got.cif
#   From: 2010.05.17/outbox.cif.g08.bks.cpg/sg11_4_cif.got.tgz:7645.got - 2010.06.03 12:22:45.
