data_PCOD9163757
_publ_section_title
;
Structure prediction by ZEFSAII (Michael W. Deem and Ramdas Pophale) SiO2 
 PCOD9163757
Probable space group: P 21/M
;
_chemical_formula_sum "Si O2"
_cell_formula_units_Z 16
_cell_length_a 6.037520
_cell_length_b 10.996222
_cell_length_c 13.122290
_cell_angle_alpha 90.000000
_cell_angle_beta 122.544343
_cell_angle_gamma 90.000000
_cell_volume 734.389728
_symmetry_space_group_name_H-M "P 21/M"
_symmetry_group_IT_number 11
_symmetry_cell_setting 'monoclinic'
loop_
_space_group_symop_operation_xyz
x,y,z
-x,1/2+y,-z
-x,-y,-z
x,1/2-y,z
loop_
_atom_site_type_symbol
_atom_site_label
_atom_site_fract_x
_atom_site_fract_y
_atom_site_fract_z
Si Si1 0.237346 0.883120 0.140841
Si Si2 0.789421 0.051677 0.090187
Si Si3 0.706016 0.108049 0.516332
Si Si4 0.232808 0.965986 0.696840
O O1 0.293471 0.750000 0.193246
O O2 0.996299 0.942359 0.139472
O O3 0.495957 0.962300 0.219249
O O4 0.156496 0.878376 0.001303
O O5 0.808243 0.106934 0.207451
O O6 0.500000 0.000000 0.000000
O O7 0.648736 0.250000 0.532502
O O8 0.989855 0.059212 0.623807
O O9 0.500000 0.000000 0.500000
O O10 0.730168 0.105038 0.399178
#
# Coordination Sequence:
#
# PCOD9163757 Si02
#       4
#     4   4   4   4
#     4  10  20  37  62  89 120 159 203 253 310 372
#     4   9  20  37  56  87 120 151 194 246 304 366
#     4  11  25  43  65  94 127 166 213 265 319 374
#     4  10  22  41  63  89 123 163 212 259 308 370
#
# _framework density 21.786795000000001
#
# number of rings (size 3 to 8) (size 9 to 14) (size 15 to 20)
#    0.000    2.000    0.000    2.250    0.000   13.000 
#    0.000   17.500    0.000    0.000    0.000    0.000 
#    0.000    0.000    0.000    0.000    0.000    0.000 
#
# Total GULP energy -89175.062019 kJ/mol
# GULP energy per Si atom -5573.441376 kJ/mol
# Density = 2.173721 g / cm^3
# Si number density = 21.786795 Si / 1000 Ang^3
#
#
#
# Elastic Constant Matrix: (Units=GPa)
#
#
# Indices 1 2 3 4 5 6 
#
# 1 95.6761 21.8877 34.9219 0.0000 -11.7103 0.0000
# 2 21.8877 106.0253 22.2161 0.0000 -14.0910 0.0000
# 3 34.9219 22.2161 166.7839 0.0000 -24.4301 0.0000
# 4 0.0000 0.0000 0.0000 -8.4884 0.0000 5.1002
# 5 -11.7103 -14.0910 -24.4301 0.0000 33.5326 0.0000
# 6 0.0000 0.0000 0.0000 5.1002 0.0000 2.9548
#
#
#
# Elastic Compliance Matrix: (Units=1/GPa)
#
#
# Indices 1 2 3 4 5 6 
#
# 1 0.011808 -0.001769 -0.001950 0.000000 0.001960 0.000000
# 2 -0.001769 0.010351 -0.000517 0.000000 0.003355 0.000000
# 3 -0.001950 -0.000517 0.007099 0.000000 0.004274 0.000000
# 4 0.000000 0.000000 0.000000 -0.057831 0.000000 0.099822
# 5 0.001960 0.003355 0.004274 0.000000 0.035030 0.000000
# 6 0.000000 0.000000 0.000000 0.099822 0.000000 0.166135
#
#
# Mechanical properties :
#
#
# Convention : Reuss Voigt Hill
#
# Bulk Modulus (GPa) = 48.10610 58.50407 53.30509
# Shear Modulus (GPa) = 26.59686 24.89709 25.74697
#
# Velocity S-wave (km/s) = 3.49776 3.38414 3.44142
# Velocity P-wave (km/s) = 6.20006 6.49470 6.34909
#
# Compressibility (1/GPa) = 0.02078738
#
# Stress axis : x y z
#
# Youngs Moduli (GPa) = 84.68771 96.60813 140.86683
#
# Poissons Ratio (x) = 0.17086 0.27466
# Poissons Ratio (y) = 0.14978 0.07283
# Poissons Ratio (z) = 0.16512 0.04994
#
# Static dielectric constant tensor:
#      x y z
#    x 1.756900 0.000000 -0.060380 
#    y 0.000000 1.538090 0.000000 
#    z -0.060380 0.000000 1.861650 
# 
# From -- ./inp_files/29404.got.cif
#   From: 2010.05.17/outbox.cif.g08.bks.cpg/sg11_15_cif.got.tgz:29404.got - 2010.06.03 12:22:45.
