data_PCOD9163098
_publ_section_title
;
Structure prediction by ZEFSAII (Michael W. Deem and Ramdas Pophale) SiO2 
 PCOD9163098
Probable space group: P 21/M
;
_chemical_formula_sum "Si O2"
_cell_formula_units_Z 24
_cell_length_a 12.231359
_cell_length_b 7.843925
_cell_length_c 12.064756
_cell_angle_alpha 90.000000
_cell_angle_beta 110.582755
_cell_angle_gamma 90.000000
_cell_volume 1083.625636
_symmetry_space_group_name_H-M "P 21/M"
_symmetry_group_IT_number 11
_symmetry_cell_setting 'monoclinic'
loop_
_space_group_symop_operation_xyz
x,y,z
-x,1/2+y,-z
-x,-y,-z
x,1/2-y,z
loop_
_atom_site_type_symbol
_atom_site_label
_atom_site_fract_x
_atom_site_fract_y
_atom_site_fract_z
Si Si1 0.051745 0.442361 0.135044
Si Si2 0.250985 0.453714 0.356248
Si Si3 0.158241 0.449285 0.793995
Si Si4 0.542866 0.044266 0.715353
Si Si5 0.726528 0.541161 0.390593
Si Si6 0.621046 0.454335 0.983049
O O1 0.087987 0.250000 0.125974
O O2 0.163061 0.529375 0.233016
O O3 0.948310 0.454024 0.187621
O O4 0.000000 0.500000 0.000000
O O5 0.232485 0.250000 0.355489
O O6 0.382404 0.483889 0.362227
O O7 0.231338 0.517709 0.473822
O O8 0.126170 0.250000 0.775010
O O9 0.197067 0.513804 0.686962
O O10 0.271031 0.465691 0.913497
O O11 0.541422 0.250000 0.714120
O O12 0.408568 0.987200 0.670572
O O13 0.607517 0.988202 0.851138
O O14 0.726647 0.750000 0.388067
O O15 0.636017 0.250000 0.989893
O O16 0.500000 0.500000 0.000000
#
# Coordination Sequence:
#
# PCOD9163098 Si02
#       6
#     4   4   4   4   4   4
#     4  11  24  42  62  87 116 152 198 247 296 350
#     4  10  22  39  60  84 114 154 199 243 289 348
#     4  11  22  39  62  87 119 158 194 239 298 351
#     4  10  20  36  58  85 119 154 191 237 292 349
#     4   9  19  38  59  84 119 155 190 238 298 350
#     4  11  21  35  57  87 120 154 193 239 290 346
#
# _framework density 22.147869
#
# number of rings (size 3 to 8) (size 9 to 14) (size 15 to 20)
#    0.000    1.667    1.667    3.000    0.000    6.000 
#    0.000    1.667    0.000    0.000    0.000    0.000 
#    0.000    0.000    0.000    0.000    0.000    0.000 
#
# Total GULP energy -134148.845197 kJ/mol
# GULP energy per Si atom -5589.535217 kJ/mol
# Density = 2.209746 g / cm^3
# Si number density = 22.147869 Si / 1000 Ang^3
#
#
#
# Elastic Constant Matrix: (Units=GPa)
#
#
# Indices 1 2 3 4 5 6 
#
# 1 75.9382 -17.6074 31.8348 0.0000 -10.4207 0.0000
# 2 -17.6074 28.2494 12.1245 0.0000 -0.2820 0.0000
# 3 31.8348 12.1245 141.4206 0.0000 -24.7481 0.0000
# 4 0.0000 0.0000 0.0000 18.1668 0.0000 -5.7953
# 5 -10.4207 -0.2820 -24.7481 0.0000 28.0672 0.0000
# 6 0.0000 0.0000 0.0000 -5.7953 0.0000 25.1665
#
#
#
# Elastic Compliance Matrix: (Units=1/GPa)
#
#
# Indices 1 2 3 4 5 6 
#
# 1 0.018846 0.013898 -0.004949 0.000000 0.002773 0.000000
# 2 0.013898 0.047194 -0.007318 0.000000 -0.000818 0.000000
# 3 -0.004949 -0.007318 0.010025 0.000000 0.006929 0.000000
# 4 0.000000 0.000000 0.000000 0.059410 0.000000 0.013681
# 5 0.002773 -0.000818 0.006929 0.000000 0.042759 0.000000
# 6 0.000000 0.000000 0.000000 0.013681 0.000000 0.042886
#
#
# Mechanical properties :
#
#
# Convention : Reuss Voigt Hill
#
# Bulk Modulus (GPa) = 12.60578 33.14576 22.87577
# Shear Modulus (GPa) = 20.46664 28.89718 24.68191
#
# Velocity S-wave (km/s) = 3.04318 3.61604 3.34191
# Velocity P-wave (km/s) = 4.24876 5.69495 5.02416
#
# Compressibility (1/GPa) = 0.07932866
#
# Stress axis : x y z
#
# Youngs Moduli (GPa) = 53.06098 21.18904 99.75102
#
# Poissons Ratio (x) = -0.29449 0.49363
# Poissons Ratio (y) = -0.73745 0.72997
# Poissons Ratio (z) = 0.26258 0.15506
#
# Static dielectric constant tensor:
#      x y z
#    x 1.777530 0.000000 0.016080 
#    y 0.000000 1.671390 0.000000 
#    z 0.016080 0.000000 1.855280 
# 
# From -- ./inp_files/33903.got.cif
#   From: 2010.05.17/outbox.cif.g08.bks.cpg/sg11_17_cif.got.tgz:33903.got - 2010.06.03 12:22:45.
