data_PCOD9163647
_publ_section_title
;
Structure prediction by ZEFSAII (Michael W. Deem and Ramdas Pophale) SiO2 
 PCOD9163647
Probable space group: P 21/M
;
_chemical_formula_sum "Si O2"
_cell_formula_units_Z 32
_cell_length_a 9.132431
_cell_length_b 31.890028
_cell_length_c 10.722210
_cell_angle_alpha 90.000000
_cell_angle_beta 151.536524
_cell_angle_gamma 90.000000
_cell_volume 1488.258027
_symmetry_space_group_name_H-M "P 21/M"
_symmetry_group_IT_number 11
_symmetry_cell_setting 'monoclinic'
loop_
_space_group_symop_operation_xyz
x,y,z
-x,1/2+y,-z
-x,-y,-z
x,1/2-y,z
loop_
_atom_site_type_symbol
_atom_site_label
_atom_site_fract_x
_atom_site_fract_y
_atom_site_fract_z
Si Si1 0.651207 0.952222 0.779493
Si Si2 0.206616 0.015236 0.854475
Si Si3 0.851952 0.561121 0.657083
Si Si4 0.074469 0.360946 0.953287
Si Si5 0.434944 0.299181 0.056714
Si Si6 0.922324 0.092908 0.602983
Si Si7 0.359933 0.620190 0.160134
Si Si8 0.078857 0.163318 0.554692
O O1 0.742000 0.959201 0.706059
O O2 0.290601 0.946904 0.530270
O O3 0.767460 0.982222 0.974610
O O4 0.758611 0.904359 0.886513
O O5 0.227635 0.065499 0.835554
O O6 0.973110 0.975874 0.659861
O O7 0.500000 0.000000 0.000000
O O8 0.555981 0.584974 0.380677
O O9 0.122224 0.595168 0.891619
O O10 0.885789 0.375145 0.689441
O O11 0.848589 0.353277 0.898971
O O12 0.310461 0.325771 0.082738
O O13 0.405178 0.250000 0.057153
O O14 0.789618 0.310194 0.289978
O O15 0.219881 0.313652 0.781356
O O16 0.918734 0.119534 0.476674
O O17 0.622155 0.649958 0.298989
#
# Coordination Sequence:
#
# PCOD9163647 Si02
#       8
#     4   4   4   4   4   4   4   4
#     4  10  20  38  58  82 116 165 207 258 310 363
#     4  11  25  36  53  84 124 165 216 273 320 360
#     4  11  24  40  58  90 121 165 216 268 312 357
#     4   9  20  40  62  92 116 159 210 248 296 377
#     4  11  23  42  68  96 126 158 195 243 305 377
#     4  10  20  37  61  80 118 167 211 252 308 367
#     4  11  23  40  66  90 124 164 211 257 306 365
#     4  11  23  41  66  94 127 162 201 249 309 377
#
# _framework density 21.501647999999999
#
# number of rings (size 3 to 8) (size 9 to 14) (size 15 to 20)
#    0.000    1.500    2.500    2.250    3.500    1.000 
#    0.000    1.250    0.000    0.000    0.000    0.000 
#    0.000    0.000    0.000    0.000    0.000    0.000 
#
# Total GULP energy -178335.753836 kJ/mol
# GULP energy per Si atom -5572.992307 kJ/mol
# Density = 2.145271 g / cm^3
# Si number density = 21.501648 Si / 1000 Ang^3
#
#
#
# Elastic Constant Matrix: (Units=GPa)
#
#
# Indices 1 2 3 4 5 6 
#
# 1 24.3318 53.1322 -29.1253 0.0000 10.7350 0.0000
# 2 53.1322 77.3268 24.9709 0.0000 21.9361 0.0000
# 3 -29.1253 24.9709 49.6446 0.0000 -12.4679 0.0000
# 4 0.0000 0.0000 0.0000 21.1424 0.0000 5.6594
# 5 10.7350 21.9361 -12.4679 0.0000 18.7611 0.0000
# 6 0.0000 0.0000 0.0000 5.6594 0.0000 17.4888
#
#
#
# Elastic Compliance Matrix: (Units=1/GPa)
#
#
# Indices 1 2 3 4 5 6 
#
# 1 -0.003740 0.016626 -0.017887 0.000000 -0.029186 0.000000
# 2 0.016626 -0.001753 0.010517 0.000000 -0.000475 0.000000
# 3 -0.017887 0.010517 0.004612 0.000000 0.001003 0.000000
# 4 0.000000 0.000000 0.000000 0.051784 0.000000 -0.016757
# 5 -0.029186 -0.000475 0.001003 0.000000 0.071223 0.000000
# 6 0.000000 0.000000 0.000000 -0.016757 0.000000 0.062602
#
#
# Mechanical properties :
#
#
# Convention : Reuss Voigt Hill
#
# Bulk Modulus (GPa) = 56.72535 27.69540 42.21037
# Shear Modulus (GPa) = 29.05400 18.30015 23.67707
#
# Velocity S-wave (km/s) = 3.67992 2.92053 3.32200
# Velocity P-wave (km/s) = 6.67045 4.92760 5.86413
#
# Compressibility (1/GPa) = 0.01762880
#
# Stress axis : x y z
#
# Youngs Moduli (GPa) = -267.35175 -570.43803 216.84509
#
# Poissons Ratio (x) = 9.48394 3.87869
# Poissons Ratio (y) = 4.44491 -2.28045
# Poissons Ratio (z) = -4.78209 5.99902
#
# Static dielectric constant tensor:
#      x y z
#    x 1.962430 0.000000 0.508900 
#    y 0.000000 1.844810 0.000000 
#    z 0.508900 0.000000 3.747660 
# 
# From -- ./inp_files/33224.got.cif
#   From: 2010.05.17/outbox.cif.g08.bks.cpg/sg11_17_cif.got.tgz:33224.got - 2010.06.03 12:22:45.
