data_PCOD9163200
_publ_section_title
;
Structure prediction by ZEFSAII (Michael W. Deem and Ramdas Pophale) SiO2 
 PCOD9163200
Probable space group: P 21/M
;
_chemical_formula_sum "Si O2"
_cell_formula_units_Z 32
_cell_length_a 12.865798
_cell_length_b 9.123664
_cell_length_c 13.450257
_cell_angle_alpha 90.000000
_cell_angle_beta 89.757251
_cell_angle_gamma 90.000000
_cell_volume 1578.820280
_symmetry_space_group_name_H-M "P 21/M"
_symmetry_group_IT_number 11
_symmetry_cell_setting 'monoclinic'
loop_
_space_group_symop_operation_xyz
x,y,z
-x,1/2+y,-z
-x,-y,-z
x,1/2-y,z
loop_
_atom_site_type_symbol
_atom_site_label
_atom_site_fract_x
_atom_site_fract_y
_atom_site_fract_z
Si Si1 0.653025 0.923785 0.821786
Si Si2 0.990325 0.923847 0.654224
Si Si3 0.144791 0.586926 0.211038
Si Si4 0.896908 0.089782 0.018955
Si Si5 0.835213 0.074470 0.498301
Si Si6 0.301543 0.077319 0.946634
Si Si7 0.400003 0.926491 0.553387
Si Si8 0.554685 0.924826 0.241855
O O1 0.638656 0.750000 0.808498
O O2 0.759716 0.977938 0.771035
O O3 0.560963 0.015872 0.774299
O O4 0.657942 0.953381 0.941304
O O5 0.979806 0.750000 0.668338
O O6 0.102501 0.954342 0.605148
O O7 0.962001 0.014096 0.752458
O O8 0.901839 0.984358 0.578523
O O9 0.159009 0.750000 0.254257
O O10 0.144423 0.603727 0.093233
O O11 0.918639 0.250000 0.061452
O O12 0.804459 0.008390 0.074835
O O13 0.000000 0.000000 0.000000
O O14 0.846147 0.250000 0.515215
O O15 0.712959 0.039404 0.494494
O O16 0.278159 0.250000 0.945350
O O17 0.384136 0.044870 0.860775
O O18 0.411786 0.750000 0.553196
O O19 0.500000 0.000000 0.500000
O O20 0.397826 0.989867 0.665032
O O21 0.555438 0.750000 0.259662
#
# Coordination Sequence:
#
# PCOD9163200 Si02
#       8
#     4   4   4   4   4   4   4   4
#     4  10  20  36  59  87 118 154 198 245 288 345
#     4  10  20  36  62  91 115 147 192 242 297 353
#     4  10  21  36  55  83 117 152 191 235 290 349
#     4  10  21  36  56  82 115 155 193 236 289 345
#     4   9  21  41  61  83 115 151 192 245 298 350
#     4   9  20  38  59  85 118 153 195 243 291 348
#     4  11  25  44  63  86 119 159 204 250 300 358
#     4  11  23  39  60  87 118 156 195 240 299 356
#
# _framework density 20.268298000000001
#
# number of rings (size 3 to 8) (size 9 to 14) (size 15 to 20)
#    0.000    2.000    0.000    2.625    1.750    5.500 
#    0.000    2.500    0.000    0.000    0.000    0.000 
#    0.000    0.000    0.000    0.000    0.000    0.000 
#
# Total GULP energy -178589.614003 kJ/mol
# GULP energy per Si atom -5580.925438 kJ/mol
# Density = 2.022217 g / cm^3
# Si number density = 20.268298 Si / 1000 Ang^3
#
#
#
# Elastic Constant Matrix: (Units=GPa)
#
#
# Indices 1 2 3 4 5 6 
#
# 1 100.5079 28.6159 2.8046 0.0000 -6.0109 0.0000
# 2 28.6159 44.8185 12.3980 0.0000 -2.5925 0.0000
# 3 2.8046 12.3980 38.7956 0.0000 -14.6917 0.0000
# 4 0.0000 0.0000 0.0000 29.5630 0.0000 -2.5926
# 5 -6.0109 -2.5925 -14.6917 0.0000 24.6651 0.0000
# 6 0.0000 0.0000 0.0000 -2.5926 0.0000 32.8245
#
#
#
# Elastic Compliance Matrix: (Units=1/GPa)
#
#
# Indices 1 2 3 4 5 6 
#
# 1 0.012601 -0.008767 0.003492 0.000000 0.004230 0.000000
# 2 -0.008767 0.030715 -0.011322 0.000000 -0.005652 0.000000
# 3 0.003492 -0.011322 0.037464 0.000000 0.021977 0.000000
# 4 0.000000 0.000000 0.000000 0.034062 0.000000 0.002690
# 5 0.004230 -0.005652 0.021977 0.000000 0.054070 0.000000
# 6 0.000000 0.000000 0.000000 0.002690 0.000000 0.030678
#
#
# Mechanical properties :
#
#
# Convention : Reuss Voigt Hill
#
# Bulk Modulus (GPa) = 21.01432 30.19546 25.60489
# Shear Modulus (GPa) = 20.10892 26.76408 23.43650
#
# Velocity S-wave (km/s) = 3.15324 3.63780 3.40415
# Velocity P-wave (km/s) = 4.86290 5.70745 5.30202
#
# Compressibility (1/GPa) = 0.04758660
#
# Stress axis : x y z
#
# Youngs Moduli (GPa) = 79.35842 32.55741 26.69205
#
# Poissons Ratio (x) = 0.28543 -0.09322
# Poissons Ratio (y) = 0.69574 0.30222
# Poissons Ratio (z) = -0.27716 0.36863
#
# Static dielectric constant tensor:
#      x y z
#    x 1.701400 0.000000 0.008060 
#    y 0.000000 1.681470 0.000000 
#    z 0.008060 0.000000 1.771960 
# 
# From -- ./inp_files/49397.got.cif
#   From: 2010.05.17/outbox.cif.g08.bks.cpg/sg11_25_cif.got.tgz:49397.got - 2010.06.03 12:22:45.
