data_PCOD9163420
_publ_section_title
;
Structure prediction by ZEFSAII (Michael W. Deem and Ramdas Pophale) SiO2 
 PCOD9163420
Probable space group: P 21/M
;
_chemical_formula_sum "Si O2"
_cell_formula_units_Z 32
_cell_length_a 9.471208
_cell_length_b 14.310200
_cell_length_c 25.574395
_cell_angle_alpha 90.000000
_cell_angle_beta 27.713259
_cell_angle_gamma 90.000000
_cell_volume 1611.956150
_symmetry_space_group_name_H-M "P 21/M"
_symmetry_group_IT_number 11
_symmetry_cell_setting 'monoclinic'
loop_
_space_group_symop_operation_xyz
x,y,z
-x,1/2+y,-z
-x,-y,-z
x,1/2-y,z
loop_
_atom_site_type_symbol
_atom_site_label
_atom_site_fract_x
_atom_site_fract_y
_atom_site_fract_z
Si Si1 0.262653 0.143572 0.168690
Si Si2 0.145682 0.461142 0.828465
Si Si3 0.879371 0.644399 0.948141
Si Si4 0.441742 0.857703 0.580772
Si Si5 0.363731 0.361809 0.600502
Si Si6 0.779833 0.063157 0.852930
Si Si7 0.680732 0.019389 0.577591
Si Si8 0.913183 0.144606 0.000673
O O1 0.291218 0.250000 0.136684
O O2 0.550527 0.132494 0.112967
O O3 0.924911 0.139311 0.303469
O O4 0.276480 0.048613 0.130414
O O5 0.462382 0.448272 0.696317
O O6 0.076766 0.571023 0.851608
O O7 0.899633 0.412609 0.871302
O O8 0.092659 0.423812 0.903599
O O9 0.923782 0.750000 0.916056
O O10 0.982589 0.635967 0.974318
O O11 0.528808 0.615075 0.059271
O O12 0.524546 0.750000 0.565258
O O13 0.581029 0.883339 0.478603
O O14 0.554041 0.927150 0.589250
O O15 0.342900 0.250000 0.612991
O O16 0.636352 0.402558 0.546921
O O17 0.053982 0.408739 0.724006
O O18 0.000000 0.000000 0.500000
O O19 0.983505 0.250000 0.959988
#
# Coordination Sequence:
#
# PCOD9163420 Si02
#       8
#     4   4   4   4   4   4   4   4
#     4  10  20  36  63  92 121 155 200 249 294 354
#     4  11  23  40  59  89 119 161 198 243 306 363
#     4  11  24  40  60  90 124 159 203 249 297 358
#     4  10  21  41  66  90 118 163 211 249 298 361
#     4  10  22  41  64  90 123 164 208 251 297 360
#     4  11  22  38  62  93 122 157 204 246 302 354
#     4  11  25  41  61  94 125 157 200 255 316 362
#     4  10  23  41  61  88 122 161 201 245 301 359
#
# _framework density 19.851656999999999
#
# number of rings (size 3 to 8) (size 9 to 14) (size 15 to 20)
#    0.000    1.500    3.750    1.500    0.000    6.000 
#    0.000    2.500    0.000    0.000    0.000    0.000 
#    0.000    0.000    0.000    0.000    0.000    0.000 
#
# Total GULP energy -178606.054808 kJ/mol
# GULP energy per Si atom -5581.439213 kJ/mol
# Density = 1.980647 g / cm^3
# Si number density = 19.851657 Si / 1000 Ang^3
#
#
#
# Elastic Constant Matrix: (Units=GPa)
#
#
# Indices 1 2 3 4 5 6 
#
# 1 72.9820 16.8145 25.5677 0.0000 -17.4187 0.0000
# 2 16.8145 85.9777 0.9226 0.0000 -6.0738 0.0000
# 3 25.5677 0.9226 59.7290 0.0000 -7.7848 0.0000
# 4 0.0000 0.0000 0.0000 18.6196 0.0000 -7.0250
# 5 -17.4187 -6.0738 -7.7848 0.0000 22.8436 0.0000
# 6 0.0000 0.0000 0.0000 -7.0250 0.0000 20.7011
#
#
#
# Elastic Compliance Matrix: (Units=1/GPa)
#
#
# Indices 1 2 3 4 5 6 
#
# 1 0.019580 -0.002920 -0.006793 0.000000 0.011839 0.000000
# 2 -0.002920 0.012292 0.001251 0.000000 0.001468 0.000000
# 3 -0.006793 0.001251 0.019882 0.000000 0.001928 0.000000
# 4 0.000000 0.000000 0.000000 0.061593 0.000000 0.020902
# 5 0.011839 0.001468 0.001928 0.000000 0.053851 0.000000
# 6 0.000000 0.000000 0.000000 0.020902 0.000000 0.055400
#
#
# Mechanical properties :
#
#
# Convention : Reuss Voigt Hill
#
# Bulk Modulus (GPa) = 28.71025 33.92203 31.31614
# Shear Modulus (GPa) = 19.90982 24.12515 22.01749
#
# Velocity S-wave (km/s) = 3.17034 3.48986 3.33393
# Velocity P-wave (km/s) = 5.28159 5.77613 5.53439
#
# Compressibility (1/GPa) = 0.03483077
#
# Stress axis : x y z
#
# Youngs Moduli (GPa) = 51.07176 81.35187 50.29603
#
# Poissons Ratio (x) = 0.23755 0.34168
# Poissons Ratio (y) = 0.14913 -0.06294
# Poissons Ratio (z) = 0.34695 -0.10181
#
# Static dielectric constant tensor:
#      x y z
#    x 1.675650 0.000000 -0.006550 
#    y 0.000000 1.737670 0.000000 
#    z -0.006550 0.000000 1.679060 
# 
# From -- ./inp_files/68137.got.cif
#   From: 2010.05.17/outbox.cif.g08.bks.cpg/sg11_35_cif.got.tgz:68137.got - 2010.06.03 12:22:45.
