data_PCOD9163315
_publ_section_title
;
Structure prediction by ZEFSAII (Michael W. Deem and Ramdas Pophale) SiO2 
 PCOD9163315
Probable space group: P 21/M
;
_chemical_formula_sum "Si O2"
_cell_formula_units_Z 28
_cell_length_a 7.923416
_cell_length_b 11.500184
_cell_length_c 15.802463
_cell_angle_alpha 90.000000
_cell_angle_beta 106.523449
_cell_angle_gamma 90.000000
_cell_volume 1380.467876
_symmetry_space_group_name_H-M "P 21/M"
_symmetry_group_IT_number 11
_symmetry_cell_setting 'monoclinic'
loop_
_space_group_symop_operation_xyz
x,y,z
-x,1/2+y,-z
-x,-y,-z
x,1/2-y,z
loop_
_atom_site_type_symbol
_atom_site_label
_atom_site_fract_x
_atom_site_fract_y
_atom_site_fract_z
Si Si1 0.890853 0.382758 0.584043
Si Si2 0.763166 0.118663 0.844416
Si Si3 0.445159 0.887730 0.352606
Si Si4 0.316967 0.623366 0.805631
Si Si5 0.777516 0.457557 0.386941
Si Si6 0.162719 0.377855 0.853138
Si Si7 0.639546 0.939230 0.957291
O O1 0.930666 0.250000 0.614736
O O2 0.719111 0.421577 0.611697
O O3 0.844049 0.388022 0.477949
O O4 0.057732 0.465140 0.621324
O O5 0.734697 0.250000 0.871032
O O6 0.616002 0.092932 0.752909
O O7 0.952065 0.114414 0.826116
O O8 0.749486 0.032251 0.920018
O O9 0.473715 0.750000 0.368319
O O10 0.621222 0.957846 0.394647
O O11 0.238325 0.750000 0.821667
O O12 0.297283 0.615529 0.701869
O O13 0.234898 0.499353 0.825198
O O14 0.514728 0.623283 0.871273
O O15 0.213266 0.250000 0.822102
O O16 0.233216 0.374542 0.959837
O O17 0.500000 0.000000 0.000000
#
# Coordination Sequence:
#
# PCOD9163315 Si02
#       7
#     4   4   4   4   4   4   4
#     4  10  22  38  60  90 121 157 207 260 306 371
#     4  10  20  37  61  89 120 156 203 261 310 364
#     4  10  20  36  60  90 120 155 205 259 311 366
#     4  11  23  39  60  88 126 164 204 254 313 370
#     4  11  21  38  61  85 124 164 204 248 318 369
#     4  10  22  39  63  90 120 161 210 257 307 365
#     4  10  21  37  56  85 120 157 202 247 306 366
#
# _framework density 20.282978
#
# number of rings (size 3 to 8) (size 9 to 14) (size 15 to 20)
#    0.000    1.714    1.429    3.000    0.000    6.857 
#    0.000    1.429    0.000    3.429    0.000    0.000 
#    0.000    0.000    0.000    0.000    0.000    0.000 
#
# Total GULP energy -156192.552070 kJ/mol
# GULP energy per Si atom -5578.305431 kJ/mol
# Density = 2.023681 g / cm^3
# Si number density = 20.282978 Si / 1000 Ang^3
#
#
#
# Elastic Constant Matrix: (Units=GPa)
#
#
# Indices 1 2 3 4 5 6 
#
# 1 66.0851 34.6982 -0.9576 0.0000 2.4141 0.0000
# 2 34.6982 121.5064 21.5830 0.0000 -8.2085 0.0000
# 3 -0.9576 21.5830 89.7184 0.0000 14.9433 0.0000
# 4 0.0000 0.0000 0.0000 414.4063 0.0000 -40.1864
# 5 2.4141 -8.2085 14.9433 0.0000 34.0005 0.0000
# 6 0.0000 0.0000 0.0000 -40.1864 0.0000 23.0811
#
#
#
# Elastic Compliance Matrix: (Units=1/GPa)
#
#
# Indices 1 2 3 4 5 6 
#
# 1 0.018399 -0.005902 0.002235 0.000000 -0.003713 0.000000
# 2 -0.005902 0.010830 -0.003424 0.000000 0.004539 0.000000
# 3 0.002235 -0.003424 0.013118 0.000000 -0.006751 0.000000
# 4 0.000000 0.000000 0.000000 0.002903 0.000000 0.005055
# 5 -0.003713 0.004539 -0.006751 0.000000 0.033738 0.000000
# 6 0.000000 0.000000 0.000000 0.005055 0.000000 0.052127
#
#
# Mechanical properties :
#
#
# Convention : Reuss Voigt Hill
#
# Bulk Modulus (GPa) = 35.50639 43.10635 39.30637
# Shear Modulus (GPa) = 32.32360 109.09667 70.71013
#
# Velocity S-wave (km/s) = 3.99636 7.34194 5.91079
# Velocity P-wave (km/s) = 6.23202 9.65250 8.12431
#
# Compressibility (1/GPa) = 0.02816395
#
# Stress axis : x y z
#
# Youngs Moduli (GPa) = 54.35131 92.33378 76.23121
#
# Poissons Ratio (x) = 0.54494 -0.17035
# Poissons Ratio (y) = 0.32077 0.26104
# Poissons Ratio (z) = -0.12146 0.31618
#
# Static dielectric constant tensor:
#      x y z
#    x 1.692060 0.000000 -0.003070 
#    y 0.000000 1.733700 0.000000 
#    z -0.003070 0.000000 1.764450 
# 
# From -- ./inp_files/47024.got.cif
#   From: 2010.05.17/outbox.cif.g08.bks.cpg/sg11_24_cif.got.tgz:47024.got - 2010.06.03 12:22:45.
