data_PCOD9163563
_publ_section_title
;
Structure prediction by ZEFSAII (Michael W. Deem and Ramdas Pophale) SiO2 
 PCOD9163563
Probable space group: P 21/M
;
_chemical_formula_sum "Si O2"
_cell_formula_units_Z 24
_cell_length_a 11.174478
_cell_length_b 8.311181
_cell_length_c 21.905369
_cell_angle_alpha 90.000000
_cell_angle_beta 146.504682
_cell_angle_gamma 90.000000
_cell_volume 1122.732858
_symmetry_space_group_name_H-M "P 21/M"
_symmetry_group_IT_number 11
_symmetry_cell_setting 'monoclinic'
loop_
_space_group_symop_operation_xyz
x,y,z
-x,1/2+y,-z
-x,-y,-z
x,1/2-y,z
loop_
_atom_site_type_symbol
_atom_site_label
_atom_site_fract_x
_atom_site_fract_y
_atom_site_fract_z
Si Si1 0.215523 0.560058 0.124316
Si Si2 0.405598 0.439911 0.321911
Si Si3 0.160236 0.558982 0.329209
Si Si4 0.311482 0.557585 0.875106
Si Si5 0.869769 0.054372 0.540511
Si Si6 0.344464 0.055050 0.749767
O O1 0.219836 0.750000 0.118322
O O2 0.234747 0.519039 0.203661
O O3 0.438875 0.492618 0.190296
O O4 0.000000 0.500000 0.000000
O O5 0.404049 0.250000 0.310550
O O6 0.335096 0.473177 0.361227
O O7 0.650320 0.504327 0.415112
O O8 0.192794 0.750000 0.339391
O O9 0.159289 0.512747 0.400113
O O10 0.920868 0.512795 0.203988
O O11 0.299980 0.750000 0.869511
O O12 0.352441 0.493543 0.824105
O O13 0.500000 0.500000 0.000000
O O14 0.869325 0.250000 0.536512
O O15 0.110201 0.997586 0.624441
O O16 0.342402 0.250000 0.745493
#
# Coordination Sequence:
#
# PCOD9163563 Si02
#       6
#     4   4   4   4   4   4
#     4  11  25  43  62  84 117 159 204 251 299 353
#     4  11  22  37  60  90 123 159 199 243 299 360
#     4  10  20  37  59  87 123 159 198 243 293 351
#     4  11  22  36  58  87 118 154 196 243 299 356
#     4   8  17  36  62  90 120 153 193 246 301 355
#     4   9  20  41  63  84 115 154 199 249 297 347
#
# _framework density 21.376412999999999
#
# number of rings (size 3 to 8) (size 9 to 14) (size 15 to 20)
#    0.000    2.000    0.000    4.500    2.333    2.000 
#    0.000    7.500    0.000    0.000    0.000    0.000 
#    0.000    0.000    0.000    0.000    0.000    0.000 
#
# Total GULP energy -134080.415079 kJ/mol
# GULP energy per Si atom -5586.683962 kJ/mol
# Density = 2.132776 g / cm^3
# Si number density = 21.376413 Si / 1000 Ang^3
#
#
#
# Elastic Constant Matrix: (Units=GPa)
#
#
# Indices 1 2 3 4 5 6 
#
# 1 67.1011 3.0337 17.2216 0.0000 21.2318 0.0000
# 2 3.0337 26.1083 16.3844 0.0000 6.1567 0.0000
# 3 17.2216 16.3844 143.1864 0.0000 15.2419 0.0000
# 4 0.0000 0.0000 0.0000 18.6265 0.0000 2.9789
# 5 21.2318 6.1567 15.2419 0.0000 22.3668 0.0000
# 6 0.0000 0.0000 0.0000 2.9789 0.0000 24.0984
#
#
#
# Elastic Compliance Matrix: (Units=1/GPa)
#
#
# Indices 1 2 3 4 5 6 
#
# 1 0.021512 0.002829 -0.000706 0.000000 -0.020718 0.000000
# 2 0.002829 0.043300 -0.004033 0.000000 -0.011856 0.000000
# 3 -0.000706 -0.004033 0.007915 0.000000 -0.003614 0.000000
# 4 0.000000 0.000000 0.000000 0.054770 0.000000 -0.006770
# 5 -0.020718 -0.011856 -0.003614 0.000000 0.070102 0.000000
# 6 0.000000 0.000000 0.000000 -0.006770 0.000000 0.042333
#
#
# Mechanical properties :
#
#
# Convention : Reuss Voigt Hill
#
# Bulk Modulus (GPa) = 14.51234 34.40836 24.46035
# Shear Modulus (GPa) = 18.74630 26.33543 22.54086
#
# Velocity S-wave (km/s) = 2.96457 3.51377 3.25079
# Velocity P-wave (km/s) = 4.30371 5.70907 5.05546
#
# Compressibility (1/GPa) = 0.06890687
#
# Stress axis : x y z
#
# Youngs Moduli (GPa) = 46.48674 23.09475 126.34368
#
# Poissons Ratio (x) = -0.06533 0.08915
# Poissons Ratio (y) = -0.13150 0.50953
# Poissons Ratio (z) = 0.03280 0.09314
#
# Static dielectric constant tensor:
#      x y z
#    x 1.806250 0.000000 0.028410 
#    y 0.000000 1.731150 0.000000 
#    z 0.028410 0.000000 1.816690 
# 
# From -- ./inp_files/43900.got.cif
#   From: 2010.05.17/outbox.cif.g08.bks.cpg/sg11_22_cif.got.tgz:43900.got - 2010.06.03 12:22:45.
