data_PCOD9163112
_publ_section_title
;
Structure prediction by ZEFSAII (Michael W. Deem and Ramdas Pophale) SiO2 
 PCOD9163112
Probable space group: P 21/M
;
_chemical_formula_sum "Si O2"
_cell_formula_units_Z 32
_cell_length_a 14.821541
_cell_length_b 8.020848
_cell_length_c 12.841052
_cell_angle_alpha 90.000000
_cell_angle_beta 90.499817
_cell_angle_gamma 90.000000
_cell_volume 1526.503224
_symmetry_space_group_name_H-M "P 21/M"
_symmetry_group_IT_number 11
_symmetry_cell_setting 'monoclinic'
loop_
_space_group_symop_operation_xyz
x,y,z
-x,1/2+y,-z
-x,-y,-z
x,1/2-y,z
loop_
_atom_site_type_symbol
_atom_site_label
_atom_site_fract_x
_atom_site_fract_y
_atom_site_fract_z
Si Si1 0.995402 0.558510 0.835473
Si Si2 0.270920 0.045575 0.676386
Si Si3 0.470382 0.049658 0.616308
Si Si4 0.188207 0.053353 0.891547
Si Si5 0.791847 0.547031 0.880169
Si Si6 0.201924 0.443622 0.456765
Si Si7 0.343255 0.551759 0.303174
Si Si8 0.023699 0.562148 0.385412
O O1 0.997464 0.750000 0.869007
O O2 0.894502 0.491490 0.854467
O O3 0.009664 0.544999 0.711275
O O4 0.080049 0.469241 0.888499
O O5 0.270754 0.250000 0.677214
O O6 0.372442 0.987399 0.651754
O O7 0.231602 0.984675 0.785725
O O8 0.209923 0.000665 0.575986
O O9 0.463921 0.250000 0.616797
O O10 0.551914 0.001272 0.694624
O O11 0.500000 0.000000 0.500000
O O12 0.206723 0.250000 0.890650
O O13 0.225494 0.989409 0.001776
O O14 0.793183 0.750000 0.875399
O O15 0.716470 0.489549 0.798182
O O16 0.173285 0.250000 0.451819
O O17 0.297076 0.461632 0.401009
O O18 0.131915 0.550400 0.390025
O O19 0.339321 0.750000 0.321045
O O20 0.991613 0.750000 0.368993
O O21 0.000000 0.500000 0.500000
#
# Coordination Sequence:
#
# PCOD9163112 Si02
#       8
#     4   4   4   4   4   4   4   4
#     4  11  22  37  57  84 116 154 196 244 293 345
#     4   9  19  36  59  84 115 150 187 236 295 351
#     4  10  20  36  58  87 116 149 189 237 293 353
#     4  10  21  39  61  85 112 154 202 244 292 347
#     4  10  22  39  60  83 115 156 201 243 288 347
#     4  11  20  34  57  83 115 153 190 233 292 352
#     4  11  22  35  57  86 115 148 191 240 291 345
#     4  12  24  37  54  81 118 158 196 239 290 347
#
# _framework density 20.962942999999999
#
# number of rings (size 3 to 8) (size 9 to 14) (size 15 to 20)
#    0.000    1.500    2.500    3.375    0.000    2.500 
#    0.000    1.875    0.000    0.000    0.000    0.000 
#    0.000    0.000    0.000    0.000    0.000    0.000 
#
# Total GULP energy -178766.462542 kJ/mol
# GULP energy per Si atom -5586.451954 kJ/mol
# Density = 2.091523 g / cm^3
# Si number density = 20.962943 Si / 1000 Ang^3
#
#
#
# Elastic Constant Matrix: (Units=GPa)
#
#
# Indices 1 2 3 4 5 6 
#
# 1 86.9784 -0.2534 36.9307 0.0000 9.7708 0.0000
# 2 -0.2534 23.8723 4.5255 0.0000 -3.8826 0.0000
# 3 36.9307 4.5255 138.8693 0.0000 12.8255 0.0000
# 4 0.0000 0.0000 0.0000 14.1128 0.0000 3.0815
# 5 9.7708 -3.8826 12.8255 0.0000 23.2314 0.0000
# 6 0.0000 0.0000 0.0000 3.0815 0.0000 20.4148
#
#
#
# Elastic Compliance Matrix: (Units=1/GPa)
#
#
# Indices 1 2 3 4 5 6 
#
# 1 0.013277 0.000126 -0.003183 0.000000 -0.003806 0.000000
# 2 0.000126 0.043696 -0.002241 0.000000 0.008487 0.000000
# 3 -0.003183 -0.002241 0.008463 0.000000 -0.003708 0.000000
# 4 0.000000 0.000000 0.000000 0.073273 0.000000 -0.011060
# 5 -0.003806 0.008487 -0.003708 0.000000 0.048111 0.000000
# 6 0.000000 0.000000 0.000000 -0.011060 0.000000 0.050653
#
#
# Mechanical properties :
#
#
# Convention : Reuss Voigt Hill
#
# Bulk Modulus (GPa) = 18.23564 36.90284 27.56924
# Shear Modulus (GPa) = 18.77223 25.45293 22.11258
#
# Velocity S-wave (km/s) = 2.99573 3.48830 3.25136
# Velocity P-wave (km/s) = 4.54794 5.81948 5.22255
#
# Compressibility (1/GPa) = 0.05483768
#
# Stress axis : x y z
#
# Youngs Moduli (GPa) = 75.32027 22.88531 118.16015
#
# Poissons Ratio (x) = -0.00287 0.37615
# Poissons Ratio (y) = -0.00945 0.26482
# Poissons Ratio (z) = 0.23977 0.05129
#
# Static dielectric constant tensor:
#      x y z
#    x 1.799610 0.000000 -0.024250 
#    y 0.000000 1.745690 0.000000 
#    z -0.024250 0.000000 1.758800 
# 
# From -- ./inp_files/38149.got.cif
#   From: 2010.05.17/outbox.cif.g08.bks.cpg/sg11_20_cif.got.tgz:38149.got - 2010.06.03 12:22:45.
