data_PCOD9163187
_publ_section_title
;
Structure prediction by ZEFSAII (Michael W. Deem and Ramdas Pophale) SiO2 
 PCOD9163187
Probable space group: P 21/M
;
_chemical_formula_sum "Si O2"
_cell_formula_units_Z 32
_cell_length_a 11.167422
_cell_length_b 9.056540
_cell_length_c 15.547195
_cell_angle_alpha 90.000000
_cell_angle_beta 92.340124
_cell_angle_gamma 90.000000
_cell_volume 1571.104058
_symmetry_space_group_name_H-M "P 21/M"
_symmetry_group_IT_number 11
_symmetry_cell_setting 'monoclinic'
loop_
_space_group_symop_operation_xyz
x,y,z
-x,1/2+y,-z
-x,-y,-z
x,1/2-y,z
loop_
_atom_site_type_symbol
_atom_site_label
_atom_site_fract_x
_atom_site_fract_y
_atom_site_fract_z
Si Si1 0.898043 0.428803 0.057993
Si Si2 0.631581 0.069679 0.980077
Si Si3 0.976179 0.916350 0.409770
Si Si4 0.361770 0.416944 0.730308
Si Si5 0.246928 0.582725 0.380106
Si Si6 0.379586 0.422058 0.526915
Si Si7 0.362330 0.921852 0.212316
Si Si8 0.137970 0.922660 0.753321
O O1 0.905260 0.250000 0.051006
O O2 0.922425 0.470408 0.158777
O O3 0.757397 0.467000 0.032700
O O4 0.000000 0.500000 0.000000
O O5 0.617752 0.250000 0.982143
O O6 0.659940 0.019256 0.882951
O O7 0.500000 0.000000 0.000000
O O8 0.931112 0.750000 0.425563
O O9 0.105718 0.907425 0.368839
O O10 0.000000 0.000000 0.500000
O O11 0.897387 0.996450 0.335809
O O12 0.315484 0.250000 0.745713
O O13 0.366204 0.439652 0.628057
O O14 0.495757 0.424568 0.768775
O O15 0.277665 0.539090 0.768557
O O16 0.297508 0.750000 0.391262
O O17 0.276910 0.495369 0.467192
O O18 0.302189 0.512219 0.295855
O O19 0.500000 0.500000 0.500000
O O20 0.385943 0.250000 0.507969
O O21 0.322023 0.750000 0.209935
O O22 0.117233 0.750000 0.741383
#
# Coordination Sequence:
#
# PCOD9163187 Si02
#       8
#     4   4   4   4   4   4   4   4
#     4  10  24  43  65  95 130 169 215 267 321 382
#     4  10  21  39  65  92 123 160 204 259 318 376
#     4  11  24  41  65  91 120 161 206 252 305 366
#     4  10  20  36  59  86 117 156 204 249 300 368
#     4  10  21  38  58  83 113 150 199 247 297 357
#     4  11  21  34  54  82 119 158 196 244 296 357
#     4   9  18  35  59  86 115 149 192 247 302 361
#     4  11  24  41  61  89 128 164 204 257 306 365
#
# _framework density 20.367842
#
# number of rings (size 3 to 8) (size 9 to 14) (size 15 to 20)
#    0.000    1.750    1.250    2.625    1.750    5.500 
#    0.000    0.625    0.000    0.000    0.000    0.000 
#    0.000    0.000    0.000    0.000    0.000    0.000 
#
# Total GULP energy -178500.425231 kJ/mol
# GULP energy per Si atom -5578.138288 kJ/mol
# Density = 2.032148 g / cm^3
# Si number density = 20.367842 Si / 1000 Ang^3
#
#
#
# Elastic Constant Matrix: (Units=GPa)
#
#
# Indices 1 2 3 4 5 6 
#
# 1 72.2430 20.1101 17.6291 0.0000 4.7304 0.0000
# 2 20.1101 53.0955 49.0028 0.0000 -3.6940 0.0000
# 3 17.6291 49.0028 127.3396 0.0000 15.1945 0.0000
# 4 0.0000 0.0000 0.0000 22.8062 0.0000 -4.7919
# 5 4.7304 -3.6940 15.1945 0.0000 20.7232 0.0000
# 6 0.0000 0.0000 0.0000 -4.7919 0.0000 29.0253
#
#
#
# Elastic Compliance Matrix: (Units=1/GPa)
#
#
# Indices 1 2 3 4 5 6 
#
# 1 0.016092 -0.008013 0.001605 0.000000 -0.006278 0.000000
# 2 -0.008013 0.037975 -0.015923 0.000000 0.020274 0.000000
# 3 0.001605 -0.015923 0.015497 0.000000 -0.014567 0.000000
# 4 0.000000 0.000000 0.000000 0.045423 0.000000 0.007499
# 5 -0.006278 0.020274 -0.014567 0.000000 0.063983 0.000000
# 6 0.000000 0.000000 0.000000 0.007499 0.000000 0.035691
#
#
# Mechanical properties :
#
#
# Convention : Reuss Voigt Hill
#
# Bulk Modulus (GPa) = 40.15866 47.35135 43.75501
# Shear Modulus (GPa) = 18.68288 25.57336 22.12812
#
# Velocity S-wave (km/s) = 3.03194 3.54725 3.29967
# Velocity P-wave (km/s) = 5.65830 6.33055 6.00384
#
# Compressibility (1/GPa) = 0.02490123
#
# Stress axis : x y z
#
# Youngs Moduli (GPa) = 62.14193 26.33281 64.52993
#
# Poissons Ratio (x) = 0.21100 -0.10356
# Poissons Ratio (y) = 0.49794 1.02754
# Poissons Ratio (z) = -0.09973 0.41931
#
# Static dielectric constant tensor:
#      x y z
#    x 1.798620 0.000000 0.002460 
#    y 0.000000 1.441100 0.000000 
#    z 0.002460 0.000000 1.746090 
# 
# From -- ./inp_files/49404.got.cif
#   From: 2010.05.17/outbox.cif.g08.bks.cpg/sg11_25_cif.got.tgz:49404.got - 2010.06.03 12:22:45.
