data_PCOD9163008
_publ_section_title
;
Structure prediction by ZEFSAII (Michael W. Deem and Ramdas Pophale) SiO2 
 PCOD9163008
Probable space group: P 21/M
;
_chemical_formula_sum "Si O2"
_cell_formula_units_Z 28
_cell_length_a 18.537318
_cell_length_b 8.713803
_cell_length_c 14.958398
_cell_angle_alpha 90.000000
_cell_angle_beta 146.896152
_cell_angle_gamma 90.000000
_cell_volume 1319.648283
_symmetry_space_group_name_H-M "P 21/M"
_symmetry_group_IT_number 11
_symmetry_cell_setting 'monoclinic'
loop_
_space_group_symop_operation_xyz
x,y,z
-x,1/2+y,-z
-x,-y,-z
x,1/2-y,z
loop_
_atom_site_type_symbol
_atom_site_label
_atom_site_fract_x
_atom_site_fract_y
_atom_site_fract_z
Si Si1 0.971252 0.436946 0.790147
Si Si2 0.903514 0.430751 0.525866
Si Si3 0.799960 0.573057 0.242515
Si Si4 0.532074 0.429289 0.937079
Si Si5 0.530051 0.434582 0.308444
Si Si6 0.266165 0.435307 0.134155
Si Si7 0.256133 0.935140 0.319803
O O1 0.972904 0.250000 0.788575
O O2 0.886108 0.481465 0.787820
O O3 0.899553 0.484054 0.623986
O O4 0.122227 0.489562 0.952163
O O5 0.866351 0.250000 0.481388
O O6 0.057984 0.441973 0.657362
O O7 0.822643 0.525377 0.369043
O O8 0.758195 0.750000 0.191529
O O9 0.686617 0.469224 0.083218
O O10 0.510100 0.250000 0.917305
O O11 0.451794 0.500750 0.771597
O O12 0.500000 0.500000 0.000000
O O13 0.531650 0.250000 0.303755
O O14 0.387899 0.485345 0.199329
O O15 0.638266 0.478145 0.494457
O O16 0.265084 0.250000 0.131302
O O17 0.285296 0.489908 0.255375
O O18 0.259213 0.750000 0.313399
#
# Coordination Sequence:
#
# PCOD9163008 Si02
#       7
#     4   4   4   4   4   4   4
#     4   9  18  33  55  82 113 153 195 239 294 348
#     4   9  18  34  58  84 115 158 201 244 295 354
#     4  10  20  36  57  85 119 153 198 247 295 353
#     4  12  26  42  62  87 118 155 197 245 300 360
#     4  10  22  40  61  86 116 155 197 243 297 356
#     4  10  20  37  60  84 117 157 197 240 294 353
#     4  10  21  36  57  86 118 151 196 245 296 351
#
# _framework density 21.217773000000001
#
# number of rings (size 3 to 8) (size 9 to 14) (size 15 to 20)
#    0.000    2.000    0.000    3.429    2.000    4.000 
#    0.000    1.429    0.000    0.000    0.000    0.000 
#    0.000    0.000    0.000    0.000    0.000    0.000 
#
# Total GULP energy -156547.384108 kJ/mol
# GULP energy per Si atom -5590.978004 kJ/mol
# Density = 2.116948 g / cm^3
# Si number density = 21.217773 Si / 1000 Ang^3
#
#
#
# Elastic Constant Matrix: (Units=GPa)
#
#
# Indices 1 2 3 4 5 6 
#
# 1 79.6903 10.1276 16.4589 0.0000 -18.2152 0.0000
# 2 10.1276 14.6657 7.1421 0.0000 -3.1348 0.0000
# 3 16.4589 7.1421 82.1263 0.0000 -13.8952 0.0000
# 4 0.0000 0.0000 0.0000 27.6289 0.0000 -8.9473
# 5 -18.2152 -3.1348 -13.8952 0.0000 41.0006 0.0000
# 6 0.0000 0.0000 0.0000 -8.9473 0.0000 21.0237
#
#
#
# Elastic Compliance Matrix: (Units=1/GPa)
#
#
# Indices 1 2 3 4 5 6 
#
# 1 0.015215 -0.008647 -0.001342 0.000000 0.005643 0.000000
# 2 -0.008647 0.076606 -0.004867 0.000000 0.000366 0.000000
# 3 -0.001342 -0.004867 0.013478 0.000000 0.003599 0.000000
# 4 0.000000 0.000000 0.000000 0.041980 0.000000 0.017866
# 5 0.005643 0.000366 0.003599 0.000000 0.028145 0.000000
# 6 0.000000 0.000000 0.000000 0.017866 0.000000 0.055169
#
#
# Mechanical properties :
#
#
# Convention : Reuss Voigt Hill
#
# Bulk Modulus (GPa) = 13.23002 27.10438 20.16720
# Shear Modulus (GPa) = 17.51319 27.44755 22.48037
#
# Velocity S-wave (km/s) = 2.87610 3.60058 3.25854
# Velocity P-wave (km/s) = 4.15670 5.48523 4.86651
#
# Compressibility (1/GPa) = 0.07558568
#
# Stress axis : x y z
#
# Youngs Moduli (GPa) = 65.72619 13.05380 74.19715
#
# Poissons Ratio (x) = 0.11287 0.09960
# Poissons Ratio (y) = 0.56832 0.36113
# Poissons Ratio (z) = 0.08823 0.06354
#
# Static dielectric constant tensor:
#      x y z
#    x 1.780370 0.000000 0.031610 
#    y 0.000000 1.714330 0.000000 
#    z 0.031610 0.000000 1.775600 
# 
# From -- ./inp_files/54616.got.cif
#   From: 2010.05.17/outbox.cif.g08.bks.cpg/sg11_28_cif.got.tgz:54616.got - 2010.06.03 12:22:45.
