data_PCOD9163097
_publ_section_title
;
Structure prediction by ZEFSAII (Michael W. Deem and Ramdas Pophale) SiO2 
 PCOD9163097
Probable space group: P 21/M
;
_chemical_formula_sum "Si O2"
_cell_formula_units_Z 32
_cell_length_a 14.864576
_cell_length_b 8.053137
_cell_length_c 22.850899
_cell_angle_alpha 90.000000
_cell_angle_beta 147.959364
_cell_angle_gamma 90.000000
_cell_volume 1451.186237
_symmetry_space_group_name_H-M "P 21/M"
_symmetry_group_IT_number 11
_symmetry_cell_setting 'monoclinic'
loop_
_space_group_symop_operation_xyz
x,y,z
-x,1/2+y,-z
-x,-y,-z
x,1/2-y,z
loop_
_atom_site_type_symbol
_atom_site_label
_atom_site_fract_x
_atom_site_fract_y
_atom_site_fract_z
Si Si1 0.858905 0.945106 0.791560
Si Si2 0.973840 0.443594 0.354399
Si Si3 0.628780 0.950686 0.019219
Si Si4 0.861205 0.449367 0.971956
Si Si5 0.413770 0.946200 0.265915
Si Si6 0.375990 0.952671 0.785288
Si Si7 0.010720 0.943737 0.250758
Si Si8 0.748578 0.057071 0.409174
O O1 0.848637 0.750000 0.799063
O O2 0.710868 0.028024 0.747790
O O3 0.861405 0.972796 0.724045
O O4 0.044362 0.007278 0.917310
O O5 0.965812 0.250000 0.335943
O O6 0.783500 0.502510 0.262373
O O7 0.050958 0.533519 0.340945
O O8 0.088180 0.468454 0.474639
O O9 0.634449 0.750000 0.021410
O O10 0.546357 0.008661 0.912087
O O11 0.818887 0.012422 0.135889
O O12 0.500000 0.000000 0.000000
O O13 0.844045 0.250000 0.964784
O O14 0.687093 0.512762 0.847623
O O15 0.000000 0.500000 0.000000
O O16 0.444488 0.750000 0.276472
O O17 0.592548 0.036253 0.367926
O O18 0.381389 0.750000 0.785961
O O19 0.325450 0.011078 0.692791
O O20 0.009925 0.750000 0.235988
O O21 0.790999 0.250000 0.424643
#
# Coordination Sequence:
#
# PCOD9163097 Si02
#       8
#     4   4   4   4   4   4   4   4
#     4  10  20  36  58  85 118 159 200 241 295 352
#     4  11  22  41  64  84 116 158 202 249 297 352
#     4  10  20  37  59  88 123 158 195 241 296 352
#     4   8  16  30  50  76 109 146 186 231 280 338
#     4  10  20  37  57  84 119 155 199 247 295 347
#     4   9  20  38  61  88 120 156 194 241 298 354
#     4  11  23  37  59  90 123 159 199 244 296 356
#     4  11  23  39  61  88 119 155 200 249 299 353
#
# _framework density 22.050927000000001
#
# number of rings (size 3 to 8) (size 9 to 14) (size 15 to 20)
#    0.000    2.000    1.250    2.250    1.750    1.500 
#    0.000    3.750    0.000    0.000    0.000    0.000 
#    0.000    0.000    0.000    0.000    0.000    0.000 
#
# Total GULP energy -178681.488739 kJ/mol
# GULP energy per Si atom -5583.796523 kJ/mol
# Density = 2.200074 g / cm^3
# Si number density = 22.050927 Si / 1000 Ang^3
#
#
#
# Elastic Constant Matrix: (Units=GPa)
#
#
# Indices 1 2 3 4 5 6 
#
# 1 71.3424 -5.4137 1.1745 0.0000 -16.6960 0.0000
# 2 -5.4137 32.7568 -1.4413 0.0000 -0.1983 0.0000
# 3 1.1745 -1.4413 63.5822 0.0000 -10.6241 0.0000
# 4 0.0000 0.0000 0.0000 21.4259 0.0000 -1.9863
# 5 -16.6960 -0.1983 -10.6241 0.0000 29.6984 0.0000
# 6 0.0000 0.0000 0.0000 -1.9863 0.0000 23.0140
#
#
#
# Elastic Compliance Matrix: (Units=1/GPa)
#
#
# Indices 1 2 3 4 5 6 
#
# 1 0.016503 0.002848 0.001397 0.000000 0.009796 0.000000
# 2 0.002848 0.031056 0.001014 0.000000 0.002171 0.000000
# 3 0.001397 0.001014 0.016865 0.000000 0.006825 0.000000
# 4 0.000000 0.000000 0.000000 0.047049 0.000000 0.004061
# 5 0.009796 0.002171 0.006825 0.000000 0.041635 0.000000
# 6 0.000000 0.000000 0.000000 0.004061 0.000000 0.043802
#
#
# Mechanical properties :
#
#
# Convention : Reuss Voigt Hill
#
# Bulk Modulus (GPa) = 13.34362 17.36894 15.35628
# Shear Modulus (GPa) = 23.65479 26.38512 25.01996
#
# Velocity S-wave (km/s) = 3.27882 3.46288 3.37210
# Velocity P-wave (km/s) = 4.51648 4.88698 4.70538
#
# Compressibility (1/GPa) = 0.07494217
#
# Stress axis : x y z
#
# Youngs Moduli (GPa) = 60.59649 32.19942 59.29334
#
# Poissons Ratio (x) = -0.09171 -0.08281
# Poissons Ratio (y) = -0.17259 -0.06013
# Poissons Ratio (z) = -0.08463 -0.03266
#
# Static dielectric constant tensor:
#      x y z
#    x 1.816210 0.000000 -0.025050 
#    y 0.000000 1.738240 0.000000 
#    z -0.025050 0.000000 1.834920 
# 
# From -- ./inp_files/69100.got.cif
#   From: 2010.05.17/outbox.cif.g08.bks.cpg/sg11_35_cif.got.tgz:69100.got - 2010.06.03 12:22:45.
