data_PCOD9163428
_publ_section_title
;
Structure prediction by ZEFSAII (Michael W. Deem and Ramdas Pophale) SiO2 
 PCOD9163428
Probable space group: P 21/M
;
_chemical_formula_sum "Si O2"
_cell_formula_units_Z 28
_cell_length_a 15.284867
_cell_length_b 17.253438
_cell_length_c 9.756783
_cell_angle_alpha 90.000000
_cell_angle_beta 25.684459
_cell_angle_gamma 90.000000
_cell_volume 1115.186629
_symmetry_space_group_name_H-M "P 21/M"
_symmetry_group_IT_number 11
_symmetry_cell_setting 'monoclinic'
loop_
_space_group_symop_operation_xyz
x,y,z
-x,1/2+y,-z
-x,-y,-z
x,1/2-y,z
loop_
_atom_site_type_symbol
_atom_site_label
_atom_site_fract_x
_atom_site_fract_y
_atom_site_fract_z
Si Si1 0.078753 0.158946 0.457629
Si Si2 0.645982 0.070673 0.763882
Si Si3 0.720054 0.904359 0.274776
Si Si4 0.919407 0.962585 0.755107
Si Si5 0.276598 0.842556 0.856692
Si Si6 0.636529 0.840734 0.677734
Si Si7 0.846319 0.340068 0.270795
O O1 0.059552 0.250000 0.458671
O O2 0.864258 0.127706 0.820784
O O3 0.150213 0.118004 0.218329
O O4 0.230368 0.149806 0.372633
O O5 0.586735 0.138411 0.953967
O O6 0.868145 0.039882 0.469919
O O7 0.663806 0.110179 0.591638
O O8 0.500000 0.000000 0.000000
O O9 0.764386 0.973475 0.101941
O O10 0.933482 0.857199 0.974608
O O11 0.506726 0.869174 0.530114
O O12 0.686989 0.902890 0.487333
O O13 0.000000 0.000000 0.500000
O O14 0.282455 0.750000 0.864356
O O15 0.155229 0.856948 0.888008
O O16 0.655925 0.750000 0.604643
O O17 0.801823 0.250000 0.354386
#
# Coordination Sequence:
#
# PCOD9163428 Si02
#       7
#     4   4   4   4   4   4   4
#     4  10  22  41  67  97 135 172 215 273 335 396
#     4  11  25  43  65  92 133 180 222 270 333 396
#     4  11  23  40  67  97 131 170 215 274 332 393
#     4  11  26  46  63  95 134 175 226 276 325 406
#     4  10  20  36  63  97 129 163 208 269 327 386
#     4  11  22  42  69 101 134 170 219 279 334 395
#     4  10  21  40  63  98 131 166 216 273 327 390
#
# _framework density 25.107904999999999
#
# number of rings (size 3 to 8) (size 9 to 14) (size 15 to 20)
#    0.000    1.429    1.429    3.429    4.000    5.143 
#    2.571    3.571    0.000    0.000    0.000    0.000 
#    0.000    0.000    0.000    0.000    0.000    0.000 
#
# Total GULP energy -156104.961306 kJ/mol
# GULP energy per Si atom -5575.177189 kJ/mol
# Density = 2.505076 g / cm^3
# Si number density = 25.107905 Si / 1000 Ang^3
#
#
#
# Elastic Constant Matrix: (Units=GPa)
#
#
# Indices 1 2 3 4 5 6 
#
# 1 83.9904 4.6862 4.7525 0.0000 0.6891 0.0000
# 2 4.6862 51.6029 11.5050 0.0000 17.0345 0.0000
# 3 4.7525 11.5050 99.4516 0.0000 10.0500 0.0000
# 4 0.0000 0.0000 0.0000 22.7433 0.0000 8.4490
# 5 0.6891 17.0345 10.0500 0.0000 28.2738 0.0000
# 6 0.0000 0.0000 0.0000 8.4490 0.0000 24.4660
#
#
#
# Elastic Compliance Matrix: (Units=1/GPa)
#
#
# Indices 1 2 3 4 5 6 
#
# 1 0.011995 -0.001174 -0.000497 0.000000 0.000592 0.000000
# 2 -0.001174 0.024487 -0.001337 0.000000 -0.014249 0.000000
# 3 -0.000497 -0.001337 0.010529 0.000000 -0.002925 0.000000
# 4 0.000000 0.000000 0.000000 0.050440 0.000000 -0.017419
# 5 0.000592 -0.014249 -0.002925 0.000000 0.044979 0.000000
# 6 0.000000 0.000000 0.000000 -0.017419 0.000000 0.046888
#
#
# Mechanical properties :
#
#
# Convention : Reuss Voigt Hill
#
# Bulk Modulus (GPa) = 24.39265 30.77025 27.58145
# Shear Modulus (GPa) = 23.92356 29.37003 26.64679
#
# Velocity S-wave (km/s) = 3.09014 3.42387 3.26128
# Velocity P-wave (km/s) = 4.74006 5.28322 5.01899
#
# Compressibility (1/GPa) = 0.04099596
#
# Stress axis : x y z
#
# Youngs Moduli (GPa) = 83.36879 40.83768 94.97454
#
# Poissons Ratio (x) = 0.04793 0.04722
# Poissons Ratio (y) = 0.09785 0.12695
# Poissons Ratio (z) = 0.04145 0.05459
#
# Static dielectric constant tensor:
#      x y z
#    x 1.504420 0.000000 -0.311660 
#    y 0.000000 2.153280 0.000000 
#    z -0.311660 0.000000 1.760270 
# 
# From -- ./inp_files/23178.got.cif
#   From: 2010.05.17/outbox.cif.g08.bks.cpg/sg11_12_cif.got.tgz:23178.got - 2010.06.03 12:22:45.
