data_PCOD9163888
_publ_section_title
;
Structure prediction by ZEFSAII (Michael W. Deem and Ramdas Pophale) SiO2 
 PCOD9163888
Probable space group: P 21/M
;
_chemical_formula_sum "Si O2"
_cell_formula_units_Z 24
_cell_length_a 13.239695
_cell_length_b 7.784837
_cell_length_c 15.053553
_cell_angle_alpha 90.000000
_cell_angle_beta 140.001337
_cell_angle_gamma 90.000000
_cell_volume 997.291090
_symmetry_space_group_name_H-M "P 21/M"
_symmetry_group_IT_number 11
_symmetry_cell_setting 'monoclinic'
loop_
_space_group_symop_operation_xyz
x,y,z
-x,1/2+y,-z
-x,-y,-z
x,1/2-y,z
loop_
_atom_site_type_symbol
_atom_site_label
_atom_site_fract_x
_atom_site_fract_y
_atom_site_fract_z
Si Si1 0.331125 0.542919 0.347315
Si Si2 0.836204 0.454942 0.936411
Si Si3 0.646005 0.551298 0.967560
Si Si4 0.325508 0.050810 0.666130
Si Si5 0.174432 0.460904 0.742889
Si Si6 0.143238 0.948884 0.382573
O O1 0.500000 0.500000 0.500000
O O2 0.318419 0.750000 0.337183
O O3 0.294781 0.484874 0.223298
O O4 0.200670 0.473908 0.328553
O O5 0.827387 0.250000 0.941555
O O6 0.797265 0.536170 0.004977
O O7 0.000000 0.500000 0.000000
O O8 0.602510 0.750000 0.946700
O O9 0.501606 0.460706 0.821982
O O10 0.694419 0.485154 0.097038
O O11 0.289376 0.250000 0.625469
O O12 0.216002 0.981529 0.672093
O O13 0.287266 0.957742 0.548883
O O14 0.175812 0.250000 0.741443
O O15 0.007938 0.521957 0.668809
O O16 0.104852 0.750000 0.339404
#
# Coordination Sequence:
#
# PCOD9163888 Si02
#       6
#     4   4   4   4   4   4
#     4  10  22  38  58  82 113 150 190 232 281 337
#     4  11  23  40  61  88 118 151 190 236 285 339
#     4  11  22  39  61  85 114 153 193 234 283 339
#     4  11  22  37  57  86 118 149 187 237 288 341
#     4   9  20  38  60  83 113 150 192 238 287 339
#     4  10  20  38  60  82 109 149 192 233 284 343
#
# _framework density 24.065190000000001
#
# number of rings (size 3 to 8) (size 9 to 14) (size 15 to 20)
#    0.000    1.667    0.000    4.500    0.000    7.333 
#    0.000    6.667    0.000    0.000    0.000    0.000 
#    0.000    0.000    0.000    0.000    0.000    0.000 
#
# Total GULP energy -134289.638173 kJ/mol
# GULP energy per Si atom -5595.401591 kJ/mol
# Density = 2.401042 g / cm^3
# Si number density = 24.065190 Si / 1000 Ang^3
#
#
#
# Elastic Constant Matrix: (Units=GPa)
#
#
# Indices 1 2 3 4 5 6 
#
# 1 77.0228 -3.3774 -15.1219 0.0000 -7.2811 0.0000
# 2 -3.3774 47.7017 -1.9714 0.0000 -4.3096 0.0000
# 3 -15.1219 -1.9714 66.3291 0.0000 -6.1895 0.0000
# 4 0.0000 0.0000 0.0000 17.5257 0.0000 7.7169
# 5 -7.2811 -4.3096 -6.1895 0.0000 46.7042 0.0000
# 6 0.0000 0.0000 0.0000 7.7169 0.0000 19.4775
#
#
#
# Elastic Compliance Matrix: (Units=1/GPa)
#
#
# Indices 1 2 3 4 5 6 
#
# 1 0.013991 0.001385 0.003489 0.000000 0.002771 0.000000
# 2 0.001385 0.021321 0.001168 0.000000 0.002338 0.000000
# 3 0.003489 0.001168 0.016167 0.000000 0.002794 0.000000
# 4 0.000000 0.000000 0.000000 0.069117 0.000000 -0.027384
# 5 0.002771 0.002338 0.002794 0.000000 0.022429 0.000000
# 6 0.000000 0.000000 0.000000 -0.027384 0.000000 0.062191
#
#
# Mechanical properties :
#
#
# Convention : Reuss Voigt Hill
#
# Bulk Modulus (GPa) = 15.73211 16.67913 16.20562
# Shear Modulus (GPa) = 23.32962 30.84310 27.08636
#
# Velocity S-wave (km/s) = 3.11695 3.58389 3.35855
# Velocity P-wave (km/s) = 4.41648 4.90628 4.66781
#
# Compressibility (1/GPa) = 0.06356427
#
# Stress axis : x y z
#
# Youngs Moduli (GPa) = 71.47460 46.90168 61.85314
#
# Poissons Ratio (x) = -0.06497 -0.21584
# Poissons Ratio (y) = -0.09901 -0.07223
# Poissons Ratio (z) = -0.24941 -0.05477
#
# Static dielectric constant tensor:
#      x y z
#    x 1.935180 0.000000 0.030060 
#    y 0.000000 1.899140 0.000000 
#    z 0.030060 0.000000 1.911310 
# 
# From -- ./inp_files/51826.got.cif
#   From: 2010.05.17/outbox.cif.g08.bks.cpg/sg11_26_cif.got.tgz:51826.got - 2010.06.03 12:22:45.
