data_PCOD9163809
_publ_section_title
;
Structure prediction by ZEFSAII (Michael W. Deem and Ramdas Pophale) SiO2 
 PCOD9163809
Probable space group: P 21/M
;
_chemical_formula_sum "Si O2"
_cell_formula_units_Z 32
_cell_length_a 16.215272
_cell_length_b 13.765164
_cell_length_c 11.425402
_cell_angle_alpha 90.000000
_cell_angle_beta 38.041707
_cell_angle_gamma 90.000000
_cell_volume 1571.532712
_symmetry_space_group_name_H-M "P 21/M"
_symmetry_group_IT_number 11
_symmetry_cell_setting 'monoclinic'
loop_
_space_group_symop_operation_xyz
x,y,z
-x,1/2+y,-z
-x,-y,-z
x,1/2-y,z
loop_
_atom_site_type_symbol
_atom_site_label
_atom_site_fract_x
_atom_site_fract_y
_atom_site_fract_z
Si Si1 0.500702 0.365908 0.419128
Si Si2 0.288537 0.866073 0.001890
Si Si3 0.341180 0.492782 0.155928
Si Si4 0.183588 0.134329 0.768217
Si Si5 0.837193 0.498437 0.414099
Si Si6 0.353150 0.361861 0.937946
Si Si7 0.635575 0.134248 0.505279
Si Si8 0.870356 0.518791 0.945960
O O1 0.515958 0.250000 0.411387
O O2 0.343550 0.382141 0.599897
O O3 0.584124 0.403694 0.436813
O O4 0.570673 0.392193 0.219412
O O5 0.276753 0.750000 0.027740
O O6 0.291679 0.921969 0.122282
O O7 0.178102 0.910182 0.035440
O O8 0.254764 0.491660 0.369535
O O9 0.500000 0.500000 0.000000
O O10 0.324138 0.394143 0.101616
O O11 0.156486 0.250000 0.816588
O O12 0.147239 0.096781 0.679496
O O13 0.117587 0.061616 0.936627
O O14 0.761290 0.422726 0.414210
O O15 0.987072 0.464427 0.274186
O O16 0.330590 0.250000 0.941136
O O17 0.507188 0.381341 0.732483
O O18 0.250935 0.419482 0.971782
O O19 0.661935 0.250000 0.470739
#
# Coordination Sequence:
#
# PCOD9163809 Si02
#       8
#     4   4   4   4   4   4   4   4
#     4   9  18  35  63  94 117 153 209 262 311 373
#     4  10  23  41  64  93 127 170 218 263 320 382
#     4  11  23  41  63  91 129 170 210 269 314 368
#     4  11  23  40  65  95 131 167 209 266 328 389
#     4  12  26  40  61  96 131 170 215 258 324 386
#     4  10  21  40  66  90 120 168 216 262 319 375
#     4  10  20  37  63  93 122 161 212 266 320 378
#     4  11  24  42  64  94 128 167 208 268 325 384
#
# _framework density 20.362287999999999
#
# number of rings (size 3 to 8) (size 9 to 14) (size 15 to 20)
#    0.000    1.500    2.500    2.250    1.750    6.000 
#    0.000    2.500    0.000    0.000    0.000    0.000 
#    0.000    0.000    0.000    0.000    0.000    0.000 
#
# Total GULP energy -178650.169797 kJ/mol
# GULP energy per Si atom -5582.817806 kJ/mol
# Density = 2.031594 g / cm^3
# Si number density = 20.362288 Si / 1000 Ang^3
#
#
#
# Elastic Constant Matrix: (Units=GPa)
#
#
# Indices 1 2 3 4 5 6 
#
# 1 42.8393 21.2903 17.8777 0.0000 7.3755 0.0000
# 2 21.2903 99.0146 8.9433 0.0000 -2.9989 0.0000
# 3 17.8777 8.9433 92.3241 0.0000 7.0210 0.0000
# 4 0.0000 0.0000 0.0000 13.7525 0.0000 4.8124
# 5 7.3755 -2.9989 7.0210 0.0000 40.6153 0.0000
# 6 0.0000 0.0000 0.0000 4.8124 0.0000 23.6761
#
#
#
# Elastic Compliance Matrix: (Units=1/GPa)
#
#
# Indices 1 2 3 4 5 6 
#
# 1 0.029121 -0.005987 -0.004685 0.000000 -0.004920 0.000000
# 2 -0.005987 0.011455 -0.000099 0.000000 0.001950 0.000000
# 3 -0.004685 -0.000099 0.011840 0.000000 -0.001203 0.000000
# 4 0.000000 0.000000 0.000000 0.078282 0.000000 -0.015912
# 5 -0.004920 0.001950 -0.001203 0.000000 0.025867 0.000000
# 6 0.000000 0.000000 0.000000 -0.015912 0.000000 0.045471
#
#
# Mechanical properties :
#
#
# Convention : Reuss Voigt Hill
#
# Bulk Modulus (GPa) = 32.38987 36.71116 34.55051
# Shear Modulus (GPa) = 21.37956 28.01322 24.69639
#
# Velocity S-wave (km/s) = 3.24382 3.71312 3.48638
# Velocity P-wave (km/s) = 5.47459 6.03748 5.76291
#
# Compressibility (1/GPa) = 0.03087385
#
# Stress axis : x y z
#
# Youngs Moduli (GPa) = 34.33959 87.29870 84.46215
#
# Poissons Ratio (x) = 0.52270 0.39569
# Poissons Ratio (y) = 0.20561 0.00832
# Poissons Ratio (z) = 0.16087 0.00860
#
# Static dielectric constant tensor:
#      x y z
#    x 1.744760 0.000000 0.026410 
#    y 0.000000 1.761440 0.000000 
#    z 0.026410 0.000000 1.731080 
# 
# From -- ./inp_files/41670.got.cif
#   From: 2010.05.17/outbox.cif.g08.bks.cpg/sg11_21_cif.got.tgz:41670.got - 2010.06.03 12:22:45.
