data_PCOD9163526
_publ_section_title
;
Structure prediction by ZEFSAII (Michael W. Deem and Ramdas Pophale) SiO2 
 PCOD9163526
Probable space group: P 21/M
;
_chemical_formula_sum "Si O2"
_cell_formula_units_Z 20
_cell_length_a 10.155619
_cell_length_b 16.668809
_cell_length_c 9.500296
_cell_angle_alpha 90.000000
_cell_angle_beta 139.543155
_cell_angle_gamma 90.000000
_cell_volume 1043.540322
_symmetry_space_group_name_H-M "P 21/M"
_symmetry_group_IT_number 11
_symmetry_cell_setting 'monoclinic'
loop_
_space_group_symop_operation_xyz
x,y,z
-x,1/2+y,-z
-x,-y,-z
x,1/2-y,z
loop_
_atom_site_type_symbol
_atom_site_label
_atom_site_fract_x
_atom_site_fract_y
_atom_site_fract_z
Si Si1 0.579607 0.583015 0.824078
Si Si2 0.698156 0.567254 0.435386
Si Si3 0.825874 0.655306 0.261169
Si Si4 0.032994 0.557311 0.200131
Si Si5 0.607934 0.155818 0.607234
O O1 0.434092 0.507614 0.730434
O O2 0.488696 0.635045 0.623802
O O3 0.629549 0.633668 0.004441
O O4 0.803000 0.551174 0.959927
O O5 0.796500 0.616358 0.388916
O O6 0.547005 0.621612 0.403657
O O7 0.865529 0.525459 0.670808
O O8 0.856458 0.750000 0.292109
O O9 0.003949 0.611138 0.318838
O O10 0.181737 0.606827 0.220888
O O11 0.640136 0.250000 0.649676
#
# Coordination Sequence:
#
# PCOD9163526 Si02
#       5
#     4   4   4   4   4
#     4   9  21  37  61  77 109 150 190 216 268 342
#     4  11  21  37  58  85 112 144 184 233 278 319
#     4  10  20  37  59  82 112 146 184 232 275 321
#     4   9  21  37  61  77 109 150 190 216 268 342
#     4  11  22  36  57  85 114 144 184 233 277 320
#
# _framework density 19.165527999999998
#
# number of rings (size 3 to 8) (size 9 to 14) (size 15 to 20)
#    1.200    0.800    0.000    5.400    0.000    3.200 
#    0.000    0.000    0.000    2.400    0.000    0.000 
#    0.000    0.000    0.000    0.000    0.000    0.000 
#
# Total GULP energy -111557.750302 kJ/mol
# GULP energy per Si atom -5577.887515 kJ/mol
# Density = 1.912191 g / cm^3
# Si number density = 19.165528 Si / 1000 Ang^3
#
#
#
# Elastic Constant Matrix: (Units=GPa)
#
#
# Indices 1 2 3 4 5 6 
#
# 1 82.7421 39.7470 -6.2046 0.0000 -11.6122 0.0000
# 2 39.7470 84.6003 5.1263 0.0000 -20.8465 0.0000
# 3 -6.2046 5.1263 24.9783 0.0000 13.0199 0.0000
# 4 0.0000 0.0000 0.0000 2.3183 0.0000 8.2387
# 5 -11.6122 -20.8465 13.0199 0.0000 29.8713 0.0000
# 6 0.0000 0.0000 0.0000 8.2387 0.0000 18.2420
#
#
#
# Elastic Compliance Matrix: (Units=1/GPa)
#
#
# Indices 1 2 3 4 5 6 
#
# 1 0.016542 -0.009018 0.007620 0.000000 -0.003184 0.000000
# 2 -0.009018 0.021698 -0.016510 0.000000 0.018833 0.000000
# 3 0.007620 -0.016510 0.064412 0.000000 -0.036635 0.000000
# 4 0.000000 0.000000 0.000000 -0.712959 0.000000 0.321996
# 5 -0.003184 0.018833 -0.036635 0.000000 0.061350 0.000000
# 6 0.000000 0.000000 0.000000 0.321996 0.000000 -0.090606
#
#
# Mechanical properties :
#
#
# Convention : Reuss Voigt Hill
#
# Bulk Modulus (GPa) = 14.96222 29.96200 22.46211
# Shear Modulus (GPa) = -8.59894 20.32978 5.86542
#
# Velocity S-wave (km/s) = -2.12047 3.26044 1.75130
# Velocity P-wave (km/s) = 1.35225 5.46271 3.97931
#
# Compressibility (1/GPa) = 0.06683502
#
# Stress axis : x y z
#
# Youngs Moduli (GPa) = 60.45086 46.08646 15.52515
#
# Poissons Ratio (x) = 0.41562 -0.11829
# Poissons Ratio (y) = 0.54516 0.25632
# Poissons Ratio (z) = -0.46061 0.76089
#
# Static dielectric constant tensor:
#      x y z
#    x 1.665800 0.000000 0.002000 
#    y 0.000000 1.631800 0.000000 
#    z 0.002000 0.000000 1.664930 
# 
# From -- ./inp_files/4533.got.cif
#   From: 2010.05.17/outbox.cif.g08.bks.cpg/sg11_3_cif.got.tgz:4533.got - 2010.06.03 12:22:45.
