data_PCOD9163555
_publ_section_title
;
Structure prediction by ZEFSAII (Michael W. Deem and Ramdas Pophale) SiO2 
 PCOD9163555
Probable space group: P 21/M
;
_chemical_formula_sum "Si O2"
_cell_formula_units_Z 32
_cell_length_a 14.912280
_cell_length_b 8.674592
_cell_length_c 12.669415
_cell_angle_alpha 90.000000
_cell_angle_beta 90.661426
_cell_angle_gamma 90.000000
_cell_volume 1638.780284
_symmetry_space_group_name_H-M "P 21/M"
_symmetry_group_IT_number 11
_symmetry_cell_setting 'monoclinic'
loop_
_space_group_symop_operation_xyz
x,y,z
-x,1/2+y,-z
-x,-y,-z
x,1/2-y,z
loop_
_atom_site_type_symbol
_atom_site_label
_atom_site_fract_x
_atom_site_fract_y
_atom_site_fract_z
Si Si1 0.783116 0.934310 0.682935
Si Si2 0.025939 0.932596 0.384861
Si Si3 0.267083 0.070276 0.547739
Si Si4 0.484333 0.931096 0.834496
Si Si5 0.449215 0.569618 0.598233
Si Si6 0.855379 0.069835 0.289061
Si Si7 0.320866 0.437726 0.110343
Si Si8 0.288311 0.066150 0.876420
O O1 0.795393 0.750000 0.694081
O O2 0.724115 0.958647 0.576635
O O3 0.733775 0.991406 0.787681
O O4 0.879011 0.006121 0.656008
O O5 0.028325 0.750000 0.395233
O O6 0.000000 0.000000 0.500000
O O7 0.949172 0.982157 0.300676
O O8 0.243564 0.250000 0.562837
O O9 0.358699 0.027928 0.606179
O O10 0.192564 0.964660 0.599679
O O11 0.471899 0.750000 0.860874
O O12 0.501607 0.939982 0.708770
O O13 0.575238 0.991588 0.889268
O O14 0.390647 0.014968 0.854464
O O15 0.500000 0.500000 0.500000
O O16 0.427697 0.750000 0.580661
O O17 0.870769 0.250000 0.275531
O O18 0.785223 0.010302 0.200536
O O19 0.326359 0.250000 0.117279
O O20 0.274117 0.475488 0.999240
O O21 0.282090 0.250000 0.863731
#
# Coordination Sequence:
#
# PCOD9163555 Si02
#       8
#     4   4   4   4   4   4   4   4
#     4  10  21  40  64  90 123 162 200 250 308 363
#     4  12  24  40  64  95 126 158 197 245 302 368
#     4  11  21  35  59  87 120 157 197 244 304 364
#     4  10  20  37  59  85 119 162 207 252 302 358
#     4  11  22  34  52  80 120 163 204 246 300 362
#     4  12  24  40  62  89 121 157 200 249 302 359
#     4   9  20  39  62  88 121 163 208 253 305 358
#     4  11  22  38  62  90 121 161 210 258 302 357
#
# _framework density 19.526717000000001
#
# number of rings (size 3 to 8) (size 9 to 14) (size 15 to 20)
#    0.000    1.250    2.500    4.500    0.000    3.000 
#    0.000    3.125    0.000    0.000    0.000    0.000 
#    0.000    0.000    0.000    0.000    0.000    0.000 
#
# Total GULP energy -178757.706815 kJ/mol
# GULP energy per Si atom -5586.178338 kJ/mol
# Density = 1.948227 g / cm^3
# Si number density = 19.526717 Si / 1000 Ang^3
#
#
#
# Elastic Constant Matrix: (Units=GPa)
#
#
# Indices 1 2 3 4 5 6 
#
# 1 82.6033 12.8894 32.0065 0.0000 12.6612 0.0000
# 2 12.8894 57.8850 31.2076 0.0000 5.1273 0.0000
# 3 32.0065 31.2076 108.6748 0.0000 8.1164 0.0000
# 4 0.0000 0.0000 0.0000 15.5989 0.0000 -6.3293
# 5 12.6612 5.1273 8.1164 0.0000 23.8488 0.0000
# 6 0.0000 0.0000 0.0000 -6.3293 0.0000 26.1901
#
#
#
# Elastic Compliance Matrix: (Units=1/GPa)
#
#
# Indices 1 2 3 4 5 6 
#
# 1 0.014596 -0.000740 -0.003611 0.000000 -0.006361 0.000000
# 2 -0.000740 0.020619 -0.005542 0.000000 -0.002154 0.000000
# 3 -0.003611 -0.005542 0.011928 0.000000 -0.000951 0.000000
# 4 0.000000 0.000000 0.000000 0.071077 0.000000 0.017177
# 5 -0.006361 -0.002154 -0.000951 0.000000 0.046094 0.000000
# 6 0.000000 0.000000 0.000000 0.017177 0.000000 0.042334
#
#
# Mechanical properties :
#
#
# Convention : Reuss Voigt Hill
#
# Bulk Modulus (GPa) = 36.55483 44.59669 40.57576
# Shear Modulus (GPa) = 21.22665 24.66485 22.94575
#
# Velocity S-wave (km/s) = 3.30063 3.55791 3.43169
# Velocity P-wave (km/s) = 5.76946 6.30609 6.04373
#
# Compressibility (1/GPa) = 0.02735617
#
# Stress axis : x y z
#
# Youngs Moduli (GPa) = 68.51346 48.49845 83.83704
#
# Poissons Ratio (x) = 0.03588 0.30275
# Poissons Ratio (y) = 0.05068 0.46466
# Poissons Ratio (z) = 0.24742 0.26880
#
# Static dielectric constant tensor:
#      x y z
#    x 1.680240 0.000000 0.004870 
#    y 0.000000 1.667240 0.000000 
#    z 0.004870 0.000000 1.696140 
# 
# From -- ./inp_files/38145.got.cif
#   From: 2010.05.17/outbox.cif.g08.bks.cpg/sg11_20_cif.got.tgz:38145.got - 2010.06.03 12:22:45.
