data_PCOD9163123
_publ_section_title
;
Structure prediction by ZEFSAII (Michael W. Deem and Ramdas Pophale) SiO2 
 PCOD9163123
Probable space group: P 21/M
;
_chemical_formula_sum "Si O2"
_cell_formula_units_Z 24
_cell_length_a 14.937362
_cell_length_b 7.645908
_cell_length_c 8.178632
_cell_angle_alpha 90.000000
_cell_angle_beta 100.712562
_cell_angle_gamma 90.000000
_cell_volume 917.800003
_symmetry_space_group_name_H-M "P 21/M"
_symmetry_group_IT_number 11
_symmetry_cell_setting 'monoclinic'
loop_
_space_group_symop_operation_xyz
x,y,z
-x,1/2+y,-z
-x,-y,-z
x,1/2-y,z
loop_
_atom_site_type_symbol
_atom_site_label
_atom_site_fract_x
_atom_site_fract_y
_atom_site_fract_z
Si Si1 0.195291 0.961844 0.128817
Si Si2 0.974996 0.452060 0.764197
Si Si3 0.643519 0.047869 0.612344
Si Si4 0.134104 0.464111 0.598649
Si Si5 0.474514 0.954552 0.728921
Si Si6 0.305275 0.456496 0.839840
O O1 0.191916 0.750000 0.138286
O O2 0.092018 0.027534 0.119785
O O3 0.262022 0.030902 0.295010
O O4 0.248017 0.007423 0.982656
O O5 0.992076 0.250000 0.808222
O O6 0.910530 0.462649 0.580189
O O7 0.069435 0.526657 0.727646
O O8 0.659595 0.250000 0.577375
O O9 0.588051 0.970730 0.441293
O O10 0.572300 0.041185 0.740049
O O11 0.130003 0.250000 0.591196
O O12 0.236852 0.519303 0.672902
O O13 0.492220 0.750000 0.709047
O O14 0.406936 0.970834 0.858638
O O15 0.315241 0.250000 0.828942
#
# Coordination Sequence:
#
# PCOD9163123 Si02
#       6
#     4   4   4   4   4   4
#     4  10  21  36  54  77 107 142 177 214 259 312
#     4   9  18  35  58  81 105 136 176 219 261 309
#     4   9  19  36  57  81 106 133 171 219 266 311
#     4   9  19  35  55  80 108 138 174 217 263 309
#     4  10  20  36  59  82 103 134 176 218 263 314
#     4  11  23  36  51  76 111 145 176 214 260 310
#
# _framework density 26.149487000000001
#
# number of rings (size 3 to 8) (size 9 to 14) (size 15 to 20)
#    0.000    2.333    0.000    2.000    0.000    6.000 
#    0.000    0.000    0.000    0.000    0.000    0.000 
#    0.000    0.000    0.000    0.000    0.000    0.000 
#
# Total GULP energy -134195.895744 kJ/mol
# GULP energy per Si atom -5591.495656 kJ/mol
# Density = 2.608997 g / cm^3
# Si number density = 26.149487 Si / 1000 Ang^3
#
#
#
# Elastic Constant Matrix: (Units=GPa)
#
#
# Indices 1 2 3 4 5 6 
#
# 1 164.9538 5.8587 6.7529 0.0000 -23.5433 0.0000
# 2 5.8587 86.7949 -0.7981 0.0000 0.0754 0.0000
# 3 6.7529 -0.7981 67.7579 0.0000 -19.6394 0.0000
# 4 0.0000 0.0000 0.0000 21.9473 0.0000 -5.1452
# 5 -23.5433 0.0754 -19.6394 0.0000 52.2491 0.0000
# 6 0.0000 0.0000 0.0000 -5.1452 0.0000 19.3293
#
#
#
# Elastic Compliance Matrix: (Units=1/GPa)
#
#
# Indices 1 2 3 4 5 6 
#
# 1 0.006499 -0.000439 0.000220 0.000000 0.003012 0.000000
# 2 -0.000439 0.011552 0.000132 0.000000 -0.000165 0.000000
# 3 0.000220 0.000132 0.016572 0.000000 0.006328 0.000000
# 4 0.000000 0.000000 0.000000 0.048596 0.000000 0.012936
# 5 0.003012 -0.000165 0.006328 0.000000 0.022875 0.000000
# 6 0.000000 0.000000 0.000000 0.012936 0.000000 0.055178
#
#
# Mechanical properties :
#
#
# Convention : Reuss Voigt Hill
#
# Bulk Modulus (GPa) = 29.02834 38.12595 33.57714
# Shear Modulus (GPa) = 28.91341 39.21803 34.06572
#
# Velocity S-wave (km/s) = 3.32881 3.87688 3.61325
# Velocity P-wave (km/s) = 5.08917 5.88659 5.50234
#
# Compressibility (1/GPa) = 0.03444910
#
# Stress axis : x y z
#
# Youngs Moduli (GPa) = 153.87593 86.56195 60.34188
#
# Poissons Ratio (x) = 0.03802 -0.01328
# Poissons Ratio (y) = 0.06759 -0.00797
# Poissons Ratio (z) = -0.03386 -0.01143
#
# Static dielectric constant tensor:
#      x y z
#    x 2.057890 0.000000 -0.043910 
#    y 0.000000 1.911290 0.000000 
#    z -0.043910 0.000000 2.178720 
# 
# From -- ./inp_files/20538.got.cif
#   From: 2010.05.17/outbox.cif.g08.bks.cpg/sg11_11_cif.got.tgz:20538.got - 2010.06.03 12:22:45.
