data_PCOD9163137
_publ_section_title
;
Structure prediction by ZEFSAII (Michael W. Deem and Ramdas Pophale) SiO2 
 PCOD9163137
Probable space group: P 21/M
;
_chemical_formula_sum "Si O2"
_cell_formula_units_Z 28
_cell_length_a 25.828039
_cell_length_b 9.525685
_cell_length_c 5.737902
_cell_angle_alpha 90.000000
_cell_angle_beta 117.954637
_cell_angle_gamma 90.000000
_cell_volume 1246.976745
_symmetry_space_group_name_H-M "P 21/M"
_symmetry_group_IT_number 11
_symmetry_cell_setting 'monoclinic'
loop_
_space_group_symop_operation_xyz
x,y,z
-x,1/2+y,-z
-x,-y,-z
x,1/2-y,z
loop_
_atom_site_type_symbol
_atom_site_label
_atom_site_fract_x
_atom_site_fract_y
_atom_site_fract_z
Si Si1 0.593064 0.592840 0.671167
Si Si2 0.757630 0.905041 0.292569
Si Si3 0.129734 0.098528 0.771187
Si Si4 0.015610 0.419208 0.279936
Si Si5 0.310301 0.592069 0.175280
Si Si6 0.189345 0.594055 0.210009
Si Si7 0.527379 0.405531 0.861371
O O1 0.613971 0.750000 0.769500
O O2 0.640140 0.509663 0.613584
O O3 0.580400 0.488762 0.857620
O O4 0.528459 0.607923 0.427721
O O5 0.736698 0.750000 0.314226
O O6 0.804196 0.890457 0.181856
O O7 0.794758 0.978179 0.569658
O O8 0.708436 0.011319 0.099838
O O9 0.114143 0.250000 0.851278
O O10 0.086019 0.080591 0.463714
O O11 0.134116 0.964711 0.948099
O O12 0.998350 0.250000 0.240826
O O13 0.000000 0.500000 0.500000
O O14 0.000000 0.500000 0.000000
O O15 0.332435 0.750000 0.187730
O O16 0.249997 0.603466 0.191480
O O17 0.177473 0.750000 0.279193
O O18 0.544438 0.250000 0.975629
O O19 0.500000 0.500000 0.000000
#
# Coordination Sequence:
#
# PCOD9163137 Si02
#       7
#     4   4   4   4   4   4   4
#     4  10  21  37  57  80 109 144 186 234 284 342
#     4  10  20  36  59  84 113 152 194 239 294 358
#     4   9  21  40  61  84 117 160 204 251 307 372
#     4  11  25  45  68  99 137 178 227 281 341 406
#     4  10  21  37  55  80 113 147 185 233 289 345
#     4  10  21  36  57  86 117 150 193 244 297 356
#     4  10  21  37  57  81 109 144 186 231 283 343
#
# _framework density 22.454307
#
# number of rings (size 3 to 8) (size 9 to 14) (size 15 to 20)
#    0.000    2.000    0.000    2.571    2.000    6.286 
#    0.000    2.857    0.000    0.000    0.000    0.000 
#    0.000    0.000    0.000    0.000    0.000    0.000 
#
# Total GULP energy -155876.448245 kJ/mol
# GULP energy per Si atom -5567.016009 kJ/mol
# Density = 2.240320 g / cm^3
# Si number density = 22.454307 Si / 1000 Ang^3
#
#
#
# Elastic Constant Matrix: (Units=GPa)
#
#
# Indices 1 2 3 4 5 6 
#
# 1 43.7112 29.5783 7.9800 0.0000 7.7385 0.0000
# 2 29.5783 201.3564 37.2953 0.0000 -12.2323 0.0000
# 3 7.9800 37.2953 47.8065 0.0000 -1.1161 0.0000
# 4 0.0000 0.0000 0.0000 31.8320 0.0000 4.9571
# 5 7.7385 -12.2323 -1.1161 0.0000 29.6815 0.0000
# 6 0.0000 0.0000 0.0000 4.9571 0.0000 27.2665
#
#
#
# Elastic Compliance Matrix: (Units=1/GPa)
#
#
# Indices 1 2 3 4 5 6 
#
# 1 0.027690 -0.004352 -0.001439 0.000000 -0.009067 0.000000
# 2 -0.004352 0.006640 -0.004367 0.000000 0.003707 0.000000
# 3 -0.001439 -0.004367 0.024553 0.000000 -0.000501 0.000000
# 4 0.000000 0.000000 0.000000 0.032330 0.000000 -0.005878
# 5 -0.009067 0.003707 -0.000501 0.000000 0.037564 0.000000
# 6 0.000000 0.000000 0.000000 -0.005878 0.000000 0.037744
#
#
# Mechanical properties :
#
#
# Convention : Reuss Voigt Hill
#
# Bulk Modulus (GPa) = 25.92848 49.17569 37.55209
# Shear Modulus (GPa) = 25.03874 32.29070 28.66472
#
# Velocity S-wave (km/s) = 3.34293 3.79629 3.57680
# Velocity P-wave (km/s) = 5.14515 6.41589 5.81533
#
# Compressibility (1/GPa) = 0.03856763
#
# Stress axis : x y z
#
# Youngs Moduli (GPa) = 36.11409 150.61188 40.72856
#
# Poissons Ratio (x) = 0.65544 0.05860
# Poissons Ratio (y) = 0.15716 0.17785
# Poissons Ratio (z) = 0.05196 0.65769
#
# Static dielectric constant tensor:
#      x y z
#    x 2.382880 0.000000 -0.034460 
#    y 0.000000 1.880730 0.000000 
#    z -0.034460 0.000000 1.913190 
# 
# From -- ./inp_files/9704.got.cif
#   From: 2010.05.17/outbox.cif.g08.bks.cpg/sg11_5_cif.got.tgz:9704.got - 2010.06.03 12:22:45.
