data_PCOD9163314
_publ_section_title
;
Structure prediction by ZEFSAII (Michael W. Deem and Ramdas Pophale) SiO2 
 PCOD9163314
Probable space group: P 21/M
;
_chemical_formula_sum "Si O2"
_cell_formula_units_Z 32
_cell_length_a 23.486813
_cell_length_b 8.801221
_cell_length_c 14.496478
_cell_angle_alpha 90.000000
_cell_angle_beta 143.918115
_cell_angle_gamma 90.000000
_cell_volume 1764.823222
_symmetry_space_group_name_H-M "P 21/M"
_symmetry_group_IT_number 11
_symmetry_cell_setting 'monoclinic'
loop_
_space_group_symop_operation_xyz
x,y,z
-x,1/2+y,-z
-x,-y,-z
x,1/2-y,z
loop_
_atom_site_type_symbol
_atom_site_label
_atom_site_fract_x
_atom_site_fract_y
_atom_site_fract_z
Si Si1 0.925610 0.066790 0.025494
Si Si2 0.395198 0.070369 0.381705
Si Si3 0.396937 0.569562 0.897058
Si Si4 0.459775 0.075816 0.661627
Si Si5 0.133478 0.931381 0.255432
Si Si6 0.233920 0.931003 0.040505
Si Si7 0.650548 0.571487 0.967083
Si Si8 0.701725 0.927544 0.400309
O O1 0.939859 0.250000 0.042925
O O2 0.866702 0.028308 0.854211
O O3 0.865552 0.026304 0.038288
O O4 0.028081 0.984297 0.152428
O O5 0.391720 0.250000 0.355046
O O6 0.387436 0.052387 0.481760
O O7 0.500000 0.000000 0.500000
O O8 0.316077 0.981820 0.220441
O O9 0.407404 0.750000 0.913668
O O10 0.317153 0.519592 0.717557
O O11 0.500000 0.500000 0.000000
O O12 0.365078 0.508902 0.955274
O O13 0.496564 0.250000 0.702261
O O14 0.398050 0.060321 0.672866
O O15 0.551102 0.965925 0.781948
O O16 0.143802 0.750000 0.275933
O O17 0.214377 0.009836 0.423920
O O18 0.235982 0.750000 0.031997
O O19 0.262395 0.007847 0.981307
O O20 0.660602 0.750000 0.993268
O O21 0.718503 0.750000 0.402256
#
# Coordination Sequence:
#
# PCOD9163314 Si02
#       8
#     4   4   4   4   4   4   4   4
#     4   9  20  38  60  86 118 156 194 236 288 346
#     4  11  21  32  48  74 109 149 190 229 276 333
#     4  12  24  40  60  84 115 151 195 242 291 344
#     4  10  21  35  52  75 110 151 190 232 279 335
#     4  10  20  36  60  90 120 151 192 242 291 343
#     4  11  22  37  56  79 113 154 195 238 287 345
#     4  12  24  37  56  80 110 150 193 237 285 341
#     4  11  22  37  59  85 115 151 192 239 291 345
#
# _framework density 18.132127000000001
#
# number of rings (size 3 to 8) (size 9 to 14) (size 15 to 20)
#    0.000    1.250    2.500    4.500    0.000    2.500 
#    0.000    0.000    0.000    0.750    0.000    0.000 
#    0.000    0.000    0.000    0.000    0.000    0.000 
#
# Total GULP energy -178773.256695 kJ/mol
# GULP energy per Si atom -5586.664272 kJ/mol
# Density = 1.809086 g / cm^3
# Si number density = 18.132127 Si / 1000 Ang^3
#
#
#
# Elastic Constant Matrix: (Units=GPa)
#
#
# Indices 1 2 3 4 5 6 
#
# 1 128.0128 59.7061 30.7102 0.0000 -9.9343 0.0000
# 2 59.7061 105.6447 31.8927 0.0000 -5.0800 0.0000
# 3 30.7102 31.8927 59.2187 0.0000 -6.2425 0.0000
# 4 0.0000 0.0000 0.0000 31.7469 0.0000 -2.5820
# 5 -9.9343 -5.0800 -6.2425 0.0000 24.8676 0.0000
# 6 0.0000 0.0000 0.0000 -2.5820 0.0000 27.1625
#
#
#
# Elastic Compliance Matrix: (Units=1/GPa)
#
#
# Indices 1 2 3 4 5 6 
#
# 1 0.011160 -0.005393 -0.002598 0.000000 0.002704 0.000000
# 2 -0.005393 0.013925 -0.004756 0.000000 -0.000504 0.000000
# 3 -0.002598 -0.004756 0.021143 0.000000 0.003298 0.000000
# 4 0.000000 0.000000 0.000000 0.031745 0.000000 0.003018
# 5 0.002704 -0.000504 0.003298 0.000000 0.042018 0.000000
# 6 0.000000 0.000000 0.000000 0.003018 0.000000 0.037102
#
#
# Mechanical properties :
#
#
# Convention : Reuss Voigt Hill
#
# Bulk Modulus (GPa) = 48.22890 59.72158 53.97524
# Shear Modulus (GPa) = 26.38546 28.12655 27.25600
#
# Velocity S-wave (km/s) = 3.81882 3.94280 3.88130
# Velocity P-wave (km/s) = 6.78976 7.33048 7.06529
#
# Compressibility (1/GPa) = 0.02073445
#
# Stress axis : x y z
#
# Youngs Moduli (GPa) = 89.60443 71.81314 47.29733
#
# Poissons Ratio (x) = 0.38728 0.12288
# Poissons Ratio (y) = 0.48323 0.22494
# Poissons Ratio (z) = 0.23280 0.34153
#
# Static dielectric constant tensor:
#      x y z
#    x 1.652480 0.000000 -0.021810 
#    y 0.000000 1.609970 0.000000 
#    z -0.021810 0.000000 1.621460 
# 
# From -- ./inp_files/55682.got.cif
#   From: 2010.05.17/outbox.cif.g08.bks.cpg/sg11_28_cif.got.tgz:55682.got - 2010.06.03 12:22:45.
