data_PCOD9163689
_publ_section_title
;
Structure prediction by ZEFSAII (Michael W. Deem and Ramdas Pophale) SiO2 
 PCOD9163689
Probable space group: P 21/M
;
_chemical_formula_sum "Si O2"
_cell_formula_units_Z 24
_cell_length_a 9.266372
_cell_length_b 8.754253
_cell_length_c 16.383919
_cell_angle_alpha 90.000000
_cell_angle_beta 106.113193
_cell_angle_gamma 90.000000
_cell_volume 1276.854209
_symmetry_space_group_name_H-M "P 21/M"
_symmetry_group_IT_number 11
_symmetry_cell_setting 'monoclinic'
loop_
_space_group_symop_operation_xyz
x,y,z
-x,1/2+y,-z
-x,-y,-z
x,1/2-y,z
loop_
_atom_site_type_symbol
_atom_site_label
_atom_site_fract_x
_atom_site_fract_y
_atom_site_fract_z
Si Si1 0.474025 0.065341 0.752436
Si Si2 0.204119 0.068442 0.243361
Si Si3 0.959151 0.933757 0.081820
Si Si4 0.376727 0.065886 0.919438
Si Si5 0.213099 0.433107 0.585545
Si Si6 0.120355 0.931547 0.403192
O O1 0.489564 0.250000 0.753534
O O2 0.414178 0.020935 0.832489
O O3 0.351737 0.023538 0.664628
O O4 0.633556 0.990730 0.759485
O O5 0.196436 0.250000 0.234884
O O6 0.175362 0.016986 0.331628
O O7 0.077563 0.993445 0.166461
O O8 0.964761 0.750000 0.080171
O O9 0.790722 0.981089 0.080815
O O10 0.000000 0.000000 0.000000
O O11 0.382373 0.250000 0.924042
O O12 0.500000 0.000000 0.000000
O O13 0.217439 0.250000 0.572817
O O14 0.208417 0.516299 0.497981
O O15 0.055181 0.466387 0.606088
O O16 0.134999 0.750000 0.393564
#
# Coordination Sequence:
#
# PCOD9163689 Si02
#       6
#     4   4   4   4   4   4
#     4  10  21  39  60  82 113 153 193 238 290 340
#     4  12  25  39  57  85 118 154 196 239 284 339
#     4  11  23  41  63  89 119 152 191 235 286 342
#     4  10  22  39  61  87 116 150 189 233 282 338
#     4   9  19  37  61  87 114 148 193 241 291 347
#     4  10  20  37  61  87 116 151 190 237 292 347
#
# _framework density 18.796194
#
# number of rings (size 3 to 8) (size 9 to 14) (size 15 to 20)
#    0.000    1.667    0.000    4.500    0.000    9.333 
#    0.000    1.667    0.000    0.000    0.000    0.000 
#    0.000    0.000    0.000    0.000    0.000    0.000 
#
# Total GULP energy -134184.791198 kJ/mol
# GULP energy per Si atom -5591.032967 kJ/mol
# Density = 1.875341 g / cm^3
# Si number density = 18.796194 Si / 1000 Ang^3
#
#
#
# Elastic Constant Matrix: (Units=GPa)
#
#
# Indices 1 2 3 4 5 6 
#
# 1 169.6028 60.8664 111.6520 0.0000 7.2735 0.0000
# 2 60.8664 56.1032 55.7354 0.0000 -1.3194 0.0000
# 3 111.6520 55.7354 157.5920 0.0000 4.4191 0.0000
# 4 0.0000 0.0000 0.0000 38.3211 0.0000 2.4150
# 5 7.2735 -1.3194 4.4191 0.0000 38.8602 0.0000
# 6 0.0000 0.0000 0.0000 2.4150 0.0000 27.1411
#
#
#
# Elastic Compliance Matrix: (Units=1/GPa)
#
#
# Indices 1 2 3 4 5 6 
#
# 1 0.012978 -0.007780 -0.006388 0.000000 -0.001967 0.000000
# 2 -0.007780 0.032306 -0.006004 0.000000 0.003236 0.000000
# 3 -0.006388 -0.006004 0.013009 0.000000 -0.000488 0.000000
# 4 0.000000 0.000000 0.000000 0.026242 0.000000 -0.002335
# 5 -0.001967 0.003236 -0.000488 0.000000 0.026267 0.000000
# 6 0.000000 0.000000 0.000000 -0.002335 0.000000 0.037052
#
#
# Mechanical properties :
#
#
# Convention : Reuss Voigt Hill
#
# Bulk Modulus (GPa) = 55.71737 93.31174 74.51456
# Shear Modulus (GPa) = 25.74932 31.20077 28.47504
#
# Velocity S-wave (km/s) = 3.70526 4.07867 3.89644
# Velocity P-wave (km/s) = 6.92911 8.48130 7.74419
#
# Compressibility (1/GPa) = 0.01794772
#
# Stress axis : x y z
#
# Youngs Moduli (GPa) = 77.05524 30.95436 76.87257
#
# Poissons Ratio (x) = 0.24082 0.49106
# Poissons Ratio (y) = 0.59947 0.46158
# Poissons Ratio (z) = 0.49223 0.18586
#
# Static dielectric constant tensor:
#      x y z
#    x 1.625230 0.000000 -0.002930 
#    y 0.000000 1.653370 0.000000 
#    z -0.002930 0.000000 1.616360 
# 
# From -- ./inp_files/20357.got.cif
#   From: 2010.05.17/outbox.cif.g08.bks.cpg/sg11_11_cif.got.tgz:20357.got - 2010.06.03 12:22:45.
