data_PCOD9163492
_publ_section_title
;
Structure prediction by ZEFSAII (Michael W. Deem and Ramdas Pophale) SiO2 
 PCOD9163492
Probable space group: P 21/M
;
_chemical_formula_sum "Si O2"
_cell_formula_units_Z 32
_cell_length_a 21.702027
_cell_length_b 7.952080
_cell_length_c 27.688333
_cell_angle_alpha 90.000000
_cell_angle_beta 18.758020
_cell_angle_gamma 90.000000
_cell_volume 1536.583228
_symmetry_space_group_name_H-M "P 21/M"
_symmetry_group_IT_number 11
_symmetry_cell_setting 'monoclinic'
loop_
_space_group_symop_operation_xyz
x,y,z
-x,1/2+y,-z
-x,-y,-z
x,1/2-y,z
loop_
_atom_site_type_symbol
_atom_site_label
_atom_site_fract_x
_atom_site_fract_y
_atom_site_fract_z
Si Si1 0.292661 0.450529 0.134574
Si Si2 0.021786 0.952302 0.906190
Si Si3 0.742789 0.953305 0.463030
Si Si4 0.694880 0.453283 0.220890
Si Si5 0.025652 0.047576 0.166420
Si Si6 0.619540 0.544112 0.038003
Si Si7 0.795592 0.442376 0.631823
Si Si8 0.112579 0.053896 0.539661
O O1 0.268830 0.250000 0.155756
O O2 0.116945 0.535018 0.292363
O O3 0.500000 0.500000 0.000000
O O4 0.289257 0.501955 0.080997
O O5 0.038472 0.750000 0.892304
O O6 0.189232 0.014595 0.817792
O O7 0.029085 0.016893 0.846048
O O8 0.821574 0.994680 0.080847
O O9 0.744245 0.750000 0.463211
O O10 0.523856 0.011532 0.618948
O O11 0.822328 0.011099 0.456118
O O12 0.875116 0.006000 0.320182
O O13 0.692252 0.250000 0.224169
O O14 0.034911 0.250000 0.156456
O O15 0.235526 0.987682 0.027878
O O16 0.613850 0.750000 0.043731
O O17 0.402793 0.477470 0.202508
O O18 0.784397 0.250000 0.654784
O O19 0.798234 0.460592 0.572060
O O20 0.000000 0.500000 0.500000
O O21 0.163882 0.250000 0.497613
#
# Coordination Sequence:
#
# PCOD9163492 Si02
#       8
#     4   4   4   4   4   4   4   4
#     4  11  21  37  61  85 111 148 187 233 287 340
#     4   9  19  35  59  87 114 148 190 233 278 334
#     4  10  22  38  56  81 117 155 190 233 282 333
#     4   9  19  37  57  83 119 153 186 229 282 334
#     4  10  20  37  58  83 113 146 189 238 282 335
#     4   9  20  37  56  80 111 143 181 232 285 331
#     4  11  23  40  61  85 113 148 187 238 294 346
#     4  11  23  39  56  82 116 152 193 235 277 337
#
# _framework density 20.825424999999999
#
# number of rings (size 3 to 8) (size 9 to 14) (size 15 to 20)
#    0.000    2.000    1.250    1.875    1.750    3.000 
#    0.000    3.125    0.000    0.000    0.000    0.000 
#    0.000    0.000    0.000    0.000    0.000    0.000 
#
# Total GULP energy -178716.829411 kJ/mol
# GULP energy per Si atom -5584.900919 kJ/mol
# Density = 2.077803 g / cm^3
# Si number density = 20.825425 Si / 1000 Ang^3
#
#
#
# Elastic Constant Matrix: (Units=GPa)
#
#
# Indices 1 2 3 4 5 6 
#
# 1 92.0847 -0.4414 13.7793 0.0000 -1.4418 0.0000
# 2 -0.4414 17.4051 -6.8012 0.0000 -4.2319 0.0000
# 3 13.7793 -6.8012 90.0891 0.0000 -14.6291 0.0000
# 4 0.0000 0.0000 0.0000 19.3865 0.0000 4.0249
# 5 -1.4418 -4.2319 -14.6291 0.0000 28.6001 0.0000
# 6 0.0000 0.0000 0.0000 4.0249 0.0000 17.5913
#
#
#
# Elastic Compliance Matrix: (Units=1/GPa)
#
#
# Indices 1 2 3 4 5 6 
#
# 1 0.011121 -0.000535 -0.001814 0.000000 -0.000446 0.000000
# 2 -0.000535 0.063294 0.006954 0.000000 0.012896 0.000000
# 3 -0.001814 0.006954 0.013147 0.000000 0.007662 0.000000
# 4 0.000000 0.000000 0.000000 0.054155 0.000000 -0.012390
# 5 -0.000446 0.012896 0.007662 0.000000 0.040770 0.000000
# 6 0.000000 0.000000 0.000000 -0.012390 0.000000 0.059681
#
#
# Mechanical properties :
#
#
# Convention : Reuss Voigt Hill
#
# Bulk Modulus (GPa) = 10.33358 23.62805 16.98081
# Shear Modulus (GPa) = 18.85262 25.98505 22.41883
#
# Velocity S-wave (km/s) = 3.01203 3.53619 3.28458
# Velocity P-wave (km/s) = 4.13149 5.29559 4.74934
#
# Compressibility (1/GPa) = 0.09677192
#
# Stress axis : x y z
#
# Youngs Moduli (GPa) = 89.91632 15.79935 76.06412
#
# Poissons Ratio (x) = 0.00846 0.13798
# Poissons Ratio (y) = 0.04814 -0.52897
# Poissons Ratio (z) = 0.16310 -0.10987
#
# Static dielectric constant tensor:
#      x y z
#    x 1.763220 0.000000 -0.026070 
#    y 0.000000 1.738480 0.000000 
#    z -0.026070 0.000000 1.730070 
# 
# From -- ./inp_files/72007.got.cif
#   From: 2010.05.17/outbox.cif.g08.bks.cpg/sg11_37_cif.got.tgz:72007.got - 2010.06.03 12:22:45.
