data_PCOD9163678
_publ_section_title
;
Structure prediction by ZEFSAII (Michael W. Deem and Ramdas Pophale) SiO2 
 PCOD9163678
Probable space group: P 21/M
;
_chemical_formula_sum "Si O2"
_cell_formula_units_Z 28
_cell_length_a 9.831169
_cell_length_b 9.000148
_cell_length_c 27.852791
_cell_angle_alpha 90.000000
_cell_angle_beta 141.374509
_cell_angle_gamma 90.000000
_cell_volume 1538.389284
_symmetry_space_group_name_H-M "P 21/M"
_symmetry_group_IT_number 11
_symmetry_cell_setting 'monoclinic'
loop_
_space_group_symop_operation_xyz
x,y,z
-x,1/2+y,-z
-x,-y,-z
x,1/2-y,z
loop_
_atom_site_type_symbol
_atom_site_label
_atom_site_fract_x
_atom_site_fract_y
_atom_site_fract_z
Si Si1 0.857012 0.072539 0.502589
Si Si2 0.227394 0.921599 0.052808
Si Si3 0.023053 0.427362 0.802931
Si Si4 0.328703 0.926508 0.807414
Si Si5 0.942480 0.926099 0.627723
Si Si6 0.725195 0.421525 0.048603
Si Si7 0.345548 0.071547 0.360356
O O1 0.879389 0.250000 0.506544
O O2 0.599799 0.036606 0.426472
O O3 0.926539 0.014116 0.574075
O O4 0.000000 0.000000 0.500000
O O5 0.226244 0.750000 0.068202
O O6 0.431241 0.007930 0.131855
O O7 0.256035 0.924951 0.003277
O O8 0.000000 0.000000 0.000000
O O9 0.027988 0.250000 0.804561
O O10 0.209642 0.490518 0.818624
O O11 0.081756 0.493275 0.870922
O O12 0.798807 0.488785 0.719120
O O13 0.335866 0.750000 0.818995
O O14 0.171169 0.949679 0.718323
O O15 0.919990 0.750000 0.611771
O O16 0.756266 0.967864 0.615486
O O17 0.722871 0.250000 0.063921
O O18 0.500000 0.500000 0.000000
O O19 0.314563 0.250000 0.346552
#
# Coordination Sequence:
#
# PCOD9163678 Si02
#       7
#     4   4   4   4   4   4   4
#     4  11  23  39  60  86 119 156 191 232 287 345
#     4  11  24  40  59  85 117 156 200 243 293 349
#     4  11  21  34  58  91 119 149 193 244 294 340
#     4  10  20  37  61  86 118 155 193 240 291 344
#     4   9  19  37  62  89 114 147 191 237 289 342
#     4  11  22  37  60  87 117 155 197 240 290 345
#     4   9  20  39  61  86 116 152 192 238 289 343
#
# _framework density 18.200855000000001
#
# number of rings (size 3 to 8) (size 9 to 14) (size 15 to 20)
#    0.000    1.714    1.429    4.286    0.000    5.714 
#    2.571    0.000    0.000    0.000    0.000    0.000 
#    0.000    0.000    0.000    0.000    0.000    0.000 
#
# Total GULP energy -156416.998751 kJ/mol
# GULP energy per Si atom -5586.321384 kJ/mol
# Density = 1.815943 g / cm^3
# Si number density = 18.200855 Si / 1000 Ang^3
#
#
#
# Elastic Constant Matrix: (Units=GPa)
#
#
# Indices 1 2 3 4 5 6 
#
# 1 85.8918 56.3320 66.1453 0.0000 18.1707 0.0000
# 2 56.3320 115.8293 76.2286 0.0000 9.3879 0.0000
# 3 66.1453 76.2286 125.8843 0.0000 13.6719 0.0000
# 4 0.0000 0.0000 0.0000 37.9953 0.0000 -1.1921
# 5 18.1707 9.3879 13.6719 0.0000 28.8261 0.0000
# 6 0.0000 0.0000 0.0000 -1.1921 0.0000 29.2113
#
#
#
# Elastic Compliance Matrix: (Units=1/GPa)
#
#
# Indices 1 2 3 4 5 6 
#
# 1 0.023191 -0.005274 -0.008003 0.000000 -0.009105 0.000000
# 2 -0.005274 0.015562 -0.006814 0.000000 0.001488 0.000000
# 3 -0.008003 -0.006814 0.016327 0.000000 -0.000480 0.000000
# 4 0.000000 0.000000 0.000000 0.026353 0.000000 0.001075
# 5 -0.009105 0.001488 -0.000480 0.000000 0.040173 0.000000
# 6 0.000000 0.000000 0.000000 0.001075 0.000000 0.034277
#
#
# Mechanical properties :
#
#
# Convention : Reuss Voigt Hill
#
# Bulk Modulus (GPa) = 67.12140 80.55745 73.83943
# Shear Modulus (GPa) = 24.87178 27.79984 26.33581
#
# Velocity S-wave (km/s) = 3.70065 3.91243 3.80801
# Velocity P-wave (km/s) = 7.43088 8.04772 7.74544
#
# Compressibility (1/GPa) = 0.01489838
#
# Stress axis : x y z
#
# Youngs Moduli (GPa) = 43.12081 64.25933 61.24674
#
# Poissons Ratio (x) = 0.33887 0.49017
# Poissons Ratio (y) = 0.22740 0.41734
# Poissons Ratio (z) = 0.34510 0.43787
#
# Static dielectric constant tensor:
#      x y z
#    x 1.608730 0.000000 0.002240 
#    y 0.000000 1.617930 0.000000 
#    z 0.002240 0.000000 1.621650 
# 
# From -- ./inp_files/28386.got.cif
#   From: 2010.05.17/outbox.cif.g08.bks.cpg/sg11_15_cif.got.tgz:28386.got - 2010.06.03 12:22:45.
