data_PCOD9163705
_publ_section_title
;
Structure prediction by ZEFSAII (Michael W. Deem and Ramdas Pophale) SiO2 
 PCOD9163705
Probable space group: P 21/M
;
_chemical_formula_sum "Si O2"
_cell_formula_units_Z 28
_cell_length_a 11.963310
_cell_length_b 8.898751
_cell_length_c 15.901329
_cell_angle_alpha 90.000000
_cell_angle_beta 58.620802
_cell_angle_gamma 90.000000
_cell_volume 1445.238139
_symmetry_space_group_name_H-M "P 21/M"
_symmetry_group_IT_number 11
_symmetry_cell_setting 'monoclinic'
loop_
_space_group_symop_operation_xyz
x,y,z
-x,1/2+y,-z
-x,-y,-z
x,1/2-y,z
loop_
_atom_site_type_symbol
_atom_site_label
_atom_site_fract_x
_atom_site_fract_y
_atom_site_fract_z
Si Si1 0.917560 0.570192 0.108140
Si Si2 0.917989 0.072863 0.649370
Si Si3 0.853598 0.070903 0.861111
Si Si4 0.451160 0.072424 0.432837
Si Si5 0.814188 0.425316 0.507767
Si Si6 0.405001 0.070542 0.967354
Si Si7 0.385874 0.431908 0.783422
O O1 0.915824 0.750000 0.097769
O O2 0.766600 0.521224 0.167707
O O3 0.002386 0.537324 0.158313
O O4 0.000000 0.500000 0.000000
O O5 0.955657 0.250000 0.637701
O O6 0.849952 0.036102 0.763811
O O7 0.827560 0.054202 0.603210
O O8 0.046695 0.974002 0.584698
O O9 0.830409 0.250000 0.881098
O O10 0.742217 0.981628 0.953732
O O11 0.469281 0.250000 0.427993
O O12 0.500000 0.000000 0.500000
O O13 0.299838 0.028622 0.481976
O O14 0.528078 0.003428 0.323357
O O15 0.787175 0.250000 0.501521
O O16 0.414708 0.250000 0.968425
O O17 0.431978 0.026628 0.859760
O O18 0.500000 0.000000 0.000000
O O19 0.392240 0.250000 0.774163
#
# Coordination Sequence:
#
# PCOD9163705 Si02
#       7
#     4   4   4   4   4   4   4
#     4  10  20  37  61  88 121 157 199 247 300 360
#     4   9  20  38  62  91 123 161 204 255 312 365
#     4  10  21  37  61  92 122 160 205 252 308 367
#     4  12  27  45  66  92 123 162 210 260 314 376
#     4  10  21  40  63  90 124 160 204 256 312 371
#     4  11  24  41  62  90 128 168 211 258 308 369
#     4  10  23  43  64  90 125 166 205 256 316 367
#
# _framework density 19.37397
#
# number of rings (size 3 to 8) (size 9 to 14) (size 15 to 20)
#    0.000    1.714    1.429    2.143    4.000    2.857 
#    0.000    0.000    0.000    0.000    0.000    0.000 
#    0.000    0.000    0.000    0.000    0.000    0.000 
#
# Total GULP energy -156451.126140 kJ/mol
# GULP energy per Si atom -5587.540219 kJ/mol
# Density = 1.932987 g / cm^3
# Si number density = 19.373970 Si / 1000 Ang^3
#
#
#
# Elastic Constant Matrix: (Units=GPa)
#
#
# Indices 1 2 3 4 5 6 
#
# 1 86.3287 36.8412 25.6477 0.0000 10.7284 0.0000
# 2 36.8412 53.8084 40.2780 0.0000 14.7782 0.0000
# 3 25.6477 40.2780 93.7183 0.0000 30.7176 0.0000
# 4 0.0000 0.0000 0.0000 31.3688 0.0000 -4.4450
# 5 10.7284 14.7782 30.7176 0.0000 20.8382 0.0000
# 6 0.0000 0.0000 0.0000 -4.4450 0.0000 32.3608
#
#
#
# Elastic Compliance Matrix: (Units=1/GPa)
#
#
# Indices 1 2 3 4 5 6 
#
# 1 0.016418 -0.011534 0.001071 0.000000 -0.001851 0.000000
# 2 -0.011534 0.035676 -0.011280 0.000000 -0.002735 0.000000
# 3 0.001071 -0.011280 0.024735 0.000000 -0.029013 0.000000
# 4 0.000000 0.000000 0.000000 0.032512 0.000000 0.004466
# 5 -0.001851 -0.002735 -0.029013 0.000000 0.093650 0.000000
# 6 0.000000 0.000000 0.000000 0.004466 0.000000 0.031515
#
#
# Mechanical properties :
#
#
# Convention : Reuss Voigt Hill
#
# Bulk Modulus (GPa) = 29.99167 48.82103 39.40635
# Shear Modulus (GPa) = 17.29478 25.65279 21.47378
#
# Velocity S-wave (km/s) = 2.99102 3.64275 3.33285
# Velocity P-wave (km/s) = 5.23854 6.55338 5.93250
#
# Compressibility (1/GPa) = 0.03334259
#
# Stress axis : x y z
#
# Youngs Moduli (GPa) = 60.90981 28.03006 40.42935
#
# Poissons Ratio (x) = 0.32329 -0.04329
# Poissons Ratio (y) = 0.70252 0.45603
# Poissons Ratio (z) = -0.06522 0.31617
#
# Static dielectric constant tensor:
#      x y z
#    x 1.686080 0.000000 0.016870 
#    y 0.000000 1.647730 0.000000 
#    z 0.016870 0.000000 1.649990 
# 
# From -- ./inp_files/48862.got.cif
#   From: 2010.05.17/outbox.cif.g08.bks.cpg/sg11_25_cif.got.tgz:48862.got - 2010.06.03 12:22:45.
