data_PCOD9163566
_publ_section_title
;
Structure prediction by ZEFSAII (Michael W. Deem and Ramdas Pophale) SiO2 
 PCOD9163566
Probable space group: P 21/M
;
_chemical_formula_sum "Si O2"
_cell_formula_units_Z 24
_cell_length_a 5.340856
_cell_length_b 24.197513
_cell_length_c 9.880057
_cell_angle_alpha 90.000000
_cell_angle_beta 113.790072
_cell_angle_gamma 90.000000
_cell_volume 1168.358665
_symmetry_space_group_name_H-M "P 21/M"
_symmetry_group_IT_number 11
_symmetry_cell_setting 'monoclinic'
loop_
_space_group_symop_operation_xyz
x,y,z
-x,1/2+y,-z
-x,-y,-z
x,1/2-y,z
loop_
_atom_site_type_symbol
_atom_site_label
_atom_site_fract_x
_atom_site_fract_y
_atom_site_fract_z
Si Si1 0.419226 0.814444 0.986091
Si Si2 0.198283 0.921562 0.422558
Si Si3 0.634482 0.534451 0.909336
Si Si4 0.177065 0.619917 0.716663
Si Si5 0.007301 0.624889 0.101255
Si Si6 0.242669 0.031187 0.351630
O O1 0.425301 0.750000 0.021178
O O2 0.730404 0.837761 0.047693
O O3 0.237921 0.848270 0.055910
O O4 0.256060 0.823673 0.807711
O O5 0.147360 0.887479 0.548842
O O6 0.508588 0.945017 0.504372
O O7 0.124644 0.885898 0.276658
O O8 0.058157 0.982578 0.377145
O O9 0.424514 0.581881 0.820075
O O10 0.671362 0.505230 0.773392
O O11 0.500000 0.500000 0.000000
O O12 0.903305 0.566090 0.019437
O O13 0.917322 0.587423 0.717733
#
# Coordination Sequence:
#
# PCOD9163566 Si02
#       6
#     4   4   4   4   4   4
#     4  11  25  47  71  91 120 167 228 288 335 377
#     4  10  23  35  61  94 136 173 205 255 322 402
#     4  10  21  34  59  95 133 175 216 255 314 395
#     4  10  21  39  59  90 127 169 217 261 324 383
#     4  11  24  42  68  97 128 168 217 278 327 384
#     4  10  20  37  59  93 136 179 208 247 315 404
#
# _framework density 20.541637999999999
#
# number of rings (size 3 to 8) (size 9 to 14) (size 15 to 20)
#    0.000    1.667    1.667    2.000    7.000    2.667 
#    0.000    1.667    0.000    0.000    0.000    0.000 
#    0.000    0.000    0.000    0.000    0.000    0.000 
#
# Total GULP energy -133764.104409 kJ/mol
# GULP energy per Si atom -5573.504350 kJ/mol
# Density = 2.049488 g / cm^3
# Si number density = 20.541638 Si / 1000 Ang^3
#
#
#
# Elastic Constant Matrix: (Units=GPa)
#
#
# Indices 1 2 3 4 5 6 
#
# 1 75.1361 17.9529 30.8013 0.0000 -5.3916 0.0000
# 2 17.9529 65.8120 34.5293 0.0000 -4.3016 0.0000
# 3 30.8013 34.5293 168.3303 0.0000 -18.0873 0.0000
# 4 0.0000 0.0000 0.0000 20.5318 0.0000 -0.5669
# 5 -5.3916 -4.3016 -18.0873 0.0000 37.7989 0.0000
# 6 0.0000 0.0000 0.0000 -0.5669 0.0000 26.0984
#
#
#
# Elastic Compliance Matrix: (Units=1/GPa)
#
#
# Indices 1 2 3 4 5 6 
#
# 1 0.014906 -0.002945 -0.002036 0.000000 0.000817 0.000000
# 2 -0.002945 0.017612 -0.003061 0.000000 0.000119 0.000000
# 3 -0.002036 -0.003061 0.007245 0.000000 0.002828 0.000000
# 4 0.000000 0.000000 0.000000 0.048734 0.000000 0.001059
# 5 0.000817 0.000119 0.002828 0.000000 0.027939 0.000000
# 6 0.000000 0.000000 0.000000 0.001059 0.000000 0.038339
#
#
# Mechanical properties :
#
#
# Convention : Reuss Voigt Hill
#
# Bulk Modulus (GPa) = 42.22988 52.87170 47.55079
# Shear Modulus (GPa) = 27.97171 31.95214 29.96192
#
# Velocity S-wave (km/s) = 3.69414 3.94824 3.82330
# Velocity P-wave (km/s) = 6.22883 6.82491 6.53367
#
# Compressibility (1/GPa) = 0.02367992
#
# Stress axis : x y z
#
# Youngs Moduli (GPa) = 67.08746 56.77969 138.02668
#
# Poissons Ratio (x) = 0.16720 0.28098
# Poissons Ratio (y) = 0.19756 0.42250
# Poissons Ratio (z) = 0.13657 0.17380
#
# Static dielectric constant tensor:
#      x y z
#    x 1.983120 0.000000 0.027960 
#    y 0.000000 1.789740 0.000000 
#    z 0.027960 0.000000 1.835140 
# 
# From -- ./inp_files/5430.got.cif
#   From: 2010.05.17/outbox.cif.g08.bks.cpg/sg11_3_cif.got.tgz:5430.got - 2010.06.03 12:22:45.
