data_PCOD9163481
_publ_section_title
;
Structure prediction by ZEFSAII (Michael W. Deem and Ramdas Pophale) SiO2 
 PCOD9163481
Probable space group: P 21/M
;
_chemical_formula_sum "Si O2"
_cell_formula_units_Z 32
_cell_length_a 32.180196
_cell_length_b 10.817980
_cell_length_c 5.232572
_cell_angle_alpha 90.000000
_cell_angle_beta 123.434396
_cell_angle_gamma 90.000000
_cell_volume 1520.146306
_symmetry_space_group_name_H-M "P 21/M"
_symmetry_group_IT_number 11
_symmetry_cell_setting 'monoclinic'
loop_
_space_group_symop_operation_xyz
x,y,z
-x,1/2+y,-z
-x,-y,-z
x,1/2-y,z
loop_
_atom_site_type_symbol
_atom_site_label
_atom_site_fract_x
_atom_site_fract_y
_atom_site_fract_z
Si Si1 0.784930 0.382443 0.872519
Si Si2 0.109146 0.105297 0.379997
Si Si3 0.390854 0.394702 0.620006
Si Si4 0.190231 0.111416 0.282472
Si Si5 0.690231 0.611416 0.282468
Si Si6 0.455996 0.101028 0.355621
Si Si7 0.284930 0.882443 0.872522
Si Si8 0.044004 0.101028 0.644383
O O1 0.811742 0.250000 0.978520
O O2 0.818044 0.503273 0.947997
O O3 0.750000 0.377764 0.499999
O O4 0.750000 0.392914 1.000000
O O5 0.116239 0.250000 0.454154
O O6 0.163002 0.067057 0.447819
O O7 0.079544 0.062101 0.528198
O O8 0.073608 0.090893 0.011600
O O9 0.383761 0.250000 0.545847
O O10 0.336997 0.432942 0.552182
O O11 0.420457 0.437900 0.471809
O O12 0.426391 0.409107 0.988403
O O13 0.171809 0.250000 0.156937
O O14 0.250000 0.122704 0.500004
O O15 0.671809 0.750000 0.156933
O O16 0.681956 0.503272 0.051999
O O17 0.469427 0.250000 0.430770
O O18 0.500000 0.000000 0.500000
O O19 0.311743 0.750000 0.978524
O O20 0.030573 0.250000 0.569233
O O21 0.000000 0.000000 0.500000
#
# Coordination Sequence:
#
# PCOD9163481 Si02
#       8
#     4   4   4   4   4   4   4   4
#     4   9  18  32  48  67  96 135 174 212 255 295
#     4   9  19  34  54  81 111 140 171 216 271 315
#     4   9  19  34  54  81 111 140 171 216 271 315
#     4   9  18  33  54  80 109 143 182 217 252 308
#     4   9  18  33  54  80 109 143 182 217 252 308
#     4  10  20  37  58  79 106 138 174 220 273 321
#     4   9  18  32  48  67  96 135 174 212 255 295
#     4  10  20  37  58  79 106 138 174 220 273 321
#
# _framework density 21.050602999999999
#
# number of rings (size 3 to 8) (size 9 to 14) (size 15 to 20)
#    0.000    2.750    0.000    0.750    0.000    4.500 
#    0.000   10.000    0.000    0.000    0.000    0.000 
#    0.000    0.000    0.000    0.000    0.000    0.000 
#
# Total GULP energy -178136.201219 kJ/mol
# GULP energy per Si atom -5566.756288 kJ/mol
# Density = 2.100269 g / cm^3
# Si number density = 21.050603 Si / 1000 Ang^3
#
#
#
# Elastic Constant Matrix: (Units=GPa)
#
#
# Indices 1 2 3 4 5 6 
#
# 1 183.7276 60.6122 67.2057 0.0000 -21.4347 0.0000
# 2 60.6122 150.3812 14.5554 0.0000 -11.7758 0.0000
# 3 67.2057 14.5554 94.5691 0.0000 -25.3155 0.0000
# 4 0.0000 0.0000 0.0000 -2.1363 0.0000 -5.5118
# 5 -21.4347 -11.7758 -25.3155 0.0000 44.7259 0.0000
# 6 0.0000 0.0000 0.0000 -5.5118 0.0000 34.7144
#
#
#
# Elastic Compliance Matrix: (Units=1/GPa)
#
#
# Indices 1 2 3 4 5 6 
#
# 1 0.008411 -0.002845 -0.005493 0.000000 0.000173 0.000000
# 2 -0.002845 0.007788 0.001187 0.000000 0.001359 0.000000
# 3 -0.005493 0.001187 0.016116 0.000000 0.006802 0.000000
# 4 0.000000 0.000000 0.000000 -0.332072 0.000000 -0.052725
# 5 0.000173 0.001359 0.006802 0.000000 0.026649 0.000000
# 6 0.000000 0.000000 0.000000 -0.052725 0.000000 0.020435
#
#
# Mechanical properties :
#
#
# Convention : Reuss Voigt Hill
#
# Bulk Modulus (GPa) = 55.51680 79.26939 67.39309
# Shear Modulus (GPa) = -21.51769 34.54778 6.51505
#
# Velocity S-wave (km/s) = -3.20064 4.05554 1.76115
# Velocity P-wave (km/s) = 3.57372 7.72452 6.01829
#
# Compressibility (1/GPa) = 0.01801257
#
# Stress axis : x y z
#
# Youngs Moduli (GPa) = 118.89447 128.40375 62.04972
#
# Poissons Ratio (x) = 0.36529 0.34084
# Poissons Ratio (y) = 0.33824 -0.07364
# Poissons Ratio (z) = 0.65310 -0.15239
#
# Static dielectric constant tensor:
#      x y z
#    x 1.823850 0.000000 0.031090 
#    y 0.000000 1.847200 0.000000 
#    z 0.031090 0.000000 1.873900 
# 
# From -- ./inp_files/9430.got.cif
#   From: 2010.05.17/outbox.cif.g08.bks.cpg/sg11_5_cif.got.tgz:9430.got - 2010.06.03 12:22:45.
