data_PCOD9163656
_publ_section_title
;
Structure prediction by ZEFSAII (Michael W. Deem and Ramdas Pophale) SiO2 
 PCOD9163656
Probable space group: P 21/M
;
_chemical_formula_sum "Si O2"
_cell_formula_units_Z 28
_cell_length_a 11.291604
_cell_length_b 7.778354
_cell_length_c 14.171504
_cell_angle_alpha 90.000000
_cell_angle_beta 79.108768
_cell_angle_gamma 90.000000
_cell_volume 1222.264809
_symmetry_space_group_name_H-M "P 21/M"
_symmetry_group_IT_number 11
_symmetry_cell_setting 'monoclinic'
loop_
_space_group_symop_operation_xyz
x,y,z
-x,1/2+y,-z
-x,-y,-z
x,1/2-y,z
loop_
_atom_site_type_symbol
_atom_site_label
_atom_site_fract_x
_atom_site_fract_y
_atom_site_fract_z
Si Si1 0.944041 0.049677 0.212466
Si Si2 0.689291 0.049911 0.204370
Si Si3 0.529935 0.954196 0.388495
Si Si4 0.202038 0.045465 0.201735
Si Si5 0.909445 0.947841 0.429276
Si Si6 0.268315 0.544067 0.394145
Si Si7 0.468584 0.457411 0.111737
O O1 0.949214 0.250000 0.184049
O O2 0.823874 0.972850 0.182627
O O3 0.077940 0.974514 0.176117
O O4 0.921841 0.044890 0.329081
O O5 0.699834 0.250000 0.176023
O O6 0.580051 0.974337 0.158584
O O7 0.640602 0.039862 0.318946
O O8 0.545531 0.750000 0.378638
O O9 0.405989 0.008473 0.355436
O O10 0.500000 0.000000 0.500000
O O11 0.203416 0.250000 0.183810
O O12 0.333096 0.974936 0.152805
O O13 0.193634 0.017116 0.315531
O O14 0.930728 0.750000 0.403052
O O15 0.781328 0.970322 0.500657
O O16 0.000000 0.000000 0.500000
O O17 0.262516 0.750000 0.401575
O O18 0.464190 0.250000 0.126143
O O19 0.500000 0.500000 0.000000
#
# Coordination Sequence:
#
# PCOD9163656 Si02
#       7
#     4   4   4   4   4   4   4
#     4  10  21  37  58  85 118 156 197 248 300 348
#     4  10  21  39  61  87 120 155 198 248 303 360
#     4  11  23  36  54  82 118 160 203 247 295 350
#     4  10  20  37  61  85 112 149 193 238 293 355
#     4  12  23  34  51  79 118 163 209 249 291 348
#     4  11  22  35  53  80 113 152 201 251 294 340
#     4  10  22  41  66  92 117 152 196 248 309 370
#
# _framework density 22.908294000000001
#
# number of rings (size 3 to 8) (size 9 to 14) (size 15 to 20)
#    0.000    1.429    2.857    3.000    0.000    6.857 
#    0.000    0.714    0.000    0.000    0.000    0.000 
#    0.000    0.000    0.000    0.000    0.000    0.000 
#
# Total GULP energy -156385.098956 kJ/mol
# GULP energy per Si atom -5585.182106 kJ/mol
# Density = 2.285615 g / cm^3
# Si number density = 22.908294 Si / 1000 Ang^3
#
#
#
# Elastic Constant Matrix: (Units=GPa)
#
#
# Indices 1 2 3 4 5 6 
#
# 1 215.0185 12.7306 45.4459 0.0000 -8.3584 0.0000
# 2 12.7306 45.3013 -15.7459 0.0000 -2.4293 0.0000
# 3 45.4459 -15.7459 69.1021 0.0000 -3.4587 0.0000
# 4 0.0000 0.0000 0.0000 21.5013 0.0000 -0.5052
# 5 -8.3584 -2.4293 -3.4587 0.0000 20.9588 0.0000
# 6 0.0000 0.0000 0.0000 -0.5052 0.0000 10.8617
#
#
#
# Elastic Compliance Matrix: (Units=1/GPa)
#
#
# Indices 1 2 3 4 5 6 
#
# 1 0.005833 -0.003134 -0.004489 0.000000 0.001222 0.000000
# 2 -0.003134 0.025947 0.008128 0.000000 0.003099 0.000000
# 3 -0.004489 0.008128 0.019393 0.000000 0.002352 0.000000
# 4 0.000000 0.000000 0.000000 0.046560 0.000000 0.002166
# 5 0.001222 0.003099 0.002352 0.000000 0.048947 0.000000
# 6 0.000000 0.000000 0.000000 0.002166 0.000000 0.092168
#
#
# Mechanical properties :
#
#
# Convention : Reuss Voigt Hill
#
# Bulk Modulus (GPa) = 19.16293 46.03145 32.59719
# Shear Modulus (GPa) = 19.59017 29.79711 24.69364
#
# Velocity S-wave (km/s) = 2.92748 3.61045 3.28675
# Velocity P-wave (km/s) = 4.45085 6.12519 5.35387
#
# Compressibility (1/GPa) = 0.05218410
#
# Stress axis : x y z
#
# Youngs Moduli (GPa) = 171.45196 38.54082 51.56418
#
# Poissons Ratio (x) = 0.12078 0.23146
# Poissons Ratio (y) = 0.53729 -0.41913
# Poissons Ratio (z) = 0.76960 -0.31327
#
# Static dielectric constant tensor:
#      x y z
#    x 2.010770 0.000000 -0.126170 
#    y 0.000000 1.811380 0.000000 
#    z -0.126170 0.000000 4.831280 
# 
# From -- ./inp_files/48919.got.cif
#   From: 2010.05.17/outbox.cif.g08.bks.cpg/sg11_25_cif.got.tgz:48919.got - 2010.06.03 12:22:45.
