data_PCOD9163132
_publ_section_title
;
Structure prediction by ZEFSAII (Michael W. Deem and Ramdas Pophale) SiO2 
 PCOD9163132
Probable space group: P 21/M
;
_chemical_formula_sum "Si O2"
_cell_formula_units_Z 20
_cell_length_a 6.463487
_cell_length_b 10.240597
_cell_length_c 16.154433
_cell_angle_alpha 90.000000
_cell_angle_beta 98.954564
_cell_angle_gamma 90.000000
_cell_volume 1056.229296
_symmetry_space_group_name_H-M "P 21/M"
_symmetry_group_IT_number 11
_symmetry_cell_setting 'monoclinic'
loop_
_space_group_symop_operation_xyz
x,y,z
-x,1/2+y,-z
-x,-y,-z
x,1/2-y,z
loop_
_atom_site_type_symbol
_atom_site_label
_atom_site_fract_x
_atom_site_fract_y
_atom_site_fract_z
Si Si1 0.390692 0.388802 0.908057
Si Si2 0.319263 0.095548 0.522947
Si Si3 0.210499 0.468452 0.063560
Si Si4 0.084336 0.601412 0.620834
Si Si5 0.915205 0.104448 0.184674
O O1 0.320400 0.250000 0.870368
O O2 0.636017 0.411663 0.908375
O O3 0.254460 0.501720 0.858261
O O4 0.346695 0.390908 0.004192
O O5 0.375280 0.250000 0.540762
O O6 0.130835 0.096177 0.444235
O O7 0.500000 0.000000 0.500000
O O8 0.228263 0.016321 0.596373
O O9 0.125574 0.408459 0.142868
O O10 0.000000 0.500000 0.000000
O O11 0.172628 0.750000 0.612921
O O12 0.044756 0.586889 0.715862
O O13 0.830803 0.250000 0.165698
#
# Coordination Sequence:
#
# PCOD9163132 Si02
#       5
#     4   4   4   4   4
#     4  10  21  36  55  81 111 143 184 231 276 324
#     4  10  20  36  59  84 111 144 180 221 271 326
#     4   9  20  35  54  77 107 145 182 221 271 324
#     4   9  20  38  57  80 110 143 182 225 269 324
#     4  10  21  37  57  80 108 144 184 226 273 325
#
# _framework density 18.935283999999999
#
# number of rings (size 3 to 8) (size 9 to 14) (size 15 to 20)
#    0.000    2.400    0.000    1.200    0.000   14.400 
#    0.000    4.000    0.000    0.000    0.000    0.000 
#    0.000    0.000    0.000    0.000    0.000    0.000 
#
# Total GULP energy -111351.265872 kJ/mol
# GULP energy per Si atom -5567.563294 kJ/mol
# Density = 1.889219 g / cm^3
# Si number density = 18.935284 Si / 1000 Ang^3
#
#
#
# Elastic Constant Matrix: (Units=GPa)
#
#
# Indices 1 2 3 4 5 6 
#
# 1 65.9576 49.3068 26.4938 0.0000 -19.2248 0.0000
# 2 49.3068 174.0622 64.6211 0.0000 -16.0089 0.0000
# 3 26.4938 64.6211 114.3079 0.0000 -15.9016 0.0000
# 4 0.0000 0.0000 0.0000 17.6269 0.0000 5.9990
# 5 -19.2248 -16.0089 -15.9016 0.0000 16.3467 0.0000
# 6 0.0000 0.0000 0.0000 5.9990 0.0000 26.6275
#
#
#
# Elastic Compliance Matrix: (Units=1/GPa)
#
#
# Indices 1 2 3 4 5 6 
#
# 1 0.026702 -0.005301 0.000526 0.000000 0.026723 0.000000
# 2 -0.005301 0.008513 -0.003806 0.000000 -0.001601 0.000000
# 3 0.000526 -0.003806 0.011965 0.000000 0.008529 0.000000
# 4 0.000000 0.000000 0.000000 0.061442 0.000000 -0.013843
# 5 0.026723 -0.001601 0.008529 0.000000 0.099332 0.000000
# 6 0.000000 0.000000 0.000000 -0.013843 0.000000 0.040674
#
#
# Mechanical properties :
#
#
# Convention : Reuss Voigt Hill
#
# Bulk Modulus (GPa) = 33.31620 70.57457 51.94539
# Shear Modulus (GPa) = 18.12924 26.38062 22.25493
#
# Velocity S-wave (km/s) = 3.09760 3.73661 3.43201
# Velocity P-wave (km/s) = 5.51602 7.48122 6.57249
#
# Compressibility (1/GPa) = 0.03001543
#
# Stress axis : x y z
#
# Youngs Moduli (GPa) = 37.45023 117.47157 83.57783
#
# Poissons Ratio (x) = 0.62275 -0.04392
# Poissons Ratio (y) = 0.19853 0.31813
# Poissons Ratio (z) = -0.01968 0.44714
#
# Static dielectric constant tensor:
#      x y z
#    x 1.661540 0.000000 -0.023230 
#    y 0.000000 1.697200 0.000000 
#    z -0.023230 0.000000 1.647180 
# 
# From -- ./inp_files/45574.got.cif
#   From: 2010.05.17/outbox.cif.g08.bks.cpg/sg11_23_cif.got.tgz:45574.got - 2010.06.03 12:22:45.
