data_PCOD9163581
_publ_section_title
;
Structure prediction by ZEFSAII (Michael W. Deem and Ramdas Pophale) SiO2 
 PCOD9163581
Probable space group: P 21/M
;
_chemical_formula_sum "Si O2"
_cell_formula_units_Z 32
_cell_length_a 28.063543
_cell_length_b 8.852746
_cell_length_c 23.050830
_cell_angle_alpha 90.000000
_cell_angle_beta 162.438894
_cell_angle_gamma 90.000000
_cell_volume 1727.886274
_symmetry_space_group_name_H-M "P 21/M"
_symmetry_group_IT_number 11
_symmetry_cell_setting 'monoclinic'
loop_
_space_group_symop_operation_xyz
x,y,z
-x,1/2+y,-z
-x,-y,-z
x,1/2-y,z
loop_
_atom_site_type_symbol
_atom_site_label
_atom_site_fract_x
_atom_site_fract_y
_atom_site_fract_z
Si Si1 0.523380 0.431460 0.463693
Si Si2 0.518544 0.927740 0.958779
Si Si3 0.137322 0.429144 0.698000
Si Si4 0.727928 0.431269 0.032651
Si Si5 0.859904 0.432168 0.798711
Si Si6 0.777758 0.931802 0.963996
Si Si7 0.391381 0.069114 0.698526
Si Si8 0.908019 0.932100 0.727337
O O1 0.500000 0.500000 0.500000
O O2 0.521860 0.250000 0.466965
O O3 0.691414 0.474970 0.631164
O O4 0.379448 0.474831 0.254405
O O5 0.490522 0.750000 0.930110
O O6 0.696470 0.952831 0.142151
O O7 0.500000 0.000000 0.000000
O O8 0.405891 0.997137 0.778762
O O9 0.113448 0.250000 0.677669
O O10 0.157568 0.508159 0.783848
O O11 0.000000 0.500000 0.500000
O O12 0.738758 0.250000 0.041212
O O13 0.764464 0.505813 0.013631
O O14 0.549544 0.472187 0.846088
O O15 0.870980 0.250000 0.810039
O O16 0.874271 0.498539 0.751044
O O17 0.000000 0.500000 0.000000
O O18 0.789813 0.750000 0.978583
O O19 0.929291 0.002824 0.108647
O O20 0.392848 0.250000 0.706691
O O21 0.235485 0.026330 0.482340
O O22 0.915796 0.750000 0.740224
#
# Coordination Sequence:
#
# PCOD9163581 Si02
#       8
#     4   4   4   4   4   4   4   4
#     4  10  23  40  60  85 115 150 189 232 279 331
#     4  10  21  36  57  83 112 146 187 232 281 335
#     4  10  21  37  57  83 113 148 188 233 282 337
#     4  10  20  37  60  84 110 146 188 233 283 337
#     4  11  23  40  61  87 117 151 190 234 282 335
#     4  11  23  39  58  84 116 151 189 232 280 334
#     4   9  20  38  59  82 111 146 187 232 282 336
#     4  11  23  39  59  86 117 150 188 234 283 335
#
# _framework density 18.519736999999999
#
# number of rings (size 3 to 8) (size 9 to 14) (size 15 to 20)
#    0.000    1.750    0.000    3.750    0.000    8.000 
#    0.000    1.250    0.000    0.000    0.000    0.000 
#    0.000    0.000    0.000    0.000    0.000    0.000 
#
# Total GULP energy -178861.193884 kJ/mol
# GULP energy per Si atom -5589.412309 kJ/mol
# Density = 1.847759 g / cm^3
# Si number density = 18.519737 Si / 1000 Ang^3
#
#
#
# Elastic Constant Matrix: (Units=GPa)
#
#
# Indices 1 2 3 4 5 6 
#
# 1 188.4439 69.8770 103.5276 0.0000 -21.6470 0.0000
# 2 69.8770 62.8473 70.5394 0.0000 -7.7027 0.0000
# 3 103.5276 70.5394 189.3940 0.0000 -18.3202 0.0000
# 4 0.0000 0.0000 0.0000 33.1461 0.0000 -5.0436
# 5 -21.6470 -7.7027 -18.3202 0.0000 30.6563 0.0000
# 6 0.0000 0.0000 0.0000 -5.0436 0.0000 41.1834
#
#
#
# Elastic Compliance Matrix: (Units=1/GPa)
#
#
# Indices 1 2 3 4 5 6 
#
# 1 0.009907 -0.008394 -0.001928 0.000000 0.003735 0.000000
# 2 -0.008394 0.034472 -0.008476 0.000000 -0.002331 0.000000
# 3 -0.001928 -0.008476 0.009715 0.000000 0.002314 0.000000
# 4 0.000000 0.000000 0.000000 0.030742 0.000000 0.003765
# 5 0.003735 -0.002331 0.002314 0.000000 0.036054 0.000000
# 6 0.000000 0.000000 0.000000 0.003765 0.000000 0.024743
#
#
# Mechanical properties :
#
#
# Convention : Reuss Voigt Hill
#
# Bulk Modulus (GPa) = 60.61327 103.17480 81.89403
# Shear Modulus (GPa) = 26.49292 34.11324 30.30308
#
# Velocity S-wave (km/s) = 3.78633 4.29650 4.04946
# Velocity P-wave (km/s) = 7.20521 8.96911 8.13511
#
# Compressibility (1/GPa) = 0.01649804
#
# Stress axis : x y z
#
# Youngs Moduli (GPa) = 100.93480 29.00876 102.93485
#
# Poissons Ratio (x) = 0.24349 0.19848
# Poissons Ratio (y) = 0.84721 0.87252
# Poissons Ratio (z) = 0.19462 0.24589
#
# Static dielectric constant tensor:
#      x y z
#    x 1.605000 0.000000 0.009410 
#    y 0.000000 1.620310 0.000000 
#    z 0.009410 0.000000 1.622450 
# 
# From -- ./inp_files/67181.got.cif
#   From: 2010.05.17/outbox.cif.g08.bks.cpg/sg11_34_cif.got.tgz:67181.got - 2010.06.03 12:22:45.
