data_PCOD9163389
_publ_section_title
;
Structure prediction by ZEFSAII (Michael W. Deem and Ramdas Pophale) SiO2 
 PCOD9163389
Probable space group: P 21/M
;
_chemical_formula_sum "Si O2"
_cell_formula_units_Z 28
_cell_length_a 11.703146
_cell_length_b 14.392476
_cell_length_c 9.665506
_cell_angle_alpha 90.000000
_cell_angle_beta 118.523549
_cell_angle_gamma 90.000000
_cell_volume 1430.422302
_symmetry_space_group_name_H-M "P 21/M"
_symmetry_group_IT_number 11
_symmetry_cell_setting 'monoclinic'
loop_
_space_group_symop_operation_xyz
x,y,z
-x,1/2+y,-z
-x,-y,-z
x,1/2-y,z
loop_
_atom_site_type_symbol
_atom_site_label
_atom_site_fract_x
_atom_site_fract_y
_atom_site_fract_z
Si Si1 0.981687 0.360745 0.542382
Si Si2 0.537173 0.988728 0.360916
Si Si3 0.689187 0.357502 0.284483
Si Si4 0.781281 0.642617 0.529989
Si Si5 0.959054 0.858663 0.884506
Si Si6 0.375558 0.537185 0.010555
Si Si7 0.103262 0.040256 0.871392
O O1 0.982199 0.250000 0.576492
O O2 0.837834 0.384723 0.406138
O O3 0.091968 0.375110 0.490644
O O4 0.022380 0.422531 0.695473
O O5 0.660077 0.920337 0.423565
O O6 0.420543 0.951784 0.195110
O O7 0.500000 0.000000 0.500000
O O8 0.590207 0.083116 0.320765
O O9 0.673051 0.250000 0.306359
O O10 0.666879 0.376355 0.108789
O O11 0.745217 0.750000 0.489880
O O12 0.831380 0.629453 0.715356
O O13 0.998976 0.750000 0.896404
O O14 0.926485 0.890111 0.020182
O O15 0.060896 0.935669 0.889358
O O16 0.500000 0.500000 0.000000
O O17 0.256549 0.465215 0.932149
#
# Coordination Sequence:
#
# PCOD9163389 Si02
#       7
#     4   4   4   4   4   4   4
#     4  10  20  36  62  91 114 145 193 244 294 345
#     4  11  23  40  60  86 120 159 204 241 283 353
#     4  10  22  40  61  87 120 154 193 245 299 349
#     4  10  21  38  60  86 115 148 190 243 295 345
#     4  10  22  38  58  86 116 148 188 237 300 360
#     4  10  22  38  57  83 115 156 200 236 284 348
#     4  11  21  37  60  85 117 153 187 240 297 343
#
# _framework density 19.574639000000001
#
# number of rings (size 3 to 8) (size 9 to 14) (size 15 to 20)
#    0.000    1.714    0.000    4.714    0.000    5.714 
#    0.000    8.571    0.000    0.000    0.000    0.000 
#    0.000    0.000    0.000    0.000    0.000    0.000 
#
# Total GULP energy -156370.823867 kJ/mol
# GULP energy per Si atom -5584.672281 kJ/mol
# Density = 1.953009 g / cm^3
# Si number density = 19.574639 Si / 1000 Ang^3
#
#
#
# Elastic Constant Matrix: (Units=GPa)
#
#
# Indices 1 2 3 4 5 6 
#
# 1 72.2304 31.9554 42.3907 0.0000 8.7273 0.0000
# 2 31.9554 90.0346 62.9130 0.0000 2.2284 0.0000
# 3 42.3907 62.9130 152.6604 0.0000 -1.7911 0.0000
# 4 0.0000 0.0000 0.0000 27.4358 0.0000 0.3149
# 5 8.7273 2.2284 -1.7911 0.0000 28.4503 0.0000
# 6 0.0000 0.0000 0.0000 0.3149 0.0000 19.3454
#
#
#
# Elastic Compliance Matrix: (Units=1/GPa)
#
#
# Indices 1 2 3 4 5 6 
#
# 1 0.018315 -0.003882 -0.003551 0.000000 -0.005538 0.000000
# 2 -0.003882 0.016497 -0.005726 0.000000 -0.000462 0.000000
# 3 -0.003551 -0.005726 0.009922 0.000000 0.002162 0.000000
# 4 0.000000 0.000000 0.000000 0.036456 0.000000 -0.000593
# 5 -0.005538 -0.000462 0.002162 0.000000 0.037020 0.000000
# 6 0.000000 0.000000 0.000000 -0.000593 0.000000 0.051702
#
#
# Mechanical properties :
#
#
# Convention : Reuss Voigt Hill
#
# Bulk Modulus (GPa) = 54.30117 65.49373 59.89745
# Shear Modulus (GPa) = 24.70743 26.89072 25.79908
#
# Velocity S-wave (km/s) = 3.55662 3.71044 3.63434
# Velocity P-wave (km/s) = 6.68333 7.20330 6.94818
#
# Compressibility (1/GPa) = 0.01841581
#
# Stress axis : x y z
#
# Youngs Moduli (GPa) = 54.59968 60.61568 100.78968
#
# Poissons Ratio (x) = 0.23532 0.35789
# Poissons Ratio (y) = 0.21197 0.57714
# Poissons Ratio (z) = 0.19387 0.34709
#
# Static dielectric constant tensor:
#      x y z
#    x 1.696760 0.000000 0.004030 
#    y 0.000000 1.696250 0.000000 
#    z 0.004030 0.000000 1.707860 
# 
# From -- ./inp_files/18136.got.cif
#   From: 2010.05.17/outbox.cif.g08.bks.cpg/sg11_10_cif.got.tgz:18136.got - 2010.06.03 12:22:45.
