data_PCOD9163658
_publ_section_title
;
Structure prediction by ZEFSAII (Michael W. Deem and Ramdas Pophale) SiO2 
 PCOD9163658
Probable space group: P 21/M
;
_chemical_formula_sum "Si O2"
_cell_formula_units_Z 32
_cell_length_a 14.495652
_cell_length_b 7.959976
_cell_length_c 20.435826
_cell_angle_alpha 90.000000
_cell_angle_beta 139.046041
_cell_angle_gamma 90.000000
_cell_volume 1545.549214
_symmetry_space_group_name_H-M "P 21/M"
_symmetry_group_IT_number 11
_symmetry_cell_setting 'monoclinic'
loop_
_space_group_symop_operation_xyz
x,y,z
-x,1/2+y,-z
-x,-y,-z
x,1/2-y,z
loop_
_atom_site_type_symbol
_atom_site_label
_atom_site_fract_x
_atom_site_fract_y
_atom_site_fract_z
Si Si1 0.894170 0.547278 0.794822
Si Si2 0.174240 0.454551 0.386303
Si Si3 0.201330 0.552920 0.999709
Si Si4 0.311105 0.546626 0.197488
Si Si5 0.862295 0.447235 0.259657
Si Si6 0.628321 0.955675 0.393861
Si Si7 0.638628 0.940884 0.036783
Si Si8 0.842328 0.548671 0.394493
O O1 0.901927 0.750000 0.793570
O O2 0.834300 0.485898 0.693060
O O3 0.793792 0.502136 0.800827
O O4 0.052328 0.482637 0.894000
O O5 0.180882 0.250000 0.389078
O O6 0.301534 0.512390 0.500378
O O7 0.025211 0.498769 0.340005
O O8 0.175931 0.750000 0.997524
O O9 0.316804 0.537142 0.004756
O O10 0.254054 0.482262 0.097056
O O11 0.317013 0.750000 0.197511
O O12 0.469319 0.487282 0.297244
O O13 0.853709 0.250000 0.238206
O O14 0.765751 0.541711 0.156315
O O15 0.813741 0.475066 0.307640
O O16 0.628070 0.750000 0.394177
O O17 0.730924 0.007077 0.389550
O O18 0.618330 0.750000 0.006041
O O19 0.500000 0.000000 0.000000
O O20 0.834892 0.750000 0.386129
O O21 0.000000 0.500000 0.500000
#
# Coordination Sequence:
#
# PCOD9163658 Si02
#       8
#     4   4   4   4   4   4   4   4
#     4  10  20  37  61  85 113 154 203 252 306 366
#     4   9  17  34  60  84 114 157 197 240 300 360
#     4  10  21  40  63  87 119 160 201 246 305 363
#     4  10  22  38  59  86 118 155 198 251 306 364
#     4  11  21  39  62  87 121 160 201 249 303 364
#     4   9  19  36  56  83 119 159 198 240 302 364
#     4  12  26  42  62  92 126 160 199 246 301 363
#     4  11  21  35  58  88 119 161 207 250 301 362
#
# _framework density 20.704613999999999
#
# number of rings (size 3 to 8) (size 9 to 14) (size 15 to 20)
#    0.000    1.750    2.500    2.250    1.750    1.500 
#    0.000    1.250    0.000    0.000    0.000    0.000 
#    0.000    0.000    0.000    0.000    0.000    0.000 
#
# Total GULP energy -178792.159634 kJ/mol
# GULP energy per Si atom -5587.254989 kJ/mol
# Density = 2.065749 g / cm^3
# Si number density = 20.704614 Si / 1000 Ang^3
#
#
#
# Elastic Constant Matrix: (Units=GPa)
#
#
# Indices 1 2 3 4 5 6 
#
# 1 149.3033 -10.8572 82.2618 0.0000 -13.3948 0.0000
# 2 -10.8572 16.0657 0.5897 0.0000 2.7796 0.0000
# 3 82.2618 0.5897 126.3977 0.0000 -23.3924 0.0000
# 4 0.0000 0.0000 0.0000 13.0045 0.0000 -2.2220
# 5 -13.3948 2.7796 -23.3924 0.0000 38.6105 0.0000
# 6 0.0000 0.0000 0.0000 -2.2220 0.0000 29.5609
#
#
#
# Elastic Compliance Matrix: (Units=1/GPa)
#
#
# Indices 1 2 3 4 5 6 
#
# 1 0.011434 0.008236 -0.007721 0.000000 -0.001304 0.000000
# 2 0.008236 0.069146 -0.006842 0.000000 -0.006266 0.000000
# 3 -0.007721 -0.006842 0.014151 0.000000 0.006387 0.000000
# 4 0.000000 0.000000 0.000000 0.077897 0.000000 0.005855
# 5 -0.001304 -0.006266 0.006387 0.000000 0.029768 0.000000
# 6 0.000000 0.000000 0.000000 0.005855 0.000000 0.034269
#
#
# Mechanical properties :
#
#
# Convention : Reuss Voigt Hill
#
# Bulk Modulus (GPa) = 12.18398 48.41728 30.30063
# Shear Modulus (GPa) = 18.07163 30.88667 24.47915
#
# Velocity S-wave (km/s) = 2.95758 3.86654 3.44220
# Velocity P-wave (km/s) = 4.19052 6.58552 5.51949
#
# Compressibility (1/GPa) = 0.08207499
#
# Stress axis : x y z
#
# Youngs Moduli (GPa) = 87.46007 14.46222 70.66857
#
# Poissons Ratio (x) = -0.11911 0.54564
# Poissons Ratio (y) = -0.72032 0.48355
# Poissons Ratio (z) = 0.67529 0.09896
#
# Static dielectric constant tensor:
#      x y z
#    x 1.655280 0.000000 -0.000740 
#    y 0.000000 1.745730 0.000000 
#    z -0.000740 0.000000 1.733310 
# 
# From -- ./inp_files/65236.got.cif
#   From: 2010.05.17/outbox.cif.g08.bks.cpg/sg11_33_cif.got.tgz:65236.got - 2010.06.03 12:22:45.
