data_PCOD9163903
_publ_section_title
;
Structure prediction by ZEFSAII (Michael W. Deem and Ramdas Pophale) SiO2 
 PCOD9163903
Probable space group: P 21/M
;
_chemical_formula_sum "Si O2"
_cell_formula_units_Z 30
_cell_length_a 10.185565
_cell_length_b 22.357818
_cell_length_c 5.191602
_cell_angle_alpha 90.000000
_cell_angle_beta 96.534322
_cell_angle_gamma 90.000000
_cell_volume 1174.587820
_symmetry_space_group_name_H-M "P 21/M"
_symmetry_group_IT_number 11
_symmetry_cell_setting 'monoclinic'
loop_
_space_group_symop_operation_xyz
x,y,z
-x,1/2+y,-z
-x,-y,-z
x,1/2-y,z
loop_
_atom_site_type_symbol
_atom_site_label
_atom_site_fract_x
_atom_site_fract_y
_atom_site_fract_z
Si Si1 0.315290 0.460569 0.887123
Si Si2 0.333430 0.680508 0.444849
Si Si3 0.526347 0.363093 0.038471
Si Si4 0.837441 0.656159 0.272320
Si Si5 0.364084 0.250000 0.871223
Si Si6 0.807188 0.008247 0.653128
Si Si7 0.970610 0.090719 0.337842
Si Si8 0.909758 0.186341 0.945015
O O1 0.449433 0.426066 0.996589
O O2 0.294202 0.484818 0.592373
O O3 0.211660 0.405322 0.863868
O O4 0.268896 0.507426 0.093281
O O5 0.379773 0.750000 0.469210
O O6 0.403988 0.650946 0.215776
O O7 0.181056 0.684267 0.328567
O O8 0.373555 0.643477 0.702899
O O9 0.432034 0.304769 0.052391
O O10 0.925461 0.638643 0.532405
O O11 0.937509 0.687493 0.100037
O O12 0.716031 0.697817 0.309595
O O13 0.934186 0.964190 0.719969
O O14 0.876030 0.065208 0.539155
O O15 0.893563 0.125950 0.101230
O O16 0.872956 0.250000 0.068850
#
# Coordination Sequence:
#
# PCOD9163903 Si02
#       8
#     4   4   4   4   2   4   4   4
#     4  10  21  38  65  95 123 156 210 267 314 370
#     4  11  23  41  62  87 123 175 216 247 308 376
#     4  11  22  42  64  90 123 167 214 263 310 366
#     4  10  21  37  56  96 123 165 195 252 328 362
#     4  10  20  38  60  88 130 156 204 262 310 376
#     4  10  21  39  65  94 129 164 208 256 321 383
#     4  10  23  37  61  91 132 168 204 253 317 388
#     4  11  24  39  61  91 132 168 211 256 306 391
#
# _framework density 25.540872
#
# number of rings (size 3 to 8) (size 9 to 14) (size 15 to 20)
#    0.000    1.600    3.333    0.800    4.667    1.600 
#    2.400    0.000    0.000    4.800    0.000    0.000 
#    0.000    0.000    0.000    0.000    0.000    0.000 
#
# Total GULP energy -167326.594996 kJ/mol
# GULP energy per Si atom -5577.553167 kJ/mol
# Density = 2.548274 g / cm^3
# Si number density = 25.540872 Si / 1000 Ang^3
#
#
#
# Elastic Constant Matrix: (Units=GPa)
#
#
# Indices 1 2 3 4 5 6 
#
# 1 46.6341 3.0612 37.2159 0.0000 9.4595 0.0000
# 2 3.0612 93.7389 33.4020 0.0000 11.9770 0.0000
# 3 37.2159 33.4020 131.8103 0.0000 17.5225 0.0000
# 4 0.0000 0.0000 0.0000 36.7565 0.0000 7.5471
# 5 9.4595 11.9770 17.5225 0.0000 36.2526 0.0000
# 6 0.0000 0.0000 0.0000 7.5471 0.0000 25.8469
#
#
#
# Elastic Compliance Matrix: (Units=1/GPa)
#
#
# Indices 1 2 3 4 5 6 
#
# 1 0.028673 0.002528 -0.008155 0.000000 -0.004376 0.000000
# 2 0.002528 0.012185 -0.003397 0.000000 -0.003043 0.000000
# 3 -0.008155 -0.003397 0.011026 0.000000 -0.002079 0.000000
# 4 0.000000 0.000000 0.000000 0.028941 0.000000 -0.008451
# 5 -0.004376 -0.003043 -0.002079 0.000000 0.030736 0.000000
# 6 0.000000 0.000000 0.000000 -0.008451 0.000000 0.041157
#
#
# Mechanical properties :
#
#
# Convention : Reuss Voigt Hill
#
# Bulk Modulus (GPa) = 29.55310 46.61571 38.08440
# Shear Modulus (GPa) = 27.46588 33.00483 30.23536
#
# Velocity S-wave (km/s) = 3.28284 3.59867 3.44438
# Velocity P-wave (km/s) = 5.09563 5.96307 5.54634
#
# Compressibility (1/GPa) = 0.03383739
#
# Stress axis : x y z
#
# Youngs Moduli (GPa) = 34.87618 82.07036 90.69177
#
# Poissons Ratio (x) = -0.20751 0.73956
# Poissons Ratio (y) = -0.08818 0.30808
# Poissons Ratio (z) = 0.28440 0.27880
#
# Static dielectric constant tensor:
#      x y z
#    x 2.121340 0.000000 0.024960 
#    y 0.000000 2.062300 0.000000 
#    z 0.024960 0.000000 2.032480 
# 
# From -- ./inp_files/5418.got.cif
#   From: 2010.05.17/outbox.cif.g08.bks.cpg/sg11_3_cif.got.tgz:5418.got - 2010.06.03 12:22:45.
