data_PCOD9163342
_publ_section_title
;
Structure prediction by ZEFSAII (Michael W. Deem and Ramdas Pophale) SiO2 
 PCOD9163342
Probable space group: P 21/M
;
_chemical_formula_sum "Si O2"
_cell_formula_units_Z 32
_cell_length_a 12.893632
_cell_length_b 19.385041
_cell_length_c 10.280984
_cell_angle_alpha 90.000000
_cell_angle_beta 136.474455
_cell_angle_gamma 90.000000
_cell_volume 1769.672212
_symmetry_space_group_name_H-M "P 21/M"
_symmetry_group_IT_number 11
_symmetry_cell_setting 'monoclinic'
loop_
_space_group_symop_operation_xyz
x,y,z
-x,1/2+y,-z
-x,-y,-z
x,1/2-y,z
loop_
_atom_site_type_symbol
_atom_site_label
_atom_site_fract_x
_atom_site_fract_y
_atom_site_fract_z
Si Si1 0.596340 0.467478 0.974572
Si Si2 0.661912 0.330577 0.481249
Si Si3 0.921577 0.171570 0.503457
Si Si4 0.113441 0.829596 0.073549
Si Si5 0.081793 0.461231 0.692759
Si Si6 0.918580 0.944442 0.013816
Si Si7 0.746905 0.329929 0.075049
Si Si8 0.557530 0.959007 0.678976
O O1 0.531250 0.491973 0.778551
O O2 0.500000 0.500000 0.000000
O O3 0.758187 0.502798 0.145677
O O4 0.618704 0.385313 0.991878
O O5 0.613825 0.250000 0.418806
O O6 0.782508 0.346510 0.475009
O O7 0.530834 0.387423 0.373466
O O8 0.752110 0.334229 0.699464
O O9 0.963909 0.250000 0.574096
O O10 0.858788 0.168526 0.299686
O O11 0.060419 0.119519 0.641647
O O12 0.070585 0.750000 0.019341
O O13 0.171996 0.853531 0.985103
O O14 0.978889 0.872211 0.014390
O O15 0.000000 0.500000 0.500000
O O16 0.023797 0.461641 0.788454
O O17 0.738111 0.947840 0.838778
O O18 0.000000 0.000000 0.000000
O O19 0.697817 0.250000 0.013247
O O20 0.500000 0.000000 0.500000
#
# Coordination Sequence:
#
# PCOD9163342 Si02
#       8
#     4   4   4   4   4   4   4   4
#     4  11  23  39  58  88 119 156 201 241 301 353
#     4  10  20  38  62  85 114 159 201 241 303 362
#     4  10  20  36  61  88 115 150 196 245 297 358
#     4  10  20  37  62  86 114 153 200 248 295 357
#     4  11  22  37  60  86 116 152 196 249 297 350
#     4  11  23  37  57  85 119 155 198 243 300 349
#     4  10  20  37  60  85 116 152 197 241 294 360
#     4  11  24  38  56  86 123 156 198 251 293 359
#
# _framework density 18.082443999999999
#
# number of rings (size 3 to 8) (size 9 to 14) (size 15 to 20)
#    0.000    1.500    2.500    3.750    0.000    0.500 
#    0.000    2.500    0.000    0.000    0.000    0.000 
#    0.000    0.000    0.000    0.000    0.000    0.000 
#
# Total GULP energy -178380.496531 kJ/mol
# GULP energy per Si atom -5574.390517 kJ/mol
# Density = 1.804129 g / cm^3
# Si number density = 18.082444 Si / 1000 Ang^3
#
#
#
# Elastic Constant Matrix: (Units=GPa)
#
#
# Indices 1 2 3 4 5 6 
#
# 1 72.4736 34.9699 28.8103 0.0000 -24.3944 0.0000
# 2 34.9699 102.1722 27.3220 0.0000 5.2480 0.0000
# 3 28.8103 27.3220 90.4685 0.0000 -27.9662 0.0000
# 4 0.0000 0.0000 0.0000 24.4116 0.0000 0.9947
# 5 -24.3944 5.2480 -27.9662 0.0000 31.6109 0.0000
# 6 0.0000 0.0000 0.0000 0.9947 0.0000 36.6987
#
#
#
# Elastic Compliance Matrix: (Units=1/GPa)
#
#
# Indices 1 2 3 4 5 6 
#
# 1 0.026210 -0.010851 0.002395 0.000000 0.024147 0.000000
# 2 -0.010851 0.016154 -0.006663 0.000000 -0.016950 0.000000
# 3 0.002395 -0.006663 0.018191 0.000000 0.019048 0.000000
# 4 0.000000 0.000000 0.000000 0.041010 0.000000 -0.001112
# 5 0.024147 -0.016950 0.019048 0.000000 0.069935 0.000000
# 6 0.000000 0.000000 0.000000 -0.001112 0.000000 0.027279
#
#
# Mechanical properties :
#
#
# Convention : Reuss Voigt Hill
#
# Bulk Modulus (GPa) = 32.98520 49.70207 41.34363
# Shear Modulus (GPa) = 20.90980 30.14504 25.52742
#
# Velocity S-wave (km/s) = 3.40422 4.08743 3.76137
# Velocity P-wave (km/s) = 5.80799 7.05848 6.46355
#
# Compressibility (1/GPa) = 0.03031662
#
# Stress axis : x y z
#
# Youngs Moduli (GPa) = 38.15368 61.90511 54.97106
#
# Poissons Ratio (x) = 0.67176 -0.13165
# Poissons Ratio (y) = 0.41402 0.36625
# Poissons Ratio (z) = -0.09137 0.41245
#
# Static dielectric constant tensor:
#      x y z
#    x 1.739680 0.000000 -0.044280 
#    y 0.000000 1.647190 0.000000 
#    z -0.044280 0.000000 1.614490 
# 
# From -- ./inp_files/19375.got.cif
#   From: 2010.05.17/outbox.cif.g08.bks.cpg/sg11_10_cif.got.tgz:19375.got - 2010.06.03 12:22:45.
