data_PCOD9163603
_publ_section_title
;
Structure prediction by ZEFSAII (Michael W. Deem and Ramdas Pophale) SiO2 
 PCOD9163603
Probable space group: P 21/M
;
_chemical_formula_sum "Si O2"
_cell_formula_units_Z 28
_cell_length_a 20.876817
_cell_length_b 8.391505
_cell_length_c 16.551246
_cell_angle_alpha 90.000000
_cell_angle_beta 29.923891
_cell_angle_gamma 90.000000
_cell_volume 1446.452217
_symmetry_space_group_name_H-M "P 21/M"
_symmetry_group_IT_number 11
_symmetry_cell_setting 'monoclinic'
loop_
_space_group_symop_operation_xyz
x,y,z
-x,1/2+y,-z
-x,-y,-z
x,1/2-y,z
loop_
_atom_site_type_symbol
_atom_site_label
_atom_site_fract_x
_atom_site_fract_y
_atom_site_fract_z
Si Si1 0.436721 0.942667 0.318858
Si Si2 0.125492 0.940882 0.909535
Si Si3 0.093639 0.441361 0.126065
Si Si4 0.705309 0.440855 0.960096
Si Si5 0.400230 0.942661 0.542017
Si Si6 0.856569 0.057286 0.637325
Si Si7 0.817847 0.055555 0.496553
O O1 0.435117 0.750000 0.321374
O O2 0.436902 0.997336 0.411897
O O3 0.307085 0.997483 0.415936
O O4 0.563929 0.997310 0.134158
O O5 0.125033 0.750000 0.909410
O O6 0.256576 0.995265 0.722739
O O7 0.123129 0.999884 0.004051
O O8 0.000000 0.000000 0.000000
O O9 0.096002 0.250000 0.124151
O O10 0.197667 0.502645 0.076181
O O11 0.951447 0.494600 0.309319
O O12 0.703312 0.250000 0.961830
O O13 0.761827 0.496773 0.812200
O O14 0.401241 0.750000 0.540618
O O15 0.500000 0.000000 0.500000
O O16 0.857441 0.250000 0.636250
O O17 0.817191 0.003977 0.590674
O O18 0.000000 0.000000 0.500000
O O19 0.817441 0.250000 0.496280
#
# Coordination Sequence:
#
# PCOD9163603 Si02
#       7
#     4   4   4   4   4   4   4
#     4  10  21  39  60  82 111 152 198 236 284 350
#     4  11  23  39  59  87 120 151 192 244 296 347
#     4  11  21  37  62  87 113 152 199 240 289 348
#     4  11  23  37  56  87 122 150 187 241 292 343
#     4  10  22  39  59  82 112 152 196 241 286 343
#     4  10  20  37  60  86 117 151 191 238 289 345
#     4   9  19  37  61  85 113 152 196 241 287 344
#
# _framework density 19.357707999999999
#
# number of rings (size 3 to 8) (size 9 to 14) (size 15 to 20)
#    0.000    1.714    1.429    3.000    0.000    7.429 
#    0.000    3.571    0.000    0.000    0.000    0.000 
#    0.000    0.000    0.000    0.000    0.000    0.000 
#
# Total GULP energy -156488.436920 kJ/mol
# GULP energy per Si atom -5588.872747 kJ/mol
# Density = 1.931365 g / cm^3
# Si number density = 19.357708 Si / 1000 Ang^3
#
#
#
# Elastic Constant Matrix: (Units=GPa)
#
#
# Indices 1 2 3 4 5 6 
#
# 1 87.3297 13.4471 40.3381 0.0000 -1.8256 0.0000
# 2 13.4471 16.8220 15.0112 0.0000 1.1547 0.0000
# 3 40.3381 15.0112 137.0399 0.0000 1.2864 0.0000
# 4 0.0000 0.0000 0.0000 26.4835 0.0000 -0.5720
# 5 -1.8256 1.1547 1.2864 0.0000 44.2027 0.0000
# 6 0.0000 0.0000 0.0000 -0.5720 0.0000 17.9459
#
#
#
# Elastic Compliance Matrix: (Units=1/GPa)
#
#
# Indices 1 2 3 4 5 6 
#
# 1 0.014305 -0.008570 -0.003280 0.000000 0.000910 0.000000
# 2 -0.008570 0.071122 -0.005249 0.000000 -0.002059 0.000000
# 3 -0.003280 -0.005249 0.008840 0.000000 -0.000256 0.000000
# 4 0.000000 0.000000 0.000000 0.037785 0.000000 0.001204
# 5 0.000910 -0.002059 -0.000256 0.000000 0.022722 0.000000
# 6 0.000000 0.000000 0.000000 0.001204 0.000000 0.055761
#
#
# Mechanical properties :
#
#
# Convention : Reuss Voigt Hill
#
# Bulk Modulus (GPa) = 16.64770 42.08716 29.36743
# Shear Modulus (GPa) = 18.88528 29.21941 24.05235
#
# Velocity S-wave (km/s) = 3.12684 3.88937 3.52876
# Velocity P-wave (km/s) = 4.65348 6.47755 5.63975
#
# Compressibility (1/GPa) = 0.06006836
#
# Stress axis : x y z
#
# Youngs Moduli (GPa) = 69.90675 14.06038 113.12108
#
# Poissons Ratio (x) = 0.12050 0.37109
# Poissons Ratio (y) = 0.59911 0.59373
# Poissons Ratio (z) = 0.22933 0.07380
#
# Static dielectric constant tensor:
#      x y z
#    x 1.637420 0.000000 0.012360 
#    y 0.000000 1.675320 0.000000 
#    z 0.012360 0.000000 1.660370 
# 
# From -- ./inp_files/28441.got.cif
#   From: 2010.05.17/outbox.cif.g08.bks.cpg/sg11_15_cif.got.tgz:28441.got - 2010.06.03 12:22:45.
