data_PCOD9163281
_publ_section_title
;
Structure prediction by ZEFSAII (Michael W. Deem and Ramdas Pophale) SiO2 
 PCOD9163281
Probable space group: P 21/M
;
_chemical_formula_sum "Si O2"
_cell_formula_units_Z 24
_cell_length_a 15.574043
_cell_length_b 8.462751
_cell_length_c 15.241188
_cell_angle_alpha 90.000000
_cell_angle_beta 39.929797
_cell_angle_gamma 90.000000
_cell_volume 1289.330606
_symmetry_space_group_name_H-M "P 21/M"
_symmetry_group_IT_number 11
_symmetry_cell_setting 'monoclinic'
loop_
_space_group_symop_operation_xyz
x,y,z
-x,1/2+y,-z
-x,-y,-z
x,1/2-y,z
loop_
_atom_site_type_symbol
_atom_site_label
_atom_site_fract_x
_atom_site_fract_y
_atom_site_fract_z
Si Si1 0.367963 0.942852 0.843014
Si Si2 0.359523 0.941025 0.648702
Si Si3 0.330117 0.441208 0.354925
Si Si4 0.840146 0.060554 0.345988
Si Si5 0.861553 0.560545 0.650159
Si Si6 0.133776 0.939327 0.156206
O O1 0.367069 0.750000 0.844114
O O2 0.344299 0.993766 0.761183
O O3 0.516242 0.992822 0.756597
O O4 0.252120 0.996121 0.999548
O O5 0.362308 0.750000 0.646214
O O6 0.240366 0.992329 0.677581
O O7 0.500000 0.000000 0.500000
O O8 0.327284 0.250000 0.361653
O O9 0.244090 0.504982 0.503595
O O10 0.258115 0.489155 0.321120
O O11 0.845977 0.250000 0.341853
O O12 0.989326 0.994961 0.235825
O O13 0.865967 0.750000 0.648776
O O14 0.846665 0.498334 0.760047
O O15 0.000000 0.500000 0.500000
O O16 0.135068 0.750000 0.156139
#
# Coordination Sequence:
#
# PCOD9163281 Si02
#       6
#     4   4   4   4   4   4
#     4   9  20  39  60  84 117 153 194 237 287 352
#     4  10  20  36  60  88 116 150 192 240 289 342
#     4  10  20  37  62  85 111 152 194 233 288 351
#     4  11  22  35  57  89 119 148 192 245 289 338
#     4  11  22  36  59  89 117 149 194 242 289 345
#     4  11  23  39  59  83 116 160 196 235 291 343
#
# _framework density 18.614311000000001
#
# number of rings (size 3 to 8) (size 9 to 14) (size 15 to 20)
#    0.000    1.667    3.333    1.500    0.000    2.667 
#    0.000    3.333    0.000    0.000    0.000    0.000 
#    0.000    0.000    0.000    0.000    0.000    0.000 
#
# Total GULP energy -134071.607779 kJ/mol
# GULP energy per Si atom -5586.316991 kJ/mol
# Density = 1.857194 g / cm^3
# Si number density = 18.614311 Si / 1000 Ang^3
#
#
#
# Elastic Constant Matrix: (Units=GPa)
#
#
# Indices 1 2 3 4 5 6 
#
# 1 223.0381 37.4464 118.8690 0.0000 1.1291 0.0000
# 2 37.4464 22.6385 25.8342 0.0000 -1.1924 0.0000
# 3 118.8690 25.8342 193.3512 0.0000 1.1137 0.0000
# 4 0.0000 0.0000 0.0000 9.4347 0.0000 2.5677
# 5 1.1291 -1.1924 1.1137 0.0000 33.3420 0.0000
# 6 0.0000 0.0000 0.0000 2.5677 0.0000 24.1939
#
#
#
# Elastic Compliance Matrix: (Units=1/GPa)
#
#
# Indices 1 2 3 4 5 6 
#
# 1 0.007961 -0.008980 -0.003692 0.000000 -0.000467 0.000000
# 2 -0.008980 0.062396 -0.002831 0.000000 0.002630 0.000000
# 3 -0.003692 -0.002831 0.007821 0.000000 -0.000237 0.000000
# 4 0.000000 0.000000 0.000000 0.109144 0.000000 -0.011583
# 5 -0.000467 0.002630 -0.000237 0.000000 0.030110 0.000000
# 6 0.000000 0.000000 0.000000 -0.011583 0.000000 0.042562
#
#
# Mechanical properties :
#
#
# Convention : Reuss Voigt Hill
#
# Bulk Modulus (GPa) = 21.19897 89.25855 55.22876
# Shear Modulus (GPa) = 16.30124 30.51935 23.41030
#
# Velocity S-wave (km/s) = 2.96250 4.05355 3.55018
# Velocity P-wave (km/s) = 4.80782 8.36445 6.82199
#
# Compressibility (1/GPa) = 0.04717211
#
# Stress axis : x y z
#
# Youngs Moduli (GPa) = 125.60912 16.02661 127.85658
#
# Poissons Ratio (x) = 0.14392 0.47203
# Poissons Ratio (y) = 1.12801 0.36198
# Poissons Ratio (z) = 0.46373 0.04537
#
# Static dielectric constant tensor:
#      x y z
#    x 1.665150 0.000000 0.010080 
#    y 0.000000 1.641970 0.000000 
#    z 0.010080 0.000000 1.605870 
# 
# From -- ./inp_files/25935.got.cif
#   From: 2010.05.17/outbox.cif.g08.bks.cpg/sg11_13_cif.got.tgz:25935.got - 2010.06.03 12:22:45.
