data_PCOD9163196
_publ_section_title
;
Structure prediction by ZEFSAII (Michael W. Deem and Ramdas Pophale) SiO2 
 PCOD9163196
Probable space group: P 21/M
;
_chemical_formula_sum "Si O2"
_cell_formula_units_Z 24
_cell_length_a 10.396044
_cell_length_b 8.724136
_cell_length_c 32.308500
_cell_angle_alpha 90.000000
_cell_angle_beta 152.429875
_cell_angle_gamma 90.000000
_cell_volume 1356.227304
_symmetry_space_group_name_H-M "P 21/M"
_symmetry_group_IT_number 11
_symmetry_cell_setting 'monoclinic'
loop_
_space_group_symop_operation_xyz
x,y,z
-x,1/2+y,-z
-x,-y,-z
x,1/2-y,z
loop_
_atom_site_type_symbol
_atom_site_label
_atom_site_fract_x
_atom_site_fract_y
_atom_site_fract_z
Si Si1 0.143111 0.065866 0.227011
Si Si2 0.766667 0.567023 0.052203
Si Si3 0.709691 0.433787 0.432266
Si Si4 0.400840 0.434598 0.428026
Si Si5 0.876658 0.933881 0.233698
Si Si6 0.249552 0.933584 0.044408
O O1 0.117245 0.250000 0.217716
O O2 0.458457 0.025802 0.329404
O O3 0.032931 0.990846 0.153809
O O4 0.957668 0.003592 0.212149
O O5 0.753473 0.750000 0.048500
O O6 0.500000 0.500000 0.000000
O O7 0.765817 0.503457 0.005730
O O8 0.729672 0.250000 0.438660
O O9 0.605666 0.481697 0.448479
O O10 0.000000 0.500000 0.500000
O O11 0.500000 0.500000 0.500000
O O12 0.393806 0.250000 0.427141
O O13 0.097092 0.496802 0.328690
O O14 0.908087 0.750000 0.241119
O O15 0.554432 0.970334 0.149928
O O16 0.228820 0.750000 0.035910
O O17 0.000000 0.000000 0.000000
#
# Coordination Sequence:
#
# PCOD9163196 Si02
#       6
#     4   4   4   4   4   4
#     4  10  20  36  59  87 117 151 195 240 285 343
#     4  12  23  37  61  89 117 153 196 242 287 343
#     4   9  20  37  58  85 116 149 186 233 287 339
#     4  10  21  38  60  86 114 149 193 240 286 345
#     4  10  20  36  60  86 114 151 194 238 288 347
#     4  11  24  41  60  86 120 156 195 240 294 349
#
# _framework density 17.696148999999998
#
# number of rings (size 3 to 8) (size 9 to 14) (size 15 to 20)
#    0.000    1.667    1.667    4.500    0.000    6.000 
#    3.000    0.000    0.000    0.000    0.000    0.000 
#    0.000    0.000    0.000    0.000    0.000    0.000 
#
# Total GULP energy -134046.484861 kJ/mol
# GULP energy per Si atom -5585.270203 kJ/mol
# Density = 1.765587 g / cm^3
# Si number density = 17.696149 Si / 1000 Ang^3
#
#
#
# Elastic Constant Matrix: (Units=GPa)
#
#
# Indices 1 2 3 4 5 6 
#
# 1 127.8928 56.1451 104.3323 0.0000 2.6956 0.0000
# 2 56.1451 90.4418 70.8714 0.0000 4.0433 0.0000
# 3 104.3323 70.8714 167.9528 0.0000 3.1848 0.0000
# 4 0.0000 0.0000 0.0000 35.7912 0.0000 -0.5947
# 5 2.6956 4.0433 3.1848 0.0000 38.2227 0.0000
# 6 0.0000 0.0000 0.0000 -0.5947 0.0000 33.9467
#
#
#
# Elastic Compliance Matrix: (Units=1/GPa)
#
#
# Indices 1 2 3 4 5 6 
#
# 1 0.016487 -0.003297 -0.008849 0.000000 -0.000077 0.000000
# 2 -0.003297 0.017231 -0.005201 0.000000 -0.001157 0.000000
# 3 -0.008849 -0.005201 0.013645 0.000000 0.000037 0.000000
# 4 0.000000 0.000000 0.000000 0.027948 0.000000 0.000490
# 5 -0.000077 -0.001157 0.000037 0.000000 0.026287 0.000000
# 6 0.000000 0.000000 0.000000 0.000490 0.000000 0.029467
#
#
# Mechanical properties :
#
#
# Convention : Reuss Voigt Hill
#
# Bulk Modulus (GPa) = 78.93411 94.33165 86.63288
# Shear Modulus (GPa) = 29.41510 31.92136 30.66823
#
# Velocity S-wave (km/s) = 4.08147 4.25179 4.16750
# Velocity P-wave (km/s) = 8.18005 8.80487 8.49821
#
# Compressibility (1/GPa) = 0.01266879
#
# Stress axis : x y z
#
# Youngs Moduli (GPa) = 60.65424 58.03549 73.28824
#
# Poissons Ratio (x) = 0.19137 0.64851
# Poissons Ratio (y) = 0.20000 0.38115
# Poissons Ratio (z) = 0.53672 0.30182
#
# Static dielectric constant tensor:
#      x y z
#    x 1.572320 0.000000 0.000670 
#    y 0.000000 1.591830 0.000000 
#    z 0.000670 0.000000 1.612420 
# 
# From -- ./inp_files/20360.got.cif
#   From: 2010.05.17/outbox.cif.g08.bks.cpg/sg11_11_cif.got.tgz:20360.got - 2010.06.03 12:22:45.
