data_PCOD9163863
_publ_section_title
;
Structure prediction by ZEFSAII (Michael W. Deem and Ramdas Pophale) SiO2 
 PCOD9163863
Probable space group: P 21/M
;
_chemical_formula_sum "Si O2"
_cell_formula_units_Z 28
_cell_length_a 7.262220
_cell_length_b 27.943289
_cell_length_c 8.893002
_cell_angle_alpha 90.000000
_cell_angle_beta 51.410213
_cell_angle_gamma 90.000000
_cell_volume 1410.579148
_symmetry_space_group_name_H-M "P 21/M"
_symmetry_group_IT_number 11
_symmetry_cell_setting 'monoclinic'
loop_
_space_group_symop_operation_xyz
x,y,z
-x,1/2+y,-z
-x,-y,-z
x,1/2-y,z
loop_
_atom_site_type_symbol
_atom_site_label
_atom_site_fract_x
_atom_site_fract_y
_atom_site_fract_z
Si Si1 0.196968 0.452495 0.768858
Si Si2 0.526429 0.093261 0.357853
Si Si3 0.313047 0.303697 0.104837
Si Si4 0.004414 0.373757 0.073320
Si Si5 0.302091 0.303233 0.467259
Si Si6 0.832368 0.305173 0.901236
Si Si7 0.653908 0.025652 0.050632
O O1 0.362088 0.439298 0.545669
O O2 0.304998 0.492910 0.821991
O O3 0.174712 0.406739 0.889129
O O4 0.924052 0.463364 0.861946
O O5 0.805028 0.093874 0.253246
O O6 0.444562 0.148128 0.424046
O O7 0.527020 0.072756 0.186019
O O8 0.274546 0.250000 0.063125
O O9 0.269539 0.302391 0.304975
O O10 0.145499 0.341312 0.114249
O O11 0.587402 0.316647 0.944851
O O12 0.874311 0.339433 0.020020
O O13 0.400724 0.250000 0.459618
O O14 0.054657 0.308121 0.678664
O O15 0.809231 0.250000 0.964633
O O16 0.500000 0.000000 0.000000
#
# Coordination Sequence:
#
# PCOD9163863 Si02
#       7
#     4   4   4   4   4   4   4
#     4  10  23  43  61  94 128 152 209 261 310 381
#     4  11  22  41  64  94 127 165 202 258 317 372
#     4  10  22  38  58  87 125 168 213 256 302 364
#     4  11  22  36  62  90 120 163 206 254 312 371
#     4  10  21  38  60  89 126 164 205 252 305 370
#     4  10  20  38  58  81 121 166 208 255 304 362
#     4  10  24  44  68  91 122 163 208 261 319 372
#
# _framework density 19.850003000000001
#
# number of rings (size 3 to 8) (size 9 to 14) (size 15 to 20)
#    0.000    1.714    2.857    0.857    2.000    2.286 
#    2.571    0.000    0.000    0.000    0.000    0.000 
#    0.000    0.000    0.000    0.000    0.000    0.000 
#
# Total GULP energy -156210.573773 kJ/mol
# GULP energy per Si atom -5578.949063 kJ/mol
# Density = 1.980482 g / cm^3
# Si number density = 19.850003 Si / 1000 Ang^3
#
#
#
# Elastic Constant Matrix: (Units=GPa)
#
#
# Indices 1 2 3 4 5 6 
#
# 1 38.5349 23.8914 21.9203 0.0000 -4.5776 0.0000
# 2 23.8914 75.7206 24.9194 0.0000 -2.8586 0.0000
# 3 21.9203 24.9194 117.5043 0.0000 -26.0341 0.0000
# 4 0.0000 0.0000 0.0000 50.2272 0.0000 -47.2525
# 5 -4.5776 -2.8586 -26.0341 0.0000 12.0744 0.0000
# 6 0.0000 0.0000 0.0000 -47.2525 0.0000 247.3191
#
#
#
# Elastic Compliance Matrix: (Units=1/GPa)
#
#
# Indices 1 2 3 4 5 6 
#
# 1 0.034298 -0.009464 -0.003842 0.000000 0.002478 0.000000
# 2 -0.009464 0.017039 -0.003349 0.000000 -0.006775 0.000000
# 3 -0.003842 -0.003349 0.018072 0.000000 0.036717 0.000000
# 4 0.000000 0.000000 0.000000 0.024272 0.000000 0.004637
# 5 0.002478 -0.006775 0.036717 0.000000 0.161322 0.000000
# 6 0.000000 0.000000 0.000000 0.004637 0.000000 0.004929
#
#
# Mechanical properties :
#
#
# Convention : Reuss Voigt Hill
#
# Bulk Modulus (GPa) = 27.70156 41.46910 34.58533
# Shear Modulus (GPa) = 16.37866 72.65939 44.51902
#
# Velocity S-wave (km/s) = 2.87561 6.05671 4.74093
# Velocity P-wave (km/s) = 5.00112 8.35752 6.88692
#
# Compressibility (1/GPa) = 0.03609906
#
# Stress axis : x y z
#
# Youngs Moduli (GPa) = 29.15626 58.68956 55.33340
#
# Poissons Ratio (x) = 0.55542 0.21261
# Poissons Ratio (y) = 0.27593 0.18531
# Poissons Ratio (z) = 0.11203 0.19655
#
# Static dielectric constant tensor:
#      x y z
#    x 1.676500 0.000000 -0.031800 
#    y 0.000000 1.807430 0.000000 
#    z -0.031800 0.000000 1.695600 
# 
# From -- ./inp_files/10787.got.cif
#   From: 2010.05.17/outbox.cif.g08.bks.cpg/sg11_6_cif.got.tgz:10787.got - 2010.06.03 12:22:45.
