data_PCOD9163093
_publ_section_title
;
Structure prediction by ZEFSAII (Michael W. Deem and Ramdas Pophale) SiO2 
 PCOD9163093
Probable space group: P 21/M
;
_chemical_formula_sum "Si O2"
_cell_formula_units_Z 32
_cell_length_a 29.079506
_cell_length_b 9.235158
_cell_length_c 12.613367
_cell_angle_alpha 90.000000
_cell_angle_beta 30.595397
_cell_angle_gamma 90.000000
_cell_volume 1724.076385
_symmetry_space_group_name_H-M "P 21/M"
_symmetry_group_IT_number 11
_symmetry_cell_setting 'monoclinic'
loop_
_space_group_symop_operation_xyz
x,y,z
-x,1/2+y,-z
-x,-y,-z
x,1/2-y,z
loop_
_atom_site_type_symbol
_atom_site_label
_atom_site_fract_x
_atom_site_fract_y
_atom_site_fract_z
Si Si1 0.542628 0.420198 0.514847
Si Si2 0.710852 0.583012 0.121534
Si Si3 0.767242 0.076673 0.800733
Si Si4 0.023474 0.924302 0.565088
Si Si5 0.285950 0.576344 0.547129
Si Si6 0.148598 0.082175 0.975980
Si Si7 0.494195 0.578710 0.176431
Si Si8 0.673293 0.423174 0.766067
O O1 0.500000 0.500000 0.500000
O O2 0.550060 0.250000 0.480720
O O3 0.640727 0.490994 0.329249
O O4 0.490550 0.441884 0.727788
O O5 0.681541 0.750000 0.170252
O O6 0.802977 0.578489 0.004885
O O7 0.720002 0.510026 0.989340
O O8 0.753283 0.250000 0.842951
O O9 0.874055 0.047668 0.601791
O O10 0.726896 0.035869 0.766422
O O11 0.013618 0.750000 0.571293
O O12 0.000000 0.000000 0.500000
O O13 0.952193 0.970496 0.797502
O O14 0.282182 0.750000 0.570712
O O15 0.211207 0.503446 0.769667
O O16 0.390529 0.532305 0.362114
O O17 0.273291 0.542555 0.447774
O O18 0.145735 0.250000 0.947599
O O19 0.499268 0.750000 0.142047
O O20 0.574331 0.494917 0.960126
O O21 0.660582 0.250000 0.793168
#
# Coordination Sequence:
#
# PCOD9163093 Si02
#       8
#     4   4   4   4   4   4   4   4
#     4  11  22  35  51  77 113 150 188 227 279 337
#     4  11  21  34  54  81 113 146 184 229 277 331
#     4  10  21  37  58  83 114 150 183 226 285 339
#     4  10  20  36  58  85 115 145 182 227 278 337
#     4  10  21  39  59  80 110 147 190 232 273 327
#     4  10  21  36  56  84 112 141 182 231 279 328
#     4  10  21  36  55  79 107 144 187 231 275 323
#     4  10  22  38  57  82 110 145 188 231 275 328
#
# _framework density 18.560662000000001
#
# number of rings (size 3 to 8) (size 9 to 14) (size 15 to 20)
#    0.000    1.750    2.500    1.875    0.000    5.500 
#    0.000    0.625    0.000    0.000    0.000    0.000 
#    0.000    0.000    0.000    0.000    0.000    0.000 
#
# Total GULP energy -178598.674268 kJ/mol
# GULP energy per Si atom -5581.208571 kJ/mol
# Density = 1.851842 g / cm^3
# Si number density = 18.560662 Si / 1000 Ang^3
#
#
#
# Elastic Constant Matrix: (Units=GPa)
#
#
# Indices 1 2 3 4 5 6 
#
# 1 67.5777 25.3488 40.2285 0.0000 16.3359 0.0000
# 2 25.3488 39.3183 45.4994 0.0000 14.4170 0.0000
# 3 40.2285 45.4994 130.4002 0.0000 13.4295 0.0000
# 4 0.0000 0.0000 0.0000 28.3921 0.0000 1.3239
# 5 16.3359 14.4170 13.4295 0.0000 27.8213 0.0000
# 6 0.0000 0.0000 0.0000 1.3239 0.0000 19.5346
#
#
#
# Elastic Compliance Matrix: (Units=1/GPa)
#
#
# Indices 1 2 3 4 5 6 
#
# 1 0.021187 -0.007280 -0.003266 0.000000 -0.007091 0.000000
# 2 -0.007280 0.052852 -0.014538 0.000000 -0.016096 0.000000
# 3 -0.003266 -0.014538 0.013444 0.000000 0.002962 0.000000
# 4 0.000000 0.000000 0.000000 0.035333 0.000000 -0.002395
# 5 -0.007091 -0.016096 0.002962 0.000000 0.047019 0.000000
# 6 0.000000 0.000000 0.000000 -0.002395 0.000000 0.051353
#
#
# Mechanical properties :
#
#
# Convention : Reuss Voigt Hill
#
# Bulk Modulus (GPa) = 26.79830 51.04994 38.92412
# Shear Modulus (GPa) = 17.61852 23.56424 20.59138
#
# Velocity S-wave (km/s) = 3.08432 3.56698 3.33439
# Velocity P-wave (km/s) = 5.21091 6.67297 5.98674
#
# Compressibility (1/GPa) = 0.03731580
#
# Stress axis : x y z
#
# Youngs Moduli (GPa) = 47.19916 18.92082 74.38470
#
# Poissons Ratio (x) = 0.13774 0.24292
# Poissons Ratio (y) = 0.34361 1.08137
# Poissons Ratio (z) = 0.15414 0.27506
#
# Static dielectric constant tensor:
#      x y z
#    x 1.683750 0.000000 -0.032280 
#    y 0.000000 1.623860 0.000000 
#    z -0.032280 0.000000 1.680230 
# 
# From -- ./inp_files/45205.got.cif
#   From: 2010.05.17/outbox.cif.g08.bks.cpg/sg11_23_cif.got.tgz:45205.got - 2010.06.03 12:22:45.
