data_PCOD9163003
_publ_section_title
;
Structure prediction by ZEFSAII (Michael W. Deem and Ramdas Pophale) SiO2 
 PCOD9163003
Probable space group: P 21/M
;
_chemical_formula_sum "Si O2"
_cell_formula_units_Z 32
_cell_length_a 21.145591
_cell_length_b 14.716196
_cell_length_c 6.878970
_cell_angle_alpha 90.000000
_cell_angle_beta 121.731519
_cell_angle_gamma 90.000000
_cell_volume 1820.640981
_symmetry_space_group_name_H-M "P 21/M"
_symmetry_group_IT_number 11
_symmetry_cell_setting 'monoclinic'
loop_
_space_group_symop_operation_xyz
x,y,z
-x,1/2+y,-z
-x,-y,-z
x,1/2-y,z
loop_
_atom_site_type_symbol
_atom_site_label
_atom_site_fract_x
_atom_site_fract_y
_atom_site_fract_z
Si Si1 0.552199 0.074239 0.186980
Si Si2 0.907064 0.356931 0.782397
Si Si3 0.922014 0.643320 0.798793
Si Si4 0.339597 0.999676 0.307343
Si Si5 0.831994 0.992912 0.920679
Si Si6 0.543873 0.645862 0.625599
Si Si7 0.917488 0.498284 0.456525
Si Si8 0.400859 0.645027 0.138282
O O1 0.613629 0.031183 0.428306
O O2 0.497913 0.132348 0.237338
O O3 0.592010 0.128276 0.078522
O O4 0.500000 0.000000 0.000000
O O5 0.888260 0.250000 0.737192
O O6 0.854721 0.415650 0.840294
O O7 0.907442 0.410272 0.578057
O O8 0.990954 0.364130 0.002932
O O9 0.903550 0.750000 0.753819
O O10 0.875104 0.589941 0.885926
O O11 0.909473 0.586537 0.581356
O O12 0.342899 0.918610 0.154953
O O13 0.255831 0.022040 0.225523
O O14 0.386032 0.081402 0.286765
O O15 0.860610 0.001060 0.186827
O O16 0.564541 0.750000 0.630960
O O17 0.481077 0.620834 0.364066
O O18 0.000000 0.500000 0.500000
O O19 0.386755 0.750000 0.158685
#
# Coordination Sequence:
#
# PCOD9163003 Si02
#       8
#     4   4   4   4   4   4   4   4
#     4  11  18  37  63  80 106 149 191 228 278 329
#     4  10  21  38  61  87 113 148 195 240 280 336
#     4  10  21  38  61  87 113 148 196 239 279 336
#     4  11  23  37  57  84 118 151 182 232 288 337
#     4  11  23  39  57  83 123 153 184 237 291 336
#     4  10  20  36  57  85 112 144 190 232 274 335
#     4  11  19  37  61  85 111 149 193 231 280 340
#     4  10  20  36  60  86 110 144 192 234 274 333
#
# _framework density 17.576228
#
# number of rings (size 3 to 8) (size 9 to 14) (size 15 to 20)
#    0.000    1.500    5.000    1.875    0.000    5.000 
#    0.000    1.250    0.000    0.000    0.000    0.000 
#    0.000    0.000    0.000    0.000    0.000    0.000 
#
# Total GULP energy -178633.395490 kJ/mol
# GULP energy per Si atom -5582.293609 kJ/mol
# Density = 1.753622 g / cm^3
# Si number density = 17.576228 Si / 1000 Ang^3
#
#
#
# Elastic Constant Matrix: (Units=GPa)
#
#
# Indices 1 2 3 4 5 6 
#
# 1 50.4261 12.9506 25.0620 0.0000 -1.8385 0.0000
# 2 12.9506 87.7614 28.9915 0.0000 -9.5138 0.0000
# 3 25.0620 28.9915 95.7546 0.0000 -20.8632 0.0000
# 4 0.0000 0.0000 0.0000 16.9730 0.0000 -4.6850
# 5 -1.8385 -9.5138 -20.8632 0.0000 25.4087 0.0000
# 6 0.0000 0.0000 0.0000 -4.6850 0.0000 0.2939
#
#
#
# Elastic Compliance Matrix: (Units=1/GPa)
#
#
# Indices 1 2 3 4 5 6 
#
# 1 0.023369 -0.001762 -0.006526 0.000000 -0.004327 0.000000
# 2 -0.001762 0.012873 -0.002940 0.000000 0.002279 0.000000
# 3 -0.006526 -0.002940 0.015466 0.000000 0.011126 0.000000
# 4 0.000000 0.000000 0.000000 -0.017330 0.000000 -0.276232
# 5 -0.004327 0.002279 0.011126 0.000000 0.049032 0.000000
# 6 0.000000 0.000000 0.000000 -0.276232 0.000000 -1.000749
#
#
# Mechanical properties :
#
#
# Convention : Reuss Voigt Hill
#
# Bulk Modulus (GPa) = 34.18522 40.88336 37.53429
# Shear Modulus (GPa) = -5.64886 19.66433 7.00773
#
# Velocity S-wave (km/s) = -1.79469 3.34848 1.99893
# Velocity P-wave (km/s) = 3.89838 6.18554 5.17002
#
# Compressibility (1/GPa) = 0.02925241
#
# Stress axis : x y z
#
# Youngs Moduli (GPa) = 42.79165 77.68378 64.65975
#
# Poissons Ratio (x) = 0.13686 0.42195
# Poissons Ratio (y) = 0.07539 0.19009
# Poissons Ratio (z) = 0.27925 0.22838
#
# Static dielectric constant tensor:
#      x y z
#    x 1.580230 0.000000 -0.015150 
#    y 0.000000 1.597740 0.000000 
#    z -0.015150 0.000000 1.604240 
# 
# From -- ./inp_files/9037.got.cif
#   From: 2010.05.17/outbox.cif.g08.bks.cpg/sg11_5_cif.got.tgz:9037.got - 2010.06.03 12:22:45.
