data_PCOD9163955
_publ_section_title
;
Structure prediction by ZEFSAII (Michael W. Deem and Ramdas Pophale) SiO2 
 PCOD9163955
Probable space group: P 21/M
;
_chemical_formula_sum "Si O2"
_cell_formula_units_Z 24
_cell_length_a 8.553720
_cell_length_b 18.085503
_cell_length_c 14.957618
_cell_angle_alpha 90.000000
_cell_angle_beta 33.618171
_cell_angle_gamma 90.000000
_cell_volume 1281.114118
_symmetry_space_group_name_H-M "P 21/M"
_symmetry_group_IT_number 11
_symmetry_cell_setting 'monoclinic'
loop_
_space_group_symop_operation_xyz
x,y,z
-x,1/2+y,-z
-x,-y,-z
x,1/2-y,z
loop_
_atom_site_type_symbol
_atom_site_label
_atom_site_fract_x
_atom_site_fract_y
_atom_site_fract_z
Si Si1 0.946068 0.417339 0.558494
Si Si2 0.900419 0.162418 0.922350
Si Si3 0.777907 0.457443 0.836788
Si Si4 0.720382 0.062950 0.332167
Si Si5 0.497454 0.090541 0.625438
Si Si6 0.551429 0.337546 0.266460
O O1 0.802580 0.430374 0.723233
O O2 0.738952 0.386876 0.579866
O O3 0.000000 0.500000 0.500000
O O4 0.237218 0.371630 0.425943
O O5 0.916250 0.250000 0.899947
O O6 0.803743 0.115960 0.883371
O O7 0.210802 0.129347 0.793036
O O8 0.683352 0.147908 0.106296
O O9 0.027873 0.515531 0.743404
O O10 0.500000 0.500000 0.000000
O O11 0.566540 0.104331 0.487875
O O12 0.762095 0.124198 0.237235
O O13 0.547293 0.998568 0.361728
O O14 0.538538 0.250000 0.286533
#
# Coordination Sequence:
#
# PCOD9163955 Si02
#       6
#     4   4   4   4   4   4
#     4  12  21  39  65  94 125 154 204 257 304 361
#     4  10  24  43  60  87 126 163 204 249 305 367
#     4  11  24  38  65  96 121 161 204 255 309 359
#     4  10  20  38  61  90 119 154 205 243 300 362
#     4  10  21  37  65  90 117 158 198 253 295 362
#     4  11  24  41  62  89 125 165 201 251 308 361
#
# _framework density 18.733695999999998
#
# number of rings (size 3 to 8) (size 9 to 14) (size 15 to 20)
#    0.000    1.333    3.333    3.000    2.333    4.667 
#    0.000    0.833    0.000    0.000    0.000    0.000 
#    0.000    0.000    0.000    0.000    0.000    0.000 
#
# Total GULP energy -133783.689161 kJ/mol
# GULP energy per Si atom -5574.320382 kJ/mol
# Density = 1.869106 g / cm^3
# Si number density = 18.733696 Si / 1000 Ang^3
#
#
#
# Elastic Constant Matrix: (Units=GPa)
#
#
# Indices 1 2 3 4 5 6 
#
# 1 82.6082 34.0468 36.9386 0.0000 11.1734 0.0000
# 2 34.0468 57.7899 46.8778 0.0000 19.6132 0.0000
# 3 36.9386 46.8778 109.1101 0.0000 12.4331 0.0000
# 4 0.0000 0.0000 0.0000 29.3102 0.0000 4.4964
# 5 11.1734 19.6132 12.4331 0.0000 34.0850 0.0000
# 6 0.0000 0.0000 0.0000 4.4964 0.0000 19.5061
#
#
#
# Elastic Compliance Matrix: (Units=1/GPa)
#
#
# Indices 1 2 3 4 5 6 
#
# 1 0.016306 -0.007855 -0.002140 0.000000 -0.000044 0.000000
# 2 -0.007855 0.035617 -0.011061 0.000000 -0.013885 0.000000
# 3 -0.002140 -0.011061 0.014437 0.000000 0.001800 0.000000
# 4 0.000000 0.000000 0.000000 0.035369 0.000000 -0.008153
# 5 -0.000044 -0.013885 0.001800 0.000000 0.036686 0.000000
# 6 0.000000 0.000000 0.000000 -0.008153 0.000000 0.053145
#
#
# Mechanical properties :
#
#
# Convention : Reuss Voigt Hill
#
# Bulk Modulus (GPa) = 41.24311 53.91495 47.57903
# Shear Modulus (GPa) = 20.68220 25.35658 23.01939
#
# Velocity S-wave (km/s) = 3.32627 3.68302 3.50918
# Velocity P-wave (km/s) = 6.06757 6.85043 6.47085
#
# Compressibility (1/GPa) = 0.02424648
#
# Stress axis : x y z
#
# Youngs Moduli (GPa) = 61.32730 28.07684 69.26856
#
# Poissons Ratio (x) = 0.22056 0.14825
# Poissons Ratio (y) = 0.48175 0.76615
# Poissons Ratio (z) = 0.13126 0.31055
#
# Static dielectric constant tensor:
#      x y z
#    x 1.752850 0.000000 -0.029570 
#    y 0.000000 1.627720 0.000000 
#    z -0.029570 0.000000 1.691930 
# 
# From -- ./inp_files/13289.got.cif
#   From: 2010.05.17/outbox.cif.g08.bks.cpg/sg11_7_cif.got.tgz:13289.got - 2010.06.03 12:22:45.
