data_PCOD9163802
_publ_section_title
;
Structure prediction by ZEFSAII (Michael W. Deem and Ramdas Pophale) SiO2 
 PCOD9163802
Probable space group: P 21/M
;
_chemical_formula_sum "Si O2"
_cell_formula_units_Z 28
_cell_length_a 18.218818
_cell_length_b 11.178646
_cell_length_c 21.010629
_cell_angle_alpha 90.000000
_cell_angle_beta 160.349290
_cell_angle_gamma 90.000000
_cell_volume 1438.984862
_symmetry_space_group_name_H-M "P 21/M"
_symmetry_group_IT_number 11
_symmetry_cell_setting 'monoclinic'
loop_
_space_group_symop_operation_xyz
x,y,z
-x,1/2+y,-z
-x,-y,-z
x,1/2-y,z
loop_
_atom_site_type_symbol
_atom_site_label
_atom_site_fract_x
_atom_site_fract_y
_atom_site_fract_z
Si Si1 0.464922 0.491845 0.875385
Si Si2 0.780115 0.879232 0.213575
Si Si3 0.781267 0.497155 0.459157
Si Si4 0.977228 0.886411 0.173528
Si Si5 0.530514 0.111562 0.477598
Si Si6 0.414160 0.387801 0.244394
Si Si7 0.902007 0.120477 0.200231
O O1 0.292804 0.470048 0.790992
O O2 0.344616 0.495996 0.710161
O O3 0.610608 0.604304 0.017084
O O4 0.657376 0.393246 0.027771
O O5 0.758667 0.750000 0.225142
O O6 0.025489 0.900697 0.391389
O O7 0.603327 0.465412 0.366859
O O8 0.921675 0.608908 0.599123
O O9 0.946485 0.750000 0.175658
O O10 0.220660 0.890343 0.344562
O O11 0.940312 0.002079 0.188289
O O12 0.803358 0.899415 0.974569
O O13 0.488546 0.250000 0.466206
O O14 0.387076 0.088835 0.296970
O O15 0.500000 0.000000 0.500000
O O16 0.488316 0.250000 0.299868
O O17 0.925037 0.250000 0.186991
#
# Coordination Sequence:
#
# PCOD9163802 Si02
#       7
#     4   4   4   4   4   4   4
#     4  10  22  40  56  81 122 162 203 257 318 371
#     4  10  22  37  57  84 116 158 211 262 313 370
#     4  11  21  38  59  88 118 158 208 261 308 366
#     4  10  21  40  64  90 122 159 201 249 298 355
#     4  10  22  41  64  92 127 161 196 244 299 360
#     4  10  20  37  63  92 121 158 203 251 301 356
#     4  11  23  37  59  90 124 162 204 255 312 368
#
# _framework density 19.458159999999999
#
# number of rings (size 3 to 8) (size 9 to 14) (size 15 to 20)
#    0.000    1.714    2.857    1.286    0.000    5.714 
#    0.000    0.714    0.000    0.000    0.000    0.000 
#    0.000    0.000    0.000    0.000    0.000    0.000 
#
# Total GULP energy -156022.534987 kJ/mol
# GULP energy per Si atom -5572.233392 kJ/mol
# Density = 1.941387 g / cm^3
# Si number density = 19.458160 Si / 1000 Ang^3
#
#
#
# Elastic Constant Matrix: (Units=GPa)
#
#
# Indices 1 2 3 4 5 6 
#
# 1 69.5611 46.0192 21.2042 0.0000 -18.2184 0.0000
# 2 46.0192 104.4185 15.0772 0.0000 -9.3418 0.0000
# 3 21.2042 15.0772 86.8429 0.0000 -25.4384 0.0000
# 4 0.0000 0.0000 0.0000 0.4786 0.0000 -0.6408
# 5 -18.2184 -9.3418 -25.4384 0.0000 30.4736 0.0000
# 6 0.0000 0.0000 0.0000 -0.6408 0.0000 23.8164
#
#
#
# Elastic Compliance Matrix: (Units=1/GPa)
#
#
# Indices 1 2 3 4 5 6 
#
# 1 0.023572 -0.009305 -0.001122 0.000000 0.010303 0.000000
# 2 -0.009305 0.013599 -0.000658 0.000000 -0.001944 0.000000
# 3 -0.001122 -0.000658 0.015418 0.000000 0.011998 0.000000
# 4 0.000000 0.000000 0.000000 2.167354 0.000000 0.058315
# 5 0.010303 -0.001944 0.011998 0.000000 0.048394 0.000000
# 6 0.000000 0.000000 0.000000 0.058315 0.000000 0.043557
#
#
# Mechanical properties :
#
#
# Convention : Reuss Voigt Hill
#
# Bulk Modulus (GPa) = 32.87499 47.26931 40.07215
# Shear Modulus (GPa) = 2.13292 22.85519 12.49405
#
# Velocity S-wave (km/s) = 1.04811 3.43093 2.53672
# Velocity P-wave (km/s) = 4.28913 6.32777 5.40542
#
# Compressibility (1/GPa) = 0.03041826
#
# Stress axis : x y z
#
# Youngs Moduli (GPa) = 42.42302 73.53565 64.86052
#
# Poissons Ratio (x) = 0.68424 0.07277
# Poissons Ratio (y) = 0.39474 0.04270
# Poissons Ratio (z) = 0.04760 0.04841
#
# Static dielectric constant tensor:
#      x y z
#    x 1.696530 0.000000 -0.027130 
#    y 0.000000 1.728470 0.000000 
#    z -0.027130 0.000000 1.684410 
# 
# From -- ./inp_files/61514.got.cif
#   From: 2010.05.17/outbox.cif.g08.bks.cpg/sg11_31_cif.got.tgz:61514.got - 2010.06.03 12:22:45.
