data_PCOD9163742
_publ_section_title
;
Structure prediction by ZEFSAII (Michael W. Deem and Ramdas Pophale) SiO2 
 PCOD9163742
Probable space group: P 21/M
;
_chemical_formula_sum "Si O2"
_cell_formula_units_Z 32
_cell_length_a 12.498279
_cell_length_b 8.020654
_cell_length_c 15.924558
_cell_angle_alpha 90.000000
_cell_angle_beta 90.773187
_cell_angle_gamma 90.000000
_cell_volume 1596.201958
_symmetry_space_group_name_H-M "P 21/M"
_symmetry_group_IT_number 11
_symmetry_cell_setting 'monoclinic'
loop_
_space_group_symop_operation_xyz
x,y,z
-x,1/2+y,-z
-x,-y,-z
x,1/2-y,z
loop_
_atom_site_type_symbol
_atom_site_label
_atom_site_fract_x
_atom_site_fract_y
_atom_site_fract_z
Si Si1 0.737801 0.944647 0.661820
Si Si2 0.623320 0.553415 0.003166
Si Si3 0.875072 0.951596 0.502761
Si Si4 0.226683 0.045253 0.842609
Si Si5 0.767765 0.054317 0.850051
Si Si6 0.275775 0.046623 0.653811
Si Si7 0.509602 0.449812 0.596208
Si Si8 0.002369 0.950923 0.096408
O O1 0.762886 0.750000 0.673690
O O2 0.815761 0.009472 0.588029
O O3 0.744558 0.030014 0.752112
O O4 0.615849 0.965456 0.631572
O O5 0.623135 0.750000 0.014197
O O6 0.683788 0.516731 0.916268
O O7 0.500000 0.500000 0.000000
O O8 0.691491 0.485842 0.083784
O O9 0.869421 0.750000 0.503014
O O10 0.806344 0.009193 0.420417
O O11 0.000000 0.000000 0.500000
O O12 0.228911 0.250000 0.843592
O O13 0.250358 0.992351 0.747959
O O14 0.106998 0.989336 0.863447
O O15 0.770150 0.250000 0.868668
O O16 0.886484 0.983056 0.866128
O O17 0.272056 0.250000 0.652108
O O18 0.397639 0.997924 0.636050
O O19 0.500000 0.500000 0.500000
O O20 0.520650 0.250000 0.605426
O O21 0.002389 0.750000 0.104619
O O22 0.000000 0.000000 0.000000
#
# Coordination Sequence:
#
# PCOD9163742 Si02
#       8
#     4   4   4   4   4   4   4   4
#     4  11  24  42  61  89 125 162 205 257 310 362
#     4  11  23  40  62  88 125 164 202 252 307 366
#     4  10  22  40  61  86 122 161 200 247 304 363
#     4   9  19  36  60  87 116 155 197 244 304 356
#     4  11  24  40  62  92 121 160 209 254 305 371
#     4   9  19  37  60  86 118 155 196 247 299 354
#     4  11  21  38  64  90 121 159 204 255 307 364
#     4  10  20  37  62  88 116 152 200 250 302 362
#
# _framework density 20.047587
#
# number of rings (size 3 to 8) (size 9 to 14) (size 15 to 20)
#    0.000    1.750    2.500    1.500    3.500    1.500 
#    0.000    0.000    0.000    3.000    0.000    0.000 
#    0.000    0.000    0.000    0.000    0.000    0.000 
#
# Total GULP energy -178642.557391 kJ/mol
# GULP energy per Si atom -5582.579918 kJ/mol
# Density = 2.000196 g / cm^3
# Si number density = 20.047587 Si / 1000 Ang^3
#
#
#
# Elastic Constant Matrix: (Units=GPa)
#
#
# Indices 1 2 3 4 5 6 
#
# 1 190.6134 3.3084 98.5770 0.0000 -17.0812 0.0000
# 2 3.3084 17.5712 -6.5935 0.0000 -5.6979 0.0000
# 3 98.5770 -6.5935 160.9141 0.0000 -17.1871 0.0000
# 4 0.0000 0.0000 0.0000 14.7006 0.0000 3.0818
# 5 -17.0812 -5.6979 -17.1871 0.0000 42.4637 0.0000
# 6 0.0000 0.0000 0.0000 3.0818 0.0000 24.6922
#
#
#
# Elastic Compliance Matrix: (Units=1/GPa)
#
#
# Indices 1 2 3 4 5 6 
#
# 1 0.007891 -0.003059 -0.004875 0.000000 0.000791 0.000000
# 2 -0.003059 0.062565 0.005438 0.000000 0.009366 0.000000
# 3 -0.004875 0.005438 0.009712 0.000000 0.002700 0.000000
# 4 0.000000 0.000000 0.000000 0.069852 0.000000 -0.008718
# 5 0.000791 0.009366 0.002700 0.000000 0.026217 0.000000
# 6 0.000000 0.000000 0.000000 -0.008718 0.000000 0.041587
#
#
# Mechanical properties :
#
#
# Convention : Reuss Voigt Hill
#
# Bulk Modulus (GPa) = 13.30213 62.18694 37.74454
# Shear Modulus (GPa) = 20.17145 34.62510 27.39827
#
# Velocity S-wave (km/s) = 3.17547 4.16040 3.70085
# Velocity P-wave (km/s) = 4.48269 7.35973 6.09344
#
# Compressibility (1/GPa) = 0.07517591
#
# Stress axis : x y z
#
# Youngs Moduli (GPa) = 126.71983 15.98344 102.96277
#
# Poissons Ratio (x) = 0.04889 0.50197
# Poissons Ratio (y) = 0.38762 -0.55989
# Poissons Ratio (z) = 0.61779 -0.08692
#
# Static dielectric constant tensor:
#      x y z
#    x 1.706830 0.000000 0.018930 
#    y 0.000000 1.697670 0.000000 
#    z 0.018930 0.000000 1.712110 
# 
# From -- ./inp_files/38134.got.cif
#   From: 2010.05.17/outbox.cif.g08.bks.cpg/sg11_20_cif.got.tgz:38134.got - 2010.06.03 12:22:45.
