data_PCOD9163525
_publ_section_title
;
Structure prediction by ZEFSAII (Michael W. Deem and Ramdas Pophale) SiO2 
 PCOD9163525
Probable space group: P 21/M
;
_chemical_formula_sum "Si O2"
_cell_formula_units_Z 32
_cell_length_a 12.159530
_cell_length_b 7.815532
_cell_length_c 15.706542
_cell_angle_alpha 90.000000
_cell_angle_beta 94.405060
_cell_angle_gamma 90.000000
_cell_volume 1488.233574
_symmetry_space_group_name_H-M "P 21/M"
_symmetry_group_IT_number 11
_symmetry_cell_setting 'monoclinic'
loop_
_space_group_symop_operation_xyz
x,y,z
-x,1/2+y,-z
-x,-y,-z
x,1/2-y,z
loop_
_atom_site_type_symbol
_atom_site_label
_atom_site_fract_x
_atom_site_fract_y
_atom_site_fract_z
Si Si1 0.329955 0.956567 0.534176
Si Si2 0.911268 0.455954 0.423166
Si Si3 0.560479 0.455936 0.631540
Si Si4 0.694823 0.948675 0.971785
Si Si5 0.687889 0.446337 0.161849
Si Si6 0.069321 0.540459 0.766337
Si Si7 0.925325 0.544290 0.914240
Si Si8 0.452031 0.553651 0.184476
O O1 0.325313 0.750000 0.531080
O O2 0.211704 0.019134 0.560008
O O3 0.362494 0.018303 0.441064
O O4 0.434404 0.003046 0.598772
O O5 0.904037 0.250000 0.418106
O O6 0.947370 0.516343 0.331543
O O7 0.000000 0.500000 0.500000
O O8 0.569410 0.250000 0.635447
O O9 0.587472 0.520742 0.727558
O O10 0.712494 0.750000 0.995903
O O11 0.802065 0.014831 0.927596
O O12 0.593337 0.961046 0.901365
O O13 0.681184 0.045600 0.059273
O O14 0.677767 0.250000 0.190422
O O15 0.807713 0.510234 0.197149
O O16 0.584168 0.545936 0.192294
O O17 0.067006 0.750000 0.768083
O O18 0.981706 0.479132 0.831167
O O19 0.921083 0.750000 0.907053
O O20 0.000000 0.500000 0.000000
O O21 0.416280 0.750000 0.174991
#
# Coordination Sequence:
#
# PCOD9163525 Si02
#       8
#     4   4   4   4   4   4   4   4
#     4   9  18  35  58  81 109 144 184 228 277 331
#     4  10  21  37  56  81 114 148 184 227 274 328
#     4   9  19  35  56  82 109 142 183 231 278 325
#     4  11  23  37  55  81 112 146 185 230 278 331
#     4  11  21  37  61  82 107 144 186 229 279 337
#     4   9  19  36  59  84 110 145 184 226 280 333
#     4  10  20  37  59  82 110 143 185 232 276 326
#     4  11  23  37  53  78 115 149 183 228 279 334
#
# _framework density 21.501999999999999
#
# number of rings (size 3 to 8) (size 9 to 14) (size 15 to 20)
#    0.000    2.000    1.250    2.250    0.000    4.000 
#    0.000    1.875    0.000    0.000    0.000    0.000 
#    0.000    0.000    0.000    0.000    0.000    0.000 
#
# Total GULP energy -178779.926601 kJ/mol
# GULP energy per Si atom -5586.872706 kJ/mol
# Density = 2.145306 g / cm^3
# Si number density = 21.502000 Si / 1000 Ang^3
#
#
#
# Elastic Constant Matrix: (Units=GPa)
#
#
# Indices 1 2 3 4 5 6 
#
# 1 51.5005 -0.0169 23.0399 0.0000 -24.8735 0.0000
# 2 -0.0169 29.7564 -1.9599 0.0000 -2.3216 0.0000
# 3 23.0399 -1.9599 146.2137 0.0000 -13.3659 0.0000
# 4 0.0000 0.0000 0.0000 18.5554 0.0000 5.4499
# 5 -24.8735 -2.3216 -13.3659 0.0000 25.7531 0.0000
# 6 0.0000 0.0000 0.0000 5.4499 0.0000 15.7055
#
#
#
# Elastic Compliance Matrix: (Units=1/GPa)
#
#
# Indices 1 2 3 4 5 6 
#
# 1 0.037594 0.002588 -0.002676 0.000000 0.035155 0.000000
# 2 0.002588 0.034105 0.000587 0.000000 0.005879 0.000000
# 3 -0.002676 0.000587 0.007388 0.000000 0.001303 0.000000
# 4 0.000000 0.000000 0.000000 0.060009 0.000000 -0.020823
# 5 0.035155 0.005879 0.001303 0.000000 0.073990 0.000000
# 6 0.000000 0.000000 0.000000 -0.020823 0.000000 0.070897
#
#
# Mechanical properties :
#
#
# Convention : Reuss Voigt Hill
#
# Bulk Modulus (GPa) = 12.48672 29.95519 21.22095
# Shear Modulus (GPa) = 16.14569 25.76332 20.95451
#
# Velocity S-wave (km/s) = 2.74321 3.46523 3.12515
# Velocity P-wave (km/s) = 3.98164 5.47467 4.78673
#
# Compressibility (1/GPa) = 0.08008508
#
# Stress axis : x y z
#
# Youngs Moduli (GPa) = 26.60000 29.32118 135.35645
#
# Poissons Ratio (x) = -0.07588 0.36217
# Poissons Ratio (y) = -0.06884 -0.07942
# Poissons Ratio (z) = 0.07117 -0.01720
#
# Static dielectric constant tensor:
#      x y z
#    x 1.803320 0.000000 -0.025210 
#    y 0.000000 1.766030 0.000000 
#    z -0.025210 0.000000 1.777990 
# 
# From -- ./inp_files/49347.got.cif
#   From: 2010.05.17/outbox.cif.g08.bks.cpg/sg11_25_cif.got.tgz:49347.got - 2010.06.03 12:22:45.
