data_PCOD9163066
_publ_section_title
;
Structure prediction by ZEFSAII (Michael W. Deem and Ramdas Pophale) SiO2 
 PCOD9163066
Probable space group: P 21/M
;
_chemical_formula_sum "Si O2"
_cell_formula_units_Z 30
_cell_length_a 14.611342
_cell_length_b 9.802033
_cell_length_c 11.839238
_cell_angle_alpha 90.000000
_cell_angle_beta 64.345084
_cell_angle_gamma 90.000000
_cell_volume 1528.467577
_symmetry_space_group_name_H-M "P 21/M"
_symmetry_group_IT_number 11
_symmetry_cell_setting 'monoclinic'
loop_
_space_group_symop_operation_xyz
x,y,z
-x,1/2+y,-z
-x,-y,-z
x,1/2-y,z
loop_
_atom_site_type_symbol
_atom_site_label
_atom_site_fract_x
_atom_site_fract_y
_atom_site_fract_z
Si Si1 0.178834 0.091691 0.906360
Si Si2 0.503990 0.024538 0.649325
Si Si3 0.730408 0.092497 0.563449
Si Si4 0.294228 0.910207 0.163597
Si Si5 0.608760 0.908917 0.072201
Si Si6 0.532571 0.750000 0.498659
Si Si7 0.858605 0.588278 0.327902
Si Si8 0.914898 0.407387 0.861868
O O1 0.147390 0.250000 0.922942
O O2 0.287132 0.081580 0.910130
O O3 0.181504 0.047295 0.774873
O O4 0.102322 0.003868 0.022323
O O5 0.617839 0.082835 0.571721
O O6 0.475485 0.038217 0.795757
O O7 0.437837 0.129384 0.610596
O O8 0.501293 0.871872 0.605188
O O9 0.764156 0.250000 0.543278
O O10 0.718259 0.048378 0.699824
O O11 0.804284 0.997205 0.453308
O O12 0.323410 0.750000 0.144776
O O13 0.183059 0.923032 0.165763
O O14 0.371006 0.000586 0.049035
O O15 0.590820 0.750000 0.054511
O O16 0.838026 0.750000 0.354850
O O17 0.979694 0.566040 0.258131
O O18 0.918033 0.250000 0.898066
#
# Coordination Sequence:
#
# PCOD9163066 Si02
#       8
#     4   4   4   4   4   2   4   4
#     4   9  19  32  54  83 115 143 181 230 284 339
#     4  11  23  40  59  88 118 157 183 228 277 338
#     4  11  24  40  56  83 114 151 192 239 284 334
#     4   9  21  40  59  79 113 148 195 243 284 333
#     4  10  20  36  58  84 111 152 191 233 282 336
#     4  10  24  38  62  84 122 152 186 224 280 342
#     4  10  22  35  56  83 114 149 189 232 291 345
#     4   9  18  37  57  81 111 149 188 235 284 337
#
# _framework density 19.627500999999999
#
# number of rings (size 3 to 8) (size 9 to 14) (size 15 to 20)
#    0.000    2.133    1.333    0.400    5.600    2.667 
#    0.000    0.000    0.000    0.000    0.000    0.000 
#    0.000    0.000    0.000    0.000    0.000    0.000 
#
# Total GULP energy -167052.210714 kJ/mol
# GULP energy per Si atom -5568.407024 kJ/mol
# Density = 1.958283 g / cm^3
# Si number density = 19.627501 Si / 1000 Ang^3
#
#
#
# Elastic Constant Matrix: (Units=GPa)
#
#
# Indices 1 2 3 4 5 6 
#
# 1 35.1827 14.5139 23.9027 0.0000 -4.3551 0.0000
# 2 14.5139 129.0818 97.2482 0.0000 -1.9841 0.0000
# 3 23.9027 97.2482 185.3021 0.0000 -3.0943 0.0000
# 4 0.0000 0.0000 0.0000 44.9525 0.0000 9.7851
# 5 -4.3551 -1.9841 -3.0943 0.0000 24.9368 0.0000
# 6 0.0000 0.0000 0.0000 9.7851 0.0000 17.7688
#
#
#
# Elastic Compliance Matrix: (Units=1/GPa)
#
#
# Indices 1 2 3 4 5 6 
#
# 1 0.031823 -0.000780 -0.003611 0.000000 0.005048 0.000000
# 2 -0.000780 0.012833 -0.006633 0.000000 0.000062 0.000000
# 3 -0.003611 -0.006633 0.009344 0.000000 0.000001 0.000000
# 4 0.000000 0.000000 0.000000 0.025276 0.000000 -0.013919
# 5 0.005048 0.000062 0.000001 0.000000 0.040988 0.000000
# 6 0.000000 0.000000 0.000000 -0.013919 0.000000 0.063943
#
#
# Mechanical properties :
#
#
# Convention : Reuss Voigt Hill
#
# Bulk Modulus (GPa) = 31.29807 68.98847 50.14327
# Shear Modulus (GPa) = 23.05145 31.79173 27.42159
#
# Velocity S-wave (km/s) = 3.43074 4.02898 3.74184
# Velocity P-wave (km/s) = 5.62796 7.54114 6.65367
#
# Compressibility (1/GPa) = 0.03195085
#
# Stress axis : x y z
#
# Youngs Moduli (GPa) = 31.42365 77.92361 107.02430
#
# Poissons Ratio (x) = 0.06077 0.38651
# Poissons Ratio (y) = 0.02450 0.70992
# Poissons Ratio (z) = 0.11348 0.51689
#
# Static dielectric constant tensor:
#      x y z
#    x 1.770170 0.000000 0.011630 
#    y 0.000000 1.657050 0.000000 
#    z 0.011630 0.000000 1.666270 
# 
# From -- ./inp_files/40935.got.cif
#   From: 2010.05.17/outbox.cif.g08.bks.cpg/sg11_21_cif.got.tgz:40935.got - 2010.06.03 12:22:45.
