data_PCOD9163907
_publ_section_title
;
Structure prediction by ZEFSAII (Michael W. Deem and Ramdas Pophale) SiO2 
 PCOD9163907
Probable space group: P 21/M
;
_chemical_formula_sum "Si O2"
_cell_formula_units_Z 20
_cell_length_a 12.863750
_cell_length_b 15.641893
_cell_length_c 14.517365
_cell_angle_alpha 90.000000
_cell_angle_beta 20.504022
_cell_angle_gamma 90.000000
_cell_volume 1023.178778
_symmetry_space_group_name_H-M "P 21/M"
_symmetry_group_IT_number 11
_symmetry_cell_setting 'monoclinic'
loop_
_space_group_symop_operation_xyz
x,y,z
-x,1/2+y,-z
-x,-y,-z
x,1/2-y,z
loop_
_atom_site_type_symbol
_atom_site_label
_atom_site_fract_x
_atom_site_fract_y
_atom_site_fract_z
Si Si1 0.443678 0.250000 0.083262
Si Si2 0.142597 0.250000 0.531018
Si Si3 0.481408 0.584400 0.303779
Si Si4 0.407736 0.107462 0.441186
Si Si5 0.821030 0.845603 0.857653
Si Si6 0.069657 0.098589 0.915738
O O1 0.309340 0.250000 0.295625
O O2 0.326111 0.330359 0.120211
O O3 0.794964 0.250000 0.798994
O O4 0.239011 0.168704 0.511211
O O5 0.432002 0.487184 0.377780
O O6 0.702776 0.627758 0.194386
O O7 0.162089 0.628610 0.565810
O O8 0.643305 0.591129 0.071245
O O9 0.232964 0.102706 0.682441
O O10 0.744412 0.139690 0.179869
O O11 0.799591 0.750000 0.918095
O O12 0.000000 0.000000 0.000000
#
# Coordination Sequence:
#
# PCOD9163907 Si02
#       6
#     2   2   4   4   4   4
#     4  10  24  44  63  76 129 162 190 274 324 328
#     4  12  24  46  59  86 121 170 202 252 302 350
#     4  11  19  39  64  91 123 156 194 250 303 357
#     4  11  23  39  63  91 125 166 205 235 292 377
#     4  10  22  39  62  89 116 154 203 248 319 358
#     4  10  20  38  60  91 127 160 185 242 307 348
#
# _framework density 19.546925000000002
#
# number of rings (size 3 to 8) (size 9 to 14) (size 15 to 20)
#    0.600    0.800    0.000    9.000    0.000    0.000 
#   10.800    6.000    0.000    0.000    0.000    0.000 
#    0.000    0.000    0.000    0.000    0.000    0.000 
#
# Total GULP energy -111670.075492 kJ/mol
# GULP energy per Si atom -5583.503775 kJ/mol
# Density = 1.950244 g / cm^3
# Si number density = 19.546925 Si / 1000 Ang^3
#
#
#
# Elastic Constant Matrix: (Units=GPa)
#
#
# Indices 1 2 3 4 5 6 
#
# 1 211.6335 55.8148 135.0162 0.0000 4.9881 0.0000
# 2 55.8148 45.0220 42.6579 0.0000 -9.1371 0.0000
# 3 135.0162 42.6579 230.9743 0.0000 -1.7552 0.0000
# 4 0.0000 0.0000 0.0000 15.6900 0.0000 -18.3437
# 5 4.9881 -9.1371 -1.7552 0.0000 43.3133 0.0000
# 6 0.0000 0.0000 0.0000 -18.3437 0.0000 18.1033
#
#
#
# Elastic Compliance Matrix: (Units=1/GPa)
#
#
# Indices 1 2 3 4 5 6 
#
# 1 0.009735 -0.008841 -0.004082 0.000000 -0.003152 0.000000
# 2 -0.008841 0.036318 -0.001474 0.000000 0.008620 0.000000
# 3 -0.004082 -0.001474 0.006991 0.000000 0.000442 0.000000
# 4 0.000000 0.000000 0.000000 -0.345139 0.000000 -0.349724
# 5 -0.003152 0.008620 0.000442 0.000000 0.025287 0.000000
# 6 0.000000 0.000000 0.000000 -0.349724 0.000000 -0.299132
#
#
# Mechanical properties :
#
#
# Convention : Reuss Voigt Hill
#
# Bulk Modulus (GPa) = 41.23639 106.06751 73.65195
# Shear Modulus (GPa) = -9.45067 32.36404 11.45669
#
# Velocity S-wave (km/s) = -2.20122 4.07346 2.42360
# Velocity P-wave (km/s) = 3.83163 8.74671 6.75227
#
# Compressibility (1/GPa) = 0.02425043
#
# Stress axis : x y z
#
# Youngs Moduli (GPa) = 102.71981 27.53487 143.03915
#
# Poissons Ratio (x) = 0.24344 0.58386
# Poissons Ratio (y) = 0.90815 0.21081
# Poissons Ratio (z) = 0.41929 0.04058
#
# Static dielectric constant tensor:
#      x y z
#    x 1.662550 0.000000 -0.022510 
#    y 0.000000 1.710470 0.000000 
#    z -0.022510 0.000000 1.672360 
# 
# From -- ./inp_files/50522.got.cif
#   From: 2010.05.17/outbox.cif.g08.bks.cpg/sg11_26_cif.got.tgz:50522.got - 2010.06.03 12:22:45.
