data_PCOD9163615
_publ_section_title
;
Structure prediction by ZEFSAII (Michael W. Deem and Ramdas Pophale) SiO2 
 PCOD9163615
Probable space group: P 21/M
;
_chemical_formula_sum "Si O2"
_cell_formula_units_Z 24
_cell_length_a 8.654312
_cell_length_b 19.051196
_cell_length_c 15.695791
_cell_angle_alpha 90.000000
_cell_angle_beta 24.594330
_cell_angle_gamma 90.000000
_cell_volume 1077.036667
_symmetry_space_group_name_H-M "P 21/M"
_symmetry_group_IT_number 11
_symmetry_cell_setting 'monoclinic'
loop_
_space_group_symop_operation_xyz
x,y,z
-x,1/2+y,-z
-x,-y,-z
x,1/2-y,z
loop_
_atom_site_type_symbol
_atom_site_label
_atom_site_fract_x
_atom_site_fract_y
_atom_site_fract_z
Si Si1 0.971085 0.827581 0.134137
Si Si2 0.140305 0.166499 0.993538
Si Si3 0.959339 0.940706 0.273583
Si Si4 0.907674 0.406109 0.277902
Si Si5 0.868978 0.427850 0.613053
Si Si6 0.936558 0.329556 0.431755
O O1 0.065183 0.750000 0.117296
O O2 0.098603 0.838179 0.973047
O O3 0.106611 0.883055 0.134446
O O4 0.518065 0.829181 0.349593
O O5 0.266049 0.250000 0.934990
O O6 0.450517 0.104817 0.827078
O O7 0.940562 0.144806 0.180889
O O8 0.517812 0.926365 0.490263
O O9 0.034412 0.933471 0.336166
O O10 0.081078 0.016989 0.179335
O O11 0.062345 0.369551 0.284438
O O12 0.045186 0.368867 0.463453
O O13 0.000000 0.500000 0.500000
O O14 0.061103 0.250000 0.370310
#
# Coordination Sequence:
#
# PCOD9163615 Si02
#       6
#     4   4   4   4   4   4
#     4   8  17  34  55  79 113 155 192 231 283 347
#     4  10  22  40  61  85 117 159 200 238 291 357
#     4  10  21  36  58  90 119 151 196 243 296 345
#     4  10  20  37  60  87 116 154 197 243 290 353
#     4  11  21  38  57  86 121 156 195 244 299 350
#     4   9  17  34  57  78 111 160 197 225 283 361
#
# _framework density 22.283365
#
# number of rings (size 3 to 8) (size 9 to 14) (size 15 to 20)
#    0.000    2.333    1.667    2.000    2.333    3.333 
#    0.000    0.000    0.000    2.000    0.000    0.000 
#    0.000    0.000    0.000    0.000    0.000    0.000 
#
# Total GULP energy -133714.536482 kJ/mol
# GULP energy per Si atom -5571.439020 kJ/mol
# Density = 2.223265 g / cm^3
# Si number density = 22.283365 Si / 1000 Ang^3
#
#
#
# Elastic Constant Matrix: (Units=GPa)
#
#
# Indices 1 2 3 4 5 6 
#
# 1 91.0177 80.3935 16.9072 0.0000 43.7325 0.0000
# 2 80.3935 182.3489 32.4095 0.0000 38.1656 0.0000
# 3 16.9072 32.4095 71.7001 0.0000 1.3786 0.0000
# 4 0.0000 0.0000 0.0000 17.0976 0.0000 12.4679
# 5 43.7325 38.1656 1.3786 0.0000 45.7171 0.0000
# 6 0.0000 0.0000 0.0000 12.4679 0.0000 28.7313
#
#
#
# Elastic Compliance Matrix: (Units=1/GPa)
#
#
# Indices 1 2 3 4 5 6 
#
# 1 0.027977 -0.007581 -0.002779 0.000000 -0.020350 0.000000
# 2 -0.007581 0.009362 -0.002434 0.000000 -0.000490 0.000000
# 3 -0.002779 -0.002434 0.015622 0.000000 0.004220 0.000000
# 4 0.000000 0.000000 0.000000 0.085564 0.000000 -0.037130
# 5 -0.020350 -0.000490 0.004220 0.000000 0.041622 0.000000
# 6 0.000000 0.000000 0.000000 -0.037130 0.000000 0.050918
#
#
# Mechanical properties :
#
#
# Convention : Reuss Voigt Hill
#
# Bulk Modulus (GPa) = 36.53522 67.16523 51.85022
# Shear Modulus (GPa) = 18.81273 32.66628 25.73950
#
# Velocity S-wave (km/s) = 2.90875 3.83293 3.40236
# Velocity P-wave (km/s) = 5.26426 7.05658 6.22526
#
# Compressibility (1/GPa) = 0.02737085
#
# Stress axis : x y z
#
# Youngs Moduli (GPa) = 35.74308 106.81913 64.01416
#
# Poissons Ratio (x) = 0.80984 0.17789
# Poissons Ratio (y) = 0.27098 0.15584
# Poissons Ratio (z) = 0.09933 0.26004
#
# Static dielectric constant tensor:
#      x y z
#    x 1.807850 0.000000 -0.045630 
#    y 0.000000 1.826400 0.000000 
#    z -0.045630 0.000000 1.936970 
# 
# From -- ./inp_files/47955.got.cif
#   From: 2010.05.17/outbox.cif.g08.bks.cpg/sg11_24_cif.got.tgz:47955.got - 2010.06.03 12:22:45.
