data_PCOD9163434
_publ_section_title
;
Structure prediction by ZEFSAII (Michael W. Deem and Ramdas Pophale) SiO2 
 PCOD9163434
Probable space group: P 21/M
;
_chemical_formula_sum "Si O2"
_cell_formula_units_Z 24
_cell_length_a 8.598329
_cell_length_b 19.002984
_cell_length_c 9.047160
_cell_angle_alpha 90.000000
_cell_angle_beta 131.470198
_cell_angle_gamma 90.000000
_cell_volume 1107.653758
_symmetry_space_group_name_H-M "P 21/M"
_symmetry_group_IT_number 11
_symmetry_cell_setting 'monoclinic'
loop_
_space_group_symop_operation_xyz
x,y,z
-x,1/2+y,-z
-x,-y,-z
x,1/2-y,z
loop_
_atom_site_type_symbol
_atom_site_label
_atom_site_fract_x
_atom_site_fract_y
_atom_site_fract_z
Si Si1 0.727798 0.167859 0.354186
Si Si2 0.443972 0.064696 0.358789
Si Si3 0.004179 0.561870 0.879268
Si Si4 0.651420 0.168317 0.957033
Si Si5 0.797058 0.668516 0.275484
Si Si6 0.702985 0.530999 0.053011
O O1 0.681253 0.250000 0.356225
O O2 0.617380 0.120112 0.410885
O O3 0.657925 0.154815 0.139829
O O4 0.977306 0.159690 0.512039
O O5 0.223597 0.094457 0.280617
O O6 0.500000 0.000000 0.500000
O O7 0.376452 0.030464 0.162899
O O8 0.179473 0.620395 0.016555
O O9 0.098423 0.519358 0.799319
O O10 0.000000 0.500000 0.000000
O O11 0.701703 0.250000 0.967110
O O12 0.411954 0.156197 0.759741
O O13 0.781421 0.750000 0.213810
O O14 0.775203 0.609061 0.137965
O O15 0.500000 0.500000 0.000000
#
# Coordination Sequence:
#
# PCOD9163434 Si02
#       6
#     4   4   4   4   4   4
#     4  10  21  39  66  94 121 164 220 262 313 387
#     4  11  23  38  58  91 133 167 201 261 322 383
#     4  10  22  38  58  88 129 167 205 259 325 386
#     4  10  20  40  65  92 121 161 214 268 319 374
#     4  10  20  36  64  93 119 154 211 274 313 362
#     4  11  20  38  64  88 122 170 218 259 308 381
#
# _framework density 21.667421999999998
#
# number of rings (size 3 to 8) (size 9 to 14) (size 15 to 20)
#    0.000    1.667    3.333    1.000    0.000    2.000 
#    0.000    5.833    0.000    5.000    0.000    0.000 
#    0.000    0.000    0.000    0.000    0.000    0.000 
#
# Total GULP energy -133632.246266 kJ/mol
# GULP energy per Si atom -5568.010261 kJ/mol
# Density = 2.161811 g / cm^3
# Si number density = 21.667422 Si / 1000 Ang^3
#
#
#
# Elastic Constant Matrix: (Units=GPa)
#
#
# Indices 1 2 3 4 5 6 
#
# 1 132.8247 56.6300 31.2517 0.0000 50.4021 0.0000
# 2 56.6300 114.4455 22.7287 0.0000 22.1750 0.0000
# 3 31.2517 22.7287 58.8476 0.0000 23.6129 0.0000
# 4 0.0000 0.0000 0.0000 28.9289 0.0000 5.5756
# 5 50.4021 22.1750 23.6129 0.0000 36.9059 0.0000
# 6 0.0000 0.0000 0.0000 5.5756 0.0000 52.5286
#
#
#
# Elastic Compliance Matrix: (Units=1/GPa)
#
#
# Indices 1 2 3 4 5 6 
#
# 1 0.017579 -0.004691 0.001316 0.000000 -0.022031 0.000000
# 2 -0.004691 0.011307 -0.002315 0.000000 0.001094 0.000000
# 3 0.001316 -0.002315 0.023344 0.000000 -0.015343 0.000000
# 4 0.000000 0.000000 0.000000 0.035289 0.000000 -0.003746
# 5 -0.022031 0.001094 -0.015343 0.000000 0.066343 0.000000
# 6 0.000000 0.000000 0.000000 -0.003746 0.000000 0.019435
#
#
# Mechanical properties :
#
#
# Convention : Reuss Voigt Hill
#
# Bulk Modulus (GPa) = 24.47888 58.59318 41.53603
# Shear Modulus (GPa) = 25.21509 36.70652 30.96081
#
# Velocity S-wave (km/s) = 3.41505 4.12040 3.78419
# Velocity P-wave (km/s) = 5.18384 7.05249 6.18910
#
# Compressibility (1/GPa) = 0.04085155
#
# Stress axis : x y z
#
# Youngs Moduli (GPa) = 56.88570 88.44239 42.83667
#
# Poissons Ratio (x) = 0.41490 -0.05639
# Poissons Ratio (y) = 0.26686 0.09915
# Poissons Ratio (z) = -0.07489 0.20472
#
# Static dielectric constant tensor:
#      x y z
#    x 1.924770 0.000000 0.015730 
#    y 0.000000 1.830940 0.000000 
#    z 0.015730 0.000000 1.803560 
# 
# From -- ./inp_files/14395.got.cif
#   From: 2010.05.17/outbox.cif.g08.bks.cpg/sg11_8_cif.got.tgz:14395.got - 2010.06.03 12:22:45.
