data_PCOD9163653
_publ_section_title
;
Structure prediction by ZEFSAII (Michael W. Deem and Ramdas Pophale) SiO2 
 PCOD9163653
Probable space group: P 21/M
;
_chemical_formula_sum "Si O2"
_cell_formula_units_Z 24
_cell_length_a 7.875845
_cell_length_b 19.453722
_cell_length_c 11.428948
_cell_angle_alpha 90.000000
_cell_angle_beta 141.973063
_cell_angle_gamma 90.000000
_cell_volume 1078.721443
_symmetry_space_group_name_H-M "P 21/M"
_symmetry_group_IT_number 11
_symmetry_cell_setting 'monoclinic'
loop_
_space_group_symop_operation_xyz
x,y,z
-x,1/2+y,-z
-x,-y,-z
x,1/2-y,z
loop_
_atom_site_type_symbol
_atom_site_label
_atom_site_fract_x
_atom_site_fract_y
_atom_site_fract_z
Si Si1 0.633978 0.328448 0.888191
Si Si2 0.697360 0.432184 0.376716
Si Si3 0.835818 0.433663 0.178554
Si Si4 0.772370 0.672466 0.916674
Si Si5 0.986377 0.583467 0.232080
Si Si6 0.424706 0.079621 0.577028
O O1 0.563666 0.250000 0.881086
O O2 0.448701 0.359383 0.683887
O O3 0.651310 0.381632 0.004723
O O4 0.943302 0.328894 0.001258
O O5 0.770900 0.433638 0.280659
O O6 0.449756 0.378969 0.256802
O O7 0.951771 0.409329 0.597166
O O8 0.613431 0.507716 0.375378
O O9 0.825331 0.511737 0.125710
O O10 0.158367 0.412412 0.350790
O O11 0.667153 0.750000 0.862717
O O12 0.844790 0.644508 0.085349
O O13 0.291075 0.575883 0.340148
#
# Coordination Sequence:
#
# PCOD9163653 Si02
#       6
#     4   4   4   4   4   4
#     4  10  22  39  58  81 110 146 187 229 274 327
#     4  11  22  36  57  85 115 146 181 227 281 333
#     4  11  22  36  57  85 115 146 181 227 281 333
#     4  10  22  39  58  81 110 146 187 229 274 327
#     4  10  20  37  61  84 108 145 191 234 273 320
#     4  10  20  37  61  84 108 145 191 234 273 320
#
# _framework density 22.248562
#
# number of rings (size 3 to 8) (size 9 to 14) (size 15 to 20)
#    0.000    1.667    0.000    7.000    0.000    8.667 
#    0.000    3.333    0.000    0.000    0.000    0.000 
#    0.000    0.000    0.000    0.000    0.000    0.000 
#
# Total GULP energy -134358.643130 kJ/mol
# GULP energy per Si atom -5598.276797 kJ/mol
# Density = 2.219792 g / cm^3
# Si number density = 22.248562 Si / 1000 Ang^3
#
#
#
# Elastic Constant Matrix: (Units=GPa)
#
#
# Indices 1 2 3 4 5 6 
#
# 1 74.7215 -0.0294 -3.8045 0.0000 -13.1236 0.0000
# 2 -0.0294 74.6588 24.3188 0.0000 -6.4674 0.0000
# 3 -3.8045 24.3188 66.2610 0.0000 -7.4653 0.0000
# 4 0.0000 0.0000 0.0000 10.6272 0.0000 3.7943
# 5 -13.1236 -6.4674 -7.4653 0.0000 35.6035 0.0000
# 6 0.0000 0.0000 0.0000 3.7943 0.0000 9.7856
#
#
#
# Elastic Compliance Matrix: (Units=1/GPa)
#
#
# Indices 1 2 3 4 5 6 
#
# 1 0.014447 0.000019 0.001457 0.000000 0.005634 0.000000
# 2 0.000019 0.015306 -0.005431 0.000000 0.001649 0.000000
# 3 0.001457 -0.005431 0.017532 0.000000 0.003227 0.000000
# 4 0.000000 0.000000 0.000000 0.109219 0.000000 -0.042349
# 5 0.005634 0.001649 0.003227 0.000000 0.031140 0.000000
# 6 0.000000 0.000000 0.000000 -0.042349 0.000000 0.118611
#
#
# Mechanical properties :
#
#
# Convention : Reuss Voigt Hill
#
# Bulk Modulus (GPa) = 25.39599 28.51233 26.95416
# Shear Modulus (GPa) = 15.27700 24.21369 19.74535
#
# Velocity S-wave (km/s) = 2.62325 3.30256 2.98231
# Velocity P-wave (km/s) = 4.54034 5.23313 4.89900
#
# Compressibility (1/GPa) = 0.03937630
#
# Stress axis : x y z
#
# Youngs Moduli (GPa) = 69.21959 65.33369 57.03794
#
# Poissons Ratio (x) = -0.00125 -0.08312
# Poissons Ratio (y) = -0.00132 0.30976
# Poissons Ratio (z) = -0.10087 0.35481
#
# Static dielectric constant tensor:
#      x y z
#    x 1.880840 0.000000 0.024250 
#    y 0.000000 1.771420 0.000000 
#    z 0.024250 0.000000 1.812140 
# 
# From -- ./inp_files/32731.got.cif
#   From: 2010.05.17/outbox.cif.g08.bks.cpg/sg11_17_cif.got.tgz:32731.got - 2010.06.03 12:22:45.
