data_PCOD9163360
_publ_section_title
;
Structure prediction by ZEFSAII (Michael W. Deem and Ramdas Pophale) SiO2 
 PCOD9163360
Probable space group: P 21/M
;
_chemical_formula_sum "Si O2"
_cell_formula_units_Z 20
_cell_length_a 10.955969
_cell_length_b 8.762394
_cell_length_c 12.938157
_cell_angle_alpha 90.000000
_cell_angle_beta 53.029638
_cell_angle_gamma 90.000000
_cell_volume 992.347550
_symmetry_space_group_name_H-M "P 21/M"
_symmetry_group_IT_number 11
_symmetry_cell_setting 'monoclinic'
loop_
_space_group_symop_operation_xyz
x,y,z
-x,1/2+y,-z
-x,-y,-z
x,1/2-y,z
loop_
_atom_site_type_symbol
_atom_site_label
_atom_site_fract_x
_atom_site_fract_y
_atom_site_fract_z
Si Si1 0.673754 0.934323 0.410143
Si Si2 0.639678 0.424327 0.030077
Si Si3 0.152456 0.926696 0.874896
Si Si4 0.152283 0.072605 0.470582
Si Si5 0.327513 0.923196 0.206729
O O1 0.662653 0.750000 0.417483
O O2 0.771147 0.985154 0.461934
O O3 0.500000 0.000000 0.500000
O O4 0.768049 0.988201 0.261541
O O5 0.578221 0.250000 0.050511
O O6 0.731595 0.429930 0.088124
O O7 0.507241 0.548681 0.101586
O O8 0.737775 0.448353 0.875505
O O9 0.124338 0.750000 0.860358
O O10 0.000000 0.000000 0.000000
O O11 0.121495 0.250000 0.502266
O O12 0.273622 0.041522 0.318704
O O13 0.000000 0.000000 0.500000
O O14 0.293618 0.750000 0.256763
#
# Coordination Sequence:
#
# PCOD9163360 Si02
#       5
#     4   4   4   4   4
#     4  11  25  45  68  95 130 171 218 269 321 384
#     4   9  20  38  59  86 122 159 197 248 304 362
#     4  11  24  41  63  92 128 167 211 262 317 376
#     4  11  25  42  62  90 126 164 207 261 316 372
#     4  10  20  36  61  90 120 156 200 248 303 369
#
# _framework density 20.154229999999998
#
# number of rings (size 3 to 8) (size 9 to 14) (size 15 to 20)
#    0.000    1.600    0.000    3.600    2.800   10.400 
#    0.000    0.000    0.000    0.000    0.000    0.000 
#    0.000    0.000    0.000    0.000    0.000    0.000 
#
# Total GULP energy -111582.916995 kJ/mol
# GULP energy per Si atom -5579.145850 kJ/mol
# Density = 2.010836 g / cm^3
# Si number density = 20.154230 Si / 1000 Ang^3
#
#
#
# Elastic Constant Matrix: (Units=GPa)
#
#
# Indices 1 2 3 4 5 6 
#
# 1 119.9448 47.2097 62.1431 0.0000 18.2005 0.0000
# 2 47.2097 60.3175 34.8574 0.0000 3.7621 0.0000
# 3 62.1431 34.8574 127.5446 0.0000 14.6120 0.0000
# 4 0.0000 0.0000 0.0000 37.5504 0.0000 -2.2753
# 5 18.2005 3.7621 14.6120 0.0000 35.3678 0.0000
# 6 0.0000 0.0000 0.0000 -2.2753 0.0000 31.2950
#
#
#
# Elastic Compliance Matrix: (Units=1/GPa)
#
#
# Indices 1 2 3 4 5 6 
#
# 1 0.014718 -0.008781 -0.004210 0.000000 -0.004901 0.000000
# 2 -0.008781 0.024928 -0.002885 0.000000 0.003059 0.000000
# 3 -0.004210 -0.002885 0.010913 0.000000 -0.002035 0.000000
# 4 0.000000 0.000000 0.000000 0.026749 0.000000 0.001945
# 5 -0.004901 0.003059 -0.002035 0.000000 0.031312 0.000000
# 6 0.000000 0.000000 0.000000 0.001945 0.000000 0.032095
#
#
# Mechanical properties :
#
#
# Convention : Reuss Voigt Hill
#
# Bulk Modulus (GPa) = 53.16913 66.24748 59.70830
# Shear Modulus (GPa) = 27.97419 31.74908 29.86163
#
# Velocity S-wave (km/s) = 3.72964 3.97332 3.85340
# Velocity P-wave (km/s) = 6.70711 7.34788 7.03479
#
# Compressibility (1/GPa) = 0.01880791
#
# Stress axis : x y z
#
# Youngs Moduli (GPa) = 67.94344 40.11520 91.63308
#
# Poissons Ratio (x) = 0.35226 0.38575
# Poissons Ratio (y) = 0.59663 0.26434
# Poissons Ratio (z) = 0.28602 0.11572
#
# Static dielectric constant tensor:
#      x y z
#    x 2.246090 0.000000 -0.334060 
#    y 0.000000 1.714400 0.000000 
#    z -0.334060 0.000000 1.984520 
# 
# From -- ./inp_files/33663.got.cif
#   From: 2010.05.17/outbox.cif.g08.bks.cpg/sg11_17_cif.got.tgz:33663.got - 2010.06.03 12:22:45.
