data_PCOD9163644
_publ_section_title
;
Structure prediction by ZEFSAII (Michael W. Deem and Ramdas Pophale) SiO2 
 PCOD9163644
Probable space group: P 21/M
;
_chemical_formula_sum "Si O2"
_cell_formula_units_Z 32
_cell_length_a 11.896054
_cell_length_b 17.031075
_cell_length_c 15.357301
_cell_angle_alpha 90.000000
_cell_angle_beta 151.257140
_cell_angle_gamma 90.000000
_cell_volume 1496.222419
_symmetry_space_group_name_H-M "P 21/M"
_symmetry_group_IT_number 11
_symmetry_cell_setting 'monoclinic'
loop_
_space_group_symop_operation_xyz
x,y,z
-x,1/2+y,-z
-x,-y,-z
x,1/2-y,z
loop_
_atom_site_type_symbol
_atom_site_label
_atom_site_fract_x
_atom_site_fract_y
_atom_site_fract_z
Si Si1 0.028396 0.089165 0.992146
Si Si2 0.389208 0.343132 0.687287
Si Si3 0.562163 0.839032 0.830319
Si Si4 0.297366 0.575321 0.957303
Si Si5 0.027167 0.655801 0.475643
Si Si6 0.576713 0.342403 0.619801
Si Si7 0.310537 0.395908 0.906856
Si Si8 0.892754 0.657871 0.771990
O O1 0.278576 0.106776 0.121115
O O2 0.007795 0.142115 0.064681
O O3 0.818971 0.111925 0.785203
O O4 0.000000 0.000000 0.000000
O O5 0.435308 0.250000 0.739286
O O6 0.451050 0.353269 0.628513
O O7 0.125608 0.360364 0.541239
O O8 0.551432 0.399235 0.855705
O O9 0.559332 0.750000 0.793187
O O10 0.296886 0.868812 0.661075
O O11 0.682341 0.839165 0.006450
O O12 0.290184 0.483212 0.932682
O O13 0.044711 0.610226 0.805769
O O14 0.442932 0.611819 0.976386
O O15 0.026236 0.750000 0.464528
O O16 0.888370 0.619713 0.299621
O O17 0.628415 0.250000 0.644624
O O18 0.379208 0.365862 0.416611
O O19 0.906606 0.750000 0.760453
#
# Coordination Sequence:
#
# PCOD9163644 Si02
#       8
#     4   4   4   4   4   4   4   4
#     4  12  26  44  65  88 126 167 208 258 312 370
#     4   9  17  35  62  90 125 159 199 259 308 353
#     4  11  24  40  63  88 120 165 209 247 302 373
#     4  10  20  37  60  92 128 164 201 248 307 371
#     4   9  20  38  60  90 123 162 208 252 300 362
#     4  10  22  39  64  95 123 158 208 263 310 358
#     4  10  22  39  57  90 130 165 202 245 306 366
#     4  11  23  40  66  95 120 157 210 262 311 362
#
# _framework density 21.387195999999999
#
# number of rings (size 3 to 8) (size 9 to 14) (size 15 to 20)
#    0.000    1.750    1.250    2.625    1.750    4.000 
#    0.000    3.125    0.000    0.000    0.000    0.000 
#    0.000    0.000    0.000    0.000    0.000    0.000 
#
# Total GULP energy -178821.723398 kJ/mol
# GULP energy per Si atom -5588.178856 kJ/mol
# Density = 2.133852 g / cm^3
# Si number density = 21.387196 Si / 1000 Ang^3
#
#
#
# Elastic Constant Matrix: (Units=GPa)
#
#
# Indices 1 2 3 4 5 6 
#
# 1 44.1830 4.6477 9.1396 0.0000 13.7253 0.0000
# 2 4.6477 23.9290 2.9440 0.0000 12.8262 0.0000
# 3 9.1396 2.9440 76.5350 0.0000 23.3213 0.0000
# 4 0.0000 0.0000 0.0000 -9.9799 0.0000 25.6312
# 5 13.7253 12.8262 23.3213 0.0000 34.5528 0.0000
# 6 0.0000 0.0000 0.0000 25.6312 0.0000 9.6611
#
#
#
# Elastic Compliance Matrix: (Units=1/GPa)
#
#
# Indices 1 2 3 4 5 6 
#
# 1 0.025827 0.000636 0.000113 0.000000 -0.010571 0.000000
# 2 0.000636 0.053690 0.005047 0.000000 -0.023589 0.000000
# 3 0.000113 0.005047 0.016923 0.000000 -0.013340 0.000000
# 4 0.000000 0.000000 0.000000 -0.012824 0.000000 0.034022
# 5 -0.010571 -0.023589 -0.013340 0.000000 0.050901 0.000000
# 6 0.000000 0.000000 0.000000 0.034022 0.000000 0.013247
#
#
# Mechanical properties :
#
#
# Convention : Reuss Voigt Hill
#
# Bulk Modulus (GPa) = 9.25659 19.78993 14.52326
# Shear Modulus (GPa) = 29.03876 15.37451 22.20664
#
# Velocity S-wave (km/s) = 3.68878 2.68407 3.22578
# Velocity P-wave (km/s) = 4.74134 4.34499 4.54749
#
# Compressibility (1/GPa) = 0.10803110
#
# Stress axis : x y z
#
# Youngs Moduli (GPa) = 38.71937 18.62547 59.08987
#
# Poissons Ratio (x) = -0.01185 -0.00665
# Poissons Ratio (y) = -0.02463 -0.29821
# Poissons Ratio (z) = -0.00436 -0.09400
#
# Static dielectric constant tensor:
#      x y z
#    x 1.778840 0.000000 0.006440 
#    y 0.000000 1.751900 0.000000 
#    z 0.006440 0.000000 1.781030 
# 
# From -- ./inp_files/50729.got.cif
#   From: 2010.05.17/outbox.cif.g08.bks.cpg/sg11_26_cif.got.tgz:50729.got - 2010.06.03 12:22:45.
