data_PCOD9163536
_publ_section_title
;
Structure prediction by ZEFSAII (Michael W. Deem and Ramdas Pophale) SiO2 
 PCOD9163536
Probable space group: P 21/M
;
_chemical_formula_sum "Si O2"
_cell_formula_units_Z 24
_cell_length_a 21.401507
_cell_length_b 7.782415
_cell_length_c 14.643603
_cell_angle_alpha 90.000000
_cell_angle_beta 23.107206
_cell_angle_gamma 90.000000
_cell_volume 957.181106
_symmetry_space_group_name_H-M "P 21/M"
_symmetry_group_IT_number 11
_symmetry_cell_setting 'monoclinic'
loop_
_space_group_symop_operation_xyz
x,y,z
-x,1/2+y,-z
-x,-y,-z
x,1/2-y,z
loop_
_atom_site_type_symbol
_atom_site_label
_atom_site_fract_x
_atom_site_fract_y
_atom_site_fract_z
Si Si1 0.842890 0.955052 0.654874
Si Si2 0.817594 0.038311 0.359296
Si Si3 0.501970 0.043506 0.889815
Si Si4 0.307559 0.947974 0.654928
Si Si5 0.642262 0.449728 0.208307
Si Si6 0.024984 0.450961 0.239818
O O1 0.833899 0.750000 0.663989
O O2 0.668939 0.018991 0.919154
O O3 0.000000 0.000000 0.500000
O O4 0.879815 0.022777 0.503909
O O5 0.819273 0.250000 0.355812
O O6 0.803204 0.975947 0.274630
O O7 0.967457 0.982378 0.218628
O O8 0.657881 0.980436 0.627207
O O9 0.507238 0.250000 0.874944
O O10 0.500000 0.000000 0.000000
O O11 0.262875 0.750000 0.727859
O O12 0.324592 0.023057 0.733448
O O13 0.490264 0.955221 0.372223
O O14 0.598206 0.250000 0.272863
O O15 0.816796 0.465187 0.931899
O O16 0.058009 0.250000 0.189079
#
# Coordination Sequence:
#
# PCOD9163536 Si02
#       6
#     4   4   4   4   4   4
#     4  11  24  39  58  87 119 152 191 235 285 338
#     4   9  19  36  59  85 110 147 194 234 280 342
#     4  10  20  37  59  83 114 150 189 230 280 336
#     4   9  19  38  62  84 112 151 192 235 288 345
#     4  10  21  37  57  86 119 148 187 240 288 340
#     4  11  22  38  60  83 113 153 192 235 287 341
#
# _framework density 25.073626000000001
#
# number of rings (size 3 to 8) (size 9 to 14) (size 15 to 20)
#    0.000    2.000    1.667    1.500    2.333    2.000 
#    0.000    2.500    0.000    0.000    0.000    0.000 
#    0.000    0.000    0.000    0.000    0.000    0.000 
#
# Total GULP energy -134162.188324 kJ/mol
# GULP energy per Si atom -5590.091180 kJ/mol
# Density = 2.501656 g / cm^3
# Si number density = 25.073626 Si / 1000 Ang^3
#
#
#
# Elastic Constant Matrix: (Units=GPa)
#
#
# Indices 1 2 3 4 5 6 
#
# 1 96.8361 -6.4499 -4.3906 0.0000 -25.0562 0.0000
# 2 -6.4499 64.9493 5.3708 0.0000 -3.3868 0.0000
# 3 -4.3906 5.3708 94.0646 0.0000 -17.9041 0.0000
# 4 0.0000 0.0000 0.0000 20.3248 0.0000 1.0324
# 5 -25.0562 -3.3868 -17.9041 0.0000 40.2636 0.0000
# 6 0.0000 0.0000 0.0000 1.0324 0.0000 17.7329
#
#
#
# Elastic Compliance Matrix: (Units=1/GPa)
#
#
# Indices 1 2 3 4 5 6 
#
# 1 0.012906 0.001573 0.002258 0.000000 0.009168 0.000000
# 2 0.001573 0.015698 -0.000421 0.000000 0.002112 0.000000
# 3 0.002258 -0.000421 0.012040 0.000000 0.006723 0.000000
# 4 0.000000 0.000000 0.000000 0.049347 0.000000 -0.002873
# 5 0.009168 0.002112 0.006723 0.000000 0.033709 0.000000
# 6 0.000000 0.000000 0.000000 -0.002873 0.000000 0.056560
#
#
# Mechanical properties :
#
#
# Convention : Reuss Voigt Hill
#
# Bulk Modulus (GPa) = 21.06894 27.21229 24.14062
# Shear Modulus (GPa) = 26.41858 33.08558 29.75208
#
# Velocity S-wave (km/s) = 3.24950 3.63648 3.44843
# Velocity P-wave (km/s) = 4.74343 5.33934 5.05018
#
# Compressibility (1/GPa) = 0.04746323
#
# Stress axis : x y z
#
# Youngs Moduli (GPa) = 77.48361 63.70326 83.05573
#
# Poissons Ratio (x) = -0.10021 -0.18750
# Poissons Ratio (y) = -0.12188 0.03495
# Poissons Ratio (z) = -0.17492 0.02681
#
# Static dielectric constant tensor:
#      x y z
#    x 2.016030 0.000000 0.028470 
#    y 0.000000 1.893990 0.000000 
#    z 0.028470 0.000000 2.046010 
# 
# From -- ./inp_files/20617.got.cif
#   From: 2010.05.17/outbox.cif.g08.bks.cpg/sg11_11_cif.got.tgz:20617.got - 2010.06.03 12:22:45.
