data_PCOD9163183
_publ_section_title
;
Structure prediction by ZEFSAII (Michael W. Deem and Ramdas Pophale) SiO2 
 PCOD9163183
Probable space group: P 21/M
;
_chemical_formula_sum "Si O2"
_cell_formula_units_Z 32
_cell_length_a 20.699776
_cell_length_b 8.626004
_cell_length_c 15.078176
_cell_angle_alpha 90.000000
_cell_angle_beta 140.751996
_cell_angle_gamma 90.000000
_cell_volume 1703.362505
_symmetry_space_group_name_H-M "P 21/M"
_symmetry_group_IT_number 11
_symmetry_cell_setting 'monoclinic'
loop_
_space_group_symop_operation_xyz
x,y,z
-x,1/2+y,-z
-x,-y,-z
x,1/2-y,z
loop_
_atom_site_type_symbol
_atom_site_label
_atom_site_fract_x
_atom_site_fract_y
_atom_site_fract_z
Si Si1 0.713591 0.438940 0.057176
Si Si2 0.607859 0.565761 0.591681
Si Si3 0.735134 0.434121 0.390885
Si Si4 0.510152 0.936342 0.109763
Si Si5 0.882614 0.061916 0.384621
Si Si6 0.252858 0.433677 0.407818
Si Si7 0.250039 0.933578 0.103268
Si Si8 0.890193 0.433152 0.895182
O O1 0.714219 0.250000 0.059961
O O2 0.803397 0.485881 0.221372
O O3 0.596789 0.485646 0.956751
O O4 0.739517 0.492070 0.985157
O O5 0.500000 0.500000 0.500000
O O6 0.609936 0.750000 0.592596
O O7 0.642233 0.515902 0.529319
O O8 0.677681 0.508627 0.746539
O O9 0.724061 0.250000 0.368111
O O10 0.621160 0.506024 0.260634
O O11 0.819413 0.484645 0.406920
O O12 0.770457 0.477538 0.527140
O O13 0.511788 0.750000 0.113154
O O14 0.500000 0.000000 0.000000
O O15 0.889602 0.250000 0.391301
O O16 0.000000 0.000000 0.500000
O O17 0.254404 0.250000 0.427622
O O18 0.176652 0.473369 0.246949
O O19 0.272935 0.750000 0.125416
O O20 0.141889 0.954710 0.036383
O O21 0.880036 0.250000 0.865341
O O22 0.000000 0.500000 0.000000
#
# Coordination Sequence:
#
# PCOD9163183 Si02
#       8
#     4   4   4   4   4   4   4   4
#     4   9  19  38  60  83 116 153 191 238 293 348
#     4  10  21  36  54  79 114 151 186 231 282 337
#     4  11  23  40  60  88 124 157 196 248 301 354
#     4  11  21  37  61  87 118 157 199 245 294 352
#     4  10  22  41  61  85 118 156 194 241 295 350
#     4  10  22  39  58  83 114 153 199 242 287 346
#     4   9  19  36  58  82 109 147 191 235 285 341
#     4  10  20  36  59  86 116 152 195 245 296 348
#
# _framework density 18.786370999999999
#
# number of rings (size 3 to 8) (size 9 to 14) (size 15 to 20)
#    0.000    2.000    1.250    1.875    1.750    4.000 
#    0.000    2.500    0.000    0.000    0.000    0.000 
#    0.000    0.000    0.000    0.000    0.000    0.000 
#
# Total GULP energy -178250.778118 kJ/mol
# GULP energy per Si atom -5570.336816 kJ/mol
# Density = 1.874361 g / cm^3
# Si number density = 18.786371 Si / 1000 Ang^3
#
#
#
# Elastic Constant Matrix: (Units=GPa)
#
#
# Indices 1 2 3 4 5 6 
#
# 1 163.6215 41.7025 77.2178 0.0000 -5.9687 0.0000
# 2 41.7025 21.1737 10.0222 0.0000 2.9955 0.0000
# 3 77.2178 10.0222 69.9394 0.0000 -0.8820 0.0000
# 4 0.0000 0.0000 0.0000 33.0123 0.0000 4.6089
# 5 -5.9687 2.9955 -0.8820 0.0000 38.8376 0.0000
# 6 0.0000 0.0000 0.0000 4.6089 0.0000 26.2756
#
#
#
# Elastic Compliance Matrix: (Units=1/GPa)
#
#
# Indices 1 2 3 4 5 6 
#
# 1 0.035354 -0.056314 -0.030849 0.000000 0.009076 0.000000
# 2 -0.056314 0.141017 0.041732 0.000000 -0.018583 0.000000
# 3 -0.030849 0.041732 0.042289 0.000000 -0.006999 0.000000
# 4 0.000000 0.000000 0.000000 0.031052 0.000000 -0.005447
# 5 0.009076 -0.018583 -0.006999 0.000000 0.028417 0.000000
# 6 0.000000 0.000000 0.000000 -0.005447 0.000000 0.039013
#
#
# Mechanical properties :
#
#
# Convention : Reuss Voigt Hill
#
# Bulk Modulus (GPa) = 7.82479 56.95773 32.39126
# Shear Modulus (GPa) = 11.09620 28.01125 19.55372
#
# Velocity S-wave (km/s) = 2.43297 3.86559 3.22971
# Velocity P-wave (km/s) = 3.47371 7.09283 5.58457
#
# Compressibility (1/GPa) = 0.12779900
#
# Stress axis : x y z
#
# Youngs Moduli (GPa) = 28.28513 7.09135 23.64662
#
# Poissons Ratio (x) = 0.39934 0.72948
# Poissons Ratio (y) = 1.59285 -0.98683
# Poissons Ratio (z) = 0.87258 -0.29594
#
# Static dielectric constant tensor:
#      x y z
#    x 1.683260 0.000000 0.032580 
#    y 0.000000 1.644220 0.000000 
#    z 0.032580 0.000000 1.655810 
# 
# From -- ./inp_files/54306.got.cif
#   From: 2010.05.17/outbox.cif.g08.bks.cpg/sg11_28_cif.got.tgz:54306.got - 2010.06.03 12:22:45.
