data_PCOD9163816
_publ_section_title
;
Structure prediction by ZEFSAII (Michael W. Deem and Ramdas Pophale) SiO2 
 PCOD9163816
Probable space group: P 21/M
;
_chemical_formula_sum "Si O2"
_cell_formula_units_Z 24
_cell_length_a 7.683834
_cell_length_b 13.338151
_cell_length_c 10.165978
_cell_angle_alpha 90.000000
_cell_angle_beta 65.651129
_cell_angle_gamma 90.000000
_cell_volume 949.217871
_symmetry_space_group_name_H-M "P 21/M"
_symmetry_group_IT_number 11
_symmetry_cell_setting 'monoclinic'
loop_
_space_group_symop_operation_xyz
x,y,z
-x,1/2+y,-z
-x,-y,-z
x,1/2-y,z
loop_
_atom_site_type_symbol
_atom_site_label
_atom_site_fract_x
_atom_site_fract_y
_atom_site_fract_z
Si Si1 0.241469 0.581196 0.569069
Si Si2 0.224741 0.642656 0.280655
Si Si3 0.574711 0.357388 0.220330
Si Si4 0.792339 0.552068 0.069538
Si Si5 0.792913 0.579767 0.783569
Si Si6 0.224702 0.140885 0.637598
O O1 0.280828 0.627341 0.415240
O O2 0.347994 0.632899 0.656043
O O3 0.295269 0.463346 0.553648
O O4 0.013090 0.587155 0.669859
O O5 0.301415 0.750000 0.208846
O O6 0.267362 0.537836 0.198095
O O7 0.995208 0.647041 0.340192
O O8 0.644051 0.250000 0.145692
O O9 0.655597 0.456027 0.125128
O O10 0.348083 0.363233 0.269480
O O11 0.773234 0.618104 0.206396
O O12 0.769322 0.612150 0.941770
O O13 0.000000 0.500000 0.000000
O O14 0.312036 0.250000 0.583899
#
# Coordination Sequence:
#
# PCOD9163816 Si02
#       6
#     4   4   4   4   4   4
#     4  10  21  42  62  88 128 161 204 262 309 360
#     4  10  20  37  64  92 121 164 211 256 310 371
#     4  11  25  40  61  92 124 162 207 254 311 374
#     4  11  20  41  62  89 126 162 201 262 310 366
#     4  11  22  41  63  90 127 163 206 257 314 366
#     4   9  18  33  59  90 117 156 203 244 303 369
#
# _framework density 25.283975000000002
#
# number of rings (size 3 to 8) (size 9 to 14) (size 15 to 20)
#    0.000    1.667    5.000    3.000    0.000    4.000 
#    0.000    4.167    0.000    2.000    0.000    0.000 
#    0.000    0.000    0.000    0.000    0.000    0.000 
#
# Total GULP energy -134371.197735 kJ/mol
# GULP energy per Si atom -5598.799906 kJ/mol
# Density = 2.522643 g / cm^3
# Si number density = 25.283975 Si / 1000 Ang^3
#
#
#
# Elastic Constant Matrix: (Units=GPa)
#
#
# Indices 1 2 3 4 5 6 
#
# 1 143.9148 42.0727 47.2773 0.0000 5.6949 0.0000
# 2 42.0727 135.6907 -0.3113 0.0000 -1.8720 0.0000
# 3 47.2773 -0.3113 80.3364 0.0000 27.3166 0.0000
# 4 0.0000 0.0000 0.0000 18.7524 0.0000 -11.6063
# 5 5.6949 -1.8720 27.3166 0.0000 46.2280 0.0000
# 6 0.0000 0.0000 0.0000 -11.6063 0.0000 12.6865
#
#
#
# Elastic Compliance Matrix: (Units=1/GPa)
#
#
# Indices 1 2 3 4 5 6 
#
# 1 0.009969 -0.003070 -0.006781 0.000000 0.002655 0.000000
# 2 -0.003070 0.008320 0.001997 0.000000 -0.000465 0.000000
# 3 -0.006781 0.001997 0.020191 0.000000 -0.011015 0.000000
# 4 0.000000 0.000000 0.000000 0.122937 0.000000 0.112470
# 5 0.002655 -0.000465 -0.011015 0.000000 0.027795 0.000000
# 6 0.000000 0.000000 0.000000 0.112470 0.000000 0.181719
#
#
# Mechanical properties :
#
#
# Convention : Reuss Voigt Hill
#
# Bulk Modulus (GPa) = 43.91381 59.77992 51.84686
# Shear Modulus (GPa) = 12.68299 33.59359 23.13829
#
# Velocity S-wave (km/s) = 2.24212 3.64902 3.02840
# Velocity P-wave (km/s) = 4.91007 6.43805 5.72526
#
# Compressibility (1/GPa) = 0.02277188
#
# Stress axis : x y z
#
# Youngs Moduli (GPa) = 100.31539 120.19652 49.52609
#
# Poissons Ratio (x) = 0.36898 0.33583
# Poissons Ratio (y) = 0.30795 -0.09890
# Poissons Ratio (z) = 0.68023 -0.24002
#
# Static dielectric constant tensor:
#      x y z
#    x 1.997650 0.000000 -0.026550 
#    y 0.000000 1.965240 0.000000 
#    z -0.026550 0.000000 1.988800 
# 
# From -- ./inp_files/31449.got.cif
#   From: 2010.05.17/outbox.cif.g08.bks.cpg/sg11_16_cif.got.tgz:31449.got - 2010.06.03 12:22:45.
