data_PCOD9163087
_publ_section_title
;
Structure prediction by ZEFSAII (Michael W. Deem and Ramdas Pophale) SiO2 
 PCOD9163087
Probable space group: P 21/M
;
_chemical_formula_sum "Si O2"
_cell_formula_units_Z 32
_cell_length_a 19.358012
_cell_length_b 14.760518
_cell_length_c 6.864442
_cell_angle_alpha 90.000000
_cell_angle_beta 67.710818
_cell_angle_gamma 90.000000
_cell_volume 1814.852778
_symmetry_space_group_name_H-M "P 21/M"
_symmetry_group_IT_number 11
_symmetry_cell_setting 'monoclinic'
loop_
_space_group_symop_operation_xyz
x,y,z
-x,1/2+y,-z
-x,-y,-z
x,1/2-y,z
loop_
_atom_site_type_symbol
_atom_site_label
_atom_site_fract_x
_atom_site_fract_y
_atom_site_fract_z
Si Si1 0.417076 0.998844 0.997366
Si Si2 0.668180 0.994065 0.513781
Si Si3 0.098645 0.645727 0.095729
Si Si4 0.579699 0.644107 0.341809
Si Si5 0.592254 0.143869 0.333744
Si Si6 0.950097 0.076470 0.450433
Si Si7 0.953705 0.853692 0.996294
Si Si8 0.160555 0.997309 0.759889
O O1 0.358683 0.999766 0.235633
O O2 0.409322 0.086762 0.867307
O O3 0.500000 0.000000 0.000000
O O4 0.407093 0.910896 0.870463
O O5 0.642308 0.085263 0.428449
O O6 0.756102 0.982308 0.393394
O O7 0.625804 0.910303 0.455745
O O8 0.113818 0.750000 0.033505
O O9 0.089750 0.630763 0.334214
O O10 0.018405 0.621781 0.083386
O O11 0.157239 0.580865 0.927619
O O12 0.599950 0.750000 0.303689
O O13 0.492542 0.638849 0.494518
O O14 0.612623 0.250000 0.295222
O O15 0.888298 0.035780 0.371805
O O16 0.000000 0.000000 0.500000
O O17 0.006314 0.133183 0.254361
O O18 0.932867 0.750000 0.048443
O O19 0.884001 0.918626 0.100555
#
# Coordination Sequence:
#
# PCOD9163087 Si02
#       8
#     4   4   4   4   4   4   4   4
#     4  11  19  37  61  89 115 151 195 242 288 345
#     4  11  23  39  57  83 123 154 192 244 299 346
#     4  10  20  37  61  84 112 148 193 239 280 338
#     4  10  21  38  62  86 112 151 197 241 289 347
#     4  10  21  38  61  87 113 150 196 241 290 348
#     4  11  18  36  62  86 110 148 197 236 283 339
#     4  10  20  36  58  85 111 148 195 234 279 342
#     4  11  23  37  57  83 118 157 186 237 298 347
#
# _framework density 17.632285
#
# number of rings (size 3 to 8) (size 9 to 14) (size 15 to 20)
#    0.000    1.500    5.000    1.875    0.000    5.000 
#    0.000    0.000    0.000    0.000    0.000    0.000 
#    0.000    0.000    0.000    0.000    0.000    0.000 
#
# Total GULP energy -178645.915464 kJ/mol
# GULP energy per Si atom -5582.684858 kJ/mol
# Density = 1.759215 g / cm^3
# Si number density = 17.632285 Si / 1000 Ang^3
#
#
#
# Elastic Constant Matrix: (Units=GPa)
#
#
# Indices 1 2 3 4 5 6 
#
# 1 44.6190 21.1085 27.7130 0.0000 -9.6834 0.0000
# 2 21.1085 103.2918 39.5266 0.0000 3.9000 0.0000
# 3 27.7130 39.5266 132.3724 0.0000 3.0307 0.0000
# 4 0.0000 0.0000 0.0000 15.2041 0.0000 7.2292
# 5 -9.6834 3.9000 3.0307 0.0000 25.5684 0.0000
# 6 0.0000 0.0000 0.0000 7.2292 0.0000 1.2119
#
#
#
# Elastic Compliance Matrix: (Units=1/GPa)
#
#
# Indices 1 2 3 4 5 6 
#
# 1 0.030790 -0.004745 -0.005327 0.000000 0.013016 0.000000
# 2 -0.004745 0.011704 -0.002426 0.000000 -0.003295 0.000000
# 3 -0.005327 -0.002426 0.009458 0.000000 -0.002769 0.000000
# 4 0.000000 0.000000 0.000000 -0.035817 0.000000 0.213655
# 5 0.013016 -0.003295 -0.002769 0.000000 0.044871 0.000000
# 6 0.000000 0.000000 0.000000 0.213655 0.000000 -0.449346
#
#
# Mechanical properties :
#
#
# Convention : Reuss Voigt Hill
#
# Bulk Modulus (GPa) = 37.09880 50.77550 43.93715
# Shear Modulus (GPa) = -14.11000 21.19256 3.54128
#
# Velocity S-wave (km/s) = -2.83191 3.47063 1.41872
# Velocity P-wave (km/s) = 3.22381 6.70222 5.25893
#
# Compressibility (1/GPa) = 0.02695505
#
# Stress axis : x y z
#
# Youngs Moduli (GPa) = 32.47762 85.44286 105.73616
#
# Poissons Ratio (x) = 0.40544 0.56329
# Poissons Ratio (y) = 0.15411 0.25650
# Poissons Ratio (z) = 0.17302 0.20728
#
# Static dielectric constant tensor:
#      x y z
#    x 1.580200 0.000000 0.009710 
#    y 0.000000 1.601280 0.000000 
#    z 0.009710 0.000000 1.600280 
# 
# From -- ./inp_files/9021.got.cif
#   From: 2010.05.17/outbox.cif.g08.bks.cpg/sg11_5_cif.got.tgz:9021.got - 2010.06.03 12:22:45.
