data_PCOD9164263
_publ_section_title
;
Structure prediction by ZEFSAII (Michael W. Deem and Ramdas Pophale) SiO2 
 PCOD9164263
Probable space group: P 21/M
;
_chemical_formula_sum "Si O2"
_cell_formula_units_Z 20
_cell_length_a 12.589337
_cell_length_b 13.576811
_cell_length_c 9.994894
_cell_angle_alpha 90.000000
_cell_angle_beta 144.574169
_cell_angle_gamma 90.000000
_cell_volume 990.247187
_symmetry_space_group_name_H-M "P 21/M"
_symmetry_group_IT_number 11
_symmetry_cell_setting 'monoclinic'
loop_
_space_group_symop_operation_xyz
x,y,z
-x,1/2+y,-z
-x,-y,-z
x,1/2-y,z
loop_
_atom_site_type_symbol
_atom_site_label
_atom_site_fract_x
_atom_site_fract_y
_atom_site_fract_z
Si Si1 0.645856 0.860888 0.561915
Si Si2 0.464451 0.366252 0.999220
Si Si3 0.629999 0.525650 0.822007
Si Si4 0.187069 0.984079 0.608528
Si Si5 0.022162 0.034539 0.176142
O O1 0.576791 0.750000 0.477961
O O2 0.648913 0.896556 0.719682
O O3 0.849123 0.870897 0.708578
O O4 0.522206 0.944789 0.367660
O O5 0.448651 0.250000 0.978807
O O6 0.413260 0.412735 0.090673
O O7 0.674648 0.401102 0.193094
O O8 0.316460 0.419038 0.751819
O O9 0.818196 0.464180 0.023218
O O10 0.128482 0.966607 0.394018
O O11 0.000000 0.000000 0.500000
O O12 0.000000 0.000000 0.000000
#
# Coordination Sequence:
#
# PCOD9164263 Si02
#       5
#     4   4   4   4   4
#     4  10  21  37  61  93 130 171 213 261 319 377
#     4  11  24  42  68  95 124 170 221 263 317 386
#     4  10  20  40  64  90 130 168 214 267 313 376
#     4  11  23  44  64  92 132 167 209 266 321 381
#     4  10  21  40  64  89 128 167 205 262 318 373
#
# _framework density 20.196978000000001
#
# number of rings (size 3 to 8) (size 9 to 14) (size 15 to 20)
#    0.000    1.600    4.000    0.600    0.000    2.400 
#    0.000    1.000    0.000    0.000    0.000    0.000 
#    0.000    0.000    0.000    0.000    0.000    0.000 
#
# Total GULP energy -111459.795770 kJ/mol
# GULP energy per Si atom -5572.989788 kJ/mol
# Density = 2.015101 g / cm^3
# Si number density = 20.196978 Si / 1000 Ang^3
#
#
#
# Elastic Constant Matrix: (Units=GPa)
#
#
# Indices 1 2 3 4 5 6 
#
# 1 85.9502 17.3047 42.6561 0.0000 8.6632 0.0000
# 2 17.3047 110.0856 15.9777 0.0000 2.4875 0.0000
# 3 42.6561 15.9777 111.0117 0.0000 -0.8566 0.0000
# 4 0.0000 0.0000 0.0000 10.7624 0.0000 1.8961
# 5 8.6632 2.4875 -0.8566 0.0000 46.3432 0.0000
# 6 0.0000 0.0000 0.0000 1.8961 0.0000 19.2670
#
#
#
# Elastic Compliance Matrix: (Units=1/GPa)
#
#
# Indices 1 2 3 4 5 6 
#
# 1 0.014979 -0.001483 -0.005564 0.000000 -0.002823 0.000000
# 2 -0.001483 0.009437 -0.000790 0.000000 -0.000244 0.000000
# 3 -0.005564 -0.000790 0.011270 0.000000 0.001291 0.000000
# 4 0.000000 0.000000 0.000000 0.094556 0.000000 -0.009305
# 5 -0.002823 -0.000244 0.001291 0.000000 0.022143 0.000000
# 6 0.000000 0.000000 0.000000 -0.009305 0.000000 0.052818
#
#
# Mechanical properties :
#
#
# Convention : Reuss Voigt Hill
#
# Bulk Modulus (GPa) = 49.97229 50.99160 50.48195
# Shear Modulus (GPa) = 21.97338 30.68180 26.32759
#
# Velocity S-wave (km/s) = 3.30199 3.90183 3.61438
# Velocity P-wave (km/s) = 6.27166 6.75285 6.51670
#
# Compressibility (1/GPa) = 0.02001109
#
# Stress axis : x y z
#
# Youngs Moduli (GPa) = 66.75916 105.96364 88.73324
#
# Poissons Ratio (x) = 0.15717 0.49372
# Poissons Ratio (y) = 0.09902 0.07012
# Poissons Ratio (z) = 0.37145 0.08373
#
# Static dielectric constant tensor:
#      x y z
#    x 1.797540 0.000000 -0.033930 
#    y 0.000000 1.653320 0.000000 
#    z -0.033930 0.000000 1.775610 
# 
# From -- ./inp_files/34952.got.cif
#   From: 2010.05.17/outbox.cif.g08.bks.cpg/sg11_18_cif.got.tgz:34952.got - 2010.06.03 12:22:45.
