data_PCOD9164657
_publ_section_title
;
Structure prediction by ZEFSAII (Michael W. Deem and Ramdas Pophale) SiO2 
 PCOD9164657
Probable space group: P 21/M
;
_chemical_formula_sum "Si O2"
_cell_formula_units_Z 20
_cell_length_a 23.650214
_cell_length_b 8.748034
_cell_length_c 5.186136
_cell_angle_alpha 90.000000
_cell_angle_beta 109.232316
_cell_angle_gamma 90.000000
_cell_volume 1013.092667
_symmetry_space_group_name_H-M "P 21/M"
_symmetry_group_IT_number 11
_symmetry_cell_setting 'monoclinic'
loop_
_space_group_symop_operation_xyz
x,y,z
-x,1/2+y,-z
-x,-y,-z
x,1/2-y,z
loop_
_atom_site_type_symbol
_atom_site_label
_atom_site_fract_x
_atom_site_fract_y
_atom_site_fract_z
Si Si1 0.328689 0.566738 0.916631
Si Si2 0.732643 0.567663 0.674364
Si Si3 0.531990 0.432730 0.797859
Si Si4 0.064760 0.566441 0.659616
Si Si5 0.138286 0.934830 0.270357
O O1 0.322260 0.750000 0.888496
O O2 0.287231 0.504283 0.083763
O O3 0.397475 0.530013 0.087562
O O4 0.310288 0.493268 0.617554
O O5 0.729888 0.750000 0.685625
O O6 0.799014 0.512520 0.699217
O O7 0.500000 0.500000 0.500000
O O8 0.526563 0.250000 0.788952
O O9 0.500000 0.500000 0.000000
O O10 0.060363 0.750000 0.645820
O O11 0.111776 0.521078 0.507799
O O12 0.000000 0.500000 0.500000
O O13 0.090511 0.523108 0.977060
O O14 0.146250 0.750000 0.277094
#
# Coordination Sequence:
#
# PCOD9164657 Si02
#       5
#     4   4   4   4   4
#     4  11  24  43  64  88 123 167 204 241 302 375
#     4  12  25  40  63  95 123 155 204 261 306 346
#     4  11  24  41  64  92 123 161 204 249 302 360
#     4  10  21  36  57  83 112 150 195 240 291 349
#     4  10  21  38  58  82 115 157 196 235 294 364
#
# _framework density 19.741531999999999
#
# number of rings (size 3 to 8) (size 9 to 14) (size 15 to 20)
#    0.000    1.200    0.000    6.000    0.000   11.200 
#    0.000    0.000    0.000    0.000    0.000    0.000 
#    0.000    0.000    0.000    0.000    0.000    0.000 
#
# Total GULP energy -111929.710257 kJ/mol
# GULP energy per Si atom -5596.485513 kJ/mol
# Density = 1.969660 g / cm^3
# Si number density = 19.741532 Si / 1000 Ang^3
#
#
#
# Elastic Constant Matrix: (Units=GPa)
#
#
# Indices 1 2 3 4 5 6 
#
# 1 56.3650 13.3350 -26.1564 0.0000 -0.8018 0.0000
# 2 13.3350 36.6871 1.2066 0.0000 7.6595 0.0000
# 3 -26.1564 1.2066 62.4582 0.0000 -2.4719 0.0000
# 4 0.0000 0.0000 0.0000 30.8583 0.0000 5.0217
# 5 -0.8018 7.6595 -2.4719 0.0000 43.2543 0.0000
# 6 0.0000 0.0000 0.0000 5.0217 0.0000 36.0357
#
#
#
# Elastic Compliance Matrix: (Units=1/GPa)
#
#
# Indices 1 2 3 4 5 6 
#
# 1 0.025224 -0.010128 0.010873 0.000000 0.002882 0.000000
# 2 -0.010128 0.032405 -0.005114 0.000000 -0.006218 0.000000
# 3 0.010873 -0.005114 0.020754 0.000000 0.002293 0.000000
# 4 0.000000 0.000000 0.000000 0.033158 0.000000 -0.004621
# 5 0.002882 -0.006218 0.002293 0.000000 0.024405 0.000000
# 6 0.000000 0.000000 0.000000 -0.004621 0.000000 0.028394
#
#
# Mechanical properties :
#
#
# Convention : Reuss Voigt Hill
#
# Bulk Modulus (GPa) = 14.35810 14.69784 14.52797
# Shear Modulus (GPa) = 25.47217 33.17133 29.32175
#
# Velocity S-wave (km/s) = 3.59595 4.10357 3.85812
# Velocity P-wave (km/s) = 4.95277 5.46934 5.21745
#
# Compressibility (1/GPa) = 0.06964712
#
# Stress axis : x y z
#
# Youngs Moduli (GPa) = 39.64407 30.85919 48.18390
#
# Poissons Ratio (x) = 0.31254 -0.52392
# Poissons Ratio (y) = 0.40151 0.24639
# Poissons Ratio (z) = -0.43106 0.15780
#
# Static dielectric constant tensor:
#      x y z
#    x 1.660440 0.000000 0.006250 
#    y 0.000000 1.665580 0.000000 
#    z 0.006250 0.000000 1.663460 
# 
# From -- ./inp_files/8483.got.cif
#   From: 2010.05.17/outbox.cif.g08.bks.cpg/sg11_5_cif.got.tgz:8483.got - 2010.06.03 12:22:45.
