data_PCOD9164167
_publ_section_title
;
Structure prediction by ZEFSAII (Michael W. Deem and Ramdas Pophale) SiO2 
 PCOD9164167
Probable space group: P 21/M
;
_chemical_formula_sum "Si O2"
_cell_formula_units_Z 20
_cell_length_a 9.818553
_cell_length_b 19.088954
_cell_length_c 7.596243
_cell_angle_alpha 90.000000
_cell_angle_beta 47.014841
_cell_angle_gamma 90.000000
_cell_volume 1041.503676
_symmetry_space_group_name_H-M "P 21/M"
_symmetry_group_IT_number 11
_symmetry_cell_setting 'monoclinic'
loop_
_space_group_symop_operation_xyz
x,y,z
-x,1/2+y,-z
-x,-y,-z
x,1/2-y,z
loop_
_atom_site_type_symbol
_atom_site_label
_atom_site_fract_x
_atom_site_fract_y
_atom_site_fract_z
Si Si1 0.648178 0.831649 0.003822
Si Si2 0.425002 0.831468 0.562508
Si Si3 0.799707 0.036035 0.670808
Si Si4 0.087177 0.830474 0.632107
Si Si5 0.487544 0.431119 0.194171
O O1 0.619615 0.750000 0.979238
O O2 0.582954 0.881762 0.904373
O O3 0.867685 0.841683 0.845694
O O4 0.536779 0.843574 0.282446
O O5 0.455557 0.750000 0.587501
O O6 0.207883 0.840121 0.702418
O O7 0.488173 0.884743 0.655479
O O8 0.834703 0.114726 0.576506
O O9 0.664288 0.992811 0.659383
O O10 0.684034 0.037426 0.954437
O O11 0.000000 0.000000 0.500000
O O12 0.118542 0.750000 0.547984
#
# Coordination Sequence:
#
# PCOD9164167 Si02
#       5
#     4   4   4   4   4
#     4  10  20  39  64  89 123 162 203 253 303 359
#     4  10  22  40  63  94 123 159 209 253 301 363
#     4  11  23  41  61  92 126 161 209 251 306 372
#     4  10  21  40  63  86 122 165 202 253 313 362
#     4  11  23  39  64  90 123 164 206 252 307 363
#
# _framework density 19.203002999999999
#
# number of rings (size 3 to 8) (size 9 to 14) (size 15 to 20)
#    0.000    1.600    4.000    0.600    0.000    3.200 
#    0.000    2.000    0.000    0.000    0.000    0.000 
#    0.000    0.000    0.000    0.000    0.000    0.000 
#
# Total GULP energy -111689.495764 kJ/mol
# GULP energy per Si atom -5584.474788 kJ/mol
# Density = 1.915930 g / cm^3
# Si number density = 19.203003 Si / 1000 Ang^3
#
#
#
# Elastic Constant Matrix: (Units=GPa)
#
#
# Indices 1 2 3 4 5 6 
#
# 1 88.1429 46.8591 45.6111 0.0000 -24.7456 0.0000
# 2 46.8591 85.5778 33.1592 0.0000 -5.1023 0.0000
# 3 45.6111 33.1592 46.1295 0.0000 -16.6308 0.0000
# 4 0.0000 0.0000 0.0000 27.8259 0.0000 -19.2766
# 5 -24.7456 -5.1023 -16.6308 0.0000 30.6409 0.0000
# 6 0.0000 0.0000 0.0000 -19.2766 0.0000 -7.5349
#
#
#
# Elastic Compliance Matrix: (Units=1/GPa)
#
#
# Indices 1 2 3 4 5 6 
#
# 1 0.027961 -0.007655 -0.017982 0.000000 0.011547 0.000000
# 2 -0.007655 0.018808 -0.008766 0.000000 -0.007808 0.000000
# 3 -0.017982 -0.008766 0.049728 0.000000 0.011009 0.000000
# 4 0.000000 0.000000 0.000000 0.012963 0.000000 -0.033164
# 5 0.011547 -0.007808 0.011009 0.000000 0.046636 0.000000
# 6 0.000000 0.000000 0.000000 -0.033164 0.000000 -0.047872
#
#
# Mechanical properties :
#
#
# Convention : Reuss Voigt Hill
#
# Bulk Modulus (GPa) = 36.11083 52.34543 44.22813
# Shear Modulus (GPa) = 26.84424 16.46778 21.65601
#
# Velocity S-wave (km/s) = 3.74293 2.93159 3.36183
# Velocity P-wave (km/s) = 6.12576 6.22713 6.17666
#
# Compressibility (1/GPa) = 0.02769252
#
# Stress axis : x y z
#
# Youngs Moduli (GPa) = 35.76354 53.16988 20.10940
#
# Poissons Ratio (x) = 0.40700 0.36161
# Poissons Ratio (y) = 0.27376 0.17627
# Poissons Ratio (z) = 0.64310 0.46607
#
# Static dielectric constant tensor:
#      x y z
#    x 1.676990 0.000000 -0.032220 
#    y 0.000000 1.699520 0.000000 
#    z -0.032220 0.000000 1.639530 
# 
# From -- ./inp_files/2286.got.cif
#   From: 2010.05.17/outbox.cif.g08.bks.cpg/sg11_2_cif.got.tgz:2286.got - 2010.06.03 12:22:45.
