data_PCOD9164789
_publ_section_title
;
Structure prediction by ZEFSAII (Michael W. Deem and Ramdas Pophale) SiO2 
 PCOD9164789
Probable space group: P 21/M
;
_chemical_formula_sum "Si O2"
_cell_formula_units_Z 24
_cell_length_a 12.776811
_cell_length_b 7.552274
_cell_length_c 26.095135
_cell_angle_alpha 90.000000
_cell_angle_beta 25.236078
_cell_angle_gamma 90.000000
_cell_volume 1073.556641
_symmetry_space_group_name_H-M "P 21/M"
_symmetry_group_IT_number 11
_symmetry_cell_setting 'monoclinic'
loop_
_space_group_symop_operation_xyz
x,y,z
-x,1/2+y,-z
-x,-y,-z
x,1/2-y,z
loop_
_atom_site_type_symbol
_atom_site_label
_atom_site_fract_x
_atom_site_fract_y
_atom_site_fract_z
Si Si1 0.240279 0.037878 0.138687
Si Si2 0.190118 0.962622 0.869496
Si Si3 0.396881 0.039551 0.488895
Si Si4 0.135008 0.534398 0.780768
Si Si5 0.148767 0.049248 0.289116
Si Si6 0.249611 0.463425 0.357163
O O1 0.196653 0.250000 0.162728
O O2 0.237385 0.962579 0.197268
O O3 0.042222 0.969011 0.185827
O O4 0.500000 0.000000 0.000000
O O5 0.204500 0.750000 0.860411
O O6 0.089687 0.026511 0.858713
O O7 0.475505 0.024963 0.748307
O O8 0.000000 0.000000 0.000000
O O9 0.356715 0.250000 0.503664
O O10 0.593881 0.989328 0.358735
O O11 0.500000 0.000000 0.500000
O O12 0.142638 0.946586 0.590019
O O13 0.116481 0.750000 0.789012
O O14 0.248804 0.250000 0.246617
O O15 0.208547 0.968467 0.317421
O O16 0.262202 0.250000 0.351049
O O17 0.000000 0.500000 0.500000
#
# Coordination Sequence:
#
# PCOD9164789 Si02
#       6
#     4   4   4   4   4   4
#     4  10  21  37  55  79 112 149 187 234 285 338
#     4  10  22  40  61  86 115 154 198 242 294 350
#     4  11  20  35  59  87 117 150 187 231 286 347
#     4   9  19  37  58  79 112 149 182 229 286 342
#     4  10  21  38  58  83 118 151 186 237 291 343
#     4  10  22  40  62  87 119 157 198 247 298 352
#
# _framework density 22.355599000000002
#
# number of rings (size 3 to 8) (size 9 to 14) (size 15 to 20)
#    0.000    2.000    1.667    1.500    2.333    3.333 
#    0.000    1.667    0.000    0.000    0.000    0.000 
#    0.000    0.000    0.000    0.000    0.000    0.000 
#
# Total GULP energy -133950.603866 kJ/mol
# GULP energy per Si atom -5581.275161 kJ/mol
# Density = 2.230472 g / cm^3
# Si number density = 22.355599 Si / 1000 Ang^3
#
#
#
# Elastic Constant Matrix: (Units=GPa)
#
#
# Indices 1 2 3 4 5 6 
#
# 1 136.7859 6.5938 56.7617 0.0000 38.9344 0.0000
# 2 6.5938 62.2927 1.0156 0.0000 2.8750 0.0000
# 3 56.7617 1.0156 141.4766 0.0000 32.3092 0.0000
# 4 0.0000 0.0000 0.0000 28.9147 0.0000 0.4725
# 5 38.9344 2.8750 32.3092 0.0000 44.7642 0.0000
# 6 0.0000 0.0000 0.0000 0.4725 0.0000 4.4258
#
#
#
# Elastic Compliance Matrix: (Units=1/GPa)
#
#
# Indices 1 2 3 4 5 6 
#
# 1 0.010453 -0.000732 -0.002542 0.000000 -0.007210 0.000000
# 2 -0.000732 0.016155 0.000322 0.000000 -0.000633 0.000000
# 3 -0.002542 0.000322 0.009083 0.000000 -0.004365 0.000000
# 4 0.000000 0.000000 0.000000 0.034645 0.000000 -0.003699
# 5 -0.007210 -0.000633 -0.004365 0.000000 0.031802 0.000000
# 6 0.000000 0.000000 0.000000 -0.003699 0.000000 0.226340
#
#
# Mechanical properties :
#
#
# Convention : Reuss Voigt Hill
#
# Bulk Modulus (GPa) = 33.57182 52.14417 42.85800
# Shear Modulus (GPa) = 14.52178 34.03321 24.27749
#
# Velocity S-wave (km/s) = 2.55145 3.90597 3.29898
# Velocity P-wave (km/s) = 4.87131 6.61193 5.80721
#
# Compressibility (1/GPa) = 0.02978688
#
# Stress axis : x y z
#
# Youngs Moduli (GPa) = 95.66537 61.90138 110.09797
#
# Poissons Ratio (x) = 0.04533 0.27988
# Poissons Ratio (y) = 0.07005 -0.03550
# Poissons Ratio (z) = 0.24319 -0.01996
#
# Static dielectric constant tensor:
#      x y z
#    x 1.870340 0.000000 -0.018710 
#    y 0.000000 1.871710 0.000000 
#    z -0.018710 0.000000 1.841080 
# 
# From -- ./inp_files/68366.got.cif
#   From: 2010.05.17/outbox.cif.g08.bks.cpg/sg11_35_cif.got.tgz:68366.got - 2010.06.03 12:22:45.
