data_PCOD9164206
_publ_section_title
;
Structure prediction by ZEFSAII (Michael W. Deem and Ramdas Pophale) SiO2 
 PCOD9164206
Probable space group: P 21/M
;
_chemical_formula_sum "Si O2"
_cell_formula_units_Z 28
_cell_length_a 7.273416
_cell_length_b 19.233366
_cell_length_c 9.708936
_cell_angle_alpha 90.000000
_cell_angle_beta 103.422407
_cell_angle_gamma 90.000000
_cell_volume 1321.105978
_symmetry_space_group_name_H-M "P 21/M"
_symmetry_group_IT_number 11
_symmetry_cell_setting 'monoclinic'
loop_
_space_group_symop_operation_xyz
x,y,z
-x,1/2+y,-z
-x,-y,-z
x,1/2-y,z
loop_
_atom_site_type_symbol
_atom_site_label
_atom_site_fract_x
_atom_site_fract_y
_atom_site_fract_z
Si Si1 0.694675 0.427576 0.193344
Si Si2 0.170912 0.547764 0.084795
Si Si3 0.925498 0.831256 0.167750
Si Si4 0.955399 0.670811 0.710776
Si Si5 0.706236 0.670268 0.398471
Si Si6 0.498282 0.530688 0.345231
Si Si7 0.651195 0.829912 0.890165
O O1 0.881512 0.385681 0.267213
O O2 0.726236 0.654850 0.055727
O O3 0.661031 0.494741 0.280900
O O4 0.514090 0.379075 0.186284
O O5 0.293320 0.558962 0.968147
O O6 0.000000 0.500000 0.000000
O O7 0.079582 0.617530 0.131701
O O8 0.973038 0.750000 0.151655
O O9 0.874888 0.841562 0.317993
O O10 0.032316 0.750000 0.719202
O O11 0.803012 0.663939 0.563619
O O12 0.696697 0.482457 0.771501
O O13 0.837723 0.662644 0.830121
O O14 0.639299 0.750000 0.367105
O O15 0.545172 0.612591 0.356920
O O16 0.500000 0.500000 0.500000
O O17 0.588615 0.750000 0.871180
#
# Coordination Sequence:
#
# PCOD9164206 Si02
#       7
#     4   4   4   4   4   4   4
#     4  12  24  41  70  97 138 183 232 278 352 410
#     4  12  26  44  67  98 142 181 229 288 346 409
#     4  10  21  40  68  97 131 175 227 283 339 403
#     4  10  22  41  68 102 137 178 224 281 344 406
#     4  10  23  45  67  93 136 178 222 284 349 407
#     4  12  28  44  68 102 136 183 236 283 346 418
#     4  10  20  39  66 100 136 172 226 283 334 404
#
# _framework density 21.194362000000002
#
# number of rings (size 3 to 8) (size 9 to 14) (size 15 to 20)
#    0.000    1.143    1.429    4.286    4.000    1.714 
#    0.000    0.714    0.000    0.000    0.000    0.000 
#    0.000    0.000    0.000    0.000    0.000    0.000 
#
# Total GULP energy -156584.960795 kJ/mol
# GULP energy per Si atom -5592.320028 kJ/mol
# Density = 2.114612 g / cm^3
# Si number density = 21.194362 Si / 1000 Ang^3
#
#
#
# Elastic Constant Matrix: (Units=GPa)
#
#
# Indices 1 2 3 4 5 6 
#
# 1 67.4399 43.1772 15.7301 0.0000 12.0527 0.0000
# 2 43.1772 94.0769 30.3697 0.0000 1.1893 0.0000
# 3 15.7301 30.3697 85.1864 0.0000 6.9022 0.0000
# 4 0.0000 0.0000 0.0000 30.3289 0.0000 -5.8538
# 5 12.0527 1.1893 6.9022 0.0000 23.2009 0.0000
# 6 0.0000 0.0000 0.0000 -5.8538 0.0000 45.5859
#
#
#
# Elastic Compliance Matrix: (Units=1/GPa)
#
#
# Indices 1 2 3 4 5 6 
#
# 1 0.023875 -0.010957 0.000468 0.000000 -0.011981 0.000000
# 2 -0.010957 0.017051 -0.004556 0.000000 0.006174 0.000000
# 3 0.000468 -0.004556 0.013605 0.000000 -0.004057 0.000000
# 4 0.000000 0.000000 0.000000 0.033810 0.000000 0.004342
# 5 -0.011981 0.006174 -0.004057 0.000000 0.050216 0.000000
# 6 0.000000 0.000000 0.000000 0.004342 0.000000 0.022494
#
#
# Mechanical properties :
#
#
# Convention : Reuss Voigt Hill
#
# Bulk Modulus (GPa) = 40.91263 47.25080 44.08172
# Shear Modulus (GPa) = 25.08918 30.31822 27.70370
#
# Velocity S-wave (km/s) = 3.44432 3.78628 3.61934
# Velocity P-wave (km/s) = 5.92986 6.43871 6.18952
#
# Compressibility (1/GPa) = 0.02444233
#
# Stress axis : x y z
#
# Youngs Moduli (GPa) = 41.88439 58.64671 73.50028
#
# Poissons Ratio (x) = 0.64262 -0.03443
# Poissons Ratio (y) = 0.45895 0.33485
# Poissons Ratio (z) = -0.01962 0.26718
#
# Static dielectric constant tensor:
#      x y z
#    x 1.741070 0.000000 0.000510 
#    y 0.000000 1.800010 0.000000 
#    z 0.000510 0.000000 1.744970 
# 
# From -- ./inp_files/47797.got.cif
#   From: 2010.05.17/outbox.cif.g08.bks.cpg/sg11_24_cif.got.tgz:47797.got - 2010.06.03 12:22:45.
