data_PCOD9164061
_publ_section_title
;
Structure prediction by ZEFSAII (Michael W. Deem and Ramdas Pophale) SiO2 
 PCOD9164061
Probable space group: P 21/M
;
_chemical_formula_sum "Si O2"
_cell_formula_units_Z 20
_cell_length_a 10.519164
_cell_length_b 11.645658
_cell_length_c 12.624692
_cell_angle_alpha 90.000000
_cell_angle_beta 34.336417
_cell_angle_gamma 90.000000
_cell_volume 872.337261
_symmetry_space_group_name_H-M "P 21/M"
_symmetry_group_IT_number 11
_symmetry_cell_setting 'monoclinic'
loop_
_space_group_symop_operation_xyz
x,y,z
-x,1/2+y,-z
-x,-y,-z
x,1/2-y,z
loop_
_atom_site_type_symbol
_atom_site_label
_atom_site_fract_x
_atom_site_fract_y
_atom_site_fract_z
Si Si1 0.876902 0.623920 0.808973
Si Si2 0.577175 0.877650 0.828684
Si Si3 0.652581 0.549599 0.300953
Si Si4 0.305850 0.619992 0.365036
Si Si5 0.876423 0.420438 0.965157
O O1 0.892054 0.750000 0.843325
O O2 0.642773 0.612013 0.906798
O O3 0.912921 0.539342 0.878949
O O4 0.066370 0.610261 0.588945
O O5 0.675141 0.750000 0.728812
O O6 0.662154 0.997720 0.717895
O O7 0.314823 0.868074 0.978514
O O8 0.500000 0.500000 0.500000
O O9 0.495550 0.615808 0.326061
O O10 0.869168 0.620524 0.192743
O O11 0.759023 0.445037 0.158330
O O12 0.314271 0.750000 0.309783
#
# Coordination Sequence:
#
# PCOD9164061 Si02
#       5
#     4   4   4   4   4
#     4  10  20  38  65  96 133 171 217 272 325 390
#     4  10  22  40  62  95 137 174 214 270 328 388
#     4  10  20  39  62  90 126 160 212 268 318 378
#     4  10  21  39  66  97 128 173 224 269 325 389
#     4  10  21  37  63  90 123 167 210 257 327 380
#
# _framework density 22.926912999999999
#
# number of rings (size 3 to 8) (size 9 to 14) (size 15 to 20)
#    0.000    2.000    2.000    1.200    0.000    4.000 
#    0.000   14.000    0.000    0.000    0.000    0.000 
#    0.000    0.000    0.000    0.000    0.000    0.000 
#
# Total GULP energy -111453.278254 kJ/mol
# GULP energy per Si atom -5572.663913 kJ/mol
# Density = 2.287473 g / cm^3
# Si number density = 22.926913 Si / 1000 Ang^3
#
#
#
# Elastic Constant Matrix: (Units=GPa)
#
#
# Indices 1 2 3 4 5 6 
#
# 1 102.6650 29.7544 18.9062 0.0000 -21.2580 0.0000
# 2 29.7544 182.1015 35.3393 0.0000 21.0835 0.0000
# 3 18.9062 35.3393 111.6365 0.0000 -9.8929 0.0000
# 4 0.0000 0.0000 0.0000 2.8449 0.0000 25.2043
# 5 -21.2580 21.0835 -9.8929 0.0000 37.9622 0.0000
# 6 0.0000 0.0000 0.0000 25.2043 0.0000 -20.9756
#
#
#
# Elastic Compliance Matrix: (Units=1/GPa)
#
#
# Indices 1 2 3 4 5 6 
#
# 1 0.012421 -0.002928 -0.000426 0.000000 0.008470 0.000000
# 2 -0.002928 0.007137 -0.002314 0.000000 -0.006206 0.000000
# 3 -0.000426 -0.002314 0.010088 0.000000 0.003675 0.000000
# 4 0.000000 0.000000 0.000000 0.030184 0.000000 0.036269
# 5 0.008470 -0.006206 0.003675 0.000000 0.035490 0.000000
# 6 0.000000 0.000000 0.000000 0.036269 0.000000 -0.004094
#
#
# Mechanical properties :
#
#
# Convention : Reuss Voigt Hill
#
# Bulk Modulus (GPa) = 54.60964 62.71144 58.66054
# Shear Modulus (GPa) = 46.01299 24.79316 35.40308
#
# Velocity S-wave (km/s) = 4.48475 3.29203 3.93386
# Velocity P-wave (km/s) = 7.11955 6.47009 6.80258
#
# Compressibility (1/GPa) = 0.01831178
#
# Stress axis : x y z
#
# Youngs Moduli (GPa) = 80.50695 140.10878 99.12894
#
# Poissons Ratio (x) = 0.41018 0.04225
# Poissons Ratio (y) = 0.23569 0.22934
# Poissons Ratio (z) = 0.03432 0.32415
#
# Static dielectric constant tensor:
#      x y z
#    x 1.847920 0.000000 -0.046830 
#    y 0.000000 1.908030 0.000000 
#    z -0.046830 0.000000 1.902380 
# 
# From -- ./inp_files/49993.got.cif
#   From: 2010.05.17/outbox.cif.g08.bks.cpg/sg11_25_cif.got.tgz:49993.got - 2010.06.03 12:22:45.
