data_PCOD9164877
_publ_section_title
;
Structure prediction by ZEFSAII (Michael W. Deem and Ramdas Pophale) SiO2 
 PCOD9164877
Probable space group: P 21/M
;
_chemical_formula_sum "Si O2"
_cell_formula_units_Z 32
_cell_length_a 10.968799
_cell_length_b 14.681403
_cell_length_c 17.180010
_cell_angle_alpha 90.000000
_cell_angle_beta 33.652664
_cell_angle_gamma 90.000000
_cell_volume 1533.143473
_symmetry_space_group_name_H-M "P 21/M"
_symmetry_group_IT_number 11
_symmetry_cell_setting 'monoclinic'
loop_
_space_group_symop_operation_xyz
x,y,z
-x,1/2+y,-z
-x,-y,-z
x,1/2-y,z
loop_
_atom_site_type_symbol
_atom_site_label
_atom_site_fract_x
_atom_site_fract_y
_atom_site_fract_z
Si Si1 0.396518 0.353947 0.519515
Si Si2 0.282283 0.534641 0.393679
Si Si3 0.365892 0.353193 0.707742
Si Si4 0.900813 0.431715 0.987537
Si Si5 0.723650 0.355934 0.758582
Si Si6 0.490463 0.648653 0.712820
Si Si7 0.968150 0.994517 0.324698
Si Si8 0.327674 0.044201 0.029249
O O1 0.296714 0.250000 0.567239
O O2 0.483941 0.356674 0.560707
O O3 0.539851 0.361807 0.364848
O O4 0.241214 0.442378 0.598380
O O5 0.509931 0.577274 0.303230
O O6 0.225524 0.590746 0.347930
O O7 0.337142 0.428395 0.352469
O O8 0.105385 0.541261 0.556284
O O9 0.382694 0.250000 0.728579
O O10 0.110081 0.380812 0.838554
O O11 0.735075 0.366459 0.121893
O O12 0.756213 0.480746 0.997294
O O13 0.000000 0.500000 0.000000
O O14 0.770516 0.250000 0.728668
O O15 0.874642 0.408216 0.740228
O O16 0.469445 0.374862 0.916474
O O17 0.576101 0.750000 0.681211
O O18 0.105099 0.060556 0.196211
O O19 0.500000 0.000000 0.000000
#
# Coordination Sequence:
#
# PCOD9164877 Si02
#       8
#     4   4   4   4   4   4   4   4
#     4   9  19  35  57  88 119 152 201 250 305 366
#     4  11  22  39  62  92 126 161 203 262 318 375
#     4  11  22  37  60  90 122 163 206 253 313 381
#     4  12  21  38  61  91 124 164 211 261 315 372
#     4  11  22  41  65  89 123 166 209 255 313 380
#     4  10  21  37  57  87 122 159 203 261 314 365
#     4  10  21  38  64  86 121 163 208 253 313 366
#     4  10  22  41  63  91 125 166 210 259 312 377
#
# _framework density 20.872152
#
# number of rings (size 3 to 8) (size 9 to 14) (size 15 to 20)
#    0.000    1.500    3.750    1.500    0.000    3.500 
#    0.000    2.500    0.000    0.000    0.000    0.000 
#    0.000    0.000    0.000    0.000    0.000    0.000 
#
# Total GULP energy -178482.691158 kJ/mol
# GULP energy per Si atom -5577.584099 kJ/mol
# Density = 2.082465 g / cm^3
# Si number density = 20.872152 Si / 1000 Ang^3
#
#
#
# Elastic Constant Matrix: (Units=GPa)
#
#
# Indices 1 2 3 4 5 6 
#
# 1 63.1337 15.2618 6.1520 0.0000 1.1093 0.0000
# 2 15.2618 82.8781 13.5152 0.0000 4.8917 0.0000
# 3 6.1520 13.5152 95.4654 0.0000 17.2845 0.0000
# 4 0.0000 0.0000 0.0000 15.5930 0.0000 1.8204
# 5 1.1093 4.8917 17.2845 0.0000 27.1461 0.0000
# 6 0.0000 0.0000 0.0000 1.8204 0.0000 13.2279
#
#
#
# Elastic Compliance Matrix: (Units=1/GPa)
#
#
# Indices 1 2 3 4 5 6 
#
# 1 0.016619 -0.002963 -0.000707 0.000000 0.000305 0.000000
# 2 -0.002963 0.012917 -0.001400 0.000000 -0.001315 0.000000
# 3 -0.000707 -0.001400 0.012058 0.000000 -0.007396 0.000000
# 4 0.000000 0.000000 0.000000 0.065178 0.000000 -0.008970
# 5 0.000305 -0.001315 -0.007396 0.000000 0.041772 0.000000
# 6 0.000000 0.000000 0.000000 -0.008970 0.000000 0.076832
#
#
# Mechanical properties :
#
#
# Convention : Reuss Voigt Hill
#
# Bulk Modulus (GPa) = 31.79077 34.59279 33.19178
# Shear Modulus (GPa) = 20.32515 24.96330 22.64423
#
# Velocity S-wave (km/s) = 3.12395 3.46209 3.29736
# Velocity P-wave (km/s) = 5.31755 5.70886 5.51667
#
# Compressibility (1/GPa) = 0.03145567
#
# Stress axis : x y z
#
# Youngs Moduli (GPa) = 60.17134 77.41471 82.93362
#
# Poissons Ratio (x) = 0.22939 0.05861
# Poissons Ratio (y) = 0.17830 0.11608
# Poissons Ratio (z) = 0.04252 0.10835
#
# Static dielectric constant tensor:
#      x y z
#    x 1.793860 0.000000 -0.007840 
#    y 0.000000 1.750360 0.000000 
#    z -0.007840 0.000000 1.792950 
# 
# From -- ./inp_files/59476.got.cif
#   From: 2010.05.17/outbox.cif.g08.bks.cpg/sg11_30_cif.got.tgz:59476.got - 2010.06.03 12:22:45.
