data_PCOD9164563
_publ_section_title
;
Structure prediction by ZEFSAII (Michael W. Deem and Ramdas Pophale) SiO2 
 PCOD9164563
Probable space group: P 21/M
;
_chemical_formula_sum "Si O2"
_cell_formula_units_Z 32
_cell_length_a 12.301731
_cell_length_b 7.698393
_cell_length_c 23.589479
_cell_angle_alpha 90.000000
_cell_angle_beta 134.841020
_cell_angle_gamma 90.000000
_cell_volume 1584.059044
_symmetry_space_group_name_H-M "P 21/M"
_symmetry_group_IT_number 11
_symmetry_cell_setting 'monoclinic'
loop_
_space_group_symop_operation_xyz
x,y,z
-x,1/2+y,-z
-x,-y,-z
x,1/2-y,z
loop_
_atom_site_type_symbol
_atom_site_label
_atom_site_fract_x
_atom_site_fract_y
_atom_site_fract_z
Si Si1 0.539566 0.460838 0.354315
Si Si2 0.888327 0.043831 0.510332
Si Si3 0.104512 0.552182 0.684827
Si Si4 0.628272 0.446909 0.593433
Si Si5 0.524401 0.958362 0.917732
Si Si6 0.042460 0.946684 0.258916
Si Si7 0.566272 0.461745 0.237977
Si Si8 0.251875 0.039632 0.903396
O O1 0.524414 0.250000 0.351481
O O2 0.716257 0.505215 0.431871
O O3 0.443288 0.538475 0.370285
O O4 0.506927 0.518678 0.277715
O O5 0.890894 0.250000 0.521622
O O6 0.000000 0.000000 0.500000
O O7 0.958863 0.951989 0.590417
O O8 0.135045 0.750000 0.714873
O O9 0.254459 0.492282 0.705632
O O10 0.060813 0.441358 0.722717
O O11 0.500000 0.500000 0.500000
O O12 0.662362 0.250000 0.588707
O O13 0.796848 0.532527 0.663119
O O14 0.538070 0.750000 0.919870
O O15 0.516096 0.021931 0.849954
O O16 0.367315 0.995840 0.894122
O O17 0.661887 0.023611 0.008236
O O18 0.077492 0.750000 0.252013
O O19 0.921065 0.026712 0.170038
O O20 0.561067 0.250000 0.237644
O O21 0.243738 0.250000 0.902574
#
# Coordination Sequence:
#
# PCOD9164563 Si02
#       8
#     4   4   4   4   4   4   4   4
#     4  10  21  38  55  73 102 137 175 218 262 309
#     4  11  21  33  49  72 103 136 168 209 259 313
#     4  11  20  32  50  76 106 137 174 213 258 312
#     4  11  24  41  58  76 101 137 181 226 266 307
#     4   9  16  29  50  77 109 140 170 207 256 315
#     4  10  21  36  52  75 107 139 174 220 268 314
#     4   9  17  31  50  75 107 137 165 206 257 307
#     4   9  17  29  49  77 107 140 173 208 258 315
#
# _framework density 20.201266
#
# number of rings (size 3 to 8) (size 9 to 14) (size 15 to 20)
#    0.000    2.000    2.500    1.875    0.000    5.000 
#    0.000    0.625    0.000    0.750    0.000    0.000 
#    0.000    0.000    0.000    0.000    0.000    0.125 
#
# Total GULP energy -178433.829277 kJ/mol
# GULP energy per Si atom -5576.057165 kJ/mol
# Density = 2.015529 g / cm^3
# Si number density = 20.201266 Si / 1000 Ang^3
#
#
#
# Elastic Constant Matrix: (Units=GPa)
#
#
# Indices 1 2 3 4 5 6 
#
# 1 71.0268 -1.2299 47.9619 0.0000 -4.3614 0.0000
# 2 -1.2299 35.3784 10.0736 0.0000 3.9994 0.0000
# 3 47.9619 10.0736 184.9943 0.0000 2.1745 0.0000
# 4 0.0000 0.0000 0.0000 12.4360 0.0000 -3.8192
# 5 -4.3614 3.9994 2.1745 0.0000 35.9794 0.0000
# 6 0.0000 0.0000 0.0000 -3.8192 0.0000 17.1237
#
#
#
# Elastic Compliance Matrix: (Units=1/GPa)
#
#
# Indices 1 2 3 4 5 6 
#
# 1 0.017361 0.001670 -0.004618 0.000000 0.002198 0.000000
# 2 0.001670 0.029221 -0.001990 0.000000 -0.002925 0.000000
# 3 -0.004618 -0.001990 0.006720 0.000000 -0.000745 0.000000
# 4 0.000000 0.000000 0.000000 0.086325 0.000000 0.019253
# 5 0.002198 -0.002925 -0.000745 0.000000 0.028430 0.000000
# 6 0.000000 0.000000 0.000000 0.019253 0.000000 0.062693
#
#
# Mechanical properties :
#
#
# Convention : Reuss Voigt Hill
#
# Bulk Modulus (GPa) = 23.02709 45.00119 34.01414
# Shear Modulus (GPa) = 19.60006 28.74741 24.17374
#
# Velocity S-wave (km/s) = 3.11825 3.77643 3.46301
# Velocity P-wave (km/s) = 4.93844 6.42962 5.73272
#
# Compressibility (1/GPa) = 0.04342711
#
# Stress axis : x y z
#
# Youngs Moduli (GPa) = 57.59910 34.22173 148.81120
#
# Poissons Ratio (x) = -0.05715 0.68720
# Poissons Ratio (y) = -0.09619 0.29610
# Poissons Ratio (z) = 0.26599 0.06809
#
# Static dielectric constant tensor:
#      x y z
#    x 1.686850 0.000000 0.004980 
#    y 0.000000 1.804260 0.000000 
#    z 0.004980 0.000000 1.795680 
# 
# From -- ./inp_files/68343.got.cif
#   From: 2010.05.17/outbox.cif.g08.bks.cpg/sg11_35_cif.got.tgz:68343.got - 2010.06.03 12:22:45.
