data_PCOD9164502
_publ_section_title
;
Structure prediction by ZEFSAII (Michael W. Deem and Ramdas Pophale) SiO2 
 PCOD9164502
Probable space group: P 21/M
;
_chemical_formula_sum "Si O2"
_cell_formula_units_Z 24
_cell_length_a 13.531097
_cell_length_b 9.967482
_cell_length_c 13.485819
_cell_angle_alpha 90.000000
_cell_angle_beta 37.001981
_cell_angle_gamma 90.000000
_cell_volume 1094.658729
_symmetry_space_group_name_H-M "P 21/M"
_symmetry_group_IT_number 11
_symmetry_cell_setting 'monoclinic'
loop_
_space_group_symop_operation_xyz
x,y,z
-x,1/2+y,-z
-x,-y,-z
x,1/2-y,z
loop_
_atom_site_type_symbol
_atom_site_label
_atom_site_fract_x
_atom_site_fract_y
_atom_site_fract_z
Si Si1 0.648827 0.515673 0.111424
Si Si2 0.591551 0.594533 0.849426
Si Si3 0.552952 0.095170 0.549634
Si Si4 0.945853 0.112002 0.969606
Si Si5 0.891134 0.596739 0.737043
Si Si6 0.160531 0.095279 0.600671
O O1 0.488187 0.451509 0.189138
O O2 0.588095 0.601960 0.252960
O O3 0.767085 0.407185 0.066650
O O4 0.762420 0.581537 0.933784
O O5 0.550500 0.750000 0.899015
O O6 0.782243 0.579446 0.724793
O O7 0.500000 0.500000 0.000000
O O8 0.592689 0.250000 0.488870
O O9 0.500000 0.000000 0.500000
O O10 0.698573 0.011515 0.485368
O O11 0.955176 0.250000 0.019446
O O12 0.067310 0.111998 0.779787
O O13 0.000000 0.000000 0.000000
O O14 0.955521 0.750000 0.688070
O O15 0.028477 0.482815 0.638106
O O16 0.204438 0.250000 0.532851
#
# Coordination Sequence:
#
# PCOD9164502 Si02
#       6
#     4   4   4   4   4   4
#     4  10  21  37  60  87 116 152 196 241 289 347
#     4   9  18  33  58  90 121 152 191 241 296 350
#     4  12  26  42  60  85 118 157 199 244 294 349
#     4  10  21  35  55  81 109 144 190 239 287 340
#     4   9  18  36  62  90 117 147 187 239 293 346
#     4  10  22  39  57  81 115 154 193 236 287 346
#
# _framework density 21.924641000000001
#
# number of rings (size 3 to 8) (size 9 to 14) (size 15 to 20)
#    0.000    2.000    0.000    3.000    0.000   14.000 
#    0.000    0.833    0.000    0.000    0.000    0.000 
#    0.000    0.000    0.000    0.000    0.000    0.000 
#
# Total GULP energy -133817.427635 kJ/mol
# GULP energy per Si atom -5575.726151 kJ/mol
# Density = 2.187474 g / cm^3
# Si number density = 21.924641 Si / 1000 Ang^3
#
#
#
# Elastic Constant Matrix: (Units=GPa)
#
#
# Indices 1 2 3 4 5 6 
#
# 1 113.9538 73.5037 33.6219 0.0000 -0.2805 0.0000
# 2 73.5037 197.7852 37.0409 0.0000 -3.6961 0.0000
# 3 33.6219 37.0409 61.2095 0.0000 1.7785 0.0000
# 4 0.0000 0.0000 0.0000 -3.2262 0.0000 4.7921
# 5 -0.2805 -3.6961 1.7785 0.0000 20.9352 0.0000
# 6 0.0000 0.0000 0.0000 4.7921 0.0000 24.7041
#
#
#
# Elastic Compliance Matrix: (Units=1/GPa)
#
#
# Indices 1 2 3 4 5 6 
#
# 1 0.012599 -0.003822 -0.004604 0.000000 -0.000115 0.000000
# 2 -0.003822 0.006897 -0.002114 0.000000 0.001346 0.000000
# 3 -0.004604 -0.002114 0.020208 0.000000 -0.002152 0.000000
# 4 0.000000 0.000000 0.000000 -0.240633 0.000000 0.046677
# 5 -0.000115 0.001346 -0.002152 0.000000 0.048185 0.000000
# 6 0.000000 0.000000 0.000000 0.046677 0.000000 0.031425
#
#
# Mechanical properties :
#
#
# Convention : Reuss Voigt Hill
#
# Bulk Modulus (GPa) = 53.69284 73.47571 63.58427
# Shear Modulus (GPa) = -53.17440 23.73477 -14.71981
#
# Velocity S-wave (km/s) = -4.93010 3.29380 -2.59392
# Velocity P-wave (km/s) = 2.80446 6.93189 4.48253
#
# Compressibility (1/GPa) = 0.01862446
#
# Stress axis : x y z
#
# Youngs Moduli (GPa) = 79.37106 144.98215 49.48537
#
# Poissons Ratio (x) = 0.55414 0.22784
# Poissons Ratio (y) = 0.30336 0.10459
# Poissons Ratio (z) = 0.36545 0.30644
#
# Static dielectric constant tensor:
#      x y z
#    x 1.820350 0.000000 0.022130 
#    y 0.000000 1.716380 0.000000 
#    z 0.022130 0.000000 1.875080 
# 
# From -- ./inp_files/51504.got.cif
#   From: 2010.05.17/outbox.cif.g08.bks.cpg/sg11_26_cif.got.tgz:51504.got - 2010.06.03 12:22:45.
