data_PCOD9164568
_publ_section_title
;
Structure prediction by ZEFSAII (Michael W. Deem and Ramdas Pophale) SiO2 
 PCOD9164568
Probable space group: P 21/M
;
_chemical_formula_sum "Si O2"
_cell_formula_units_Z 24
_cell_length_a 22.233634
_cell_length_b 7.417009
_cell_length_c 11.528255
_cell_angle_alpha 90.000000
_cell_angle_beta 32.324039
_cell_angle_gamma 90.000000
_cell_volume 1016.526380
_symmetry_space_group_name_H-M "P 21/M"
_symmetry_group_IT_number 11
_symmetry_cell_setting 'monoclinic'
loop_
_space_group_symop_operation_xyz
x,y,z
-x,1/2+y,-z
-x,-y,-z
x,1/2-y,z
loop_
_atom_site_type_symbol
_atom_site_label
_atom_site_fract_x
_atom_site_fract_y
_atom_site_fract_z
Si Si1 0.362896 0.028681 0.964046
Si Si2 0.423768 0.962823 0.510678
Si Si3 0.213834 0.456982 0.994100
Si Si4 0.822347 0.542168 0.329314
Si Si5 0.368197 0.465420 0.210082
Si Si6 0.966848 0.969816 0.877104
O O1 0.365310 0.250000 0.954844
O O2 0.492082 0.971080 0.726675
O O3 0.279648 0.964696 0.997480
O O4 0.328511 0.971087 0.147969
O O5 0.406813 0.750000 0.524831
O O6 0.500000 0.000000 0.500000
O O7 0.303406 0.041876 0.741000
O O8 0.191376 0.250000 0.061152
O O9 0.097849 0.532280 0.132673
O O10 0.802683 0.750000 0.329916
O O11 0.705704 0.460660 0.563477
O O12 0.908135 0.533168 0.298272
O O13 0.890823 0.463750 0.109827
O O14 0.352047 0.250000 0.238025
O O15 0.500000 0.500000 0.000000
O O16 0.969133 0.750000 0.873734
#
# Coordination Sequence:
#
# PCOD9164568 Si02
#       6
#     4   4   4   4   4   4
#     4   8  16  31  47  68  99 133 163 196 246 301
#     4   9  16  27  44  68  98 131 164 199 242 290
#     4   9  17  30  50  73  99 129 164 206 251 296
#     4   9  19  35  52  73 100 131 167 209 250 293
#     4  10  21  36  53  73 101 135 170 203 247 302
#     4   9  18  33  54  76  98 128 167 210 254 295
#
# _framework density 23.609815000000001
#
# number of rings (size 3 to 8) (size 9 to 14) (size 15 to 20)
#    0.000    3.000    0.000    1.500    2.333    1.333 
#    0.000    4.167    0.000    0.000    0.000    0.000 
#    0.000    0.000    0.000    0.000    0.000    0.000 
#
# Total GULP energy -133893.143948 kJ/mol
# GULP energy per Si atom -5578.880998 kJ/mol
# Density = 2.355608 g / cm^3
# Si number density = 23.609815 Si / 1000 Ang^3
#
#
#
# Elastic Constant Matrix: (Units=GPa)
#
#
# Indices 1 2 3 4 5 6 
#
# 1 94.8023 -2.0932 5.7357 0.0000 -20.6569 0.0000
# 2 -2.0932 83.7553 -2.9306 0.0000 8.3318 0.0000
# 3 5.7357 -2.9306 74.7339 0.0000 -2.9623 0.0000
# 4 0.0000 0.0000 0.0000 9.2894 0.0000 -5.9367
# 5 -20.6569 8.3318 -2.9623 0.0000 31.0627 0.0000
# 6 0.0000 0.0000 0.0000 -5.9367 0.0000 13.7417
#
#
#
# Elastic Compliance Matrix: (Units=1/GPa)
#
#
# Indices 1 2 3 4 5 6 
#
# 1 0.012389 -0.000541 -0.000642 0.000000 0.008322 0.000000
# 2 -0.000541 0.012300 0.000380 0.000000 -0.003622 0.000000
# 3 -0.000642 0.000380 0.013475 0.000000 0.000756 0.000000
# 4 0.000000 0.000000 0.000000 0.148707 0.000000 0.064245
# 5 0.008322 -0.003622 0.000756 0.000000 0.038771 0.000000
# 6 0.000000 0.000000 0.000000 0.064245 0.000000 0.100527
#
#
# Mechanical properties :
#
#
# Convention : Reuss Voigt Hill
#
# Bulk Modulus (GPa) = 27.35384 28.30170 27.82777
# Shear Modulus (GPa) = 14.70764 27.65741 21.18252
#
# Velocity S-wave (km/s) = 2.49860 3.42634 2.99856
# Velocity P-wave (km/s) = 4.46485 5.25988 4.87859
#
# Compressibility (1/GPa) = 0.03655794
#
# Stress axis : x y z
#
# Youngs Moduli (GPa) = 80.71966 81.30290 74.21163
#
# Poissons Ratio (x) = 0.04396 0.04765
# Poissons Ratio (y) = 0.04365 -0.02822
# Poissons Ratio (z) = 0.05183 -0.03091
#
# Static dielectric constant tensor:
#      x y z
#    x 1.923220 0.000000 0.012390 
#    y 0.000000 1.877500 0.000000 
#    z 0.012390 0.000000 1.918790 
# 
# From -- ./inp_files/38605.got.cif
#   From: 2010.05.17/outbox.cif.g08.bks.cpg/sg11_20_cif.got.tgz:38605.got - 2010.06.03 12:22:45.
