data_PCOD9164494
_publ_section_title
;
Structure prediction by ZEFSAII (Michael W. Deem and Ramdas Pophale) SiO2 
 PCOD9164494
Probable space group: P 21/M
;
_chemical_formula_sum "Si O2"
_cell_formula_units_Z 18
_cell_length_a 7.072207
_cell_length_b 5.521278
_cell_length_c 23.394387
_cell_angle_alpha 90.000000
_cell_angle_beta 121.607586
_cell_angle_gamma 90.000000
_cell_volume 777.985046
_symmetry_space_group_name_H-M "P 21/M"
_symmetry_group_IT_number 11
_symmetry_cell_setting 'monoclinic'
loop_
_space_group_symop_operation_xyz
x,y,z
-x,1/2+y,-z
-x,-y,-z
x,1/2-y,z
loop_
_atom_site_type_symbol
_atom_site_label
_atom_site_fract_x
_atom_site_fract_y
_atom_site_fract_z
Si Si1 0.232014 0.750000 0.266414
Si Si2 0.068176 0.250000 0.193162
Si Si3 0.724162 0.750000 0.994338
Si Si4 0.535447 0.750000 0.836844
Si Si5 0.878629 0.250000 0.628192
Si Si6 0.772509 0.498134 0.500267
Si Si7 0.236422 0.750000 0.955361
Si Si8 0.633586 0.750000 0.239654
O O1 0.101569 0.500971 0.231847
O O2 0.449334 0.750000 0.261073
O O3 0.272008 0.750000 0.339975
O O4 0.258866 0.250000 0.174849
O O5 0.840197 0.250000 0.122202
O O6 0.638321 0.750000 0.916249
O O7 0.503969 0.750000 0.000151
O O8 0.844624 0.499340 0.029032
O O9 0.406176 0.498401 0.802494
O O10 0.839931 0.467425 0.577146
O O11 0.127112 0.250000 0.692534
O O12 0.650528 0.250000 0.464775
O O13 0.000000 0.500000 0.500000
O O14 0.654453 0.750000 0.473002
#
# Coordination Sequence:
#
# PCOD9164494 Si02
#       8
#     2   2   2   2   2   4   2   2
#     4  10  23  37  53  83 112 140 183 225 260 321
#     4  10  22  39  54  76 111 140 174 226 271 314
#     4  10  21  35  54  79 103 132 176 223 264 321
#     4  10  22  39  54  76 111 140 174 226 271 314
#     4  10  22  32  64  78 106 154 180 210 282 312
#     4   8  16  30  50  82 108 134 181 223 255 313
#     4  10  21  35  54  79 103 132 176 223 264 321
#     4  10  23  37  53  83 112 140 183 225 260 321
#
# _framework density 23.136690000000002
#
# number of rings (size 3 to 8) (size 9 to 14) (size 15 to 20)
#    0.667    1.778    0.000    1.333    6.222    0.889 
#    0.000    0.000    0.000    1.333    0.000    0.000 
#    0.000    0.000    0.000    0.000    0.000    0.000 
#
# Total GULP energy -100464.164560 kJ/mol
# GULP energy per Si atom -5581.342476 kJ/mol
# Density = 2.308403 g / cm^3
# Si number density = 23.136690 Si / 1000 Ang^3
#
#
#
# Elastic Constant Matrix: (Units=GPa)
#
#
# Indices 1 2 3 4 5 6 
#
# 1 66.4024 23.3019 31.3770 0.0000 -12.9848 0.0000
# 2 23.3019 267.3918 80.9468 0.0000 -3.2277 0.0000
# 3 31.3770 80.9468 138.6028 0.0000 -17.9720 0.0000
# 4 0.0000 0.0000 0.0000 28.1498 0.0000 -6.0887
# 5 -12.9848 -3.2277 -17.9720 0.0000 42.3560 0.0000
# 6 0.0000 0.0000 0.0000 -6.0887 0.0000 -12.4626
#
#
#
# Elastic Compliance Matrix: (Units=1/GPa)
#
#
# Indices 1 2 3 4 5 6 
#
# 1 0.017509 -0.000528 -0.003137 0.000000 0.003996 0.000000
# 2 -0.000528 0.004586 -0.002682 0.000000 -0.000950 0.000000
# 3 -0.003137 -0.002682 0.009884 0.000000 0.003028 0.000000
# 4 0.000000 0.000000 0.000000 0.032129 0.000000 -0.015697
# 5 0.003996 -0.000950 0.003028 0.000000 0.026047 0.000000
# 6 0.000000 0.000000 0.000000 -0.015697 0.000000 -0.072571
#
#
# Mechanical properties :
#
#
# Convention : Reuss Voigt Hill
#
# Bulk Modulus (GPa) = 51.85473 82.62760 67.24116
# Shear Modulus (GPa) = 136.21588 34.06007 85.13798
#
# Velocity S-wave (km/s) = 7.68129 3.84099 6.07270
# Velocity P-wave (km/s) = 10.05637 7.44723 8.84850
#
# Compressibility (1/GPa) = 0.01928465
#
# Stress axis : x y z
#
# Youngs Moduli (GPa) = 57.11422 218.03818 101.17195
#
# Poissons Ratio (x) = 0.11509 0.31740
# Poissons Ratio (y) = 0.03015 0.27137
# Poissons Ratio (z) = 0.17918 0.58484
#
# Static dielectric constant tensor:
#      x y z
#    x 1.915840 0.000000 -0.016060 
#    y 0.000000 2.017980 0.000000 
#    z -0.016060 0.000000 1.767450 
# 
# From -- ./inp_files/23517.got.cif
#   From: 2010.05.17/outbox.cif.g08.bks.cpg/sg11_12_cif.got.tgz:23517.got - 2010.06.03 12:22:45.
