data_PCOD9164006
_publ_section_title
;
Structure prediction by ZEFSAII (Michael W. Deem and Ramdas Pophale) SiO2 
 PCOD9164006
Probable space group: P 21/M
;
_chemical_formula_sum "Si O2"
_cell_formula_units_Z 32
_cell_length_a 11.989224
_cell_length_b 14.345539
_cell_length_c 18.894143
_cell_angle_alpha 90.000000
_cell_angle_beta 149.740135
_cell_angle_gamma 90.000000
_cell_volume 1637.566958
_symmetry_space_group_name_H-M "P 21/M"
_symmetry_group_IT_number 11
_symmetry_cell_setting 'monoclinic'
loop_
_space_group_symop_operation_xyz
x,y,z
-x,1/2+y,-z
-x,-y,-z
x,1/2-y,z
loop_
_atom_site_type_symbol
_atom_site_label
_atom_site_fract_x
_atom_site_fract_y
_atom_site_fract_z
Si Si1 0.674561 0.863189 0.140324
Si Si2 0.723335 0.862328 0.003278
Si Si3 0.048265 0.999361 0.109549
Si Si4 0.139055 0.862481 0.460953
Si Si5 0.187450 0.861693 0.916694
Si Si6 0.460528 0.502427 0.562333
Si Si7 0.923558 0.861364 0.626754
Si Si8 0.253651 0.863343 0.682200
O O1 0.667005 0.750000 0.135933
O O2 0.892602 0.890789 0.302436
O O3 0.699780 0.891041 0.072348
O O4 0.441246 0.893067 0.045121
O O5 0.739470 0.750000 0.009844
O O6 0.499728 0.891481 0.840105
O O7 0.933020 0.909909 0.082387
O O8 0.930539 0.086178 0.084005
O O9 0.306941 0.001765 0.269794
O O10 0.000000 0.000000 0.000000
O O11 0.151863 0.750000 0.464984
O O12 0.317194 0.907857 0.506434
O O13 0.191073 0.893922 0.569297
O O14 0.184209 0.750000 0.924883
O O15 0.055677 0.881937 0.771737
O O16 0.500000 0.500000 0.500000
O O17 0.306052 0.415500 0.498462
O O18 0.891334 0.750000 0.605864
O O19 0.075968 0.890049 0.644170
O O20 0.254203 0.750000 0.682215
#
# Coordination Sequence:
#
# PCOD9164006 Si02
#       8
#     4   4   4   4   4   4   4   4
#     4   9  18  35  62  94 117 143 192 248 306 362
#     4  10  20  38  63  87 118 154 194 248 299 352
#     4  12  27  41  58  89 124 163 210 245 285 355
#     4  10  22  38  60  91 125 154 189 251 311 353
#     4  10  21  41  66  89 119 156 197 250 305 357
#     4  12  25  41  59  85 122 166 216 241 278 360
#     4  10  21  40  66  90 117 156 200 252 303 355
#     4   9  18  37  64  92 118 151 196 244 309 371
#
# _framework density 19.541187000000001
#
# number of rings (size 3 to 8) (size 9 to 14) (size 15 to 20)
#    0.000    1.750    2.500    1.500    0.000    5.000 
#    0.000    1.250    0.000    0.000    0.000    0.000 
#    0.000    0.000    0.000    0.000    0.000    0.000 
#
# Total GULP energy -178918.966052 kJ/mol
# GULP energy per Si atom -5591.217689 kJ/mol
# Density = 1.949671 g / cm^3
# Si number density = 19.541187 Si / 1000 Ang^3
#
#
#
# Elastic Constant Matrix: (Units=GPa)
#
#
# Indices 1 2 3 4 5 6 
#
# 1 111.8386 41.4656 59.9914 0.0000 3.4191 0.0000
# 2 41.4656 69.3655 42.6273 0.0000 3.6048 0.0000
# 3 59.9914 42.6273 162.1662 0.0000 10.7052 0.0000
# 4 0.0000 0.0000 0.0000 19.0117 0.0000 12.3615
# 5 3.4191 3.6048 10.7052 0.0000 43.6967 0.0000
# 6 0.0000 0.0000 0.0000 12.3615 0.0000 41.8276
#
#
#
# Elastic Compliance Matrix: (Units=1/GPa)
#
#
# Indices 1 2 3 4 5 6 
#
# 1 0.012776 -0.005648 -0.003259 0.000000 0.000265 0.000000
# 2 -0.005648 0.019695 -0.003059 0.000000 -0.000433 0.000000
# 3 -0.003259 -0.003059 0.008277 0.000000 -0.001520 0.000000
# 4 0.000000 0.000000 0.000000 0.065111 0.000000 -0.019243
# 5 0.000265 -0.000433 -0.001520 0.000000 0.023273 0.000000
# 6 0.000000 0.000000 0.000000 -0.019243 0.000000 0.029595
#
#
# Mechanical properties :
#
#
# Convention : Reuss Voigt Hill
#
# Bulk Modulus (GPa) = 59.47027 70.17098 64.82062
# Shear Modulus (GPa) = 26.55865 34.19292 30.37578
#
# Velocity S-wave (km/s) = 3.69061 4.18758 3.94693
# Velocity P-wave (km/s) = 6.97569 7.70509 7.34944
#
# Compressibility (1/GPa) = 0.01681513
#
# Stress axis : x y z
#
# Youngs Moduli (GPa) = 78.27413 50.77399 120.82238
#
# Poissons Ratio (x) = 0.28677 0.39376
# Poissons Ratio (y) = 0.44210 0.36960
# Poissons Ratio (z) = 0.25510 0.15532
#
# Static dielectric constant tensor:
#      x y z
#    x 1.642430 0.000000 -0.004860 
#    y 0.000000 1.710580 0.000000 
#    z -0.004860 0.000000 1.661150 
# 
# From -- ./inp_files/59529.got.cif
#   From: 2010.05.17/outbox.cif.g08.bks.cpg/sg11_30_cif.got.tgz:59529.got - 2010.06.03 12:22:45.
