data_PCOD9164046
_publ_section_title
;
Structure prediction by ZEFSAII (Michael W. Deem and Ramdas Pophale) SiO2 
 PCOD9164046
Probable space group: P 21/M
;
_chemical_formula_sum "Si O2"
_cell_formula_units_Z 30
_cell_length_a 9.329985
_cell_length_b 14.817520
_cell_length_c 12.509082
_cell_angle_alpha 90.000000
_cell_angle_beta 114.149456
_cell_angle_gamma 90.000000
_cell_volume 1577.996071
_symmetry_space_group_name_H-M "P 21/M"
_symmetry_group_IT_number 11
_symmetry_cell_setting 'monoclinic'
loop_
_space_group_symop_operation_xyz
x,y,z
-x,1/2+y,-z
-x,-y,-z
x,1/2-y,z
loop_
_atom_site_type_symbol
_atom_site_label
_atom_site_fract_x
_atom_site_fract_y
_atom_site_fract_z
Si Si1 0.676760 0.569277 0.825638
Si Si2 0.349438 0.750000 0.158808
Si Si3 0.681055 0.356442 0.552572
Si Si4 0.411823 0.080520 0.777298
Si Si5 0.133442 0.901073 0.171971
Si Si6 0.230926 0.144524 0.923425
Si Si7 0.820659 0.517209 0.473366
Si Si8 0.323696 0.145569 0.409118
O O1 0.527077 0.504743 0.798687
O O2 0.822336 0.500746 0.852747
O O3 0.660525 0.624602 0.711348
O O4 0.704756 0.629080 0.937960
O O5 0.484614 0.670078 0.208836
O O6 0.210942 0.828817 0.115937
O O7 0.700189 0.250000 0.536407
O O8 0.775327 0.380146 0.688764
O O9 0.741377 0.421558 0.478321
O O10 0.495808 0.373340 0.512058
O O11 0.333787 0.088993 0.870015
O O12 0.272803 0.067075 0.649444
O O13 0.950147 0.885781 0.133322
O O14 0.239583 0.250000 0.897043
O O15 0.797758 0.579363 0.570992
O O16 0.000000 0.500000 0.500000
O O17 0.284980 0.250000 0.414739
#
# Coordination Sequence:
#
# PCOD9164046 Si02
#       8
#     4   2   4   4   4   4   4   4
#     4  11  23  42  66  89 128 171 218 259 321 392
#     4  10  20  38  64  96 120 162 210 278 306 380
#     4  11  21  39  67  94 125 164 214 264 312 383
#     4  11  24  41  64  93 132 170 217 260 327 388
#     4  11  21  38  65  95 123 158 215 269 324 370
#     4  12  24  42  63  95 128 165 218 274 324 377
#     4  12  25  40  63  97 138 167 207 269 328 381
#     4  11  23  40  67  95 125 171 217 258 318 394
#
# _framework density 19.011455000000002
#
# number of rings (size 3 to 8) (size 9 to 14) (size 15 to 20)
#    0.000    0.800    4.667    4.000    2.800    0.533 
#    0.000    0.000    0.000    0.000    0.000    0.000 
#    0.000    0.000    0.000    0.000    0.000    0.000 
#
# Total GULP energy -167149.819097 kJ/mol
# GULP energy per Si atom -5571.660637 kJ/mol
# Density = 1.896818 g / cm^3
# Si number density = 19.011455 Si / 1000 Ang^3
#
#
#
# Elastic Constant Matrix: (Units=GPa)
#
#
# Indices 1 2 3 4 5 6 
#
# 1 126.4664 38.9695 27.8426 0.0000 -5.5738 0.0000
# 2 38.9695 64.4508 -7.8474 0.0000 -7.7195 0.0000
# 3 27.8426 -7.8474 75.7366 0.0000 -13.2395 0.0000
# 4 0.0000 0.0000 0.0000 9.7655 0.0000 2.4111
# 5 -5.5738 -7.7195 -13.2395 0.0000 17.9320 0.0000
# 6 0.0000 0.0000 0.0000 2.4111 0.0000 10.4007
#
#
#
# Elastic Compliance Matrix: (Units=1/GPa)
#
#
# Indices 1 2 3 4 5 6 
#
# 1 0.011526 -0.008187 -0.005827 0.000000 -0.004244 0.000000
# 2 -0.008187 0.022954 0.007659 0.000000 0.012992 0.000000
# 3 -0.005827 0.007659 0.018830 0.000000 0.015388 0.000000
# 4 0.000000 0.000000 0.000000 0.108618 0.000000 -0.025180
# 5 -0.004244 0.012992 0.015388 0.000000 0.071401 0.000000
# 6 0.000000 0.000000 0.000000 -0.025180 0.000000 0.101985
#
#
# Mechanical properties :
#
#
# Convention : Reuss Voigt Hill
#
# Bulk Modulus (GPa) = 24.63067 42.73147 33.68107
# Shear Modulus (GPa) = 13.82904 21.46556 17.64730
#
# Velocity S-wave (km/s) = 2.69997 3.36383 3.05002
# Velocity P-wave (km/s) = 4.76483 6.13292 5.49164
#
# Compressibility (1/GPa) = 0.04059980
#
# Stress axis : x y z
#
# Youngs Moduli (GPa) = 86.76159 43.56449 53.10798
#
# Poissons Ratio (x) = 0.35666 0.30948
# Poissons Ratio (y) = 0.71031 -0.40677
# Poissons Ratio (z) = 0.50559 -0.33367
#
# Static dielectric constant tensor:
#      x y z
#    x 1.652420 0.000000 -0.013630 
#    y 0.000000 1.691220 0.000000 
#    z -0.013630 0.000000 1.670370 
# 
# From -- ./inp_files/31836.got.cif
#   From: 2010.05.17/outbox.cif.g08.bks.cpg/sg11_16_cif.got.tgz:31836.got - 2010.06.03 12:22:45.
