data_PCOD9164201
_publ_section_title
;
Structure prediction by ZEFSAII (Michael W. Deem and Ramdas Pophale) SiO2 
 PCOD9164201
Probable space group: P 21/M
;
_chemical_formula_sum "Si O2"
_cell_formula_units_Z 32
_cell_length_a 24.883858
_cell_length_b 8.728344
_cell_length_c 16.042489
_cell_angle_alpha 90.000000
_cell_angle_beta 27.595131
_cell_angle_gamma 90.000000
_cell_volume 1614.021441
_symmetry_space_group_name_H-M "P 21/M"
_symmetry_group_IT_number 11
_symmetry_cell_setting 'monoclinic'
loop_
_space_group_symop_operation_xyz
x,y,z
-x,1/2+y,-z
-x,-y,-z
x,1/2-y,z
loop_
_atom_site_type_symbol
_atom_site_label
_atom_site_fract_x
_atom_site_fract_y
_atom_site_fract_z
Si Si1 0.916433 0.430971 0.687194
Si Si2 0.706262 0.928510 0.885118
Si Si3 0.989060 0.433863 0.107556
Si Si4 0.855697 0.934766 0.948108
Si Si5 0.404326 0.570012 0.693648
Si Si6 0.371856 0.067630 0.182184
Si Si7 0.486836 0.927752 0.297100
Si Si8 0.272461 0.566479 0.486311
O O1 0.936615 0.250000 0.665212
O O2 0.787924 0.469842 0.830023
O O3 0.000000 0.500000 0.500000
O O4 0.918252 0.502284 0.777998
O O5 0.744655 0.750000 0.838864
O O6 0.704929 0.981214 0.791683
O O7 0.574064 0.932717 0.098812
O O8 0.999090 0.250000 0.088140
O O9 0.859527 0.472301 0.314859
O O10 0.000000 0.500000 0.000000
O O11 0.078387 0.483449 0.057405
O O12 0.856221 0.750000 0.942393
O O13 0.722572 0.992226 0.135117
O O14 0.500000 0.500000 0.500000
O O15 0.390890 0.750000 0.696790
O O16 0.458692 0.535814 0.709036
O O17 0.380615 0.250000 0.164985
O O18 0.315460 0.015836 0.344932
O O19 0.500000 0.000000 0.000000
O O20 0.486367 0.750000 0.327590
O O21 0.359076 0.972009 0.442979
O O22 0.283044 0.750000 0.460087
#
# Coordination Sequence:
#
# PCOD9164201 Si02
#       8
#     4   4   4   4   4   4   4   4
#     4  12  26  43  66  95 128 174 220 269 326 388
#     4  10  21  39  61  89 128 168 209 262 322 380
#     4  10  25  46  70  96 128 171 219 273 326 382
#     4  11  24  46  69  99 137 172 217 272 326 390
#     4  12  26  43  67  98 128 166 212 265 329 390
#     4  11  22  37  59  91 127 168 209 256 311 376
#     4  10  20  39  65  92 130 167 204 263 325 383
#     4  10  22  42  64  93 128 169 214 262 322 383
#
# _framework density 19.826255
#
# number of rings (size 3 to 8) (size 9 to 14) (size 15 to 20)
#    0.000    1.250    2.500    3.000    3.500    3.000 
#    0.000    0.000    0.000    0.000    0.000    0.000 
#    0.000    0.000    0.000    0.000    0.000    0.000 
#
# Total GULP energy -178802.696940 kJ/mol
# GULP energy per Si atom -5587.584279 kJ/mol
# Density = 1.978113 g / cm^3
# Si number density = 19.826255 Si / 1000 Ang^3
#
#
#
# Elastic Constant Matrix: (Units=GPa)
#
#
# Indices 1 2 3 4 5 6 
#
# 1 146.7751 47.0971 54.5610 0.0000 5.2298 0.0000
# 2 47.0971 72.1321 44.0832 0.0000 5.9434 0.0000
# 3 54.5610 44.0832 87.0843 0.0000 14.5395 0.0000
# 4 0.0000 0.0000 0.0000 28.1452 0.0000 8.5848
# 5 5.2298 5.9434 14.5395 0.0000 28.8610 0.0000
# 6 0.0000 0.0000 0.0000 8.5848 0.0000 31.3521
#
#
#
# Elastic Compliance Matrix: (Units=1/GPa)
#
#
# Indices 1 2 3 4 5 6 
#
# 1 0.009564 -0.003705 -0.004318 0.000000 0.001205 0.000000
# 2 -0.003705 0.021540 -0.008684 0.000000 0.000611 0.000000
# 3 -0.004318 -0.008684 0.019823 0.000000 -0.007415 0.000000
# 4 0.000000 0.000000 0.000000 0.038768 0.000000 -0.010615
# 5 0.001205 0.000611 -0.007415 0.000000 0.038040 0.000000
# 6 0.000000 0.000000 0.000000 -0.010615 0.000000 0.034803
#
#
# Mechanical properties :
#
#
# Convention : Reuss Voigt Hill
#
# Bulk Modulus (GPa) = 57.10406 66.38600 61.74503
# Shear Modulus (GPa) = 24.77836 28.35502 26.56669
#
# Velocity S-wave (km/s) = 3.53905 3.78587 3.66454
# Velocity P-wave (km/s) = 6.75016 7.25720 7.00827
#
# Compressibility (1/GPa) = 0.01751189
#
# Stress axis : x y z
#
# Youngs Moduli (GPa) = 104.55644 46.42597 50.44772
#
# Poissons Ratio (x) = 0.17202 0.21783
# Poissons Ratio (y) = 0.38740 0.43810
# Poissons Ratio (z) = 0.45146 0.40317
#
# Static dielectric constant tensor:
#      x y z
#    x 1.705220 0.000000 0.016750 
#    y 0.000000 1.693860 0.000000 
#    z 0.016750 0.000000 1.703880 
# 
# From -- ./inp_files/55636.got.cif
#   From: 2010.05.17/outbox.cif.g08.bks.cpg/sg11_28_cif.got.tgz:55636.got - 2010.06.03 12:22:45.
