data_PCOD9164696
_publ_section_title
;
Structure prediction by ZEFSAII (Michael W. Deem and Ramdas Pophale) SiO2 
 PCOD9164696
Probable space group: P 21/M
;
_chemical_formula_sum "Si O2"
_cell_formula_units_Z 28
_cell_length_a 9.494142
_cell_length_b 8.851633
_cell_length_c 29.898362
_cell_angle_alpha 90.000000
_cell_angle_beta 37.668623
_cell_angle_gamma 90.000000
_cell_volume 1535.445085
_symmetry_space_group_name_H-M "P 21/M"
_symmetry_group_IT_number 11
_symmetry_cell_setting 'monoclinic'
loop_
_space_group_symop_operation_xyz
x,y,z
-x,1/2+y,-z
-x,-y,-z
x,1/2-y,z
loop_
_atom_site_type_symbol
_atom_site_label
_atom_site_fract_x
_atom_site_fract_y
_atom_site_fract_z
Si Si1 0.244178 0.568254 0.064983
Si Si2 0.684117 0.431391 0.361675
Si Si3 0.932656 0.431734 0.064820
Si Si4 0.083824 0.569731 0.204658
Si Si5 0.994212 0.069025 0.368882
Si Si6 0.602852 0.568676 0.798032
Si Si7 0.847326 0.569031 0.499225
O O1 0.255097 0.750000 0.058222
O O2 0.131840 0.529565 0.141231
O O3 0.094035 0.500394 0.062556
O O4 0.500000 0.500000 0.000000
O O5 0.695851 0.250000 0.353523
O O6 0.419232 0.479123 0.427932
O O7 0.844508 0.504825 0.283714
O O8 0.801331 0.467163 0.379983
O O9 0.956310 0.250000 0.058048
O O10 0.663900 0.469415 0.140911
O O11 0.000000 0.500000 0.000000
O O12 0.082492 0.750000 0.208834
O O13 0.284052 0.505400 0.186587
O O14 0.992820 0.250000 0.376570
O O15 0.236534 0.027294 0.284551
O O16 0.941161 0.986424 0.428028
O O17 0.622320 0.750000 0.798494
O O18 0.854131 0.750000 0.499434
O O19 0.000000 0.500000 0.500000
#
# Coordination Sequence:
#
# PCOD9164696 Si02
#       7
#     4   4   4   4   4   4   4
#     4  11  24  40  58  84 116 150 189 234 281 332
#     4   9  20  38  59  81 109 146 185 223 273 335
#     4  11  23  39  60  85 114 151 190 231 279 333
#     4  10  21  36  58  87 114 141 182 233 278 322
#     4   9  18  36  59  82 108 141 183 228 271 325
#     4   9  20  38  59  83 113 148 184 223 276 337
#     4  11  23  37  54  80 112 147 184 226 275 326
#
# _framework density 18.235754
#
# number of rings (size 3 to 8) (size 9 to 14) (size 15 to 20)
#    0.000    2.000    0.000    3.857    0.000   10.286 
#    0.000    4.286    0.000    0.000    0.000    0.000 
#    0.000    0.000    0.000    0.000    0.000    0.000 
#
# Total GULP energy -156423.036708 kJ/mol
# GULP energy per Si atom -5586.537025 kJ/mol
# Density = 1.819425 g / cm^3
# Si number density = 18.235754 Si / 1000 Ang^3
#
#
#
# Elastic Constant Matrix: (Units=GPa)
#
#
# Indices 1 2 3 4 5 6 
#
# 1 165.6441 65.7046 139.8065 0.0000 -3.9673 0.0000
# 2 65.7046 48.9053 68.3678 0.0000 2.6133 0.0000
# 3 139.8065 68.3678 172.9845 0.0000 0.8188 0.0000
# 4 0.0000 0.0000 0.0000 32.3999 0.0000 3.2821
# 5 -3.9673 2.6133 0.8188 0.0000 34.2986 0.0000
# 6 0.0000 0.0000 0.0000 3.2821 0.0000 35.0160
#
#
#
# Elastic Compliance Matrix: (Units=1/GPa)
#
#
# Indices 1 2 3 4 5 6 
#
# 1 0.021413 -0.010601 -0.013133 0.000000 0.003598 0.000000
# 2 -0.010601 0.051264 -0.011670 0.000000 -0.004853 0.000000
# 3 -0.013133 -0.011670 0.021013 0.000000 -0.001132 0.000000
# 4 0.000000 0.000000 0.000000 0.031160 0.000000 -0.002921
# 5 0.003598 -0.004853 -0.001132 0.000000 0.029969 0.000000
# 6 0.000000 0.000000 0.000000 -0.002921 0.000000 0.028832
#
#
# Mechanical properties :
#
#
# Convention : Reuss Voigt Hill
#
# Bulk Modulus (GPa) = 43.70423 103.92129 73.81276
# Shear Modulus (GPa) = 19.07773 27.91989 23.49881
#
# Velocity S-wave (km/s) = 3.23797 3.91711 3.59362
# Velocity P-wave (km/s) = 6.16421 8.80737 7.60155
#
# Compressibility (1/GPa) = 0.02288108
#
# Stress axis : x y z
#
# Youngs Moduli (GPa) = 46.70103 19.50699 47.58977
#
# Poissons Ratio (x) = 0.20679 0.62501
# Poissons Ratio (y) = 0.49506 0.55538
# Poissons Ratio (z) = 0.61334 0.22765
#
# Static dielectric constant tensor:
#      x y z
#    x 1.591610 0.000000 -0.011300 
#    y 0.000000 1.589540 0.000000 
#    z -0.011300 0.000000 1.616780 
# 
# From -- ./inp_files/28425.got.cif
#   From: 2010.05.17/outbox.cif.g08.bks.cpg/sg11_15_cif.got.tgz:28425.got - 2010.06.03 12:22:45.
