data_PCOD9164385
_publ_section_title
;
Structure prediction by ZEFSAII (Michael W. Deem and Ramdas Pophale) SiO2 
 PCOD9164385
Probable space group: P 21/M
;
_chemical_formula_sum "Si O2"
_cell_formula_units_Z 28
_cell_length_a 11.399688
_cell_length_b 28.488638
_cell_length_c 5.127029
_cell_angle_alpha 90.000000
_cell_angle_beta 102.220400
_cell_angle_gamma 90.000000
_cell_volume 1627.332740
_symmetry_space_group_name_H-M "P 21/M"
_symmetry_group_IT_number 11
_symmetry_cell_setting 'monoclinic'
loop_
_space_group_symop_operation_xyz
x,y,z
-x,1/2+y,-z
-x,-y,-z
x,1/2-y,z
loop_
_atom_site_type_symbol
_atom_site_label
_atom_site_fract_x
_atom_site_fract_y
_atom_site_fract_z
Si Si1 0.235919 0.301988 0.458546
Si Si2 0.581427 0.992082 0.287896
Si Si3 0.130178 0.034832 0.108243
Si Si4 0.010501 0.399109 0.679647
Si Si5 0.162802 0.971957 0.618755
Si Si6 0.728834 0.596422 0.491961
Si Si7 0.931924 0.698431 0.119886
O O1 0.290216 0.250000 0.436281
O O2 0.311629 0.350022 0.488580
O O3 0.172419 0.300177 0.710215
O O4 0.132915 0.308604 0.188913
O O5 0.639701 0.939810 0.312519
O O6 0.500000 0.000000 0.500000
O O7 0.694574 0.027567 0.359780
O O8 0.500000 0.000000 0.000000
O O9 0.240316 0.069700 0.223282
O O10 0.111416 0.007385 0.370506
O O11 0.030053 0.069314 0.946760
O O12 0.151403 0.996870 0.893329
O O13 0.140714 0.400598 0.593628
O O14 0.989041 0.345985 0.760446
O O15 0.907679 0.423762 0.460875
O O16 0.990398 0.750000 0.147122
#
# Coordination Sequence:
#
# PCOD9164385 Si02
#       7
#     4   4   4   4   4   4   4
#     4   9  17  30  47  72  99 127 157 192 242 302
#     4  11  23  37  48  67  98 135 169 201 241 289
#     4  11  19  31  44  76  99 126 156 194 240 286
#     4  11  20  32  52  76 100 129 160 202 249 288
#     4  11  24  32  51  70 100 129 170 199 239 292
#     4  10  21  33  54  73 102 133 159 203 253 290
#     4   9  18  29  45  70 104 129 152 187 243 307
#
# _framework density 17.206068999999999
#
# number of rings (size 3 to 8) (size 9 to 14) (size 15 to 20)
#    0.000    1.714    4.286    2.571    2.000    0.000 
#    0.000    0.000    0.000    0.000    0.000    2.000 
#    0.000    0.000    0.000    0.000    0.000    0.000 
#
# Total GULP energy -155977.573926 kJ/mol
# GULP energy per Si atom -5570.627640 kJ/mol
# Density = 1.716691 g / cm^3
# Si number density = 17.206069 Si / 1000 Ang^3
#
#
#
# Elastic Constant Matrix: (Units=GPa)
#
#
# Indices 1 2 3 4 5 6 
#
# 1 62.7010 36.6534 29.2118 0.0000 4.7805 0.0000
# 2 36.6534 137.7892 28.3278 0.0000 19.4973 0.0000
# 3 29.2118 28.3278 98.9699 0.0000 -1.6633 0.0000
# 4 0.0000 0.0000 0.0000 23.0234 0.0000 3.1313
# 5 4.7805 19.4973 -1.6633 0.0000 29.4112 0.0000
# 6 0.0000 0.0000 0.0000 3.1313 0.0000 13.5493
#
#
#
# Elastic Compliance Matrix: (Units=1/GPa)
#
#
# Indices 1 2 3 4 5 6 
#
# 1 0.020888 -0.004445 -0.004905 0.000000 -0.000726 0.000000
# 2 -0.004445 0.009559 -0.001520 0.000000 -0.005700 0.000000
# 3 -0.004905 -0.001520 0.012029 0.000000 0.002485 0.000000
# 4 0.000000 0.000000 0.000000 0.044843 0.000000 -0.010363
# 5 -0.000726 -0.005700 0.002485 0.000000 0.038038 0.000000
# 6 0.000000 0.000000 0.000000 -0.010363 0.000000 0.076200
#
#
# Mechanical properties :
#
#
# Convention : Reuss Voigt Hill
#
# Bulk Modulus (GPa) = 48.22712 54.20512 51.21612
# Shear Modulus (GPa) = 21.71944 26.88126 24.30035
#
# Velocity S-wave (km/s) = 3.55676 3.95690 3.76215
# Velocity P-wave (km/s) = 6.70502 7.24210 6.97873
#
# Compressibility (1/GPa) = 0.02073522
#
# Stress axis : x y z
#
# Youngs Moduli (GPa) = 47.87470 104.61353 83.13512
#
# Poissons Ratio (x) = 0.46504 0.40778
# Poissons Ratio (y) = 0.21282 0.12635
# Poissons Ratio (z) = 0.23483 0.15899
#
# Static dielectric constant tensor:
#      x y z
#    x 1.610860 0.000000 -0.037640 
#    y 0.000000 1.657060 0.000000 
#    z -0.037640 0.000000 1.623330 
# 
# From -- ./inp_files/3265.got.cif
#   From: 2010.05.17/outbox.cif.g08.bks.cpg/sg11_2_cif.got.tgz:3265.got - 2010.06.03 12:22:45.
