data_PCOD9164749
_publ_section_title
;
Structure prediction by ZEFSAII (Michael W. Deem and Ramdas Pophale) SiO2 
 PCOD9164749
Probable space group: P 21/M
;
_chemical_formula_sum "Si O2"
_cell_formula_units_Z 22
_cell_length_a 15.237556
_cell_length_b 7.505000
_cell_length_c 7.721551
_cell_angle_alpha 90.000000
_cell_angle_beta 97.695565
_cell_angle_gamma 90.000000
_cell_volume 875.067171
_symmetry_space_group_name_H-M "P 21/M"
_symmetry_group_IT_number 11
_symmetry_cell_setting 'monoclinic'
loop_
_space_group_symop_operation_xyz
x,y,z
-x,1/2+y,-z
-x,-y,-z
x,1/2-y,z
loop_
_atom_site_type_symbol
_atom_site_label
_atom_site_fract_x
_atom_site_fract_y
_atom_site_fract_z
Si Si1 0.801903 0.952254 0.872156
Si Si2 0.977350 0.450932 0.793937
Si Si3 0.775602 0.535709 0.257236
Si Si4 0.090525 0.750000 0.629197
Si Si5 0.607633 0.453416 0.727113
Si Si6 0.418239 0.034467 0.680485
O O1 0.833487 0.750000 0.877862
O O2 0.870947 0.051929 0.771087
O O3 0.699596 0.954925 0.794013
O O4 0.806841 0.014146 0.071661
O O5 0.006589 0.250000 0.754888
O O6 0.021083 0.594171 0.681569
O O7 0.000000 0.500000 0.000000
O O8 0.784756 0.750000 0.288490
O O9 0.834626 0.407976 0.388282
O O10 0.670980 0.494079 0.240511
O O11 0.617716 0.250000 0.787625
O O12 0.595600 0.461631 0.516625
O O13 0.514208 0.527577 0.773783
O O14 0.424559 0.250000 0.668813
#
# Coordination Sequence:
#
# PCOD9164749 Si02
#       6
#     4   4   4   2   4   4
#     4  11  21  36  56  90 119 155 198 244 296 344
#     4  12  20  34  56  85 119 157 197 245 291 352
#     4  10  22  38  59  89 122 155 196 246 297 351
#     4  12  22  34  58  88 118 158 198 242 300 354
#     4  10  21  36  61  89 117 154 202 240 290 359
#     4   9  20  41  60  84 118 159 196 240 295 357
#
# _framework density 25.140924999999999
#
# number of rings (size 3 to 8) (size 9 to 14) (size 15 to 20)
#    0.000    1.455    3.636    1.636    2.545    1.455 
#    0.000    0.000    0.000    1.091    0.000    0.000 
#    0.000    0.000    0.000    0.000    0.000    0.000 
#
# Total GULP energy -122603.002318 kJ/mol
# GULP energy per Si atom -5572.863742 kJ/mol
# Density = 2.508370 g / cm^3
# Si number density = 25.140925 Si / 1000 Ang^3
#
#
#
# Elastic Constant Matrix: (Units=GPa)
#
#
# Indices 1 2 3 4 5 6 
#
# 1 213.9828 51.3168 23.9797 0.0000 -4.4721 0.0000
# 2 51.3168 147.9944 22.4573 0.0000 -15.4275 0.0000
# 3 23.9797 22.4573 75.1264 0.0000 -13.5724 0.0000
# 4 0.0000 0.0000 0.0000 12.4235 0.0000 2.9066
# 5 -4.4721 -15.4275 -13.5724 0.0000 68.0449 0.0000
# 6 0.0000 0.0000 0.0000 2.9066 0.0000 42.2743
#
#
#
# Elastic Compliance Matrix: (Units=1/GPa)
#
#
# Indices 1 2 3 4 5 6 
#
# 1 0.005199 -0.001647 -0.001217 0.000000 -0.000274 0.000000
# 2 -0.001647 0.007700 -0.001536 0.000000 0.001331 0.000000
# 3 -0.001217 -0.001536 0.014607 0.000000 0.002486 0.000000
# 4 0.000000 0.000000 0.000000 0.081809 0.000000 -0.005625
# 5 -0.000274 0.001331 0.002486 0.000000 0.015476 0.000000
# 6 0.000000 0.000000 0.000000 -0.005625 0.000000 0.024042
#
#
# Mechanical properties :
#
#
# Convention : Reuss Voigt Hill
#
# Bulk Modulus (GPa) = 53.45318 70.29015 61.87166
# Shear Modulus (GPa) = 30.51273 47.17186 38.84230
#
# Velocity S-wave (km/s) = 3.48755 4.33632 3.93489
# Velocity P-wave (km/s) = 6.12576 7.28634 6.73111
#
# Compressibility (1/GPa) = 0.01870796
#
# Stress axis : x y z
#
# Youngs Moduli (GPa) = 192.35270 129.87412 68.45874
#
# Poissons Ratio (x) = 0.21385 0.08330
# Poissons Ratio (y) = 0.31673 0.10512
# Poissons Ratio (z) = 0.23405 0.19943
#
# Static dielectric constant tensor:
#      x y z
#    x 2.012540 0.000000 0.050700 
#    y 0.000000 1.915090 0.000000 
#    z 0.050700 0.000000 2.094960 
# 
# From -- ./inp_files/20591.got.cif
#   From: 2010.05.17/outbox.cif.g08.bks.cpg/sg11_11_cif.got.tgz:20591.got - 2010.06.03 12:22:45.
