data_PCOD9164157
_publ_section_title
;
Structure prediction by ZEFSAII (Michael W. Deem and Ramdas Pophale) SiO2 
 PCOD9164157
Probable space group: P 21/M
;
_chemical_formula_sum "Si O2"
_cell_formula_units_Z 16
_cell_length_a 7.437078
_cell_length_b 22.726406
_cell_length_c 5.735675
_cell_angle_alpha 90.000000
_cell_angle_beta 42.957970
_cell_angle_gamma 90.000000
_cell_volume 660.631190
_symmetry_space_group_name_H-M "P 21/M"
_symmetry_group_IT_number 11
_symmetry_cell_setting 'monoclinic'
loop_
_space_group_symop_operation_xyz
x,y,z
-x,1/2+y,-z
-x,-y,-z
x,1/2-y,z
loop_
_atom_site_type_symbol
_atom_site_label
_atom_site_fract_x
_atom_site_fract_y
_atom_site_fract_z
Si Si1 0.117047 0.122892 0.383600
Si Si2 0.487271 0.904566 0.616108
Si Si3 0.787018 0.512279 0.000522
Si Si4 0.616141 0.319677 0.659178
O O1 0.248596 0.118161 0.511929
O O2 0.843247 0.156220 0.613896
O O3 0.101971 0.056054 0.299330
O O4 0.333476 0.158912 0.025448
O O5 0.560607 0.947727 0.333500
O O6 0.338695 0.851223 0.633847
O O7 0.337222 0.948547 0.935341
O O8 0.000000 0.500000 0.000000
O O9 0.624260 0.250000 0.633030
#
# Coordination Sequence:
#
# PCOD9164157 Si02
#       4
#     4   4   4   4
#     4  11  24  41  66  93 125 166 209 256 318 374
#     4  10  23  40  63  94 127 166 202 257 321 369
#     4  10  20  39  63  97 130 158 202 258 316 381
#     4  11  25  43  61  89 125 164 218 263 299 367
#
# _framework density 24.219263000000002
#
# number of rings (size 3 to 8) (size 9 to 14) (size 15 to 20)
#    0.000    1.500    2.500    1.500    3.500    3.000 
#    0.000    0.000    0.000    0.000    0.000    0.000 
#    0.000    0.000    0.000    0.000    0.000    0.000 
#
# Total GULP energy -89557.783932 kJ/mol
# GULP energy per Si atom -5597.361496 kJ/mol
# Density = 2.416414 g / cm^3
# Si number density = 24.219263 Si / 1000 Ang^3
#
#
#
# Elastic Constant Matrix: (Units=GPa)
#
#
# Indices 1 2 3 4 5 6 
#
# 1 125.2855 54.3356 -7.7533 0.0000 -0.3107 0.0000
# 2 54.3356 224.2004 35.1233 0.0000 -0.9308 0.0000
# 3 -7.7533 35.1233 72.4037 0.0000 -8.9405 0.0000
# 4 0.0000 0.0000 0.0000 23.4224 0.0000 -5.8015
# 5 -0.3107 -0.9308 -8.9405 0.0000 33.7425 0.0000
# 6 0.0000 0.0000 0.0000 -5.8015 0.0000 37.8328
#
#
#
# Elastic Compliance Matrix: (Units=1/GPa)
#
#
# Indices 1 2 3 4 5 6 
#
# 1 0.009258 -0.002607 0.002334 0.000000 0.000632 0.000000
# 2 -0.002607 0.005569 -0.003065 0.000000 -0.000683 0.000000
# 3 0.002334 -0.003065 0.016066 0.000000 0.004194 0.000000
# 4 0.000000 0.000000 0.000000 0.044380 0.000000 0.006805
# 5 0.000632 -0.000683 0.004194 0.000000 0.030734 0.000000
# 6 0.000000 0.000000 0.000000 0.006805 0.000000 0.027476
#
#
# Mechanical properties :
#
#
# Convention : Reuss Voigt Hill
#
# Bulk Modulus (GPa) = 41.29165 65.03341 53.16253
# Shear Modulus (GPa) = 33.73083 41.67848 37.70465
#
# Velocity S-wave (km/s) = 3.73597 4.15285 3.94992
# Velocity P-wave (km/s) = 5.97462 7.06436 6.54222
#
# Compressibility (1/GPa) = 0.02421797
#
# Stress axis : x y z
#
# Youngs Moduli (GPa) = 108.01081 179.55196 62.24262
#
# Poissons Ratio (x) = 0.46806 -0.14527
# Poissons Ratio (y) = 0.28156 0.19078
# Poissons Ratio (z) = -0.25210 0.55036
#
# Static dielectric constant tensor:
#      x y z
#    x 1.901450 0.000000 -0.011960 
#    y 0.000000 1.887200 0.000000 
#    z -0.011960 0.000000 2.090420 
# 
# From -- ./inp_files/560.got.cif
#   From: 2010.05.17/outbox.cif.g08.bks.cpg/sg11_1_cif.got.tgz:560.got - 2010.06.03 12:22:45.
