data_PCOD9164266
_publ_section_title
;
Structure prediction by ZEFSAII (Michael W. Deem and Ramdas Pophale) SiO2 
 PCOD9164266
Probable space group: P 21/M
;
_chemical_formula_sum "Si O2"
_cell_formula_units_Z 32
_cell_length_a 12.657542
_cell_length_b 13.572018
_cell_length_c 17.673072
_cell_angle_alpha 90.000000
_cell_angle_beta 26.679253
_cell_angle_gamma 90.000000
_cell_volume 1363.163084
_symmetry_space_group_name_H-M "P 21/M"
_symmetry_group_IT_number 11
_symmetry_cell_setting 'monoclinic'
loop_
_space_group_symop_operation_xyz
x,y,z
-x,1/2+y,-z
-x,-y,-z
x,1/2-y,z
loop_
_atom_site_type_symbol
_atom_site_label
_atom_site_fract_x
_atom_site_fract_y
_atom_site_fract_z
Si Si1 0.885884 0.067782 0.952316
Si Si2 0.107251 0.866962 0.647113
Si Si3 0.812331 0.368010 0.578112
Si Si4 0.059095 0.365337 0.570569
Si Si5 0.406182 0.861064 0.722008
Si Si6 0.713650 0.637580 0.107685
Si Si7 0.611194 0.570203 0.341796
Si Si8 0.734936 0.021900 0.895811
O O1 0.155583 0.093784 0.759618
O O2 0.719166 0.077142 0.986146
O O3 0.784914 0.126247 0.088712
O O4 0.880732 0.953332 0.982314
O O5 0.085660 0.750000 0.664667
O O6 0.131270 0.900611 0.543315
O O7 0.349314 0.899044 0.532732
O O8 0.875440 0.921094 0.824176
O O9 0.833744 0.250000 0.559790
O O10 0.537624 0.386558 0.770617
O O11 0.977156 0.401069 0.540584
O O12 0.001396 0.250000 0.611062
O O13 0.336773 0.374067 0.404905
O O14 0.908757 0.416482 0.731542
O O15 0.389097 0.750000 0.701046
O O16 0.390855 0.954237 0.676515
O O17 0.786300 0.750000 0.044084
O O18 0.656178 0.627903 0.233770
O O19 0.500000 0.000000 0.000000
#
# Coordination Sequence:
#
# PCOD9164266 Si02
#       8
#     4   4   4   4   4   4   4   4
#     4  11  25  38  60  95 132 165 204 258 316 374
#     4  10  22  42  66  92 123 165 213 260 313 376
#     4   8  16  32  61  90 113 155 210 257 299 356
#     4  10  21  40  63  88 125 168 209 255 310 377
#     4  10  21  39  65  96 126 163 210 260 315 377
#     4   9  17  34  60  92 123 157 207 260 309 361
#     4  10  20  40  64  92 127 161 209 268 310 365
#     4  12  27  43  61  93 131 170 207 260 320 377
#
# _framework density 23.474813999999999
#
# number of rings (size 3 to 8) (size 9 to 14) (size 15 to 20)
#    0.000    2.000    1.250    3.375    1.750    5.000 
#    0.000    0.000    0.000    0.000    0.000    0.000 
#    0.000    0.000    0.000    0.000    0.000    0.000 
#
# Total GULP energy -178941.909011 kJ/mol
# GULP energy per Si atom -5591.934657 kJ/mol
# Density = 2.342138 g / cm^3
# Si number density = 23.474814 Si / 1000 Ang^3
#
#
#
# Elastic Constant Matrix: (Units=GPa)
#
#
# Indices 1 2 3 4 5 6 
#
# 1 79.4341 -2.6717 11.1965 0.0000 -12.6060 0.0000
# 2 -2.6717 111.3217 16.1611 0.0000 -2.9721 0.0000
# 3 11.1965 16.1611 72.1984 0.0000 -19.3742 0.0000
# 4 0.0000 0.0000 0.0000 17.0362 0.0000 0.4582
# 5 -12.6060 -2.9721 -19.3742 0.0000 34.5842 0.0000
# 6 0.0000 0.0000 0.0000 0.4582 0.0000 12.1858
#
#
#
# Elastic Compliance Matrix: (Units=1/GPa)
#
#
# Indices 1 2 3 4 5 6 
#
# 1 0.013449 0.000591 -0.001046 0.000000 0.004367 0.000000
# 2 0.000591 0.009316 -0.002241 0.000000 -0.000239 0.000000
# 3 -0.001046 -0.002241 0.016901 0.000000 0.008894 0.000000
# 4 0.000000 0.000000 0.000000 0.058758 0.000000 -0.002209
# 5 0.004367 -0.000239 0.008894 0.000000 0.035469 0.000000
# 6 0.000000 0.000000 0.000000 -0.002209 0.000000 0.082146
#
#
# Mechanical properties :
#
#
# Convention : Reuss Voigt Hill
#
# Bulk Modulus (GPa) = 29.17620 34.70291 31.93955
# Shear Modulus (GPa) = 21.47240 28.64578 25.05909
#
# Velocity S-wave (km/s) = 3.02768 3.49704 3.27079
# Velocity P-wave (km/s) = 4.96771 5.57860 5.28200
#
# Compressibility (1/GPa) = 0.03427451
#
# Stress axis : x y z
#
# Youngs Moduli (GPa) = 74.35249 107.34040 59.16661
#
# Poissons Ratio (x) = -0.06347 0.06190
# Poissons Ratio (y) = -0.04396 0.13261
# Poissons Ratio (z) = 0.07779 0.24058
#
# Static dielectric constant tensor:
#      x y z
#    x 1.921050 0.000000 0.011070 
#    y 0.000000 1.868250 0.000000 
#    z 0.011070 0.000000 1.906540 
# 
# From -- ./inp_files/65727.got.cif
#   From: 2010.05.17/outbox.cif.g08.bks.cpg/sg11_33_cif.got.tgz:65727.got - 2010.06.03 12:22:45.
