data_PCOD9164963
_publ_section_title
;
Structure prediction by ZEFSAII (Michael W. Deem and Ramdas Pophale) SiO2 
 PCOD9164963
Probable space group: P 21/M
;
_chemical_formula_sum "Si O2"
_cell_formula_units_Z 32
_cell_length_a 27.010889
_cell_length_b 9.190824
_cell_length_c 21.195903
_cell_angle_alpha 90.000000
_cell_angle_beta 161.110812
_cell_angle_gamma 90.000000
_cell_volume 1703.492057
_symmetry_space_group_name_H-M "P 21/M"
_symmetry_group_IT_number 11
_symmetry_cell_setting 'monoclinic'
loop_
_space_group_symop_operation_xyz
x,y,z
-x,1/2+y,-z
-x,-y,-z
x,1/2-y,z
loop_
_atom_site_type_symbol
_atom_site_label
_atom_site_fract_x
_atom_site_fract_y
_atom_site_fract_z
Si Si1 0.925780 0.576751 0.007294
Si Si2 0.063173 0.418777 0.413601
Si Si3 0.846574 0.074535 0.041204
Si Si4 0.787258 0.922541 0.705110
Si Si5 0.130007 0.918777 0.695748
Si Si6 0.438342 0.078151 0.091556
Si Si7 0.459166 0.923771 0.250575
Si Si8 0.374124 0.578613 0.805002
O O1 0.933626 0.750000 0.025033
O O2 0.861714 0.501313 0.992362
O O3 0.092315 0.512639 0.191063
O O4 0.822510 0.545433 0.820898
O O5 0.112381 0.250000 0.468241
O O6 0.205917 0.512130 0.608883
O O7 0.989549 0.465515 0.258623
O O8 0.927239 0.423823 0.300877
O O9 0.848130 0.250000 0.036052
O O10 0.690366 0.035300 0.889371
O O11 0.816799 0.750000 0.731098
O O12 0.613904 0.951779 0.476063
O O13 0.143358 0.750000 0.693208
O O14 0.000000 0.000000 0.500000
O O15 0.289469 0.000949 0.882871
O O16 0.409792 0.250000 0.063692
O O17 0.574472 0.057832 0.205781
O O18 0.466648 0.006740 0.193389
O O19 0.448990 0.750000 0.225669
O O20 0.374576 0.750000 0.819599
O O21 0.500000 0.500000 0.000000
#
# Coordination Sequence:
#
# PCOD9164963 Si02
#       8
#     4   4   4   4   4   4   4   4
#     4  10  21  37  59  90 124 156 195 242 290 344
#     4  10  22  40  60  84 116 153 196 240 288 347
#     4  10  21  39  60  86 118 156 197 240 289 348
#     4   9  20  39  62  88 119 158 200 240 288 346
#     4  11  22  39  62  88 116 153 197 240 290 347
#     4  11  24  40  58  87 121 151 191 245 296 347
#     4  10  21  40  63  86 115 156 201 241 287 350
#     4  11  25  42  60  86 118 152 194 243 296 351
#
# _framework density 18.784942999999998
#
# number of rings (size 3 to 8) (size 9 to 14) (size 15 to 20)
#    0.000    1.750    1.250    2.250    1.750    8.500 
#    0.000    0.000    0.000    0.000    0.000    0.000 
#    0.000    0.000    0.000    0.000    0.000    0.000 
#
# Total GULP energy -178816.950372 kJ/mol
# GULP energy per Si atom -5588.029699 kJ/mol
# Density = 1.874219 g / cm^3
# Si number density = 18.784943 Si / 1000 Ang^3
#
#
#
# Elastic Constant Matrix: (Units=GPa)
#
#
# Indices 1 2 3 4 5 6 
#
# 1 84.2139 36.4757 15.8464 0.0000 -7.6455 0.0000
# 2 36.4757 54.9192 32.8903 0.0000 -1.0474 0.0000
# 3 15.8464 32.8903 84.2268 0.0000 0.0746 0.0000
# 4 0.0000 0.0000 0.0000 29.7134 0.0000 -1.9203
# 5 -7.6455 -1.0474 0.0746 0.0000 22.6911 0.0000
# 6 0.0000 0.0000 0.0000 -1.9203 0.0000 37.2701
#
#
#
# Elastic Compliance Matrix: (Units=1/GPa)
#
#
# Indices 1 2 3 4 5 6 
#
# 1 0.017440 -0.012419 0.001564 0.000000 0.005298 0.000000
# 2 -0.012419 0.032638 -0.010406 0.000000 -0.002643 0.000000
# 3 0.001564 -0.010406 0.015642 0.000000 -0.000005 0.000000
# 4 0.000000 0.000000 0.000000 0.033767 0.000000 0.001740
# 5 0.005298 -0.002643 -0.000005 0.000000 0.045733 0.000000
# 6 0.000000 0.000000 0.000000 0.001740 0.000000 0.026921
#
#
# Mechanical properties :
#
#
# Convention : Reuss Voigt Hill
#
# Bulk Modulus (GPa) = 43.10738 43.75386 43.43062
# Shear Modulus (GPa) = 22.48226 27.14476 24.81351
#
# Velocity S-wave (km/s) = 3.46327 3.80548 3.63840
# Velocity P-wave (km/s) = 6.24419 6.53080 6.38911
#
# Compressibility (1/GPa) = 0.02319788
#
# Stress axis : x y z
#
# Youngs Moduli (GPa) = 57.33893 30.63875 63.92951
#
# Poissons Ratio (x) = 0.38049 -0.09996
# Poissons Ratio (y) = 0.71207 0.66528
# Poissons Ratio (z) = -0.08965 0.31884
#
# Static dielectric constant tensor:
#      x y z
#    x 1.645540 0.000000 -0.011390 
#    y 0.000000 1.627800 0.000000 
#    z -0.011390 0.000000 1.626090 
# 
# From -- ./inp_files/67266.got.cif
#   From: 2010.05.17/outbox.cif.g08.bks.cpg/sg11_34_cif.got.tgz:67266.got - 2010.06.03 12:22:45.
