data_PCOD9164277
_publ_section_title
;
Structure prediction by ZEFSAII (Michael W. Deem and Ramdas Pophale) SiO2 
 PCOD9164277
Probable space group: P 21/M
;
_chemical_formula_sum "Si O2"
_cell_formula_units_Z 28
_cell_length_a 8.406182
_cell_length_b 11.997861
_cell_length_c 14.561854
_cell_angle_alpha 90.000000
_cell_angle_beta 64.128263
_cell_angle_gamma 90.000000
_cell_volume 1321.454791
_symmetry_space_group_name_H-M "P 21/M"
_symmetry_group_IT_number 11
_symmetry_cell_setting 'monoclinic'
loop_
_space_group_symop_operation_xyz
x,y,z
-x,1/2+y,-z
-x,-y,-z
x,1/2-y,z
loop_
_atom_site_type_symbol
_atom_site_label
_atom_site_fract_x
_atom_site_fract_y
_atom_site_fract_z
Si Si1 0.953414 0.546672 0.912357
Si Si2 0.610949 0.879418 0.090362
Si Si3 0.769775 0.093611 0.621371
Si Si4 0.773603 0.125294 0.833274
Si Si5 0.200079 0.878408 0.703245
Si Si6 0.069353 0.368683 0.396947
Si Si7 0.637071 0.881266 0.297146
O O1 0.914795 0.446930 0.851431
O O2 0.103291 0.619274 0.826559
O O3 0.766679 0.605568 0.979253
O O4 0.000000 0.500000 0.000000
O O5 0.566490 0.750000 0.109089
O O6 0.421755 0.929929 0.110638
O O7 0.665960 0.907113 0.181053
O O8 0.805501 0.131155 0.716312
O O9 0.575413 0.126321 0.638127
O O10 0.925362 0.129367 0.514652
O O11 0.786043 0.961054 0.622357
O O12 0.778073 0.250000 0.871228
O O13 0.278428 0.750000 0.671464
O O14 0.046355 0.886404 0.665119
O O15 0.301035 0.000397 0.671131
O O16 0.158089 0.250000 0.368819
O O17 0.702836 0.750000 0.299645
#
# Coordination Sequence:
#
# PCOD9164277 Si02
#       7
#     4   4   4   4   4   4   4
#     4  12  22  37  57  84 119 160 202 244 294 357
#     4   9  19  37  58  82 116 152 198 251 298 346
#     4  10  20  40  66  89 118 152 200 254 304 353
#     4  10  21  37  60  87 112 148 201 254 296 350
#     4  11  24  41  58  88 130 167 199 243 304 366
#     4  10  21  39  63  92 123 156 195 247 311 367
#     4  10  21  40  63  90 119 160 208 251 294 353
#
# _framework density 21.188769000000001
#
# number of rings (size 3 to 8) (size 9 to 14) (size 15 to 20)
#    0.000    1.714    2.857    3.000    0.000    2.857 
#    0.000    0.714    0.000    0.000    0.000    0.000 
#    0.000    0.000    0.000    0.000    0.000    0.000 
#
# Total GULP energy -155884.516290 kJ/mol
# GULP energy per Si atom -5567.304153 kJ/mol
# Density = 2.114054 g / cm^3
# Si number density = 21.188769 Si / 1000 Ang^3
#
#
#
# Elastic Constant Matrix: (Units=GPa)
#
#
# Indices 1 2 3 4 5 6 
#
# 1 33.8111 30.1813 1.7605 0.0000 2.3958 0.0000
# 2 30.1813 157.4874 -3.7078 0.0000 1.7346 0.0000
# 3 1.7605 -3.7078 53.2750 0.0000 -1.8903 0.0000
# 4 0.0000 0.0000 0.0000 -2.9947 0.0000 7.0045
# 5 2.3958 1.7346 -1.8903 0.0000 21.9981 0.0000
# 6 0.0000 0.0000 0.0000 7.0045 0.0000 19.0942
#
#
#
# Elastic Compliance Matrix: (Units=1/GPa)
#
#
# Indices 1 2 3 4 5 6 
#
# 1 0.036099 -0.006922 -0.001800 0.000000 -0.003540 0.000000
# 2 -0.006922 0.007692 0.000772 0.000000 0.000214 0.000000
# 3 -0.001800 0.000772 0.018946 0.000000 0.001763 0.000000
# 4 0.000000 0.000000 0.000000 -0.179722 0.000000 0.065928
# 5 -0.003540 0.000214 0.001763 0.000000 0.045979 0.000000
# 6 0.000000 0.000000 0.000000 0.065928 0.000000 0.028187
#
#
# Mechanical properties :
#
#
# Convention : Reuss Voigt Hill
#
# Bulk Modulus (GPa) = 21.35057 33.44905 27.39981
# Shear Modulus (GPa) = -442.24765 22.04217 -210.10274
#
# Velocity S-wave (km/s) = -14.46275 3.22883 -9.96859
# Velocity P-wave (km/s) = 16.39501 5.45169 10.93333
#
# Compressibility (1/GPa) = 0.04683716
#
# Stress axis : x y z
#
# Youngs Moduli (GPa) = 27.70154 130.00547 52.78082
#
# Poissons Ratio (x) = 0.89983 0.09502
# Poissons Ratio (y) = 0.19174 -0.04073
# Poissons Ratio (z) = 0.04987 -0.10032
#
# Static dielectric constant tensor:
#      x y z
#    x 1.803800 0.000000 -0.029540 
#    y 0.000000 1.862700 0.000000 
#    z -0.029540 0.000000 1.771240 
# 
# From -- ./inp_files/47101.got.cif
#   From: 2010.05.17/outbox.cif.g08.bks.cpg/sg11_24_cif.got.tgz:47101.got - 2010.06.03 12:22:45.
