data_PCOD9164352
_publ_section_title
;
Structure prediction by ZEFSAII (Michael W. Deem and Ramdas Pophale) SiO2 
 PCOD9164352
Probable space group: P 21/M
;
_chemical_formula_sum "Si O2"
_cell_formula_units_Z 24
_cell_length_a 11.561200
_cell_length_b 10.367850
_cell_length_c 9.853791
_cell_angle_alpha 90.000000
_cell_angle_beta 94.192213
_cell_angle_gamma 90.000000
_cell_volume 1177.962378
_symmetry_space_group_name_H-M "P 21/M"
_symmetry_group_IT_number 11
_symmetry_cell_setting 'monoclinic'
loop_
_space_group_symop_operation_xyz
x,y,z
-x,1/2+y,-z
-x,-y,-z
x,1/2-y,z
loop_
_atom_site_type_symbol
_atom_site_label
_atom_site_fract_x
_atom_site_fract_y
_atom_site_fract_z
Si Si1 0.737629 0.250000 0.328190
Si Si2 0.835694 0.979516 0.912852
Si Si3 0.953009 0.887276 0.182692
Si Si4 0.689384 0.961769 0.658084
Si Si5 0.486917 0.250000 0.450157
Si Si6 0.132717 0.006939 0.561782
Si Si7 0.727832 0.250000 0.001554
Si Si8 0.609751 0.250000 0.717590
O O1 0.615496 0.250000 0.397321
O O2 0.812947 0.372853 0.381062
O O3 0.712077 0.250000 0.163291
O O4 0.947963 0.005925 0.828048
O O5 0.738017 0.921179 0.808790
O O6 0.796279 0.118604 0.969419
O O7 0.876583 0.895728 0.041708
O O8 0.014321 0.750000 0.199725
O O9 0.874146 0.906210 0.305683
O O10 0.579418 0.877525 0.606578
O O11 0.785467 0.943202 0.550658
O O12 0.668597 0.115642 0.674737
O O13 0.494260 0.250000 0.615342
O O14 0.000000 0.000000 0.500000
O O15 0.620101 0.250000 0.883109
#
# Coordination Sequence:
#
# PCOD9164352 Si02
#       8
#     2   4   4   4   2   4   2   2
#     4  12  26  47  67  94 139 177 228 269 338 402
#     4  10  21  41  63  95 134 176 218 266 332 415
#     4  11  23  37  62  97 143 174 211 269 342 400
#     4  11  24  43  69 101 131 177 226 275 341 401
#     4  12  26  45  71  95 135 178 230 285 333 396
#     4  12  25  41  67 101 137 171 218 279 338 402
#     4  10  20  42  68  92 121 178 221 268 329 396
#     4  10  22  44  72  91 129 175 233 266 336 396
#
# _framework density 20.374165000000001
#
# number of rings (size 3 to 8) (size 9 to 14) (size 15 to 20)
#    0.000    1.000    5.833    0.500    3.500    0.000 
#    0.000    5.000    0.000    0.000    0.000    0.000 
#    0.000    0.000    0.000    0.000    0.000    0.000 
#
# Total GULP energy -133916.246873 kJ/mol
# GULP energy per Si atom -5579.843620 kJ/mol
# Density = 2.032779 g / cm^3
# Si number density = 20.374165 Si / 1000 Ang^3
#
#
#
# Elastic Constant Matrix: (Units=GPa)
#
#
# Indices 1 2 3 4 5 6 
#
# 1 92.2830 37.0135 45.2486 0.0000 17.0195 0.0000
# 2 37.0135 71.8974 22.9123 0.0000 -1.6101 0.0000
# 3 45.2486 22.9123 118.0001 0.0000 8.1395 0.0000
# 4 0.0000 0.0000 0.0000 12.1509 0.0000 11.9187
# 5 17.0195 -1.6101 8.1395 0.0000 31.1542 0.0000
# 6 0.0000 0.0000 0.0000 11.9187 0.0000 27.2363
#
#
#
# Elastic Compliance Matrix: (Units=1/GPa)
#
#
# Indices 1 2 3 4 5 6 
#
# 1 0.018020 -0.007968 -0.004741 0.000000 -0.009017 0.000000
# 2 -0.007968 0.018423 -0.000904 0.000000 0.005541 0.000000
# 3 -0.004741 -0.000904 0.010481 0.000000 -0.000195 0.000000
# 4 0.000000 0.000000 0.000000 0.144191 0.000000 -0.063098
# 5 -0.009017 0.005541 -0.000195 0.000000 0.037362 0.000000
# 6 0.000000 0.000000 0.000000 -0.063098 0.000000 0.064328
#
#
# Mechanical properties :
#
#
# Convention : Reuss Voigt Hill
#
# Bulk Modulus (GPa) = 50.76476 54.72546 52.74511
# Shear Modulus (GPa) = 15.30946 25.90868 20.60907
#
# Velocity S-wave (km/s) = 2.74417 3.56988 3.18391
# Velocity P-wave (km/s) = 5.91700 6.62651 6.28178
#
# Compressibility (1/GPa) = 0.01969871
#
# Stress axis : x y z
#
# Youngs Moduli (GPa) = 55.49531 54.28054 95.40652
#
# Poissons Ratio (x) = 0.43250 0.45229
# Poissons Ratio (y) = 0.44218 0.08625
# Poissons Ratio (z) = 0.26309 0.04907
#
# Static dielectric constant tensor:
#      x y z
#    x 1.710570 0.000000 0.042080 
#    y 0.000000 1.727720 0.000000 
#    z 0.042080 0.000000 1.744740 
# 
# From -- ./inp_files/16990.got.cif
#   From: 2010.05.17/outbox.cif.g08.bks.cpg/sg11_9_cif.got.tgz:16990.got - 2010.06.03 12:22:45.
