data_PCOD9164751
_publ_section_title
;
Structure prediction by ZEFSAII (Michael W. Deem and Ramdas Pophale) SiO2 
 PCOD9164751
Probable space group: P 21/M
;
_chemical_formula_sum "Si O2"
_cell_formula_units_Z 32
_cell_length_a 15.322183
_cell_length_b 17.763763
_cell_length_c 12.794484
_cell_angle_alpha 90.000000
_cell_angle_beta 151.791740
_cell_angle_gamma 90.000000
_cell_volume 1646.052216
_symmetry_space_group_name_H-M "P 21/M"
_symmetry_group_IT_number 11
_symmetry_cell_setting 'monoclinic'
loop_
_space_group_symop_operation_xyz
x,y,z
-x,1/2+y,-z
-x,-y,-z
x,1/2-y,z
loop_
_atom_site_type_symbol
_atom_site_label
_atom_site_fract_x
_atom_site_fract_y
_atom_site_fract_z
Si Si1 0.626069 0.337996 0.638786
Si Si2 0.003847 0.413691 0.043017
Si Si3 0.467941 0.452216 0.801895
Si Si4 0.754984 0.165532 0.408291
Si Si5 0.680009 0.662610 0.503549
Si Si6 0.206611 0.973331 0.696577
Si Si7 0.900177 0.837203 0.073519
Si Si8 0.525408 0.903080 0.738161
O O1 0.675691 0.250000 0.673707
O O2 0.463093 0.340597 0.550953
O O3 0.558898 0.374441 0.459601
O O4 0.801557 0.385456 0.861616
O O5 0.149564 0.391657 0.286108
O O6 0.061283 0.364445 0.002627
O O7 0.000000 0.500000 0.000000
O O8 0.422569 0.371650 0.705301
O O9 0.314714 0.473926 0.727074
O O10 0.467740 0.512419 0.706650
O O11 0.663787 0.464771 0.065332
O O12 0.754559 0.250000 0.368925
O O13 0.797071 0.107279 0.362682
O O14 0.562862 0.145516 0.261573
O O15 0.912280 0.157867 0.662849
O O16 0.736604 0.750000 0.550462
O O17 0.000000 0.000000 0.500000
O O18 0.836946 0.750000 0.005958
O O19 0.742612 0.888718 0.957898
#
# Coordination Sequence:
#
# PCOD9164751 Si02
#       8
#     4   4   4   4   4   4   4   4
#     4  11  22  38  60  87 127 172 207 248 299 362
#     4  12  25  36  57  88 127 172 214 254 295 364
#     4  10  24  41  63  92 118 154 209 255 308 378
#     4  10  21  36  61  92 118 151 201 252 310 370
#     4  11  25  43  62  89 132 176 212 255 308 374
#     4  10  22  44  66  87 120 155 197 265 322 366
#     4  11  21  35  56  87 125 161 199 250 305 358
#     4  11  20  35  62  88 123 158 198 250 306 360
#
# _framework density 19.440452000000001
#
# number of rings (size 3 to 8) (size 9 to 14) (size 15 to 20)
#    0.000    1.250    2.500    3.750    3.500    2.500 
#    0.000    0.625    0.000    0.000    0.000    0.000 
#    0.000    0.000    0.000    0.000    0.000    0.000 
#
# Total GULP energy -178847.454094 kJ/mol
# GULP energy per Si atom -5588.982940 kJ/mol
# Density = 1.939620 g / cm^3
# Si number density = 19.440452 Si / 1000 Ang^3
#
#
#
# Elastic Constant Matrix: (Units=GPa)
#
#
# Indices 1 2 3 4 5 6 
#
# 1 36.4521 11.5975 9.6562 0.0000 2.5213 0.0000
# 2 11.5975 68.0744 28.4105 0.0000 -13.5234 0.0000
# 3 9.6562 28.4105 57.6366 0.0000 6.9667 0.0000
# 4 0.0000 0.0000 0.0000 25.2033 0.0000 -1.5076
# 5 2.5213 -13.5234 6.9667 0.0000 30.7129 0.0000
# 6 0.0000 0.0000 0.0000 -1.5076 0.0000 17.2597
#
#
#
# Elastic Compliance Matrix: (Units=1/GPa)
#
#
# Indices 1 2 3 4 5 6 
#
# 1 0.029877 -0.005113 -0.001970 0.000000 -0.004257 0.000000
# 2 -0.005113 0.023376 -0.012298 0.000000 0.013502 0.000000
# 3 -0.001970 -0.012298 0.025064 0.000000 -0.010939 0.000000
# 4 0.000000 0.000000 0.000000 0.039886 0.000000 0.003484
# 5 -0.004257 0.013502 -0.010939 0.000000 0.041335 0.000000
# 6 0.000000 0.000000 0.000000 0.003484 0.000000 0.058243
#
#
# Mechanical properties :
#
#
# Convention : Reuss Voigt Hill
#
# Bulk Modulus (GPa) = 25.28219 29.05460 27.16840
# Shear Modulus (GPa) = 18.53722 22.13512 20.33617
#
# Velocity S-wave (km/s) = 3.09129 3.37799 3.23782
# Velocity P-wave (km/s) = 5.07687 5.49475 5.28994
#
# Compressibility (1/GPa) = 0.03955353
#
# Stress axis : x y z
#
# Youngs Moduli (GPa) = 33.47110 42.77961 39.89756
#
# Poissons Ratio (x) = 0.21875 0.07861
# Poissons Ratio (y) = 0.17115 0.49065
# Poissons Ratio (z) = 0.06595 0.52609
#
# Static dielectric constant tensor:
#      x y z
#    x 1.650930 0.000000 0.004750 
#    y 0.000000 1.691790 0.000000 
#    z 0.004750 0.000000 1.721450 
# 
# From -- ./inp_files/40041.got.cif
#   From: 2010.05.17/outbox.cif.g08.bks.cpg/sg11_21_cif.got.tgz:40041.got - 2010.06.03 12:22:45.
