data_PCOD9164208
_publ_section_title
;
Structure prediction by ZEFSAII (Michael W. Deem and Ramdas Pophale) SiO2 
 PCOD9164208
Probable space group: P 21/M
;
_chemical_formula_sum "Si O2"
_cell_formula_units_Z 24
_cell_length_a 9.264928
_cell_length_b 14.583738
_cell_length_c 9.416256
_cell_angle_alpha 90.000000
_cell_angle_beta 75.702630
_cell_angle_gamma 90.000000
_cell_volume 1232.892095
_symmetry_space_group_name_H-M "P 21/M"
_symmetry_group_IT_number 11
_symmetry_cell_setting 'monoclinic'
loop_
_space_group_symop_operation_xyz
x,y,z
-x,1/2+y,-z
-x,-y,-z
x,1/2-y,z
loop_
_atom_site_type_symbol
_atom_site_label
_atom_site_fract_x
_atom_site_fract_y
_atom_site_fract_z
Si Si1 0.799355 0.144258 0.627332
Si Si2 0.986943 0.147264 0.295218
Si Si3 0.667984 0.647428 0.797908
Si Si4 0.246321 0.438846 0.928593
Si Si5 0.482470 0.985558 0.336077
Si Si6 0.035731 0.549203 0.158329
O O1 0.774794 0.250000 0.671162
O O2 0.878595 0.140551 0.455160
O O3 0.645621 0.089424 0.659173
O O4 0.909034 0.097733 0.714149
O O5 0.965225 0.250000 0.234827
O O6 0.160868 0.144775 0.298317
O O7 0.972708 0.053172 0.210491
O O8 0.609862 0.750000 0.799035
O O9 0.573166 0.576641 0.730776
O O10 0.683577 0.619660 0.960027
O O11 0.365811 0.456869 0.778482
O O12 0.096654 0.399485 0.891374
O O13 0.180415 0.528440 0.026316
O O14 0.500000 0.000000 0.500000
#
# Coordination Sequence:
#
# PCOD9164208 Si02
#       6
#     4   4   4   4   4   4
#     4  11  23  38  61  94 128 162 206 261 316 372
#     4   9  18  35  62  91 121 160 209 254 307 369
#     4  10  22  41  65  90 123 167 210 258 313 374
#     4  10  22  40  64  93 124 161 210 254 311 381
#     4  12  25  41  63  93 130 167 209 259 320 374
#     4  10  20  39  66  88 123 164 210 257 310 369
#
# _framework density 19.466424
#
# number of rings (size 3 to 8) (size 9 to 14) (size 15 to 20)
#    0.000    1.667    3.333    2.000    2.333    2.000 
#    0.000    3.333    0.000    0.000    0.000    0.000 
#    0.000    0.000    0.000    0.000    0.000    0.000 
#
# Total GULP energy -133866.721663 kJ/mol
# GULP energy per Si atom -5577.780069 kJ/mol
# Density = 1.942212 g / cm^3
# Si number density = 19.466424 Si / 1000 Ang^3
#
#
#
# Elastic Constant Matrix: (Units=GPa)
#
#
# Indices 1 2 3 4 5 6 
#
# 1 66.2087 40.1546 52.7131 0.0000 -2.2710 0.0000
# 2 40.1546 116.3978 55.4950 0.0000 12.9146 0.0000
# 3 52.7131 55.4950 108.2065 0.0000 -7.8227 0.0000
# 4 0.0000 0.0000 0.0000 16.5438 0.0000 -4.1344
# 5 -2.2710 12.9146 -7.8227 0.0000 42.8149 0.0000
# 6 0.0000 0.0000 0.0000 -4.1344 0.0000 -2.1205
#
#
#
# Elastic Compliance Matrix: (Units=1/GPa)
#
#
# Indices 1 2 3 4 5 6 
#
# 1 0.025942 -0.003997 -0.010541 0.000000 0.000656 0.000000
# 2 -0.003997 0.012938 -0.005052 0.000000 -0.005038 0.000000
# 3 -0.010541 -0.005052 0.017266 0.000000 0.004119 0.000000
# 4 0.000000 0.000000 0.000000 0.040643 0.000000 -0.079242
# 5 0.000656 -0.005038 0.004119 0.000000 0.025663 0.000000
# 6 0.000000 0.000000 0.000000 -0.079242 0.000000 -0.317090
#
#
# Mechanical properties :
#
#
# Convention : Reuss Voigt Hill
#
# Bulk Modulus (GPa) = 58.94192 65.28203 62.11198
# Shear Modulus (GPa) = -33.37706 20.94434 -6.21636
#
# Velocity S-wave (km/s) = -4.14526 3.28368 -1.78894
# Velocity P-wave (km/s) = 2.72646 6.92714 5.26397
#
# Compressibility (1/GPa) = 0.01696585
#
# Stress axis : x y z
#
# Youngs Moduli (GPa) = 38.54700 77.29265 57.91890
#
# Poissons Ratio (x) = 0.30892 0.61050
# Poissons Ratio (y) = 0.15407 0.29263
# Poissons Ratio (z) = 0.40631 0.39052
#
# Static dielectric constant tensor:
#      x y z
#    x 1.678930 0.000000 0.003210 
#    y 0.000000 1.698740 0.000000 
#    z 0.003210 0.000000 1.683930 
# 
# From -- ./inp_files/12432.got.cif
#   From: 2010.05.17/outbox.cif.g08.bks.cpg/sg11_7_cif.got.tgz:12432.got - 2010.06.03 12:22:45.
