data_PCOD9164823
_publ_section_title
;
Structure prediction by ZEFSAII (Michael W. Deem and Ramdas Pophale) SiO2 
 PCOD9164823
Probable space group: P 21/M
;
_chemical_formula_sum "Si O2"
_cell_formula_units_Z 28
_cell_length_a 14.611964
_cell_length_b 17.727908
_cell_length_c 5.056855
_cell_angle_alpha 90.000000
_cell_angle_beta 79.888881
_cell_angle_gamma 90.000000
_cell_volume 1289.581178
_symmetry_space_group_name_H-M "P 21/M"
_symmetry_group_IT_number 11
_symmetry_cell_setting 'monoclinic'
loop_
_space_group_symop_operation_xyz
x,y,z
-x,1/2+y,-z
-x,-y,-z
x,1/2-y,z
loop_
_atom_site_type_symbol
_atom_site_label
_atom_site_fract_x
_atom_site_fract_y
_atom_site_fract_z
Si Si1 0.484232 0.670566 0.228049
Si Si2 0.363069 0.974794 0.286317
Si Si3 0.980347 0.603452 0.732513
Si Si4 0.782751 0.836851 0.893145
Si Si5 0.077598 0.927507 0.184769
Si Si6 0.596140 0.637618 0.661042
Si Si7 0.747659 0.501672 0.159490
O O1 0.435603 0.750000 0.300238
O O2 0.416482 0.601493 0.308439
O O3 0.571402 0.665931 0.384009
O O4 0.524905 0.668223 0.913622
O O5 0.273888 0.983509 0.525591
O O6 0.420274 0.048276 0.335456
O O7 0.338750 0.985541 0.990771
O O8 0.958175 0.513737 0.759142
O O9 0.060805 0.611472 0.474079
O O10 0.885099 0.647125 0.720177
O O11 0.016654 0.619211 0.006831
O O12 0.778840 0.750000 0.995546
O O13 0.771300 0.909359 0.098223
O O14 0.698984 0.846031 0.722807
O O15 0.175352 0.945428 0.998124
#
# Coordination Sequence:
#
# PCOD9164823 Si02
#       7
#     4   4   4   4   4   4   4
#     4  12  24  40  61  85 114 151 194 240 292 341
#     4  11  22  39  61  87 115 149 196 240 284 342
#     4   9  18  31  53  78 108 142 177 223 268 323
#     4  10  21  37  56  85 121 153 190 236 290 347
#     4   9  17  33  54  80 104 137 186 225 266 324
#     4  11  23  39  59  84 118 155 189 233 287 351
#     4  10  21  37  62  86 113 154 194 238 287 340
#
# _framework density 21.712477
#
# number of rings (size 3 to 8) (size 9 to 14) (size 15 to 20)
#    0.000    1.714    0.000    5.571    0.000    8.000 
#    0.000    8.571    0.000    5.143    0.000    0.000 
#    0.000    0.000    0.000    0.000    0.000    0.000 
#
# Total GULP energy -156259.154364 kJ/mol
# GULP energy per Si atom -5580.684084 kJ/mol
# Density = 2.166306 g / cm^3
# Si number density = 21.712477 Si / 1000 Ang^3
#
#
#
# Elastic Constant Matrix: (Units=GPa)
#
#
# Indices 1 2 3 4 5 6 
#
# 1 39.6800 42.7987 6.5061 0.0000 -8.0955 0.0000
# 2 42.7987 134.2304 11.6166 0.0000 -9.7485 0.0000
# 3 6.5061 11.6166 67.7964 0.0000 -6.1904 0.0000
# 4 0.0000 0.0000 0.0000 -47.5135 0.0000 5.8858
# 5 -8.0955 -9.7485 -6.1904 0.0000 24.3410 0.0000
# 6 0.0000 0.0000 0.0000 5.8858 0.0000 -1.9161
#
#
#
# Elastic Compliance Matrix: (Units=1/GPa)
#
#
# Indices 1 2 3 4 5 6 
#
# 1 0.040098 -0.012099 -0.001023 0.000000 0.008230 0.000000
# 2 -0.012099 0.011399 -0.000760 0.000000 0.000348 0.000000
# 3 -0.001023 -0.000760 0.015274 0.000000 0.003240 0.000000
# 4 0.000000 0.000000 0.000000 -0.033974 0.000000 -0.104359
# 5 0.008230 0.000348 0.003240 0.000000 0.044784 0.000000
# 6 0.000000 0.000000 0.000000 -0.104359 0.000000 -0.842454
#
#
# Mechanical properties :
#
#
# Convention : Reuss Voigt Hill
#
# Bulk Modulus (GPa) = 25.63698 40.39439 33.01568
# Shear Modulus (GPa) = -6.90507 7.03464 0.06479
#
# Velocity S-wave (km/s) = -1.78525 1.80193 0.17292
# Velocity P-wave (km/s) = 2.75384 4.79311 3.90880
#
# Compressibility (1/GPa) = 0.03900615
#
# Stress axis : x y z
#
# Youngs Moduli (GPa) = 24.93865 87.73015 65.46925
#
# Poissons Ratio (x) = 1.06143 0.06701
# Poissons Ratio (y) = 0.30173 0.04977
# Poissons Ratio (z) = 0.02552 0.06670
#
# Static dielectric constant tensor:
#      x y z
#    x 1.830250 0.000000 -0.013710 
#    y 0.000000 1.771040 0.000000 
#    z -0.013710 0.000000 1.810980 
# 
# From -- ./inp_files/6651.got.cif
#   From: 2010.05.17/outbox.cif.g08.bks.cpg/sg11_4_cif.got.tgz:6651.got - 2010.06.03 12:22:45.
