data_PCOD9164981
_publ_section_title
;
Structure prediction by ZEFSAII (Michael W. Deem and Ramdas Pophale) SiO2 
 PCOD9164981
Probable space group: P 21/M
;
_chemical_formula_sum "Si O2"
_cell_formula_units_Z 28
_cell_length_a 9.114865
_cell_length_b 13.993764
_cell_length_c 21.023754
_cell_angle_alpha 90.000000
_cell_angle_beta 29.876385
_cell_angle_gamma 90.000000
_cell_volume 1335.789721
_symmetry_space_group_name_H-M "P 21/M"
_symmetry_group_IT_number 11
_symmetry_cell_setting 'monoclinic'
loop_
_space_group_symop_operation_xyz
x,y,z
-x,1/2+y,-z
-x,-y,-z
x,1/2-y,z
loop_
_atom_site_type_symbol
_atom_site_label
_atom_site_fract_x
_atom_site_fract_y
_atom_site_fract_z
Si Si1 0.813207 0.363937 0.332145
Si Si2 0.144637 0.542629 0.174699
Si Si3 0.311522 0.135876 0.417281
Si Si4 0.656566 0.457372 0.174699
Si Si5 0.283562 0.000000 0.983219
Si Si6 0.519354 0.864124 0.417281
Si Si7 0.641787 0.363937 0.667855
O O1 0.868319 0.250000 0.308790
O O2 0.541769 0.387052 0.386554
O O3 0.708490 0.392357 0.442163
O O4 0.080409 0.429815 0.209631
O O5 0.208546 0.556311 0.076123
O O6 0.843232 0.593717 0.306571
O O7 0.434475 0.564717 0.106000
O O8 0.306672 0.250000 0.412571
O O9 0.977142 0.107643 0.557837
O O10 0.430482 0.093717 0.306572
O O11 0.581069 0.570185 0.209631
O O12 0.986962 0.443688 0.076123
O O13 0.641527 0.435284 0.106000
O O14 0.543042 0.750000 0.412571
O O15 0.412014 0.887052 0.386554
O O16 0.603481 0.250000 0.691210
#
# Coordination Sequence:
#
# PCOD9164981 Si02
#       7
#     4   4   4   4   4   4   4
#     4  10  21  37  60  88 114 143 184 233 286 337
#     4  11  21  42  57  82 114 152 184 239 271 329
#     4  10  21  37  60  88 114 143 184 233 286 337
#     4  11  21  42  57  82 114 152 184 239 271 329
#     4  10  24  38  60  80 112 152 202 220 270 332
#     4  10  21  37  60  88 114 143 184 233 286 337
#     4  10  21  37  60  88 114 143 184 233 286 337
#
# _framework density 20.961383000000001
#
# number of rings (size 3 to 8) (size 9 to 14) (size 15 to 20)
#    0.000    1.714    2.857    0.857    4.000    0.000 
#    0.000    8.571    0.000    0.000    0.000    0.000 
#    0.000    0.000    0.000    0.000    0.000    0.000 
#
# Total GULP energy -156418.389369 kJ/mol
# GULP energy per Si atom -5586.371049 kJ/mol
# Density = 2.091367 g / cm^3
# Si number density = 20.961383 Si / 1000 Ang^3
#
#
#
# Elastic Constant Matrix: (Units=GPa)
#
#
# Indices 1 2 3 4 5 6 
#
# 1 91.5337 15.8804 34.4576 0.0000 0.1794 0.0000
# 2 15.8804 36.7962 25.1297 0.0000 0.0830 0.0000
# 3 34.4576 25.1297 85.3253 0.0000 -0.2352 0.0000
# 4 0.0000 0.0000 0.0000 9.2594 0.0000 -0.0552
# 5 0.1794 0.0830 -0.2352 0.0000 38.5800 0.0000
# 6 0.0000 0.0000 0.0000 -0.0552 0.0000 15.4133
#
#
#
# Elastic Compliance Matrix: (Units=1/GPa)
#
#
# Indices 1 2 3 4 5 6 
#
# 1 0.013072 -0.002549 -0.004529 0.000000 -0.000083 0.000000
# 2 -0.002549 0.034517 -0.009137 0.000000 -0.000118 0.000000
# 3 -0.004529 -0.009137 0.016240 0.000000 0.000140 0.000000
# 4 0.000000 0.000000 0.000000 0.108000 0.000000 0.000387
# 5 -0.000083 -0.000118 0.000140 0.000000 0.025922 0.000000
# 6 0.000000 0.000000 0.000000 0.000387 0.000000 0.064881
#
#
# Mechanical properties :
#
#
# Convention : Reuss Voigt Hill
#
# Bulk Modulus (GPa) = 31.84640 40.51005 36.17823
# Shear Modulus (GPa) = 16.36521 21.86306 19.11413
#
# Velocity S-wave (km/s) = 2.79719 3.23308 3.02300
# Velocity P-wave (km/s) = 5.06539 5.77105 5.42970
#
# Compressibility (1/GPa) = 0.03140072
#
# Stress axis : x y z
#
# Youngs Moduli (GPa) = 76.49917 28.97138 61.57630
#
# Poissons Ratio (x) = 0.07384 0.27885
# Poissons Ratio (y) = 0.19497 0.56261
# Poissons Ratio (z) = 0.34643 0.26471
#
# Static dielectric constant tensor:
#      x y z
#    x 1.783240 0.000000 -0.000530 
#    y 0.000000 1.749800 0.000000 
#    z -0.000530 0.000000 1.723840 
# 
# From -- ./inp_files/26934.got.cif
#   From: 2010.05.17/outbox.cif.g08.bks.cpg/sg11_14_cif.got.tgz:26934.got - 2010.06.03 12:22:45.
