data_PCOD9164377
_publ_section_title
;
Structure prediction by ZEFSAII (Michael W. Deem and Ramdas Pophale) SiO2 
 PCOD9164377
Probable space group: P 21/M
;
_chemical_formula_sum "Si O2"
_cell_formula_units_Z 24
_cell_length_a 24.377821
_cell_length_b 7.826324
_cell_length_c 19.977627
_cell_angle_alpha 90.000000
_cell_angle_beta 17.570983
_cell_angle_gamma 90.000000
_cell_volume 1150.644553
_symmetry_space_group_name_H-M "P 21/M"
_symmetry_group_IT_number 11
_symmetry_cell_setting 'monoclinic'
loop_
_space_group_symop_operation_xyz
x,y,z
-x,1/2+y,-z
-x,-y,-z
x,1/2-y,z
loop_
_atom_site_type_symbol
_atom_site_label
_atom_site_fract_x
_atom_site_fract_y
_atom_site_fract_z
Si Si1 0.589802 0.451637 0.325442
Si Si2 0.602326 0.543400 0.585485
Si Si3 0.172002 0.541384 0.486952
Si Si4 0.813577 0.045381 0.682666
Si Si5 0.999555 0.046902 0.180986
Si Si6 0.554057 0.053413 0.098679
O O1 0.500000 0.500000 0.500000
O O2 0.575630 0.250000 0.335670
O O3 0.475289 0.522108 0.394943
O O4 0.804296 0.493180 0.074134
O O5 0.590087 0.750000 0.601524
O O6 0.814306 0.505834 0.356945
O O7 0.468761 0.477253 0.800534
O O8 0.186425 0.750000 0.471175
O O9 0.168807 0.483894 0.413967
O O10 0.018530 0.492825 0.719538
O O11 0.349909 0.456483 0.310295
O O12 0.783796 0.250000 0.712475
O O13 0.666884 0.973854 0.906114
O O14 0.000000 0.000000 0.500000
O O15 0.996206 0.250000 0.183669
O O16 0.617197 0.250000 0.032521
#
# Coordination Sequence:
#
# PCOD9164377 Si02
#       6
#     4   4   4   4   4   4
#     4  11  24  41  63  89 118 151 189 236 289 348
#     4   9  20  39  61  86 115 151 195 239 285 340
#     4   9  19  35  53  78 110 145 185 229 277 328
#     4  10  21  33  48  76 112 147 186 229 273 324
#     4  10  21  38  61  88 119 154 192 236 288 345
#     4   9  18  34  55  78 105 142 188 232 273 324
#
# _framework density 20.857875
#
# number of rings (size 3 to 8) (size 9 to 14) (size 15 to 20)
#    0.000    2.333    0.000    1.500    2.333    4.000 
#    0.000    0.000    0.000    0.000    0.000    0.000 
#    0.000    0.000    0.000    0.000    0.000    0.000 
#
# Total GULP energy -133675.567202 kJ/mol
# GULP energy per Si atom -5569.815300 kJ/mol
# Density = 2.081040 g / cm^3
# Si number density = 20.857875 Si / 1000 Ang^3
#
#
#
# Elastic Constant Matrix: (Units=GPa)
#
#
# Indices 1 2 3 4 5 6 
#
# 1 257.9132 33.9126 170.4971 0.0000 64.7580 0.0000
# 2 33.9126 34.6465 33.1687 0.0000 14.7301 0.0000
# 3 170.4971 33.1687 268.7661 0.0000 60.1393 0.0000
# 4 0.0000 0.0000 0.0000 -24.7783 0.0000 -7.1759
# 5 64.7580 14.7301 60.1393 0.0000 37.9974 0.0000
# 6 0.0000 0.0000 0.0000 -7.1759 0.0000 19.0534
#
#
#
# Elastic Compliance Matrix: (Units=1/GPa)
#
#
# Indices 1 2 3 4 5 6 
#
# 1 0.008330 -0.001452 -0.003181 0.000000 -0.008599 0.000000
# 2 -0.001452 0.035493 -0.001446 0.000000 -0.008995 0.000000
# 3 -0.003181 -0.001446 0.007089 0.000000 -0.005238 0.000000
# 4 0.000000 0.000000 0.000000 -0.036389 0.000000 -0.013705
# 5 -0.008599 -0.008995 -0.005238 0.000000 0.052751 0.000000
# 6 0.000000 0.000000 0.000000 -0.013705 0.000000 0.047322
#
#
# Mechanical properties :
#
#
# Convention : Reuss Voigt Hill
#
# Bulk Modulus (GPa) = 25.80393 115.16473 70.48433
# Shear Modulus (GPa) = 35.79747 28.03768 31.91757
#
# Velocity S-wave (km/s) = 4.14727 3.67034 3.91607
# Velocity P-wave (km/s) = 5.94401 8.56130 7.36977
#
# Compressibility (1/GPa) = 0.03875379
#
# Stress axis : x y z
#
# Youngs Moduli (GPa) = 120.04400 28.17427 141.05824
#
# Poissons Ratio (x) = 0.04092 0.44871
# Poissons Ratio (y) = 0.17435 0.20398
# Poissons Ratio (z) = 0.38187 0.04074
#
# Static dielectric constant tensor:
#      x y z
#    x 1.794360 0.000000 0.070050 
#    y 0.000000 1.774500 0.000000 
#    z 0.070050 0.000000 1.767640 
# 
# From -- ./inp_files/25616.got.cif
#   From: 2010.05.17/outbox.cif.g08.bks.cpg/sg11_13_cif.got.tgz:25616.got - 2010.06.03 12:22:45.
