data_PCOD9164197
_publ_section_title
;
Structure prediction by ZEFSAII (Michael W. Deem and Ramdas Pophale) SiO2 
 PCOD9164197
Probable space group: P 21/M
;
_chemical_formula_sum "Si O2"
_cell_formula_units_Z 32
_cell_length_a 10.278033
_cell_length_b 13.822224
_cell_length_c 11.177226
_cell_angle_alpha 90.000000
_cell_angle_beta 82.552887
_cell_angle_gamma 90.000000
_cell_volume 1574.501654
_symmetry_space_group_name_H-M "P 21/M"
_symmetry_group_IT_number 11
_symmetry_cell_setting 'monoclinic'
loop_
_space_group_symop_operation_xyz
x,y,z
-x,1/2+y,-z
-x,-y,-z
x,1/2-y,z
loop_
_atom_site_type_symbol
_atom_site_label
_atom_site_fract_x
_atom_site_fract_y
_atom_site_fract_z
Si Si1 0.192600 0.361479 0.230029
Si Si2 0.305177 0.634612 0.310621
Si Si3 0.844081 0.511224 0.530540
Si Si4 0.920977 0.364892 0.136506
Si Si5 0.178047 0.045937 0.732176
Si Si6 0.481042 0.140160 0.084012
Si Si7 0.908759 0.134094 0.863001
Si Si8 0.439221 0.439336 0.828743
O O1 0.175578 0.250000 0.267509
O O2 0.184527 0.424137 0.350184
O O3 0.332542 0.370513 0.149880
O O4 0.073327 0.383154 0.153664
O O5 0.318303 0.750000 0.316083
O O6 0.226267 0.590000 0.431218
O O7 0.216641 0.610222 0.203658
O O8 0.445324 0.584067 0.278064
O O9 0.797337 0.555895 0.411417
O O10 0.000000 0.500000 0.500000
O O11 0.895779 0.250000 0.150664
O O12 0.838773 0.432299 0.234621
O O13 0.895979 0.396102 0.002585
O O14 0.298089 0.087090 0.793865
O O15 0.040326 0.092543 0.788096
O O16 0.527690 0.250000 0.101613
O O17 0.559867 0.052634 0.134950
O O18 0.475335 0.120203 0.943396
O O19 0.920495 0.250000 0.862444
#
# Coordination Sequence:
#
# PCOD9164197 Si02
#       8
#     4   4   4   4   4   4   4   4
#     4  10  20  39  65  92 124 165 215 265 317 375
#     4  11  24  44  67  93 129 172 217 261 316 383
#     4  12  23  42  65  91 125 169 220 264 305 369
#     4  10  21  36  61  96 127 158 207 266 321 375
#     4  12  25  39  64  92 129 166 211 267 312 375
#     4  10  22  42  68  96 130 167 206 259 328 395
#     4  10  22  39  64  94 125 162 208 263 323 381
#     4  11  25  41  67  97 130 167 208 262 325 385
#
# _framework density 20.323892000000001
#
# number of rings (size 3 to 8) (size 9 to 14) (size 15 to 20)
#    0.000    1.250    3.750    1.500    3.500    4.500 
#    0.000    0.000    0.000    0.000    0.000    0.000 
#    0.000    0.000    0.000    0.000    0.000    0.000 
#
# Total GULP energy -178933.971865 kJ/mol
# GULP energy per Si atom -5591.686621 kJ/mol
# Density = 2.027763 g / cm^3
# Si number density = 20.323892 Si / 1000 Ang^3
#
#
#
# Elastic Constant Matrix: (Units=GPa)
#
#
# Indices 1 2 3 4 5 6 
#
# 1 52.5814 3.6302 -2.0548 0.0000 2.1760 0.0000
# 2 3.6302 55.4426 7.2686 0.0000 -7.3000 0.0000
# 3 -2.0548 7.2686 56.4591 0.0000 -14.2455 0.0000
# 4 0.0000 0.0000 0.0000 20.3100 0.0000 -4.2193
# 5 2.1760 -7.3000 -14.2455 0.0000 25.3387 0.0000
# 6 0.0000 0.0000 0.0000 -4.2193 0.0000 21.9657
#
#
#
# Elastic Compliance Matrix: (Units=1/GPa)
#
#
# Indices 1 2 3 4 5 6 
#
# 1 0.019220 -0.001560 0.000432 0.000000 -0.001857 0.000000
# 2 -0.001560 0.018947 -0.001264 0.000000 0.004882 0.000000
# 3 0.000432 -0.001264 0.020730 0.000000 0.011253 0.000000
# 4 0.000000 0.000000 0.000000 0.051283 0.000000 0.009851
# 5 -0.001857 0.004882 0.011253 0.000000 0.047358 0.000000
# 6 0.000000 0.000000 0.000000 0.009851 0.000000 0.047418
#
#
# Mechanical properties :
#
#
# Convention : Reuss Voigt Hill
#
# Bulk Modulus (GPa) = 18.48010 20.24121 19.36065
# Shear Modulus (GPa) = 21.95130 23.89882 22.92506
#
# Velocity S-wave (km/s) = 3.29001 3.43286 3.36219
# Velocity P-wave (km/s) = 4.85230 5.06889 4.96177
#
# Compressibility (1/GPa) = 0.05411227
#
# Stress axis : x y z
#
# Youngs Moduli (GPa) = 52.03040 52.77790 48.23993
#
# Poissons Ratio (x) = 0.08231 -0.02082
# Poissons Ratio (y) = 0.08114 0.06099
# Poissons Ratio (z) = -0.02246 0.06673
#
# Static dielectric constant tensor:
#      x y z
#    x 1.697030 0.000000 0.011790 
#    y 0.000000 1.747510 0.000000 
#    z 0.011790 0.000000 1.699120 
# 
# From -- ./inp_files/31906.got.cif
#   From: 2010.05.17/outbox.cif.g08.bks.cpg/sg11_16_cif.got.tgz:31906.got - 2010.06.03 12:22:45.
