data_PCOD9164949
_publ_section_title
;
Structure prediction by ZEFSAII (Michael W. Deem and Ramdas Pophale) SiO2 
 PCOD9164949
Probable space group: P 21/M
;
_chemical_formula_sum "Si O2"
_cell_formula_units_Z 32
_cell_length_a 9.067389
_cell_length_b 14.855025
_cell_length_c 23.215392
_cell_angle_alpha 90.000000
_cell_angle_beta 150.489767
_cell_angle_gamma 90.000000
_cell_volume 1540.307913
_symmetry_space_group_name_H-M "P 21/M"
_symmetry_group_IT_number 11
_symmetry_cell_setting 'monoclinic'
loop_
_space_group_symop_operation_xyz
x,y,z
-x,1/2+y,-z
-x,-y,-z
x,1/2-y,z
loop_
_atom_site_type_symbol
_atom_site_label
_atom_site_fract_x
_atom_site_fract_y
_atom_site_fract_z
Si Si1 0.327914 0.078365 0.973598
Si Si2 0.715928 0.647281 0.159795
Si Si3 0.151653 0.853553 0.038416
Si Si4 0.110576 0.511668 0.632883
Si Si5 0.487952 0.641036 0.839631
Si Si6 0.349063 0.153992 0.556562
Si Si7 0.331146 0.588692 0.224375
Si Si8 0.262032 0.920900 0.406702
O O1 0.307753 0.151843 0.916420
O O2 0.992084 0.046609 0.873596
O O3 0.481088 0.117415 0.082525
O O4 0.500000 0.000000 0.000000
O O5 0.773342 0.750000 0.201820
O O6 0.412350 0.609663 0.086021
O O7 0.984729 0.580248 0.267720
O O8 0.120339 0.750000 0.010130
O O9 0.275225 0.858213 0.145677
O O10 0.812639 0.889497 0.923617
O O11 0.232216 0.581153 0.723132
O O12 0.398862 0.478591 0.696988
O O13 0.877890 0.571113 0.518249
O O14 0.933226 0.426382 0.600680
O O15 0.452983 0.750000 0.820659
O O16 0.191650 0.250000 0.506924
O O17 0.572288 0.144368 0.686500
O O18 0.524790 0.148524 0.555148
O O19 0.500000 0.000000 0.500000
#
# Coordination Sequence:
#
# PCOD9164949 Si02
#       8
#     4   4   4   4   4   4   4   4
#     4  11  24  36  61  92 123 157 203 250 308 361
#     4  11  20  37  61  87 119 157 203 254 305 359
#     4   9  20  35  58  88 118 154 197 247 300 353
#     4  11  23  40  62  88 122 161 202 246 310 365
#     4  10  22  40  60  86 123 161 202 247 303 371
#     4  11  23  41  64  88 117 159 204 252 307 363
#     4  11  22  37  61  88 121 154 201 253 297 355
#     4  10  21  37  59  87 117 151 197 252 300 362
#
# _framework density 20.775067
#
# number of rings (size 3 to 8) (size 9 to 14) (size 15 to 20)
#    0.000    1.500    2.500    2.625    1.750    2.000 
#    0.000    0.000    0.000    0.000    0.000    0.000 
#    0.000    0.000    0.000    0.000    0.000    0.000 
#
# Total GULP energy -178221.490918 kJ/mol
# GULP energy per Si atom -5569.421591 kJ/mol
# Density = 2.072778 g / cm^3
# Si number density = 20.775067 Si / 1000 Ang^3
#
#
#
# Elastic Constant Matrix: (Units=GPa)
#
#
# Indices 1 2 3 4 5 6 
#
# 1 97.8080 24.7865 22.9176 0.0000 13.2419 0.0000
# 2 24.7865 63.6401 12.9124 0.0000 2.4044 0.0000
# 3 22.9176 12.9124 74.9985 0.0000 -1.0006 0.0000
# 4 0.0000 0.0000 0.0000 12.3425 0.0000 -2.7334
# 5 13.2419 2.4044 -1.0006 0.0000 38.2019 0.0000
# 6 0.0000 0.0000 0.0000 -2.7334 0.0000 11.4095
#
#
#
# Elastic Compliance Matrix: (Units=1/GPa)
#
#
# Indices 1 2 3 4 5 6 
#
# 1 0.012576 -0.004092 -0.003194 0.000000 -0.004185 0.000000
# 2 -0.004092 0.017660 -0.001787 0.000000 0.000260 0.000000
# 3 -0.003194 -0.001787 0.014639 0.000000 0.001603 0.000000
# 4 0.000000 0.000000 0.000000 0.085561 0.000000 0.020498
# 5 -0.004185 0.000260 0.001603 0.000000 0.027653 0.000000
# 6 0.000000 0.000000 0.000000 0.020498 0.000000 0.092557
#
#
# Mechanical properties :
#
#
# Convention : Reuss Voigt Hill
#
# Bulk Modulus (GPa) = 37.41256 39.74217 38.57737
# Shear Modulus (GPa) = 18.00501 24.11277 21.05889
#
# Velocity S-wave (km/s) = 2.94711 3.41054 3.18726
# Velocity P-wave (km/s) = 5.44317 5.88900 5.67047
#
# Compressibility (1/GPa) = 0.02672899
#
# Stress axis : x y z
#
# Youngs Moduli (GPa) = 79.51533 56.62595 68.31215
#
# Poissons Ratio (x) = 0.23171 0.21821
# Poissons Ratio (y) = 0.32537 0.12205
# Poissons Ratio (z) = 0.25400 0.10117
#
# Static dielectric constant tensor:
#      x y z
#    x 1.771520 0.000000 0.015320 
#    y 0.000000 1.833990 0.000000 
#    z 0.015320 0.000000 1.735100 
# 
# From -- ./inp_files/68149.got.cif
#   From: 2010.05.17/outbox.cif.g08.bks.cpg/sg11_35_cif.got.tgz:68149.got - 2010.06.03 12:22:45.
