data_PCOD9164439
_publ_section_title
;
Structure prediction by ZEFSAII (Michael W. Deem and Ramdas Pophale) SiO2 
 PCOD9164439
Probable space group: P 21/M
;
_chemical_formula_sum "Si O2"
_cell_formula_units_Z 32
_cell_length_a 24.164631
_cell_length_b 7.538388
_cell_length_c 7.998965
_cell_angle_alpha 90.000000
_cell_angle_beta 126.151363
_cell_angle_gamma 90.000000
_cell_volume 1176.560344
_symmetry_space_group_name_H-M "P 21/M"
_symmetry_group_IT_number 11
_symmetry_cell_setting 'monoclinic'
loop_
_space_group_symop_operation_xyz
x,y,z
-x,1/2+y,-z
-x,-y,-z
x,1/2-y,z
loop_
_atom_site_type_symbol
_atom_site_label
_atom_site_fract_x
_atom_site_fract_y
_atom_site_fract_z
Si Si1 0.957574 0.540298 0.589404
Si Si2 0.414075 0.533003 0.499174
Si Si3 0.673337 0.544414 0.985574
Si Si4 0.542788 0.537609 0.910249
Si Si5 0.298380 0.956093 0.523481
Si Si6 0.918271 0.039896 0.997514
Si Si7 0.829150 0.460020 0.531121
Si Si8 0.789633 0.964288 0.966223
O O1 0.955338 0.750000 0.601731
O O2 0.878997 0.482965 0.463468
O O3 0.000000 0.500000 0.500000
O O4 0.007458 0.464367 0.823900
O O5 0.411833 0.750000 0.490852
O O6 0.375380 0.464676 0.267231
O O7 0.491536 0.474421 0.671982
O O8 0.369136 0.467704 0.579569
O O9 0.685423 0.750000 0.043423
O O10 0.620294 0.466581 0.027765
O O11 0.745158 0.466389 0.045169
O O12 0.548347 0.750000 0.906385
O O13 0.500000 0.500000 0.000000
O O14 0.310786 0.750000 0.578307
O O15 0.247923 0.031098 0.577792
O O16 0.250890 0.970483 0.271441
O O17 0.925350 0.250000 0.983151
O O18 0.876875 0.963945 0.766329
O O19 0.867303 0.016617 0.065034
O O20 0.821963 0.250000 0.543992
O O21 0.787148 0.750000 0.967224
#
# Coordination Sequence:
#
# PCOD9164439 Si02
#       8
#     4   4   4   4   4   4   4   4
#     4  11  23  37  52  72 100 133 168 204 243 290
#     4   9  17  31  53  77  98 127 168 205 240 292
#     4   9  18  32  50  75 104 129 158 203 253 293
#     4  10  21  35  49  69 100 135 170 207 246 290
#     4   8  15  29  49  74 103 128 156 201 248 288
#     4   9  19  35  54  76 101 129 162 202 246 290
#     4   9  17  32  54  77 101 128 158 199 249 293
#     4   9  16  27  48  76 102 127 158 199 246 294
#
# _framework density 27.197921999999998
#
# number of rings (size 3 to 8) (size 9 to 14) (size 15 to 20)
#    0.000    2.750    0.000    2.250    0.000    4.500 
#    0.000    1.250    0.000    4.500    0.000    0.000 
#    0.000    0.000    0.000    0.000    0.000    0.000 
#
# Total GULP energy -178888.858492 kJ/mol
# GULP energy per Si atom -5590.276828 kJ/mol
# Density = 2.713602 g / cm^3
# Si number density = 27.197922 Si / 1000 Ang^3
#
#
#
# Elastic Constant Matrix: (Units=GPa)
#
#
# Indices 1 2 3 4 5 6 
#
# 1 236.0076 5.9340 36.0506 0.0000 18.2484 0.0000
# 2 5.9340 106.5739 11.3926 0.0000 5.9608 0.0000
# 3 36.0506 11.3926 72.9025 0.0000 14.3593 0.0000
# 4 0.0000 0.0000 0.0000 20.0933 0.0000 -1.3032
# 5 18.2484 5.9608 14.3593 0.0000 65.9483 0.0000
# 6 0.0000 0.0000 0.0000 -1.3032 0.0000 23.6870
#
#
#
# Elastic Compliance Matrix: (Units=1/GPa)
#
#
# Indices 1 2 3 4 5 6 
#
# 1 0.004625 0.000016 -0.002129 0.000000 -0.000818 0.000000
# 2 0.000016 0.009563 -0.001391 0.000000 -0.000566 0.000000
# 3 -0.002129 -0.001391 0.015511 0.000000 -0.002663 0.000000
# 4 0.000000 0.000000 0.000000 0.049946 0.000000 0.002748
# 5 -0.000818 -0.000566 -0.002663 0.000000 0.016021 0.000000
# 6 0.000000 0.000000 0.000000 0.002748 0.000000 0.042368
#
#
# Mechanical properties :
#
#
# Convention : Reuss Voigt Hill
#
# Bulk Modulus (GPa) = 44.06825 58.02649 51.04737
# Shear Modulus (GPa) = 32.76430 46.08616 39.42523
#
# Velocity S-wave (km/s) = 3.47459 4.12086 3.81145
# Velocity P-wave (km/s) = 5.68639 6.63500 6.17893
#
# Compressibility (1/GPa) = 0.02269208
#
# Stress axis : x y z
#
# Youngs Moduli (GPa) = 216.21048 104.57405 64.46913
#
# Poissons Ratio (x) = -0.00165 0.13722
# Poissons Ratio (y) = -0.00341 0.08966
# Poissons Ratio (z) = 0.46021 0.14543
#
# Static dielectric constant tensor:
#      x y z
#    x 2.148020 0.000000 -0.110900 
#    y 0.000000 1.968890 0.000000 
#    z -0.110900 0.000000 2.184970 
# 
# From -- ./inp_files/27405.got.cif
#   From: 2010.05.17/outbox.cif.g08.bks.cpg/sg11_14_cif.got.tgz:27405.got - 2010.06.03 12:22:45.
