data_PCOD9164002
_publ_section_title
;
Structure prediction by ZEFSAII (Michael W. Deem and Ramdas Pophale) SiO2 
 PCOD9164002
Probable space group: P 21/M
;
_chemical_formula_sum "Si O2"
_cell_formula_units_Z 24
_cell_length_a 14.873250
_cell_length_b 14.416408
_cell_length_c 7.820071
_cell_angle_alpha 90.000000
_cell_angle_beta 39.765307
_cell_angle_gamma 90.000000
_cell_volume 1072.536864
_symmetry_space_group_name_H-M "P 21/M"
_symmetry_group_IT_number 11
_symmetry_cell_setting 'monoclinic'
loop_
_space_group_symop_operation_xyz
x,y,z
-x,1/2+y,-z
-x,-y,-z
x,1/2-y,z
loop_
_atom_site_type_symbol
_atom_site_label
_atom_site_fract_x
_atom_site_fract_y
_atom_site_fract_z
Si Si1 0.558359 0.355291 0.495415
Si Si2 0.888142 0.107931 0.981340
Si Si3 0.099293 0.150835 0.378024
Si Si4 0.477517 0.450128 0.270135
Si Si5 0.010489 0.402458 0.145305
Si Si6 0.267063 0.503458 0.314108
O O1 0.519813 0.250000 0.601924
O O2 0.487890 0.384631 0.418455
O O3 0.519946 0.441224 0.674913
O O4 0.728122 0.359967 0.226544
O O5 0.959703 0.134405 0.697373
O O6 0.987816 0.141338 0.992330
O O7 0.897226 0.996576 0.993326
O O8 0.160938 0.250000 0.338244
O O9 0.196325 0.064493 0.281422
O O10 0.066835 0.151600 0.225317
O O11 0.340594 0.442483 0.353573
O O12 0.613257 0.437061 0.952614
O O13 0.853769 0.434895 0.427443
#
# Coordination Sequence:
#
# PCOD9164002 Si02
#       6
#     4   4   4   4   4   4
#     4  11  22  38  60  89 120 155 203 254 303 360
#     4  10  20  38  63  87 116 154 203 251 305 362
#     4  11  23  36  58  91 125 154 194 253 306 361
#     4  10  22  39  63  84 118 163 202 248 299 355
#     4  10  20  38  64  87 115 160 200 248 307 363
#     4  10  20  41  61  82 114 161 204 239 297 367
#
# _framework density 22.376850999999998
#
# number of rings (size 3 to 8) (size 9 to 14) (size 15 to 20)
#    0.000    1.667    1.667    4.500    0.000    2.667 
#    0.000    2.500    0.000    0.000    0.000    0.000 
#    0.000    0.000    0.000    0.000    0.000    0.000 
#
# Total GULP energy -134127.261107 kJ/mol
# GULP energy per Si atom -5588.635879 kJ/mol
# Density = 2.232592 g / cm^3
# Si number density = 22.376851 Si / 1000 Ang^3
#
#
#
# Elastic Constant Matrix: (Units=GPa)
#
#
# Indices 1 2 3 4 5 6 
#
# 1 113.5316 8.3607 -2.9799 0.0000 19.8089 0.0000
# 2 8.3607 81.6103 -0.5329 0.0000 3.3559 0.0000
# 3 -2.9799 -0.5329 40.9876 0.0000 -1.2018 0.0000
# 4 0.0000 0.0000 0.0000 -1.1296 0.0000 5.8307
# 5 19.8089 3.3559 -1.2018 0.0000 33.9850 0.0000
# 6 0.0000 0.0000 0.0000 5.8307 0.0000 -14.8802
#
#
#
# Elastic Compliance Matrix: (Units=1/GPa)
#
#
# Indices 1 2 3 4 5 6 
#
# 1 0.009866 -0.000775 0.000541 0.000000 -0.005655 0.000000
# 2 -0.000775 0.012365 0.000082 0.000000 -0.000767 0.000000
# 3 0.000541 0.000082 0.024454 0.000000 0.000541 0.000000
# 4 0.000000 0.000000 0.000000 0.865691 0.000000 0.339215
# 5 -0.005655 -0.000767 0.000541 0.000000 0.032816 0.000000
# 6 0.000000 0.000000 0.000000 0.339215 0.000000 0.065716
#
#
# Mechanical properties :
#
#
# Convention : Reuss Voigt Hill
#
# Bulk Modulus (GPa) = 21.56003 27.31393 24.43698
# Shear Modulus (GPa) = 4.87011 19.01382 11.94197
#
# Velocity S-wave (km/s) = 1.47687 2.91814 2.31265
# Velocity P-wave (km/s) = 3.54458 4.85663 4.25153
#
# Compressibility (1/GPa) = 0.04638212
#
# Stress axis : x y z
#
# Youngs Moduli (GPa) = 101.35756 80.87494 40.89322
#
# Poissons Ratio (x) = 0.06265 -0.02214
# Poissons Ratio (y) = 0.07852 -0.00335
# Poissons Ratio (z) = -0.05487 -0.00663
#
# Static dielectric constant tensor:
#      x y z
#    x 1.845740 0.000000 0.023730 
#    y 0.000000 1.836650 0.000000 
#    z 0.023730 0.000000 1.833740 
# 
# From -- ./inp_files/21994.got.cif
#   From: 2010.05.17/outbox.cif.g08.bks.cpg/sg11_11_cif.got.tgz:21994.got - 2010.06.03 12:22:45.
