data_PCOD9164863
_publ_section_title
;
Structure prediction by ZEFSAII (Michael W. Deem and Ramdas Pophale) SiO2 
 PCOD9164863
Probable space group: P 21/M
;
_chemical_formula_sum "Si O2"
_cell_formula_units_Z 32
_cell_length_a 14.254146
_cell_length_b 8.419695
_cell_length_c 23.313249
_cell_angle_alpha 90.000000
_cell_angle_beta 147.250355
_cell_angle_gamma 90.000000
_cell_volume 1513.606390
_symmetry_space_group_name_H-M "P 21/M"
_symmetry_group_IT_number 11
_symmetry_cell_setting 'monoclinic'
loop_
_space_group_symop_operation_xyz
x,y,z
-x,1/2+y,-z
-x,-y,-z
x,1/2-y,z
loop_
_atom_site_type_symbol
_atom_site_label
_atom_site_fract_x
_atom_site_fract_y
_atom_site_fract_z
Si Si1 0.673642 0.059078 0.559187
Si Si2 0.578164 0.060048 0.382638
Si Si3 0.196482 0.059039 0.608414
Si Si4 0.651799 0.066123 0.001695
Si Si5 0.720343 0.555899 0.220402
Si Si6 0.171560 0.435261 0.013233
Si Si7 0.214872 0.938007 0.161890
Si Si8 0.949487 0.940502 0.236421
O O1 0.671376 0.250000 0.562511
O O2 0.668112 0.017624 0.488904
O O3 0.857780 0.999097 0.678380
O O4 0.500000 0.000000 0.500000
O O5 0.564105 0.250000 0.372544
O O6 0.684736 0.001778 0.382349
O O7 0.386373 0.986215 0.283388
O O8 0.198454 0.250000 0.608975
O O9 0.264740 0.004458 0.706073
O O10 0.000000 0.000000 0.500000
O O11 0.646638 0.250000 0.015375
O O12 0.798226 0.983796 0.114721
O O13 0.456181 0.000637 0.901454
O O14 0.713816 0.044518 0.968134
O O15 0.713952 0.750000 0.217732
O O16 0.882866 0.507577 0.265021
O O17 0.202386 0.250000 0.015546
O O18 0.211406 0.468215 0.100128
O O19 0.966973 0.470359 0.900056
O O20 0.216840 0.750000 0.150261
O O21 0.960478 0.750000 0.243342
#
# Coordination Sequence:
#
# PCOD9164863 Si02
#       8
#     4   4   4   4   4   4   4   4
#     4  10  24  43  64  88 119 160 208 260 313 372
#     4  11  23  40  62  90 121 158 203 250 308 373
#     4  11  22  39  64  93 125 163 205 254 312 373
#     4  11  22  36  59  90 122 158 203 254 305 364
#     4   9  20  39  62  87 122 162 201 247 306 367
#     4  10  21  37  57  84 119 160 202 246 301 365
#     4  10  21  37  58  85 118 156 200 251 305 360
#     4  10  21  41  63  84 117 161 205 254 310 370
#
# _framework density 21.141559999999998
#
# number of rings (size 3 to 8) (size 9 to 14) (size 15 to 20)
#    0.000    1.750    0.000    3.750    1.750    6.000 
#    0.000    5.000    0.000    0.000    0.000    0.000 
#    0.000    0.000    0.000    0.000    0.000    0.000 
#
# Total GULP energy -178843.646297 kJ/mol
# GULP energy per Si atom -5588.863947 kJ/mol
# Density = 2.109344 g / cm^3
# Si number density = 21.141560 Si / 1000 Ang^3
#
#
#
# Elastic Constant Matrix: (Units=GPa)
#
#
# Indices 1 2 3 4 5 6 
#
# 1 72.2804 11.3493 35.0574 0.0000 13.8619 0.0000
# 2 11.3493 22.2822 16.7892 0.0000 7.5474 0.0000
# 3 35.0574 16.7892 133.6283 0.0000 23.9140 0.0000
# 4 0.0000 0.0000 0.0000 29.9622 0.0000 -0.8827
# 5 13.8619 7.5474 23.9140 0.0000 29.8161 0.0000
# 6 0.0000 0.0000 0.0000 -0.8827 0.0000 28.0294
#
#
#
# Elastic Compliance Matrix: (Units=1/GPa)
#
#
# Indices 1 2 3 4 5 6 
#
# 1 0.016888 -0.004879 -0.003075 0.000000 -0.004150 0.000000
# 2 -0.004879 0.053050 -0.003956 0.000000 -0.007988 0.000000
# 3 -0.003075 -0.003956 0.009752 0.000000 -0.005391 0.000000
# 4 0.000000 0.000000 0.000000 0.033406 0.000000 0.001052
# 5 -0.004150 -0.007988 -0.005391 0.000000 0.041814 0.000000
# 6 0.000000 0.000000 0.000000 0.001052 0.000000 0.035710
#
#
# Mechanical properties :
#
#
# Convention : Reuss Voigt Hill
#
# Bulk Modulus (GPa) = 17.89848 39.39806 28.64827
# Shear Modulus (GPa) = 21.45331 28.56123 25.00727
#
# Velocity S-wave (km/s) = 3.18896 3.67952 3.44299
# Velocity P-wave (km/s) = 4.69507 6.06033 5.42085
#
# Compressibility (1/GPa) = 0.05587067
#
# Stress axis : x y z
#
# Youngs Moduli (GPa) = 59.21199 18.85003 102.54474
#
# Poissons Ratio (x) = 0.09198 0.31532
# Poissons Ratio (y) = 0.28892 0.40564
# Poissons Ratio (z) = 0.18207 0.07457
#
# Static dielectric constant tensor:
#      x y z
#    x 1.754110 0.000000 0.003990 
#    y 0.000000 1.707470 0.000000 
#    z 0.003990 0.000000 1.769890 
# 
# From -- ./inp_files/69126.got.cif
#   From: 2010.05.17/outbox.cif.g08.bks.cpg/sg11_35_cif.got.tgz:69126.got - 2010.06.03 12:22:45.
