data_PCOD9164481
_publ_section_title
;
Structure prediction by ZEFSAII (Michael W. Deem and Ramdas Pophale) SiO2 
 PCOD9164481
Probable space group: P 21/M
;
_chemical_formula_sum "Si O2"
_cell_formula_units_Z 28
_cell_length_a 16.541786
_cell_length_b 8.137810
_cell_length_c 13.069239
_cell_angle_alpha 90.000000
_cell_angle_beta 123.905426
_cell_angle_gamma 90.000000
_cell_volume 1460.148829
_symmetry_space_group_name_H-M "P 21/M"
_symmetry_group_IT_number 11
_symmetry_cell_setting 'monoclinic'
loop_
_space_group_symop_operation_xyz
x,y,z
-x,1/2+y,-z
-x,-y,-z
x,1/2-y,z
loop_
_atom_site_type_symbol
_atom_site_label
_atom_site_fract_x
_atom_site_fract_y
_atom_site_fract_z
Si Si1 0.769388 0.950875 0.029702
Si Si2 0.446808 0.447268 0.064762
Si Si3 0.918880 0.949411 0.305208
Si Si4 0.504866 0.450908 0.328896
Si Si5 0.289267 0.446878 0.232418
Si Si6 0.135059 0.445270 0.507628
Si Si7 0.711278 0.444260 0.549266
O O1 0.771228 0.750000 0.031339
O O2 0.665507 0.002048 0.004586
O O3 0.857377 0.005615 0.163831
O O4 0.766846 0.004686 0.909229
O O5 0.444603 0.250000 0.065131
O O6 0.500000 0.500000 0.000000
O O7 0.501374 0.500194 0.207076
O O8 0.921567 0.750000 0.307359
O O9 0.868135 0.002412 0.376244
O O10 0.029239 0.011401 0.387117
O O11 0.505631 0.250000 0.332936
O O12 0.401886 0.505879 0.303623
O O13 0.602669 0.512778 0.451255
O O14 0.292366 0.250000 0.227739
O O15 0.249113 0.492247 0.314577
O O16 0.147049 0.250000 0.516960
O O17 0.219087 0.517658 0.496458
O O18 0.702707 0.250000 0.552644
#
# Coordination Sequence:
#
# PCOD9164481 Si02
#       7
#     4   4   4   4   4   4   4
#     4   8  16  32  55  75  98 134 168 204 256 307
#     4   9  17  30  47  72 104 135 168 203 243 296
#     4   9  18  36  58  77 100 131 168 209 258 310
#     4   8  17  32  49  71 103 141 172 203 249 299
#     4   9  17  34  55  75 101 135 174 212 251 298
#     4  10  21  35  53  79 105 130 167 213 257 305
#     4  11  21  33  51  75 106 139 173 211 252 297
#
# _framework density 19.176127000000001
#
# number of rings (size 3 to 8) (size 9 to 14) (size 15 to 20)
#    0.000    2.857    0.000    3.000    2.000    0.571 
#    0.000    6.429    0.000    0.000    0.000    0.000 
#    0.000    0.000    0.000    0.000    0.000    0.000 
#
# Total GULP energy -156123.503725 kJ/mol
# GULP energy per Si atom -5575.839419 kJ/mol
# Density = 1.913248 g / cm^3
# Si number density = 19.176127 Si / 1000 Ang^3
#
#
#
# Elastic Constant Matrix: (Units=GPa)
#
#
# Indices 1 2 3 4 5 6 
#
# 1 28.1094 -3.0195 23.3372 0.0000 -9.9159 0.0000
# 2 -3.0195 6.0526 6.8513 0.0000 -0.1239 0.0000
# 3 23.3372 6.8513 116.7235 0.0000 5.3810 0.0000
# 4 0.0000 0.0000 0.0000 17.5742 0.0000 -3.4083
# 5 -9.9159 -0.1239 5.3810 0.0000 18.3297 0.0000
# 6 0.0000 0.0000 0.0000 -3.4083 0.0000 20.7639
#
#
#
# Elastic Compliance Matrix: (Units=1/GPa)
#
#
# Indices 1 2 3 4 5 6 
#
# 1 0.077419 0.063923 -0.021472 0.000000 0.048617 0.000000
# 2 0.063923 0.230094 -0.028336 0.000000 0.044455 0.000000
# 3 -0.021472 -0.028336 0.015275 0.000000 -0.016292 0.000000
# 4 0.000000 0.000000 0.000000 0.058773 0.000000 0.009647
# 5 0.048617 0.044455 -0.016292 0.000000 0.085940 0.000000
# 6 0.000000 0.000000 0.000000 0.009647 0.000000 0.049744
#
#
# Mechanical properties :
#
#
# Convention : Reuss Voigt Hill
#
# Bulk Modulus (GPa) = 2.84885 22.80261 12.82573
# Shear Modulus (GPa) = 8.25056 19.58132 13.91594
#
# Velocity S-wave (km/s) = 2.07650 3.19898 2.69679
# Velocity P-wave (km/s) = 2.69035 5.05585 4.04967
#
# Compressibility (1/GPa) = 0.35101876
#
# Stress axis : x y z
#
# Youngs Moduli (GPa) = 12.91678 4.34604 65.46839
#
# Poissons Ratio (x) = -0.27781 1.40574
# Poissons Ratio (y) = -0.82568 1.85509
# Poissons Ratio (z) = 0.27735 0.12315
#
# Static dielectric constant tensor:
#      x y z
#    x 1.641770 0.000000 -0.005770 
#    y 0.000000 1.676470 0.000000 
#    z -0.005770 0.000000 1.689710 
# 
# From -- ./inp_files/38503.got.cif
#   From: 2010.05.17/outbox.cif.g08.bks.cpg/sg11_20_cif.got.tgz:38503.got - 2010.06.03 12:22:45.
