data_PCOD9164427
_publ_section_title
;
Structure prediction by ZEFSAII (Michael W. Deem and Ramdas Pophale) SiO2 
 PCOD9164427
Probable space group: P 21/M
;
_chemical_formula_sum "Si O2"
_cell_formula_units_Z 30
_cell_length_a 5.109628
_cell_length_b 25.131199
_cell_length_c 10.941245
_cell_angle_alpha 90.000000
_cell_angle_beta 115.940025
_cell_angle_gamma 90.000000
_cell_volume 1263.429032
_symmetry_space_group_name_H-M "P 21/M"
_symmetry_group_IT_number 11
_symmetry_cell_setting 'monoclinic'
loop_
_space_group_symop_operation_xyz
x,y,z
-x,1/2+y,-z
-x,-y,-z
x,1/2-y,z
loop_
_atom_site_type_symbol
_atom_site_label
_atom_site_fract_x
_atom_site_fract_y
_atom_site_fract_z
Si Si1 0.941225 0.606797 0.672609
Si Si2 0.931956 0.348659 0.553555
Si Si3 0.748019 0.433738 0.701487
Si Si4 0.514703 0.327678 0.766814
Si Si5 0.338439 0.750000 0.427158
Si Si6 0.187091 0.862563 0.962240
Si Si7 0.512071 0.036448 0.276841
Si Si8 0.737393 0.567254 0.016023
O O1 0.086279 0.645535 0.803043
O O2 0.171916 0.559533 0.689275
O O3 0.901240 0.636560 0.536975
O O4 0.666832 0.580896 0.684012
O O5 0.167865 0.324376 0.697428
O O6 0.819921 0.403210 0.591031
O O7 0.719291 0.299196 0.487723
O O8 0.600080 0.388050 0.752358
O O9 0.527538 0.482691 0.655389
O O10 0.049855 0.450415 0.831177
O O11 0.612368 0.294538 0.671362
O O12 0.668472 0.316739 0.926562
O O13 0.438821 0.907443 0.001784
O O14 0.915894 0.886353 0.982032
O O15 0.351225 0.027681 0.111921
#
# Coordination Sequence:
#
# PCOD9164427 Si02
#       8
#     4   4   4   4   2   4   4   4
#     4  10  24  39  60  88 130 168 198 240 299 361
#     4  11  23  41  63  87 119 157 202 253 310 365
#     4  10  21  34  59  90 123 163 208 247 295 350
#     4  10  21  40  64  88 116 150 203 258 306 357
#     4  10  24  42  66  90 112 148 204 258 318 364
#     4   9  18  37  60  86 119 156 194 243 293 345
#     4  10  22  37  57  89 130 170 205 241 290 357
#     4   9  17  34  56  86 120 162 205 241 279 337
#
# _framework density 23.744900999999999
#
# number of rings (size 3 to 8) (size 9 to 14) (size 15 to 20)
#    0.000    2.133    1.333    0.800    5.600    1.067 
#    0.000    6.000    0.000    1.600    0.000    0.000 
#    0.000    0.000    0.000    0.000    0.000    0.000 
#
# Total GULP energy -167081.220821 kJ/mol
# GULP energy per Si atom -5569.374027 kJ/mol
# Density = 2.369086 g / cm^3
# Si number density = 23.744901 Si / 1000 Ang^3
#
#
#
# Elastic Constant Matrix: (Units=GPa)
#
#
# Indices 1 2 3 4 5 6 
#
# 1 75.7405 2.6569 20.0373 0.0000 -7.4461 0.0000
# 2 2.6569 64.9800 19.1065 0.0000 -5.6165 0.0000
# 3 20.0373 19.1065 100.3461 0.0000 -9.9078 0.0000
# 4 0.0000 0.0000 0.0000 -12.6434 0.0000 -22.2291
# 5 -7.4461 -5.6165 -9.9078 0.0000 34.1942 0.0000
# 6 0.0000 0.0000 0.0000 -22.2291 0.0000 -18.2034
#
#
#
# Elastic Compliance Matrix: (Units=1/GPa)
#
#
# Indices 1 2 3 4 5 6 
#
# 1 0.014127 0.000411 -0.002665 0.000000 0.002372 0.000000
# 2 0.000411 0.016426 -0.003021 0.000000 0.001912 0.000000
# 3 -0.002665 -0.003021 0.011290 0.000000 0.002195 0.000000
# 4 0.000000 0.000000 0.000000 0.068958 0.000000 -0.084208
# 5 0.002372 0.001912 0.002195 0.000000 0.030711 0.000000
# 6 0.000000 0.000000 0.000000 -0.084208 0.000000 0.047895
#
#
# Mechanical properties :
#
#
# Convention : Reuss Voigt Hill
#
# Bulk Modulus (GPa) = 31.95642 36.07421 34.01532
# Shear Modulus (GPa) = 23.76573 13.95386 18.85980
#
# Velocity S-wave (km/s) = 3.16710 2.42679 2.82133
# Velocity P-wave (km/s) = 5.18280 4.80394 4.99696
#
# Compressibility (1/GPa) = 0.03129261
#
# Stress axis : x y z
#
# Youngs Moduli (GPa) = 70.78781 60.87881 88.57760
#
# Poissons Ratio (x) = -0.02502 0.23605
# Poissons Ratio (y) = -0.02909 0.26758
# Poissons Ratio (z) = 0.18865 0.18391
#
# Static dielectric constant tensor:
#      x y z
#    x 1.947720 0.000000 0.049990 
#    y 0.000000 1.971990 0.000000 
#    z 0.049990 0.000000 2.004620 
# 
# From -- ./inp_files/7240.got.cif
#   From: 2010.05.17/outbox.cif.g08.bks.cpg/sg11_4_cif.got.tgz:7240.got - 2010.06.03 12:22:45.
