data_PCOD9164575
_publ_section_title
;
Structure prediction by ZEFSAII (Michael W. Deem and Ramdas Pophale) SiO2 
 PCOD9164575
Probable space group: P 21/M
;
_chemical_formula_sum "Si O2"
_cell_formula_units_Z 32
_cell_length_a 17.924998
_cell_length_b 8.062756
_cell_length_c 12.086470
_cell_angle_alpha 90.000000
_cell_angle_beta 108.684866
_cell_angle_gamma 90.000000
_cell_volume 1654.730701
_symmetry_space_group_name_H-M "P 21/M"
_symmetry_group_IT_number 11
_symmetry_cell_setting 'monoclinic'
loop_
_space_group_symop_operation_xyz
x,y,z
-x,1/2+y,-z
-x,-y,-z
x,1/2-y,z
loop_
_atom_site_type_symbol
_atom_site_label
_atom_site_fract_x
_atom_site_fract_y
_atom_site_fract_z
Si Si1 0.190621 0.450705 0.536646
Si Si2 0.642353 0.947583 0.760565
Si Si3 0.466404 0.946700 0.715457
Si Si4 0.653155 0.548367 0.515293
Si Si5 0.414484 0.441667 0.918346
Si Si6 0.025281 0.449593 0.388399
Si Si7 0.268673 0.942541 0.987125
Si Si8 0.860344 0.049256 0.240726
O O1 0.191031 0.250000 0.537033
O O2 0.272234 0.507420 0.522311
O O3 0.175618 0.504478 0.656049
O O4 0.115730 0.506849 0.426219
O O5 0.633603 0.750000 0.747981
O O6 0.660611 0.007654 0.645735
O O7 0.556280 0.010057 0.758208
O O8 0.706849 0.982497 0.884030
O O9 0.533847 0.250000 0.261373
O O10 0.425471 0.981335 0.579399
O O11 0.416443 0.034166 0.787722
O O12 0.650675 0.750000 0.511691
O O13 0.403819 0.250000 0.943072
O O14 0.344590 0.539268 0.943637
O O15 0.500000 0.500000 0.000000
O O16 0.026580 0.250000 0.380198
O O17 0.951484 0.509113 0.280157
O O18 0.000000 0.500000 0.500000
O O19 0.252946 0.750000 0.999067
O O20 0.195237 0.015068 0.883706
O O21 0.860370 0.250000 0.235577
#
# Coordination Sequence:
#
# PCOD9164575 Si02
#       8
#     4   4   4   4   4   4   4   4
#     4   9  17  30  51  77 102 130 164 202 251 304
#     4  10  22  38  53  69  97 136 176 216 256 300
#     4  11  22  36  54  76 100 132 172 212 258 305
#     4  10  21  36  53  75 100 131 173 217 257 301
#     4  12  23  36  54  76 103 134 166 206 253 301
#     4   8  14  27  47  72 102 131 158 196 246 300
#     4  11  22  35  53  76 102 135 173 210 253 304
#     4   9  18  31  49  76 106 132 162 201 248 303
#
# _framework density 19.338494000000001
#
# number of rings (size 3 to 8) (size 9 to 14) (size 15 to 20)
#    0.000    2.000    1.250    3.000    0.000    4.500 
#    0.000    0.000    0.000    0.750    0.000    0.000 
#    0.000    0.000    0.000    0.000    0.000    0.125 
#
# Total GULP energy -178545.662078 kJ/mol
# GULP energy per Si atom -5579.551940 kJ/mol
# Density = 1.929448 g / cm^3
# Si number density = 19.338494 Si / 1000 Ang^3
#
#
#
# Elastic Constant Matrix: (Units=GPa)
#
#
# Indices 1 2 3 4 5 6 
#
# 1 34.2403 0.1650 29.8097 0.0000 20.2125 0.0000
# 2 0.1650 12.6231 -6.7508 0.0000 -1.5571 0.0000
# 3 29.8097 -6.7508 134.1595 0.0000 20.9685 0.0000
# 4 0.0000 0.0000 0.0000 23.8655 0.0000 -0.0006
# 5 20.2125 -1.5571 20.9685 0.0000 35.7270 0.0000
# 6 0.0000 0.0000 0.0000 -0.0006 0.0000 11.5995
#
#
#
# Elastic Compliance Matrix: (Units=1/GPa)
#
#
# Indices 1 2 3 4 5 6 
#
# 1 0.050337 -0.007814 -0.007788 0.000000 -0.024248 0.000000
# 2 -0.007814 0.082675 0.005111 0.000000 0.005024 0.000000
# 3 -0.007788 0.005111 0.009599 0.000000 -0.001005 0.000000
# 4 0.000000 0.000000 0.000000 0.041901 0.000000 0.000002
# 5 -0.024248 0.005024 -0.001005 0.000000 0.042517 0.000000
# 6 0.000000 0.000000 0.000000 0.000002 0.000000 0.086210
#
#
# Mechanical properties :
#
#
# Convention : Reuss Voigt Hill
#
# Bulk Modulus (GPa) = 8.22175 25.27451 16.74813
# Shear Modulus (GPa) = 13.34172 24.75834 19.05003
#
# Velocity S-wave (km/s) = 2.62945 3.58196 3.14201
# Velocity P-wave (km/s) = 3.67143 5.49592 4.67357
#
# Compressibility (1/GPa) = 0.12162862
#
# Stress axis : x y z
#
# Youngs Moduli (GPa) = 19.86604 12.09556 104.18293
#
# Poissons Ratio (x) = 0.09451 0.81139
# Poissons Ratio (y) = 0.15523 -0.53249
# Poissons Ratio (z) = 0.15472 -0.06182
#
# Static dielectric constant tensor:
#      x y z
#    x 1.682930 0.000000 0.035910 
#    y 0.000000 1.686990 0.000000 
#    z 0.035910 0.000000 1.709100 
# 
# From -- ./inp_files/42503.got.cif
#   From: 2010.05.17/outbox.cif.g08.bks.cpg/sg11_22_cif.got.tgz:42503.got - 2010.06.03 12:22:45.
