data_PCOD9164097
_publ_section_title
;
Structure prediction by ZEFSAII (Michael W. Deem and Ramdas Pophale) SiO2 
 PCOD9164097
Probable space group: P 21/M
;
_chemical_formula_sum "Si O2"
_cell_formula_units_Z 24
_cell_length_a 17.533187
_cell_length_b 12.937661
_cell_length_c 7.078293
_cell_angle_alpha 90.000000
_cell_angle_beta 42.856415
_cell_angle_gamma 90.000000
_cell_volume 1092.090031
_symmetry_space_group_name_H-M "P 21/M"
_symmetry_group_IT_number 11
_symmetry_cell_setting 'monoclinic'
loop_
_space_group_symop_operation_xyz
x,y,z
-x,1/2+y,-z
-x,-y,-z
x,1/2-y,z
loop_
_atom_site_type_symbol
_atom_site_label
_atom_site_fract_x
_atom_site_fract_y
_atom_site_fract_z
Si Si1 0.322563 0.132324 0.929466
Si Si2 0.460199 0.633704 0.207005
Si Si3 0.879810 0.509783 0.812217
Si Si4 0.137067 0.082372 0.744147
Si Si5 0.625049 0.586598 0.597211
Si Si6 0.896454 0.363175 0.090446
O O1 0.284785 0.250000 0.029676
O O2 0.431545 0.112727 0.857662
O O3 0.362875 0.121026 0.639115
O O4 0.218934 0.053648 0.138088
O O5 0.419317 0.750000 0.316395
O O6 0.377653 0.538512 0.389894
O O7 0.513357 0.625240 0.901345
O O8 0.852452 0.401543 0.966679
O O9 0.000000 0.500000 0.500000
O O10 0.885396 0.585455 0.986749
O O11 0.262955 0.121813 0.494754
O O12 0.131161 0.958388 0.719879
O O13 0.032668 0.134070 0.833069
O O14 0.858774 0.250000 0.213909
#
# Coordination Sequence:
#
# PCOD9164097 Si02
#       6
#     4   4   4   4   4   4
#     4  10  21  37  58  85 111 147 189 226 275 331
#     4  10  22  36  60  86 107 146 188 229 284 332
#     4   9  19  34  51  80 115 138 177 225 272 319
#     4   8  19  34  52  79 104 147 180 221 269 322
#     4  10  20  39  57  81 117 142 182 239 276 326
#     4   9  18  34  53  77 107 144 182 216 266 324
#
# _framework density 21.976210999999999
#
# number of rings (size 3 to 8) (size 9 to 14) (size 15 to 20)
#    1.000    1.667    0.000    1.000    2.333    4.667 
#    0.000    0.000    0.000    4.000    0.000    0.000 
#    0.000    0.000    0.000    0.000    0.000    0.000 
#
# Total GULP energy -133804.212901 kJ/mol
# GULP energy per Si atom -5575.175538 kJ/mol
# Density = 2.192619 g / cm^3
# Si number density = 21.976211 Si / 1000 Ang^3
#
#
#
# Elastic Constant Matrix: (Units=GPa)
#
#
# Indices 1 2 3 4 5 6 
#
# 1 64.4911 23.5845 17.6112 0.0000 -12.0721 0.0000
# 2 23.5845 113.7747 5.1581 0.0000 -9.0771 0.0000
# 3 17.6112 5.1581 58.9453 0.0000 -5.2635 0.0000
# 4 0.0000 0.0000 0.0000 3.3269 0.0000 2.1891
# 5 -12.0721 -9.0771 -5.2635 0.0000 25.6059 0.0000
# 6 0.0000 0.0000 0.0000 2.1891 0.0000 18.6989
#
#
#
# Elastic Compliance Matrix: (Units=1/GPa)
#
#
# Indices 1 2 3 4 5 6 
#
# 1 0.019319 -0.003229 -0.004868 0.000000 0.006963 0.000000
# 2 -0.003229 0.009600 0.000298 0.000000 0.001942 0.000000
# 3 -0.004868 0.000298 0.018538 0.000000 0.001621 0.000000
# 4 0.000000 0.000000 0.000000 0.325665 0.000000 -0.038125
# 5 0.006963 0.001942 0.001621 0.000000 0.043358 0.000000
# 6 0.000000 0.000000 0.000000 -0.038125 0.000000 0.057942
#
#
# Mechanical properties :
#
#
# Convention : Reuss Voigt Hill
#
# Bulk Modulus (GPa) = 31.38673 36.65765 34.02219
# Shear Modulus (GPa) = 9.98722 22.25017 16.11870
#
# Velocity S-wave (km/s) = 2.13411 3.18538 2.71119
# Velocity P-wave (km/s) = 4.51505 5.49961 5.03147
#
# Compressibility (1/GPa) = 0.03186060
#
# Stress axis : x y z
#
# Youngs Moduli (GPa) = 51.76140 104.16675 53.94347
#
# Poissons Ratio (x) = 0.33631 0.26259
# Poissons Ratio (y) = 0.16711 -0.01607
# Poissons Ratio (z) = 0.25196 -0.03104
#
# Static dielectric constant tensor:
#      x y z
#    x 1.833290 0.000000 0.021810 
#    y 0.000000 1.840820 0.000000 
#    z 0.021810 0.000000 1.847900 
# 
# From -- ./inp_files/26320.got.cif
#   From: 2010.05.17/outbox.cif.g08.bks.cpg/sg11_14_cif.got.tgz:26320.got - 2010.06.03 12:22:45.
