data_PCOD9164822
_publ_section_title
;
Structure prediction by ZEFSAII (Michael W. Deem and Ramdas Pophale) SiO2 
 PCOD9164822
Probable space group: P 21/M
;
_chemical_formula_sum "Si O2"
_cell_formula_units_Z 28
_cell_length_a 12.863113
_cell_length_b 8.995618
_cell_length_c 15.922203
_cell_angle_alpha 90.000000
_cell_angle_beta 51.309617
_cell_angle_gamma 90.000000
_cell_volume 1438.046134
_symmetry_space_group_name_H-M "P 21/M"
_symmetry_group_IT_number 11
_symmetry_cell_setting 'monoclinic'
loop_
_space_group_symop_operation_xyz
x,y,z
-x,1/2+y,-z
-x,-y,-z
x,1/2-y,z
loop_
_atom_site_type_symbol
_atom_site_label
_atom_site_fract_x
_atom_site_fract_y
_atom_site_fract_z
Si Si1 0.612961 0.073265 0.498316
Si Si2 0.376094 0.574016 0.166558
Si Si3 0.964198 0.911910 0.436526
Si Si4 0.888687 0.929446 0.303887
Si Si5 0.658827 0.583498 0.640800
Si Si6 0.691102 0.573182 0.974801
Si Si7 0.063037 0.571357 0.052209
O O1 0.610299 0.250000 0.497404
O O2 0.500000 0.000000 0.500000
O O3 0.751771 0.014653 0.388986
O O4 0.589906 0.017603 0.605505
O O5 0.349089 0.750000 0.181617
O O6 0.330523 0.493632 0.274536
O O7 0.310576 0.502302 0.116643
O O8 0.537111 0.554202 0.081667
O O9 0.028084 0.750000 0.408251
O O10 0.984520 0.975002 0.333454
O O11 0.805446 0.900004 0.527443
O O12 0.000000 0.000000 0.500000
O O13 0.868483 0.750000 0.322009
O O14 0.958377 0.956835 0.180616
O O15 0.601047 0.750000 0.677590
O O16 0.717577 0.750000 0.955181
O O17 0.797757 0.498870 0.984282
O O18 0.078264 0.750000 0.034527
O O19 0.000000 0.500000 0.000000
#
# Coordination Sequence:
#
# PCOD9164822 Si02
#       7
#     4   4   4   4   4   4   4
#     4  11  22  38  61  87 116 155 196 241 295 354
#     4  10  21  38  61  89 121 159 202 250 306 364
#     4   9  19  34  53  81 114 148 184 228 284 344
#     4   9  21  41  59  82 118 155 194 243 294 350
#     4  10  21  37  56  84 118 151 192 241 289 349
#     4  10  22  40  61  87 120 157 202 256 308 363
#     4  11  24  42  64  89 120 162 208 256 308 366
#
# _framework density 19.470860999999999
#
# number of rings (size 3 to 8) (size 9 to 14) (size 15 to 20)
#    0.000    2.000    0.000    3.857    2.000    6.857 
#    0.000    1.429    0.000    0.000    0.000    0.000 
#    0.000    0.000    0.000    0.000    0.000    0.000 
#
# Total GULP energy -156186.024411 kJ/mol
# GULP energy per Si atom -5578.072300 kJ/mol
# Density = 1.942654 g / cm^3
# Si number density = 19.470861 Si / 1000 Ang^3
#
#
#
# Elastic Constant Matrix: (Units=GPa)
#
#
# Indices 1 2 3 4 5 6 
#
# 1 137.5701 70.4732 47.2143 0.0000 30.3258 0.0000
# 2 70.4732 120.8531 50.2541 0.0000 17.3584 0.0000
# 3 47.2143 50.2541 109.8807 0.0000 31.2223 0.0000
# 4 0.0000 0.0000 0.0000 30.7654 0.0000 4.9690
# 5 30.3258 17.3584 31.2223 0.0000 37.6471 0.0000
# 6 0.0000 0.0000 0.0000 4.9690 0.0000 36.6587
#
#
#
# Elastic Compliance Matrix: (Units=1/GPa)
#
#
# Indices 1 2 3 4 5 6 
#
# 1 0.011816 -0.005702 -0.000670 0.000000 -0.006334 0.000000
# 2 -0.005702 0.013004 -0.004054 0.000000 0.001960 0.000000
# 3 -0.000670 -0.004054 0.013813 0.000000 -0.009047 0.000000
# 4 0.000000 0.000000 0.000000 0.033232 0.000000 -0.004504
# 5 -0.006334 0.001960 -0.009047 0.000000 0.038264 0.000000
# 6 0.000000 0.000000 0.000000 -0.004504 0.000000 0.027889
#
#
# Mechanical properties :
#
#
# Convention : Reuss Voigt Hill
#
# Bulk Modulus (GPa) = 56.23722 78.24301 67.24011
# Shear Modulus (GPa) = 30.34028 34.37173 32.35600
#
# Velocity S-wave (km/s) = 3.95174 4.20609 4.08090
# Velocity P-wave (km/s) = 7.05458 7.99126 7.53748
#
# Compressibility (1/GPa) = 0.01778182
#
# Stress axis : x y z
#
# Youngs Moduli (GPa) = 84.63049 76.89973 72.39335
#
# Poissons Ratio (x) = 0.43849 0.04848
# Poissons Ratio (y) = 0.48258 0.29349
# Poissons Ratio (z) = 0.05667 0.31175
#
# Static dielectric constant tensor:
#      x y z
#    x 1.680260 0.000000 0.012500 
#    y 0.000000 1.685180 0.000000 
#    z 0.012500 0.000000 1.683620 
# 
# From -- ./inp_files/49122.got.cif
#   From: 2010.05.17/outbox.cif.g08.bks.cpg/sg11_25_cif.got.tgz:49122.got - 2010.06.03 12:22:45.
