data_PCOD9164222
_publ_section_title
;
Structure prediction by ZEFSAII (Michael W. Deem and Ramdas Pophale) SiO2 
 PCOD9164222
Probable space group: P 21/M
;
_chemical_formula_sum "Si O2"
_cell_formula_units_Z 20
_cell_length_a 5.241974
_cell_length_b 19.925438
_cell_length_c 9.439842
_cell_angle_alpha 90.000000
_cell_angle_beta 72.485789
_cell_angle_gamma 90.000000
_cell_volume 940.270884
_symmetry_space_group_name_H-M "P 21/M"
_symmetry_group_IT_number 11
_symmetry_cell_setting 'monoclinic'
loop_
_space_group_symop_operation_xyz
x,y,z
-x,1/2+y,-z
-x,-y,-z
x,1/2-y,z
loop_
_atom_site_type_symbol
_atom_site_label
_atom_site_fract_x
_atom_site_fract_y
_atom_site_fract_z
Si Si1 0.403312 0.669935 0.518810
Si Si2 0.436388 0.172974 0.830751
Si Si3 0.201643 0.127425 0.310078
Si Si4 0.329259 0.820561 0.924026
Si Si5 0.929241 0.569162 0.938759
O O1 0.439068 0.750000 0.541540
O O2 0.471470 0.658875 0.342933
O O3 0.611120 0.628785 0.582504
O O4 0.095006 0.650511 0.598654
O O5 0.325718 0.250000 0.851244
O O6 0.675852 0.174940 0.905788
O O7 0.252770 0.114298 0.925802
O O8 0.363741 0.177487 0.178424
O O9 0.182311 0.064367 0.203672
O O10 0.210883 0.750000 0.896105
O O11 0.190761 0.884631 0.882372
O O12 0.000000 0.500000 0.000000
#
# Coordination Sequence:
#
# PCOD9164222 Si02
#       5
#     4   4   4   4   4
#     4  11  22  39  64  99 134 164 206 273 337 386
#     4   9  22  39  64  97 130 167 215 271 330 387
#     4  11  23  39  64  98 127 167 212 265 325 386
#     4  10  20  39  67  94 124 164 219 271 320 382
#     4  11  24  43  66  93 133 179 224 264 318 385
#
# _framework density 21.270465000000002
#
# number of rings (size 3 to 8) (size 9 to 14) (size 15 to 20)
#    0.000    1.600    2.000    2.400    2.800    6.400 
#    0.000    2.000    0.000    0.000    0.000    0.000 
#    0.000    0.000    0.000    0.000    0.000    0.000 
#
# Total GULP energy -111450.218449 kJ/mol
# GULP energy per Si atom -5572.510922 kJ/mol
# Density = 2.122205 g / cm^3
# Si number density = 21.270465 Si / 1000 Ang^3
#
#
#
# Elastic Constant Matrix: (Units=GPa)
#
#
# Indices 1 2 3 4 5 6 
#
# 1 105.2017 12.6780 45.5671 0.0000 -0.2124 0.0000
# 2 12.6780 64.2751 6.8845 0.0000 -10.5720 0.0000
# 3 45.5671 6.8845 167.5950 0.0000 14.1928 0.0000
# 4 0.0000 0.0000 0.0000 1.8062 0.0000 43.5404
# 5 -0.2124 -10.5720 14.1928 0.0000 32.7100 0.0000
# 6 0.0000 0.0000 0.0000 43.5404 0.0000 -48.7994
#
#
#
# Elastic Compliance Matrix: (Units=1/GPa)
#
#
# Indices 1 2 3 4 5 6 
#
# 1 0.011010 -0.001717 -0.002992 0.000000 0.000815 0.000000
# 2 -0.001717 0.016923 -0.000717 0.000000 0.005769 0.000000
# 3 -0.002992 -0.000717 0.007092 0.000000 -0.003328 0.000000
# 4 0.000000 0.000000 0.000000 0.024598 0.000000 0.021947
# 5 0.000815 0.005769 -0.003328 0.000000 0.033886 0.000000
# 6 0.000000 0.000000 0.000000 0.021947 0.000000 -0.000910
#
#
# Mechanical properties :
#
#
# Convention : Reuss Voigt Hill
#
# Bulk Modulus (GPa) = 41.36995 51.92568 46.64781
# Shear Modulus (GPa) = 44.84044 15.27285 30.05664
#
# Velocity S-wave (km/s) = 4.59640 2.68252 3.76316
# Velocity P-wave (km/s) = 6.90368 5.83606 6.39220
#
# Compressibility (1/GPa) = 0.02417214
#
# Stress axis : x y z
#
# Youngs Moduli (GPa) = 90.82583 59.09267 141.01321
#
# Poissons Ratio (x) = 0.10148 0.42191
# Poissons Ratio (y) = 0.15597 0.10108
# Poissons Ratio (z) = 0.27175 0.04236
#
# Static dielectric constant tensor:
#      x y z
#    x 1.878100 0.000000 0.021200 
#    y 0.000000 1.653110 0.000000 
#    z 0.021200 0.000000 1.793920 
# 
# From -- ./inp_files/2125.got.cif
#   From: 2010.05.17/outbox.cif.g08.bks.cpg/sg11_2_cif.got.tgz:2125.got - 2010.06.03 12:22:45.
