data_PCOD9164539
_publ_section_title
;
Structure prediction by ZEFSAII (Michael W. Deem and Ramdas Pophale) SiO2 
 PCOD9164539
Probable space group: P 21/M
;
_chemical_formula_sum "Si O2"
_cell_formula_units_Z 28
_cell_length_a 10.192953
_cell_length_b 23.161214
_cell_length_c 5.576866
_cell_angle_alpha 90.000000
_cell_angle_beta 58.580958
_cell_angle_gamma 90.000000
_cell_volume 1123.550990
_symmetry_space_group_name_H-M "P 21/M"
_symmetry_group_IT_number 11
_symmetry_cell_setting 'monoclinic'
loop_
_space_group_symop_operation_xyz
x,y,z
-x,1/2+y,-z
-x,-y,-z
x,1/2-y,z
loop_
_atom_site_type_symbol
_atom_site_label
_atom_site_fract_x
_atom_site_fract_y
_atom_site_fract_z
Si Si1 0.355128 0.030490 0.425204
Si Si2 0.869251 0.094881 0.870516
Si Si3 0.402489 0.905904 0.529637
Si Si4 0.105427 0.338932 0.161154
Si Si5 0.828472 0.966632 0.891156
Si Si6 0.751876 0.316121 0.600061
Si Si7 0.133648 0.186474 0.641637
O O1 0.480336 0.079742 0.366707
O O2 0.278818 0.039847 0.241483
O O3 0.421430 0.964665 0.354857
O O4 0.250677 0.032412 0.768020
O O5 0.770041 0.133509 0.781452
O O6 0.015899 0.133943 0.763917
O O7 0.906351 0.028718 0.778532
O O8 0.768140 0.090316 0.202486
O O9 0.387489 0.843117 0.425407
O O10 0.078938 0.407530 0.196162
O O11 0.930296 0.313864 0.328119
O O12 0.196360 0.320262 0.314658
O O13 0.205213 0.320656 0.835299
O O14 0.718941 0.250000 0.705386
O O15 0.059621 0.250000 0.713194
#
# Coordination Sequence:
#
# PCOD9164539 Si02
#       7
#     4   4   4   4   4   4   4
#     4  10  23  40  64  92 126 162 208 249 311 377
#     4  10  21  35  59  93 127 158 199 254 322 360
#     4  10  21  38  64  90 125 160 203 261 313 365
#     4  11  23  38  61  90 126 161 201 257 309 371
#     4  11  23  40  61  94 128 163 205 249 310 380
#     4  11  22  38  61  93 122 161 210 258 315 367
#     4  11  22  38  59  89 121 161 206 249 309 371
#
# _framework density 24.920988000000001
#
# number of rings (size 3 to 8) (size 9 to 14) (size 15 to 20)
#    0.000    1.429    2.857    3.429    2.000    5.143 
#    0.000    0.000    0.000    6.857    0.000    0.000 
#    0.000    0.000    0.000    0.000    0.000    0.000 
#
# Total GULP energy -156056.852550 kJ/mol
# GULP energy per Si atom -5573.459020 kJ/mol
# Density = 2.486427 g / cm^3
# Si number density = 24.920988 Si / 1000 Ang^3
#
#
#
# Elastic Constant Matrix: (Units=GPa)
#
#
# Indices 1 2 3 4 5 6 
#
# 1 51.3497 33.7361 36.8424 0.0000 25.3141 0.0000
# 2 33.7361 217.1030 34.1198 0.0000 7.6265 0.0000
# 3 36.8424 34.1198 124.9952 0.0000 35.0554 0.0000
# 4 0.0000 0.0000 0.0000 20.5383 0.0000 4.7421
# 5 25.3141 7.6265 35.0554 0.0000 34.2784 0.0000
# 6 0.0000 0.0000 0.0000 4.7421 0.0000 18.3914
#
#
#
# Elastic Compliance Matrix: (Units=1/GPa)
#
#
# Indices 1 2 3 4 5 6 
#
# 1 0.035297 -0.004228 -0.003089 0.000000 -0.021967 0.000000
# 2 -0.004228 0.005323 -0.001052 0.000000 0.003014 0.000000
# 3 -0.003089 -0.001052 0.011908 0.000000 -0.009662 0.000000
# 4 0.000000 0.000000 0.000000 0.051772 0.000000 -0.013349
# 5 -0.021967 0.003014 -0.009662 0.000000 0.054606 0.000000
# 6 0.000000 0.000000 0.000000 -0.013349 0.000000 0.057815
#
#
# Mechanical properties :
#
#
# Convention : Reuss Voigt Hill
#
# Bulk Modulus (GPa) = 27.94089 66.98271 47.46180
# Shear Modulus (GPa) = 20.37587 33.89162 27.13375
#
# Velocity S-wave (km/s) = 2.86251 3.69177 3.30326
# Velocity P-wave (km/s) = 4.70759 6.71629 5.79957
#
# Compressibility (1/GPa) = 0.03578983
#
# Stress axis : x y z
#
# Youngs Moduli (GPa) = 28.33073 187.88056 83.97814
#
# Poissons Ratio (x) = 0.79432 0.25943
# Poissons Ratio (y) = 0.11978 0.08834
# Poissons Ratio (z) = 0.08752 0.19764
#
# Static dielectric constant tensor:
#      x y z
#    x 2.070960 0.000000 0.078120 
#    y 0.000000 2.007510 0.000000 
#    z 0.078120 0.000000 2.150620 
# 
# From -- ./inp_files/5022.got.cif
#   From: 2010.05.17/outbox.cif.g08.bks.cpg/sg11_3_cif.got.tgz:5022.got - 2010.06.03 12:22:45.
