data_PCOD9164109
_publ_section_title
;
Structure prediction by ZEFSAII (Michael W. Deem and Ramdas Pophale) SiO2 
 PCOD9164109
Probable space group: P 21/M
;
_chemical_formula_sum "Si O2"
_cell_formula_units_Z 28
_cell_length_a 7.273711
_cell_length_b 29.087179
_cell_length_c 6.528229
_cell_angle_alpha 90.000000
_cell_angle_beta 115.693755
_cell_angle_gamma 90.000000
_cell_volume 1244.622703
_symmetry_space_group_name_H-M "P 21/M"
_symmetry_group_IT_number 11
_symmetry_cell_setting 'monoclinic'
loop_
_space_group_symop_operation_xyz
x,y,z
-x,1/2+y,-z
-x,-y,-z
x,1/2-y,z
loop_
_atom_site_type_symbol
_atom_site_label
_atom_site_fract_x
_atom_site_fract_y
_atom_site_fract_z
Si Si1 0.319516 0.371091 0.568776
Si Si2 0.778351 0.022159 0.859183
Si Si3 0.704151 0.801314 0.805819
Si Si4 0.050406 0.303482 0.700538
Si Si5 0.671239 0.108791 0.061912
Si Si6 0.504002 0.059218 0.371710
Si Si7 0.731510 0.299799 0.233713
O O1 0.343549 0.334747 0.399776
O O2 0.147434 0.346201 0.622904
O O3 0.335607 0.419147 0.448052
O O4 0.502330 0.377325 0.815440
O O5 0.700324 0.043256 0.602061
O O6 0.605728 0.982677 0.799206
O O7 0.771260 0.063468 0.017996
O O8 0.000000 0.000000 0.000000
O O9 0.725301 0.750000 0.733480
O O10 0.511785 0.801623 0.867450
O O11 0.898401 0.812400 0.039632
O O12 0.127213 0.250000 0.699310
O O13 0.820921 0.301720 0.506940
O O14 0.576212 0.095179 0.235558
O O15 0.804097 0.154505 0.156388
O O16 0.791771 0.250000 0.175286
#
# Coordination Sequence:
#
# PCOD9164109 Si02
#       7
#     4   4   4   4   4   4   4
#     4  11  20  37  62  89 120 162 204 253 310 368
#     4  10  24  43  67  93 121 160 211 258 313 373
#     4  10  20  39  60  84 123 167 209 252 304 363
#     4  10  21  37  56  84 121 162 207 254 305 362
#     4  11  22  42  65  92 128 165 202 257 315 371
#     4  10  22  43  61  92 128 154 204 259 312 371
#     4  10  21  39  60  88 126 163 203 251 304 368
#
# _framework density 22.496780000000001
#
# number of rings (size 3 to 8) (size 9 to 14) (size 15 to 20)
#    0.000    1.714    2.857    0.857    2.000    1.143 
#    7.714    0.000    0.000    0.000    0.000    0.000 
#    0.000    0.000    0.000    0.000    0.000    0.000 
#
# Total GULP energy -156012.180292 kJ/mol
# GULP energy per Si atom -5571.863582 kJ/mol
# Density = 2.244558 g / cm^3
# Si number density = 22.496780 Si / 1000 Ang^3
#
#
#
# Elastic Constant Matrix: (Units=GPa)
#
#
# Indices 1 2 3 4 5 6 
#
# 1 34.2588 26.8495 37.0981 0.0000 4.1297 0.0000
# 2 26.8495 139.1372 59.7789 0.0000 -4.6370 0.0000
# 3 37.0981 59.7789 92.0613 0.0000 8.5869 0.0000
# 4 0.0000 0.0000 0.0000 48.2886 0.0000 -7.8394
# 5 4.1297 -4.6370 8.5869 0.0000 25.5852 0.0000
# 6 0.0000 0.0000 0.0000 -7.8394 0.0000 11.7445
#
#
#
# Elastic Compliance Matrix: (Units=1/GPa)
#
#
# Indices 1 2 3 4 5 6 
#
# 1 0.052096 -0.001646 -0.019730 0.000000 -0.002085 0.000000
# 2 -0.001646 0.010457 -0.006533 0.000000 0.004353 0.000000
# 3 -0.019730 -0.006533 0.023607 0.000000 -0.005922 0.000000
# 4 0.000000 0.000000 0.000000 0.023226 0.000000 0.015503
# 5 -0.002085 0.004353 -0.005922 0.000000 0.042198 0.000000
# 6 0.000000 0.000000 0.000000 0.015503 0.000000 0.095494
#
#
# Mechanical properties :
#
#
# Convention : Reuss Voigt Hill
#
# Bulk Modulus (GPa) = 32.95667 56.99002 44.97334
# Shear Modulus (GPa) = 15.97398 26.57239 21.27319
#
# Velocity S-wave (km/s) = 2.66758 3.44054 3.07841
# Velocity P-wave (km/s) = 4.91623 6.41643 5.71576
#
# Compressibility (1/GPa) = 0.03034287
#
# Stress axis : x y z
#
# Youngs Moduli (GPa) = 19.19535 95.63429 42.35982
#
# Poissons Ratio (x) = 0.15739 0.83576
# Poissons Ratio (y) = 0.03159 0.27672
# Poissons Ratio (z) = 0.37873 0.62475
#
# Static dielectric constant tensor:
#      x y z
#    x 1.863510 0.000000 -0.018080 
#    y 0.000000 1.907840 0.000000 
#    z -0.018080 0.000000 1.811770 
# 
# From -- ./inp_files/3467.got.cif
#   From: 2010.05.17/outbox.cif.g08.bks.cpg/sg11_2_cif.got.tgz:3467.got - 2010.06.03 12:22:45.
