data_PCOD9164020
_publ_section_title
;
Structure prediction by ZEFSAII (Michael W. Deem and Ramdas Pophale) SiO2 
 PCOD9164020
Probable space group: P 21/M
;
_chemical_formula_sum "Si O2"
_cell_formula_units_Z 28
_cell_length_a 10.008305
_cell_length_b 8.661732
_cell_length_c 28.170614
_cell_angle_alpha 90.000000
_cell_angle_beta 37.768370
_cell_angle_gamma 90.000000
_cell_volume 1495.708442
_symmetry_space_group_name_H-M "P 21/M"
_symmetry_group_IT_number 11
_symmetry_cell_setting 'monoclinic'
loop_
_space_group_symop_operation_xyz
x,y,z
-x,1/2+y,-z
-x,-y,-z
x,1/2-y,z
loop_
_atom_site_type_symbol
_atom_site_label
_atom_site_fract_x
_atom_site_fract_y
_atom_site_fract_z
Si Si1 0.035220 0.567898 0.191373
Si Si2 0.679839 0.432752 0.795964
Si Si3 0.719040 0.567576 0.961043
Si Si4 0.070270 0.933665 0.626386
Si Si5 0.231065 0.567554 0.949568
Si Si6 0.635129 0.935040 0.372660
Si Si7 0.846883 0.565386 0.500990
O O1 0.038170 0.750000 0.178196
O O2 0.221885 0.542202 0.178770
O O3 0.089553 0.468420 0.130205
O O4 0.810355 0.533193 0.281735
O O5 0.693691 0.250000 0.782509
O O6 0.433264 0.490630 0.865175
O O7 0.841900 0.521052 0.715240
O O8 0.699662 0.750000 0.975288
O O9 0.500000 0.500000 0.000000
O O10 0.748040 0.477184 0.001434
O O11 0.094459 0.750000 0.616388
O O12 0.258919 0.999269 0.608492
O O13 0.079599 0.006674 0.571621
O O14 0.239304 0.750000 0.940330
O O15 0.000000 0.500000 0.000000
O O16 0.616296 0.750000 0.383000
O O17 0.402571 0.006571 0.425365
O O18 0.853115 0.750000 0.500791
O O19 0.000000 0.500000 0.500000
#
# Coordination Sequence:
#
# PCOD9164020 Si02
#       7
#     4   4   4   4   4   4   4
#     4   9  19  36  61  91 123 156 200 251 305 356
#     4  10  20  38  63  91 124 159 202 253 305 358
#     4  12  23  37  61  90 123 161 207 253 303 360
#     4  11  22  39  65  95 124 160 206 250 299 358
#     4  12  25  42  62  87 122 163 208 255 307 365
#     4  10  21  40  65  93 125 160 203 252 303 359
#     4  12  25  43  64  90 125 162 203 249 306 367
#
# _framework density 18.720227000000001
#
# number of rings (size 3 to 8) (size 9 to 14) (size 15 to 20)
#    0.000    1.143    1.429    7.286    0.000    2.857 
#    2.571    0.000    0.000    0.000    0.000    0.000 
#    0.000    0.000    0.000    0.000    0.000    0.000 
#
# Total GULP energy -156550.863713 kJ/mol
# GULP energy per Si atom -5591.102275 kJ/mol
# Density = 1.867762 g / cm^3
# Si number density = 18.720227 Si / 1000 Ang^3
#
#
#
# Elastic Constant Matrix: (Units=GPa)
#
#
# Indices 1 2 3 4 5 6 
#
# 1 117.4082 37.6583 60.0875 0.0000 -19.0849 0.0000
# 2 37.6583 113.5198 43.2652 0.0000 -7.3697 0.0000
# 3 60.0875 43.2652 103.3925 0.0000 -16.4302 0.0000
# 4 0.0000 0.0000 0.0000 37.0170 0.0000 -1.3486
# 5 -19.0849 -7.3697 -16.4302 0.0000 28.7513 0.0000
# 6 0.0000 0.0000 0.0000 -1.3486 0.0000 32.0891
#
#
#
# Elastic Compliance Matrix: (Units=1/GPa)
#
#
# Indices 1 2 3 4 5 6 
#
# 1 0.012917 -0.001670 -0.006064 0.000000 0.004681 0.000000
# 2 -0.001670 0.010697 -0.003571 0.000000 -0.000407 0.000000
# 3 -0.006064 -0.003571 0.015294 0.000000 0.003799 0.000000
# 4 0.000000 0.000000 0.000000 0.027056 0.000000 0.001137
# 5 0.004681 -0.000407 0.003799 0.000000 0.039955 0.000000
# 6 0.000000 0.000000 0.000000 0.001137 0.000000 0.031211
#
#
# Mechanical properties :
#
#
# Convention : Reuss Voigt Hill
#
# Bulk Modulus (GPa) = 61.35302 68.48250 64.91776
# Shear Modulus (GPa) = 30.27110 32.45879 31.36495
#
# Velocity S-wave (km/s) = 4.02559 4.16852 4.09768
# Velocity P-wave (km/s) = 7.37916 7.73500 7.55917
#
# Compressibility (1/GPa) = 0.01629912
#
# Stress axis : x y z
#
# Youngs Moduli (GPa) = 77.41441 93.48044 65.38442
#
# Poissons Ratio (x) = 0.15611 0.39652
# Poissons Ratio (y) = 0.12928 0.23346
# Poissons Ratio (z) = 0.46948 0.33378
#
# Static dielectric constant tensor:
#      x y z
#    x 1.506440 0.000000 0.005880 
#    y 0.000000 1.625710 0.000000 
#    z 0.005880 0.000000 1.660620 
# 
# From -- ./inp_files/70802.got.cif
#   From: 2010.05.17/outbox.cif.g08.bks.cpg/sg11_36_cif.got.tgz:70802.got - 2010.06.03 12:22:45.
