data_PCOD9164151
_publ_section_title
;
Structure prediction by ZEFSAII (Michael W. Deem and Ramdas Pophale) SiO2 
 PCOD9164151
Probable space group: P 21/M
;
_chemical_formula_sum "Si O2"
_cell_formula_units_Z 24
_cell_length_a 14.517417
_cell_length_b 13.683426
_cell_length_c 11.757884
_cell_angle_alpha 90.000000
_cell_angle_beta 150.599833
_cell_angle_gamma 90.000000
_cell_volume 1146.600087
_symmetry_space_group_name_H-M "P 21/M"
_symmetry_group_IT_number 11
_symmetry_cell_setting 'monoclinic'
loop_
_space_group_symop_operation_xyz
x,y,z
-x,1/2+y,-z
-x,-y,-z
x,1/2-y,z
loop_
_atom_site_type_symbol
_atom_site_label
_atom_site_fract_x
_atom_site_fract_y
_atom_site_fract_z
Si Si1 0.167841 0.360442 0.493258
Si Si2 0.501750 0.026859 0.371366
Si Si3 0.284104 0.491574 0.810947
Si Si4 0.067191 0.502033 0.203690
Si Si5 0.613296 0.141406 0.914820
Si Si6 0.794795 0.861718 0.054750
O O1 0.111480 0.250000 0.466324
O O2 0.157683 0.449462 0.573408
O O3 0.065411 0.398302 0.268975
O O4 0.393232 0.354113 0.713794
O O5 0.500000 0.000000 0.500000
O O6 0.714370 0.030800 0.559289
O O7 0.391290 0.939302 0.188598
O O8 0.391475 0.124522 0.222134
O O9 0.257257 0.411949 0.881524
O O10 0.500000 0.500000 0.000000
O O11 0.262029 0.596441 0.848925
O O12 0.950062 0.578700 0.151667
O O13 0.000000 0.500000 0.000000
O O14 0.670411 0.250000 0.943350
O O15 0.847114 0.750000 0.126966
#
# Coordination Sequence:
#
# PCOD9164151 Si02
#       6
#     4   4   4   4   4   4
#     4   9  18  35  60  87 120 167 211 258 321 385
#     4  10  20  39  63  89 127 171 214 270 323 383
#     4   9  18  37  63  92 127 165 210 268 327 385
#     4  11  23  41  63  92 135 171 219 274 325 387
#     4   8  16  31  56  89 121 159 207 256 318 384
#     4  11  24  41  65  96 132 174 216 270 335 393
#
# _framework density 20.931446999999999
#
# number of rings (size 3 to 8) (size 9 to 14) (size 15 to 20)
#    0.000    2.333    1.667    1.500    0.000    3.333 
#    0.000    4.167    0.000    0.000    0.000    0.000 
#    0.000    0.000    0.000    0.000    0.000    0.000 
#
# Total GULP energy -133837.569448 kJ/mol
# GULP energy per Si atom -5576.565394 kJ/mol
# Density = 2.088381 g / cm^3
# Si number density = 20.931447 Si / 1000 Ang^3
#
#
#
# Elastic Constant Matrix: (Units=GPa)
#
#
# Indices 1 2 3 4 5 6 
#
# 1 105.1322 40.9404 36.4794 0.0000 -3.7227 0.0000
# 2 40.9404 139.8119 34.9527 0.0000 -10.5224 0.0000
# 3 36.4794 34.9527 93.3856 0.0000 -0.9695 0.0000
# 4 0.0000 0.0000 0.0000 20.4572 0.0000 1.4850
# 5 -3.7227 -10.5224 -0.9695 0.0000 50.8561 0.0000
# 6 0.0000 0.0000 0.0000 1.4850 0.0000 17.8003
#
#
#
# Elastic Compliance Matrix: (Units=1/GPa)
#
#
# Indices 1 2 3 4 5 6 
#
# 1 0.011767 -0.002512 -0.003654 0.000000 0.000272 0.000000
# 2 -0.002512 0.008555 -0.002205 0.000000 0.001544 0.000000
# 3 -0.003654 -0.002205 0.012956 0.000000 -0.000477 0.000000
# 4 0.000000 0.000000 0.000000 0.049180 0.000000 -0.004103
# 5 0.000272 0.001544 -0.000477 0.000000 0.019994 0.000000
# 6 0.000000 0.000000 0.000000 -0.004103 0.000000 0.056521
#
#
# Mechanical properties :
#
#
# Convention : Reuss Voigt Hill
#
# Bulk Modulus (GPa) = 60.46805 62.56385 61.51595
# Shear Modulus (GPa) = 27.58963 32.88655 30.23809
#
# Velocity S-wave (km/s) = 3.63450 3.96808 3.80495
# Velocity P-wave (km/s) = 6.82379 7.13786 6.98259
#
# Compressibility (1/GPa) = 0.01653766
#
# Stress axis : x y z
#
# Youngs Moduli (GPa) = 84.98025 116.88450 77.18514
#
# Poissons Ratio (x) = 0.29360 0.28202
# Poissons Ratio (y) = 0.21346 0.17019
# Poissons Ratio (z) = 0.31050 0.25772
#
# Static dielectric constant tensor:
#      x y z
#    x 1.814220 0.000000 0.023790 
#    y 0.000000 1.741020 0.000000 
#    z 0.023790 0.000000 1.761560 
# 
# From -- ./inp_files/39730.got.cif
#   From: 2010.05.17/outbox.cif.g08.bks.cpg/sg11_20_cif.got.tgz:39730.got - 2010.06.03 12:22:45.
