data_PCOD9164738
_publ_section_title
;
Structure prediction by ZEFSAII (Michael W. Deem and Ramdas Pophale) SiO2 
 PCOD9164738
Probable space group: P 21/M
;
_chemical_formula_sum "Si O2"
_cell_formula_units_Z 28
_cell_length_a 8.359774
_cell_length_b 13.723892
_cell_length_c 12.190651
_cell_angle_alpha 90.000000
_cell_angle_beta 117.949660
_cell_angle_gamma 90.000000
_cell_volume 1235.481718
_symmetry_space_group_name_H-M "P 21/M"
_symmetry_group_IT_number 11
_symmetry_cell_setting 'monoclinic'
loop_
_space_group_symop_operation_xyz
x,y,z
-x,1/2+y,-z
-x,-y,-z
x,1/2-y,z
loop_
_atom_site_type_symbol
_atom_site_label
_atom_site_fract_x
_atom_site_fract_y
_atom_site_fract_z
Si Si1 0.423176 0.551475 0.646277
Si Si2 0.329081 0.861863 0.981851
Si Si3 0.763530 0.957768 0.898357
Si Si4 0.550045 0.364411 0.578284
Si Si5 0.890432 0.137164 0.320137
Si Si6 0.757898 0.639700 0.110151
Si Si7 0.918858 0.481372 0.722401
O O1 0.566699 0.568980 0.788525
O O2 0.436790 0.437115 0.619952
O O3 0.493115 0.609311 0.561666
O O4 0.232057 0.592057 0.623526
O O5 0.309956 0.750000 0.014149
O O6 0.544534 0.883454 0.042708
O O7 0.253577 0.940667 0.042013
O O8 0.227624 0.867434 0.831720
O O9 0.886290 0.972541 0.831836
O O10 0.820457 0.877679 0.004785
O O11 0.535100 0.250000 0.596412
O O12 0.756331 0.405306 0.655574
O O13 0.931363 0.250000 0.354212
O O14 0.065877 0.070710 0.356355
O O15 0.781211 0.750000 0.151686
O O16 0.888300 0.572047 0.222328
#
# Coordination Sequence:
#
# PCOD9164738 Si02
#       7
#     4   4   4   4   4   4   4
#     4  10  22  41  70  91 119 163 216 266 308 365
#     4  10  21  36  60  89 122 168 212 253 309 373
#     4  11  21  38  59  87 124 157 203 259 307 370
#     4  10  23  45  67  93 125 165 210 260 319 375
#     4  11  22  40  64  93 129 168 211 260 313 370
#     4  11  21  34  55  86 120 159 205 254 310 371
#     4  11  24  39  58  89 130 167 205 254 316 376
#
# _framework density 22.663226000000002
#
# number of rings (size 3 to 8) (size 9 to 14) (size 15 to 20)
#    0.000    1.429    2.857    2.571    0.000    4.571 
#    0.000    9.286    0.000    0.000    0.000    0.000 
#    0.000    0.000    0.000    0.000    0.000    0.000 
#
# Total GULP energy -156591.834337 kJ/mol
# GULP energy per Si atom -5592.565512 kJ/mol
# Density = 2.261164 g / cm^3
# Si number density = 22.663226 Si / 1000 Ang^3
#
#
#
# Elastic Constant Matrix: (Units=GPa)
#
#
# Indices 1 2 3 4 5 6 
#
# 1 59.0433 39.7442 -7.8035 0.0000 -8.7515 0.0000
# 2 39.7442 152.5846 -1.1236 0.0000 -0.9458 0.0000
# 3 -7.8035 -1.1236 36.4052 0.0000 6.5973 0.0000
# 4 0.0000 0.0000 0.0000 21.2899 0.0000 1.8024
# 5 -8.7515 -0.9458 6.5973 0.0000 31.2271 0.0000
# 6 0.0000 0.0000 0.0000 1.8024 0.0000 23.6574
#
#
#
# Elastic Compliance Matrix: (Units=1/GPa)
#
#
# Indices 1 2 3 4 5 6 
#
# 1 0.022007 -0.005673 0.003593 0.000000 0.005237 0.000000
# 2 -0.005673 0.008019 -0.000753 0.000000 -0.001188 0.000000
# 3 0.003593 -0.000753 0.029153 0.000000 -0.005175 0.000000
# 4 0.000000 0.000000 0.000000 0.047276 0.000000 -0.003602
# 5 0.005237 -0.001188 -0.005175 0.000000 0.034548 0.000000
# 6 0.000000 0.000000 0.000000 -0.003602 0.000000 0.042545
#
#
# Mechanical properties :
#
#
# Convention : Reuss Voigt Hill
#
# Bulk Modulus (GPa) = 18.68753 34.40749 26.54751
# Shear Modulus (GPa) = 24.14863 29.71594 26.93229
#
# Velocity S-wave (km/s) = 3.26781 3.62497 3.45101
# Velocity P-wave (km/s) = 4.74360 5.72150 5.25535
#
# Compressibility (1/GPa) = 0.05351163
#
# Stress axis : x y z
#
# Youngs Moduli (GPa) = 45.44092 124.71083 34.30139
#
# Poissons Ratio (x) = 0.70751 -0.12325
# Poissons Ratio (y) = 0.25780 0.02584
# Poissons Ratio (z) = -0.16327 0.09395
#
# Static dielectric constant tensor:
#      x y z
#    x 1.868280 0.000000 0.042990 
#    y 0.000000 1.822710 0.000000 
#    z 0.042990 0.000000 1.859710 
# 
# From -- ./inp_files/31741.got.cif
#   From: 2010.05.17/outbox.cif.g08.bks.cpg/sg11_16_cif.got.tgz:31741.got - 2010.06.03 12:22:45.
