data_PCOD9164438
_publ_section_title
;
Structure prediction by ZEFSAII (Michael W. Deem and Ramdas Pophale) SiO2 
 PCOD9164438
Probable space group: P 21/M
;
_chemical_formula_sum "Si O2"
_cell_formula_units_Z 28
_cell_length_a 16.924112
_cell_length_b 7.494155
_cell_length_c 18.444059
_cell_angle_alpha 90.000000
_cell_angle_beta 154.974790
_cell_angle_gamma 90.000000
_cell_volume 989.561704
_symmetry_space_group_name_H-M "P 21/M"
_symmetry_group_IT_number 11
_symmetry_cell_setting 'monoclinic'
loop_
_space_group_symop_operation_xyz
x,y,z
-x,1/2+y,-z
-x,-y,-z
x,1/2-y,z
loop_
_atom_site_type_symbol
_atom_site_label
_atom_site_fract_x
_atom_site_fract_y
_atom_site_fract_z
Si Si1 0.215933 0.963993 0.166425
Si Si2 0.154864 0.458202 0.503329
Si Si3 0.562673 0.460496 0.945732
Si Si4 0.257339 0.533057 0.357327
Si Si5 0.082661 0.038844 0.835925
Si Si6 0.504416 0.542850 0.303139
Si Si7 0.798362 0.462533 0.279327
O O1 0.239339 0.750000 0.182025
O O2 0.303413 0.030527 0.315026
O O3 0.312520 0.039477 0.174356
O O4 0.000000 0.000000 0.000000
O O5 0.189850 0.250000 0.551013
O O6 0.345993 0.537999 0.628870
O O7 0.019270 0.455296 0.318998
O O8 0.006175 0.539882 0.437496
O O9 0.565007 0.250000 0.954634
O O10 0.344890 0.510968 0.772694
O O11 0.696357 0.502555 0.988830
O O12 0.672778 0.536822 0.107377
O O13 0.268093 0.750000 0.367332
O O14 0.381316 0.459490 0.525370
O O15 0.043862 0.480845 0.201748
O O16 0.060843 0.250000 0.811006
O O17 0.478439 0.750000 0.260117
O O18 0.816041 0.250000 0.285524
#
# Coordination Sequence:
#
# PCOD9164438 Si02
#       7
#     4   4   4   4   4   4   4
#     4  10  21  35  49  68  94 121 150 185 225 270
#     4   8  14  24  37  55  79 107 140 177 214 254
#     4   9  15  21  30  47  74 107 141 174 208 250
#     4   9  18  31  47  68  92 118 151 189 226 267
#     4   9  15  23  36  54  78 108 141 177 215 255
#     4   9  17  30  49  70  91 117 151 189 226 266
#     4   8  13  20  30  46  72 106 139 169 206 252
#
# _framework density 28.295356000000002
#
# number of rings (size 3 to 8) (size 9 to 14) (size 15 to 20)
#    0.000    3.143    0.000    2.143    0.000    5.143 
#    0.000    0.000    0.000    0.000    0.000    0.000 
#    0.000    1.143    0.000    2.286    0.000   10.286 
#
# Total GULP energy -156581.488519 kJ/mol
# GULP energy per Si atom -5592.196019 kJ/mol
# Density = 2.823095 g / cm^3
# Si number density = 28.295356 Si / 1000 Ang^3
#
#
#
# Elastic Constant Matrix: (Units=GPa)
#
#
# Indices 1 2 3 4 5 6 
#
# 1 232.6275 6.0340 48.7290 0.0000 65.4971 0.0000
# 2 6.0340 113.9494 -0.8309 0.0000 9.3623 0.0000
# 3 48.7290 -0.8309 190.5665 0.0000 62.9471 0.0000
# 4 0.0000 0.0000 0.0000 24.7030 0.0000 2.7918
# 5 65.4971 9.3623 62.9471 0.0000 65.2406 0.0000
# 6 0.0000 0.0000 0.0000 2.7918 0.0000 16.2868
#
#
#
# Elastic Compliance Matrix: (Units=1/GPa)
#
#
# Indices 1 2 3 4 5 6 
#
# 1 0.006058 0.000242 0.000693 0.000000 -0.006785 0.000000
# 2 0.000242 0.008950 0.000707 0.000000 -0.002209 0.000000
# 3 0.000693 0.000707 0.007833 0.000000 -0.008355 0.000000
# 4 0.000000 0.000000 0.000000 0.041281 0.000000 -0.007076
# 5 -0.006785 -0.002209 -0.008355 0.000000 0.030518 0.000000
# 6 0.000000 0.000000 0.000000 -0.007076 0.000000 0.062612
#
#
# Mechanical properties :
#
#
# Convention : Reuss Voigt Hill
#
# Bulk Modulus (GPa) = 38.27856 71.66750 54.97303
# Shear Modulus (GPa) = 30.73601 53.46019 42.09810
#
# Velocity S-wave (km/s) = 3.29942 4.35140 3.86140
# Velocity P-wave (km/s) = 5.29834 7.11544 6.27304
#
# Compressibility (1/GPa) = 0.02612428
#
# Stress axis : x y z
#
# Youngs Moduli (GPa) = 165.08298 111.73588 127.66185
#
# Poissons Ratio (x) = -0.02701 -0.08851
# Poissons Ratio (y) = -0.03991 -0.09024
# Poissons Ratio (z) = -0.11445 -0.07898
#
# Static dielectric constant tensor:
#      x y z
#    x 2.289530 0.000000 -0.048030 
#    y 0.000000 1.951560 0.000000 
#    z -0.048030 0.000000 2.341230 
# 
# From -- ./inp_files/66893.got.cif
#   From: 2010.05.17/outbox.cif.g08.bks.cpg/sg11_34_cif.got.tgz:66893.got - 2010.06.03 12:22:45.
