data_PCOD9164907
_publ_section_title
;
Structure prediction by ZEFSAII (Michael W. Deem and Ramdas Pophale) SiO2 
 PCOD9164907
Probable space group: P 21/M
;
_chemical_formula_sum "Si O2"
_cell_formula_units_Z 32
_cell_length_a 11.450558
_cell_length_b 14.867904
_cell_length_c 16.064661
_cell_angle_alpha 90.000000
_cell_angle_beta 145.472832
_cell_angle_gamma 90.000000
_cell_volume 1550.156227
_symmetry_space_group_name_H-M "P 21/M"
_symmetry_group_IT_number 11
_symmetry_cell_setting 'monoclinic'
loop_
_space_group_symop_operation_xyz
x,y,z
-x,1/2+y,-z
-x,-y,-z
x,1/2-y,z
loop_
_atom_site_type_symbol
_atom_site_label
_atom_site_fract_x
_atom_site_fract_y
_atom_site_fract_z
Si Si1 0.634444 0.146822 0.565670
Si Si2 0.094861 0.419145 0.384720
Si Si3 0.559759 0.494970 0.651031
Si Si4 0.470346 0.149555 0.048984
Si Si5 0.574219 0.012850 0.850277
Si Si6 0.193950 0.349610 0.615320
Si Si7 0.954683 0.882987 0.294448
Si Si8 0.797305 0.149193 0.090862
O O1 0.576321 0.250000 0.552163
O O2 0.683020 0.081375 0.672751
O O3 0.839881 0.148792 0.630463
O O4 0.467183 0.088118 0.415208
O O5 0.330170 0.451163 0.517972
O O6 0.069831 0.371791 0.458835
O O7 0.961737 0.509321 0.301557
O O8 0.019313 0.359657 0.264089
O O9 0.623716 0.509512 0.783607
O O10 0.505174 0.250000 0.103494
O O11 0.635675 0.135195 0.072257
O O12 0.472428 0.073592 0.120512
O O13 0.248390 0.146456 0.873565
O O14 0.372600 0.076920 0.731519
O O15 0.751432 0.072651 0.997052
O O16 0.285854 0.250000 0.660963
O O17 0.056736 0.352180 0.617058
O O18 0.765192 0.250000 0.039261
#
# Coordination Sequence:
#
# PCOD9164907 Si02
#       8
#     4   4   4   4   4   4   4   4
#     4  10  21  40  65  85 111 150 197 244 293 347
#     4  10  21  37  58  86 122 153 191 241 296 344
#     4   9  23  41  61  89 113 148 196 244 295 345
#     4  11  22  36  57  86 124 161 198 240 288 347
#     4  11  21  38  59  86 121 158 192 238 293 349
#     4  11  21  34  56  90 125 155 192 240 290 351
#     4  11  20  37  59  85 116 157 198 241 292 343
#     4  11  21  34  56  88 124 163 196 229 288 355
#
# _framework density 20.643079
#
# number of rings (size 3 to 8) (size 9 to 14) (size 15 to 20)
#    0.000    1.500    2.500    3.375    0.000    5.500 
#    0.000    1.875    0.000    0.000    0.000    0.000 
#    0.000    0.000    0.000    0.000    0.000    0.000 
#
# Total GULP energy -178792.136588 kJ/mol
# GULP energy per Si atom -5587.254268 kJ/mol
# Density = 2.059609 g / cm^3
# Si number density = 20.643079 Si / 1000 Ang^3
#
#
#
# Elastic Constant Matrix: (Units=GPa)
#
#
# Indices 1 2 3 4 5 6 
#
# 1 48.4407 14.7748 13.3387 0.0000 -15.2343 0.0000
# 2 14.7748 122.8625 20.5343 0.0000 -10.5456 0.0000
# 3 13.3387 20.5343 72.8352 0.0000 -13.7935 0.0000
# 4 0.0000 0.0000 0.0000 11.9454 0.0000 0.4366
# 5 -15.2343 -10.5456 -13.7935 0.0000 24.2113 0.0000
# 6 0.0000 0.0000 0.0000 0.4366 0.0000 7.4205
#
#
#
# Elastic Compliance Matrix: (Units=1/GPa)
#
#
# Indices 1 2 3 4 5 6 
#
# 1 0.026259 -0.001620 -0.001521 0.000000 0.014950 0.000000
# 2 -0.001620 0.008794 -0.001850 0.000000 0.001757 0.000000
# 3 -0.001521 -0.001850 0.015913 0.000000 0.007303 0.000000
# 4 0.000000 0.000000 0.000000 0.083894 0.000000 -0.004937
# 5 0.014950 0.001757 0.007303 0.000000 0.055636 0.000000
# 6 0.000000 0.000000 0.000000 -0.004937 0.000000 0.135052
#
#
# Mechanical properties :
#
#
# Convention : Reuss Voigt Hill
#
# Bulk Modulus (GPa) = 24.40007 37.93711 31.16859
# Shear Modulus (GPa) = 14.31883 21.74816 18.03349
#
# Velocity S-wave (km/s) = 2.63656 3.24934 2.95885
# Velocity P-wave (km/s) = 4.59502 5.70045 5.17732
#
# Compressibility (1/GPa) = 0.04098349
#
# Stress axis : x y z
#
# Youngs Moduli (GPa) = 38.08282 113.71399 62.84283
#
# Poissons Ratio (x) = 0.18425 0.09557
# Poissons Ratio (y) = 0.06171 0.11625
# Poissons Ratio (z) = 0.05791 0.21035
#
# Static dielectric constant tensor:
#      x y z
#    x 1.747650 0.000000 0.010330 
#    y 0.000000 1.744600 0.000000 
#    z 0.010330 0.000000 1.745590 
# 
# From -- ./inp_files/47622.got.cif
#   From: 2010.05.17/outbox.cif.g08.bks.cpg/sg11_24_cif.got.tgz:47622.got - 2010.06.03 12:22:45.
