data_PCOD9164926
_publ_section_title
;
Structure prediction by ZEFSAII (Michael W. Deem and Ramdas Pophale) SiO2 
 PCOD9164926
Probable space group: P 21/M
;
_chemical_formula_sum "Si O2"
_cell_formula_units_Z 28
_cell_length_a 8.661202
_cell_length_b 14.915772
_cell_length_c 12.374095
_cell_angle_alpha 90.000000
_cell_angle_beta 113.411438
_cell_angle_gamma 90.000000
_cell_volume 1466.987467
_symmetry_space_group_name_H-M "P 21/M"
_symmetry_group_IT_number 11
_symmetry_cell_setting 'monoclinic'
loop_
_space_group_symop_operation_xyz
x,y,z
-x,1/2+y,-z
-x,-y,-z
x,1/2-y,z
loop_
_atom_site_type_symbol
_atom_site_label
_atom_site_fract_x
_atom_site_fract_y
_atom_site_fract_z
Si Si1 0.607709 0.428542 0.603079
Si Si2 0.035089 0.997706 0.215861
Si Si3 0.247436 0.144858 0.921025
Si Si4 0.758042 0.646229 0.835418
Si Si5 0.147577 0.507719 0.625656
Si Si6 0.391490 0.143397 0.737998
Si Si7 0.412706 0.848188 0.617809
O O1 0.500000 0.500000 0.500000
O O2 0.796713 0.459067 0.680696
O O3 0.527015 0.401409 0.695639
O O4 0.603670 0.348416 0.516026
O O5 0.915540 0.918932 0.137283
O O6 0.099885 0.073267 0.151651
O O7 0.924645 0.040141 0.280572
O O8 0.200359 0.250000 0.893259
O O9 0.386954 0.125902 0.866674
O O10 0.307789 0.133733 0.060678
O O11 0.815850 0.750000 0.841842
O O12 0.602985 0.633510 0.709947
O O13 0.221252 0.407581 0.657450
O O14 0.291044 0.575122 0.627450
O O15 0.000000 0.500000 0.500000
O O16 0.391728 0.250000 0.721464
O O17 0.367129 0.750000 0.648219
#
# Coordination Sequence:
#
# PCOD9164926 Si02
#       7
#     4   4   4   4   4   4   4
#     4  12  20  38  59  86 122 149 192 244 289 350
#     4  11  21  36  63  86 120 153 194 241 300 340
#     4   9  21  40  60  86 119 155 201 247 289 339
#     4  10  21  40  61  85 119 158 199 242 289 349
#     4  11  21  38  54  83 121 149 185 241 285 352
#     4  10  21  37  59  84 111 154 196 237 290 338
#     4  11  23  38  60  86 117 158 194 236 297 352
#
# _framework density 19.086732999999999
#
# number of rings (size 3 to 8) (size 9 to 14) (size 15 to 20)
#    0.000    1.429    4.286    0.857    0.000    2.286 
#    0.000    7.857    0.000    3.429    0.000    0.000 
#    0.000    0.000    0.000    0.000    0.000    0.000 
#
# Total GULP energy -156001.193179 kJ/mol
# GULP energy per Si atom -5571.471185 kJ/mol
# Density = 1.904329 g / cm^3
# Si number density = 19.086733 Si / 1000 Ang^3
#
#
#
# Elastic Constant Matrix: (Units=GPa)
#
#
# Indices 1 2 3 4 5 6 
#
# 1 84.6387 30.8848 26.2473 0.0000 -30.2011 0.0000
# 2 30.8848 77.9101 15.8871 0.0000 -15.7077 0.0000
# 3 26.2473 15.8871 70.4265 0.0000 -22.3244 0.0000
# 4 0.0000 0.0000 0.0000 25.6097 0.0000 -7.7707
# 5 -30.2011 -15.7077 -22.3244 0.0000 33.1336 0.0000
# 6 0.0000 0.0000 0.0000 -7.7707 0.0000 27.2231
#
#
#
# Elastic Compliance Matrix: (Units=1/GPa)
#
#
# Indices 1 2 3 4 5 6 
#
# 1 0.018932 -0.004331 -0.001602 0.000000 0.014124 0.000000
# 2 -0.004331 0.015285 -0.001003 0.000000 0.002624 0.000000
# 3 -0.001602 -0.001003 0.018322 0.000000 0.010410 0.000000
# 4 0.000000 0.000000 0.000000 0.042750 0.000000 0.012203
# 5 0.014124 0.002624 0.010410 0.000000 0.051312 0.000000
# 6 0.000000 0.000000 0.000000 0.012203 0.000000 0.040217
#
#
# Mechanical properties :
#
#
# Convention : Reuss Voigt Hill
#
# Bulk Modulus (GPa) = 25.86017 42.11266 33.98641
# Shear Modulus (GPa) = 23.41068 27.85701 25.63384
#
# Velocity S-wave (km/s) = 3.50600 3.82448 3.66870
# Velocity P-wave (km/s) = 5.47426 6.45089 5.98254
#
# Compressibility (1/GPa) = 0.03866951
#
# Stress axis : x y z
#
# Youngs Moduli (GPa) = 52.82176 65.42184 54.57908
#
# Poissons Ratio (x) = 0.28332 0.08741
# Poissons Ratio (y) = 0.22875 0.05472
# Poissons Ratio (z) = 0.08460 0.06559
#
# Static dielectric constant tensor:
#      x y z
#    x 1.665020 0.000000 -0.056180 
#    y 0.000000 1.712570 0.000000 
#    z -0.056180 0.000000 1.684370 
# 
# From -- ./inp_files/31657.got.cif
#   From: 2010.05.17/outbox.cif.g08.bks.cpg/sg11_16_cif.got.tgz:31657.got - 2010.06.03 12:22:45.
