data_PCOD9164660
_publ_section_title
;
Structure prediction by ZEFSAII (Michael W. Deem and Ramdas Pophale) SiO2 
 PCOD9164660
Probable space group: P 21/M
;
_chemical_formula_sum "Si O2"
_cell_formula_units_Z 28
_cell_length_a 21.343206
_cell_length_b 8.467537
_cell_length_c 15.967094
_cell_angle_alpha 90.000000
_cell_angle_beta 151.280907
_cell_angle_gamma 90.000000
_cell_volume 1386.597089
_symmetry_space_group_name_H-M "P 21/M"
_symmetry_group_IT_number 11
_symmetry_cell_setting 'monoclinic'
loop_
_space_group_symop_operation_xyz
x,y,z
-x,1/2+y,-z
-x,-y,-z
x,1/2-y,z
loop_
_atom_site_type_symbol
_atom_site_label
_atom_site_fract_x
_atom_site_fract_y
_atom_site_fract_z
Si Si1 0.846887 0.559820 0.909590
Si Si2 0.320997 0.559092 0.628607
Si Si3 0.571357 0.438450 0.842860
Si Si4 0.581436 0.560861 0.674282
Si Si5 0.856950 0.440943 0.735670
Si Si6 0.149364 0.559293 0.765979
Si Si7 0.870445 0.059736 0.450911
O O1 0.847377 0.750000 0.910112
O O2 0.731069 0.507275 0.834453
O O3 0.818226 0.503024 0.781644
O O4 0.993097 0.506926 0.103545
O O5 0.324580 0.750000 0.633220
O O6 0.466418 0.497012 0.787092
O O7 0.237155 0.507846 0.449136
O O8 0.242307 0.505669 0.618385
O O9 0.572349 0.250000 0.844337
O O10 0.532223 0.498297 0.705162
O O11 0.717733 0.495479 0.034833
O O12 0.500000 0.500000 0.500000
O O13 0.576321 0.750000 0.669410
O O14 0.855117 0.250000 0.736117
O O15 0.145996 0.750000 0.764016
O O16 0.151811 0.508468 0.671095
O O17 0.014550 0.496437 0.645948
O O18 0.870695 0.250000 0.452325
#
# Coordination Sequence:
#
# PCOD9164660 Si02
#       7
#     4   4   4   4   4   4   4
#     4   9  19  34  52  75 102 139 182 228 278 331
#     4  10  21  36  57  84 112 147 191 240 290 342
#     4  11  24  39  56  82 120 157 194 238 286 344
#     4  11  23  38  58  81 112 151 196 240 287 341
#     4   9  18  33  52  76 107 137 177 229 279 331
#     4   9  20  39  59  86 119 151 190 238 291 347
#     4   9  19  37  63  88 114 149 191 241 294 348
#
# _framework density 20.19332
#
# number of rings (size 3 to 8) (size 9 to 14) (size 15 to 20)
#    0.000    2.286    0.000    1.714    2.000    6.286 
#    0.000    0.000    0.000    0.000    0.000    0.000 
#    0.000    0.000    0.000    0.000    0.000    0.000 
#
# Total GULP energy -156376.782124 kJ/mol
# GULP energy per Si atom -5584.885076 kJ/mol
# Density = 2.014736 g / cm^3
# Si number density = 20.193320 Si / 1000 Ang^3
#
#
#
# Elastic Constant Matrix: (Units=GPa)
#
#
# Indices 1 2 3 4 5 6 
#
# 1 121.0650 15.1412 28.9889 0.0000 26.2063 0.0000
# 2 15.1412 9.4068 10.6717 0.0000 5.1413 0.0000
# 3 28.9889 10.6717 73.7031 0.0000 7.0629 0.0000
# 4 0.0000 0.0000 0.0000 23.7445 0.0000 4.9043
# 5 26.2063 5.1413 7.0629 0.0000 23.2848 0.0000
# 6 0.0000 0.0000 0.0000 4.9043 0.0000 24.9733
#
#
#
# Elastic Compliance Matrix: (Units=1/GPa)
#
#
# Indices 1 2 3 4 5 6 
#
# 1 0.012639 -0.011865 -0.002205 0.000000 -0.010936 0.000000
# 2 -0.011865 0.151761 -0.015836 0.000000 -0.015352 0.000000
# 3 -0.002205 -0.015836 0.016639 0.000000 0.000932 0.000000
# 4 0.000000 0.000000 0.000000 0.043895 0.000000 -0.008620
# 5 -0.010936 -0.015352 0.000932 0.000000 0.058362 0.000000
# 6 0.000000 0.000000 0.000000 -0.008620 0.000000 0.041736
#
#
# Mechanical properties :
#
#
# Convention : Reuss Voigt Hill
#
# Bulk Modulus (GPa) = 8.24903 34.86427 21.55665
# Shear Modulus (GPa) = 11.75766 24.35873 18.05820
#
# Velocity S-wave (km/s) = 2.41561 3.47692 2.99367
# Velocity P-wave (km/s) = 3.44589 5.78112 4.75896
#
# Compressibility (1/GPa) = 0.12122635
#
# Stress axis : x y z
#
# Youngs Moduli (GPa) = 79.11782 6.58931 60.09967
#
# Poissons Ratio (x) = 0.07818 0.13254
# Poissons Ratio (y) = 0.93875 0.95174
# Poissons Ratio (z) = 0.17448 0.10435
#
# Static dielectric constant tensor:
#      x y z
#    x 1.713870 0.000000 0.018390 
#    y 0.000000 1.687910 0.000000 
#    z 0.018390 0.000000 1.723320 
# 
# From -- ./inp_files/54400.got.cif
#   From: 2010.05.17/outbox.cif.g08.bks.cpg/sg11_28_cif.got.tgz:54400.got - 2010.06.03 12:22:45.
