data_PCOD9164582
_publ_section_title
;
Structure prediction by ZEFSAII (Michael W. Deem and Ramdas Pophale) SiO2 
 PCOD9164582
Probable space group: P 21/M
;
_chemical_formula_sum "Si O2"
_cell_formula_units_Z 28
_cell_length_a 17.956364
_cell_length_b 8.752449
_cell_length_c 14.148950
_cell_angle_alpha 90.000000
_cell_angle_beta 135.742214
_cell_angle_gamma 90.000000
_cell_volume 1551.878810
_symmetry_space_group_name_H-M "P 21/M"
_symmetry_group_IT_number 11
_symmetry_cell_setting 'monoclinic'
loop_
_space_group_symop_operation_xyz
x,y,z
-x,1/2+y,-z
-x,-y,-z
x,1/2-y,z
loop_
_atom_site_type_symbol
_atom_site_label
_atom_site_fract_x
_atom_site_fract_y
_atom_site_fract_z
Si Si1 0.377072 0.567143 0.633649
Si Si2 0.834964 0.065551 0.671315
Si Si3 0.739645 0.432919 0.100798
Si Si4 0.197711 0.563985 0.144049
Si Si5 0.401538 0.933054 0.213491
Si Si6 0.940585 0.434220 0.160775
Si Si7 0.392677 0.068636 0.856851
O O1 0.377575 0.750000 0.641455
O O2 0.271423 0.519258 0.480994
O O3 0.485009 0.513449 0.680288
O O4 0.377762 0.496569 0.738705
O O5 0.838840 0.250000 0.675462
O O6 0.827918 0.012036 0.773925
O O7 0.942860 0.003020 0.723720
O O8 0.737830 0.250000 0.115420
O O9 0.855230 0.475565 0.164207
O O10 0.702652 0.518920 0.160354
O O11 0.655306 0.463862 0.939368
O O12 0.197131 0.750000 0.142997
O O13 0.315081 0.518911 0.213541
O O14 0.112230 0.515445 0.987162
O O15 0.415793 0.750000 0.232674
O O16 0.946541 0.250000 0.164720
O O17 0.402846 0.250000 0.861900
O O18 0.500000 0.000000 0.000000
#
# Coordination Sequence:
#
# PCOD9164582 Si02
#       7
#     4   4   4   4   4   4   4
#     4  11  23  36  51  77 113 148 182 222 269 320
#     4  10  21  36  53  76 112 151 184 224 268 314
#     4   9  18  34  56  83 110 137 174 224 274 317
#     4   8  16  33  56  81 108 142 182 225 274 317
#     4   9  17  32  55  79 106 142 179 220 274 325
#     4   9  18  34  58  83 108 141 182 224 268 320
#     4  12  23  36  58  84 108 138 176 221 270 325
#
# _framework density 18.042646000000001
#
# number of rings (size 3 to 8) (size 9 to 14) (size 15 to 20)
#    0.000    2.286    1.429    3.857    0.000    2.286 
#    0.000    3.571    0.000    0.000    0.000    0.000 
#    0.000    0.000    0.000    0.000    0.000    0.000 
#
# Total GULP energy -156285.184727 kJ/mol
# GULP energy per Si atom -5581.613740 kJ/mol
# Density = 1.800158 g / cm^3
# Si number density = 18.042646 Si / 1000 Ang^3
#
#
#
# Elastic Constant Matrix: (Units=GPa)
#
#
# Indices 1 2 3 4 5 6 
#
# 1 79.6940 15.9101 32.8361 0.0000 28.2060 0.0000
# 2 15.9101 25.3358 17.7489 0.0000 11.2524 0.0000
# 3 32.8361 17.7489 63.4683 0.0000 33.6159 0.0000
# 4 0.0000 0.0000 0.0000 19.9376 0.0000 4.1921
# 5 28.2060 11.2524 33.6159 0.0000 29.5497 0.0000
# 6 0.0000 0.0000 0.0000 4.1921 0.0000 27.5702
#
#
#
# Elastic Compliance Matrix: (Units=1/GPa)
#
#
# Indices 1 2 3 4 5 6 
#
# 1 0.019420 -0.004857 0.000376 0.000000 -0.017116 0.000000
# 2 -0.004857 0.051015 -0.009862 0.000000 -0.003570 0.000000
# 3 0.000376 -0.009862 0.041564 0.000000 -0.043887 0.000000
# 4 0.000000 0.000000 0.000000 0.051813 0.000000 -0.007878
# 5 -0.017116 -0.003570 -0.043887 0.000000 0.101464 0.000000
# 6 0.000000 0.000000 0.000000 -0.007878 0.000000 0.037469
#
#
# Mechanical properties :
#
#
# Convention : Reuss Voigt Hill
#
# Bulk Modulus (GPa) = 12.00299 33.49870 22.75084
# Shear Modulus (GPa) = 13.91972 22.21171 18.06571
#
# Velocity S-wave (km/s) = 2.78058 3.51246 3.16773
# Velocity P-wave (km/s) = 4.12018 5.92086 5.10061
#
# Compressibility (1/GPa) = 0.08331260
#
# Stress axis : x y z
#
# Youngs Moduli (GPa) = 51.49211 19.60214 24.05937
#
# Poissons Ratio (x) = 0.09522 -0.00905
# Poissons Ratio (y) = 0.25012 0.23728
# Poissons Ratio (z) = -0.01938 0.19332
#
# Static dielectric constant tensor:
#      x y z
#    x 1.621440 0.000000 0.001760 
#    y 0.000000 1.605810 0.000000 
#    z 0.001760 0.000000 1.597910 
# 
# From -- ./inp_files/44672.got.cif
#   From: 2010.05.17/outbox.cif.g08.bks.cpg/sg11_23_cif.got.tgz:44672.got - 2010.06.03 12:22:45.
