data_PCOD9164424
_publ_section_title
;
Structure prediction by ZEFSAII (Michael W. Deem and Ramdas Pophale) SiO2 
 PCOD9164424
Probable space group: P 21/M
;
_chemical_formula_sum "Si O2"
_cell_formula_units_Z 32
_cell_length_a 12.365504
_cell_length_b 7.521177
_cell_length_c 15.547357
_cell_angle_alpha 90.000000
_cell_angle_beta 104.787765
_cell_angle_gamma 90.000000
_cell_volume 1398.060105
_symmetry_space_group_name_H-M "P 21/M"
_symmetry_group_IT_number 11
_symmetry_cell_setting 'monoclinic'
loop_
_space_group_symop_operation_xyz
x,y,z
-x,1/2+y,-z
-x,-y,-z
x,1/2-y,z
loop_
_atom_site_type_symbol
_atom_site_label
_atom_site_fract_x
_atom_site_fract_y
_atom_site_fract_z
Si Si1 0.934062 0.547679 0.850569
Si Si2 0.841268 0.967100 0.009805
Si Si3 0.591191 0.461081 0.592582
Si Si4 0.489431 0.959381 0.756542
Si Si5 0.403705 0.462520 0.048199
Si Si6 0.806183 0.464397 0.536410
Si Si7 0.241902 0.531859 0.668450
Si Si8 0.991482 0.039623 0.310162
O O1 0.892766 0.750000 0.832113
O O2 0.863822 0.473306 0.915814
O O3 0.942810 0.462215 0.758715
O O4 0.061154 0.544052 0.911674
O O5 0.852844 0.750000 0.015539
O O6 0.717151 0.025518 0.008082
O O7 0.500000 0.500000 0.500000
O O8 0.600302 0.250000 0.601679
O O9 0.549584 0.525390 0.676695
O O10 0.710686 0.530140 0.582970
O O11 0.476546 0.750000 0.771095
O O12 0.559900 0.032907 0.850772
O O13 0.362861 0.031099 0.724721
O O14 0.390294 0.250000 0.053285
O O15 0.500000 0.500000 0.000000
O O16 0.802638 0.250000 0.535501
O O17 0.775810 0.522582 0.434189
O O18 0.928973 0.518281 0.591788
O O19 0.242176 0.750000 0.669455
O O20 0.133322 0.470706 0.699320
O O21 0.979284 0.250000 0.290801
#
# Coordination Sequence:
#
# PCOD9164424 Si02
#       8
#     4   4   4   4   4   4   4   4
#     4   9  19  35  57  83 107 141 187 231 277 334
#     4   9  19  37  55  79 114 144 179 229 285 337
#     4  11  22  38  60  87 118 155 196 240 286 343
#     4  10  21  39  62  85 115 156 193 236 294 345
#     4  10  23  39  61  87 117 154 190 238 295 350
#     4  10  21  37  55  79 116 151 182 228 284 332
#     4   9  18  36  56  79 113 147 184 228 277 335
#     4  10  21  34  57  85 108 142 191 234 271 332
#
# _framework density 22.888857999999999
#
# number of rings (size 3 to 8) (size 9 to 14) (size 15 to 20)
#    0.000    2.250    1.250    0.750    3.500    2.500 
#    0.000    0.625    0.000    0.000    0.000    0.000 
#    0.000    0.000    0.000    0.000    0.000    0.000 
#
# Total GULP energy -178768.415647 kJ/mol
# GULP energy per Si atom -5586.512989 kJ/mol
# Density = 2.283676 g / cm^3
# Si number density = 22.888858 Si / 1000 Ang^3
#
#
#
# Elastic Constant Matrix: (Units=GPa)
#
#
# Indices 1 2 3 4 5 6 
#
# 1 64.1641 -7.4296 -24.6296 0.0000 -11.3954 0.0000
# 2 -7.4296 58.7852 -10.2514 0.0000 2.6309 0.0000
# 3 -24.6296 -10.2514 42.9028 0.0000 -4.7244 0.0000
# 4 0.0000 0.0000 0.0000 12.9503 0.0000 1.1943
# 5 -11.3954 2.6309 -4.7244 0.0000 15.3053 0.0000
# 6 0.0000 0.0000 0.0000 1.1943 0.0000 14.5172
#
#
#
# Elastic Compliance Matrix: (Units=1/GPa)
#
#
# Indices 1 2 3 4 5 6 
#
# 1 0.029368 0.006211 0.021360 0.000000 0.027391 0.000000
# 2 0.006211 0.019112 0.008571 0.000000 0.003984 0.000000
# 3 0.021360 0.008571 0.040587 0.000000 0.026958 0.000000
# 4 0.000000 0.000000 0.000000 0.077809 0.000000 -0.006401
# 5 0.027391 0.003984 0.026958 0.000000 0.093367 0.000000
# 6 0.000000 0.000000 0.000000 -0.006401 0.000000 0.069410
#
#
# Mechanical properties :
#
#
# Convention : Reuss Voigt Hill
#
# Bulk Modulus (GPa) = 6.19771 9.02566 7.61169
# Shear Modulus (GPa) = 16.06919 22.43207 19.25063
#
# Velocity S-wave (km/s) = 2.65250 3.13396 2.90323
# Velocity P-wave (km/s) = 3.47774 4.12885 3.81720
#
# Compressibility (1/GPa) = 0.16134984
#
# Stress axis : x y z
#
# Youngs Moduli (GPa) = 34.05091 52.32218 24.63831
#
# Poissons Ratio (x) = -0.32495 -0.52627
# Poissons Ratio (y) = -0.21148 -0.21117
# Poissons Ratio (z) = -0.72732 -0.44845
#
# Static dielectric constant tensor:
#      x y z
#    x 1.893620 0.000000 0.009850 
#    y 0.000000 1.903010 0.000000 
#    z 0.009850 0.000000 1.840690 
# 
# From -- ./inp_files/49407.got.cif
#   From: 2010.05.17/outbox.cif.g08.bks.cpg/sg11_25_cif.got.tgz:49407.got - 2010.06.03 12:22:45.
