data_PCOD9164248
_publ_section_title
;
Structure prediction by ZEFSAII (Michael W. Deem and Ramdas Pophale) SiO2 
 PCOD9164248
Probable space group: P 21/M
;
_chemical_formula_sum "Si O2"
_cell_formula_units_Z 24
_cell_length_a 14.037417
_cell_length_b 8.648878
_cell_length_c 10.326977
_cell_angle_alpha 90.000000
_cell_angle_beta 90.076525
_cell_angle_gamma 90.000000
_cell_volume 1253.775546
_symmetry_space_group_name_H-M "P 21/M"
_symmetry_group_IT_number 11
_symmetry_cell_setting 'monoclinic'
loop_
_space_group_symop_operation_xyz
x,y,z
-x,1/2+y,-z
-x,-y,-z
x,1/2-y,z
loop_
_atom_site_type_symbol
_atom_site_label
_atom_site_fract_x
_atom_site_fract_y
_atom_site_fract_z
Si Si1 0.074608 0.436741 0.397072
Si Si2 0.711094 0.936272 0.530656
Si Si3 0.924589 0.564581 0.897862
Si Si4 0.638582 0.436371 0.258982
Si Si5 0.278196 0.564568 0.013597
Si Si6 0.418707 0.437117 0.225980
O O1 0.072375 0.250000 0.400474
O O2 0.181969 0.486620 0.433156
O O3 0.053035 0.485303 0.249504
O O4 0.000000 0.500000 0.500000
O O5 0.710670 0.750000 0.526697
O O6 0.638587 0.983049 0.644469
O O7 0.678616 0.998569 0.392464
O O8 0.926460 0.750000 0.901126
O O9 0.819125 0.508235 0.934489
O O10 0.000000 0.500000 0.000000
O O11 0.639955 0.250000 0.265899
O O12 0.528751 0.483595 0.237265
O O13 0.699814 0.483184 0.133927
O O14 0.270857 0.750000 0.017900
O O15 0.364820 0.510287 0.104386
O O16 0.414188 0.250000 0.214607
#
# Coordination Sequence:
#
# PCOD9164248 Si02
#       6
#     4   4   4   4   4   4
#     4  10  23  42  63  89 119 154 196 246 298 354
#     4  10  21  39  61  87 119 157 201 244 299 358
#     4  11  24  44  66  90 121 156 197 246 299 355
#     4  10  23  38  58  90 124 159 200 247 296 349
#     4  11  23  39  60  91 124 157 201 245 295 357
#     4  10  20  40  63  85 120 161 201 249 300 348
#
# _framework density 19.142182999999999
#
# number of rings (size 3 to 8) (size 9 to 14) (size 15 to 20)
#    0.000    1.667    1.667    2.000    2.333    4.667 
#    0.000    0.000    0.000    0.000    0.000    0.000 
#    0.000    0.000    0.000    0.000    0.000    0.000 
#
# Total GULP energy -134151.409148 kJ/mol
# GULP energy per Si atom -5589.642048 kJ/mol
# Density = 1.909861 g / cm^3
# Si number density = 19.142183 Si / 1000 Ang^3
#
#
#
# Elastic Constant Matrix: (Units=GPa)
#
#
# Indices 1 2 3 4 5 6 
#
# 1 84.7686 19.7841 29.3279 0.0000 -0.7143 0.0000
# 2 19.7841 21.2759 26.5298 0.0000 -0.1563 0.0000
# 3 29.3279 26.5298 104.7241 0.0000 0.3741 0.0000
# 4 0.0000 0.0000 0.0000 33.8372 0.0000 5.4516
# 5 -0.7143 -0.1563 0.3741 0.0000 42.9666 0.0000
# 6 0.0000 0.0000 0.0000 5.4516 0.0000 29.9833
#
#
#
# Elastic Compliance Matrix: (Units=1/GPa)
#
#
# Indices 1 2 3 4 5 6 
#
# 1 0.015138 -0.012845 -0.000986 0.000000 0.000213 0.000000
# 2 -0.012845 0.079611 -0.016571 0.000000 0.000220 0.000000
# 3 -0.000986 -0.016571 0.014024 0.000000 -0.000199 0.000000
# 4 0.000000 0.000000 0.000000 0.030445 0.000000 -0.005536
# 5 0.000213 0.000220 -0.000199 0.000000 0.023280 0.000000
# 6 0.000000 0.000000 0.000000 -0.005536 0.000000 0.034358
#
#
# Mechanical properties :
#
#
# Convention : Reuss Voigt Hill
#
# Bulk Modulus (GPa) = 20.84748 40.22802 30.53775
# Shear Modulus (GPa) = 18.27147 30.36587 24.31867
#
# Velocity S-wave (km/s) = 3.09287 3.98720 3.56817
# Velocity P-wave (km/s) = 4.86508 6.50062 5.74138
#
# Compressibility (1/GPa) = 0.04796743
#
# Stress axis : x y z
#
# Youngs Moduli (GPa) = 66.06031 12.56103 71.30751
#
# Poissons Ratio (x) = 0.16135 0.07031
# Poissons Ratio (y) = 0.84856 1.18167
# Poissons Ratio (z) = 0.06513 0.20815
#
# Static dielectric constant tensor:
#      x y z
#    x 1.639140 0.000000 -0.008590 
#    y 0.000000 1.648720 0.000000 
#    z -0.008590 0.000000 1.639580 
# 
# From -- ./inp_files/20486.got.cif
#   From: 2010.05.17/outbox.cif.g08.bks.cpg/sg11_11_cif.got.tgz:20486.got - 2010.06.03 12:22:45.
