data_PCOD9164138
_publ_section_title
;
Structure prediction by ZEFSAII (Michael W. Deem and Ramdas Pophale) SiO2 
 PCOD9164138
Probable space group: P 21/M
;
_chemical_formula_sum "Si O2"
_cell_formula_units_Z 28
_cell_length_a 14.409735
_cell_length_b 8.510775
_cell_length_c 18.145409
_cell_angle_alpha 90.000000
_cell_angle_beta 137.010538
_cell_angle_gamma 90.000000
_cell_volume 1517.363113
_symmetry_space_group_name_H-M "P 21/M"
_symmetry_group_IT_number 11
_symmetry_cell_setting 'monoclinic'
loop_
_space_group_symop_operation_xyz
x,y,z
-x,1/2+y,-z
-x,-y,-z
x,1/2-y,z
loop_
_atom_site_type_symbol
_atom_site_label
_atom_site_fract_x
_atom_site_fract_y
_atom_site_fract_z
Si Si1 0.629199 0.062668 0.929767
Si Si2 0.182539 0.065270 0.833066
Si Si3 0.418917 0.559574 0.260803
Si Si4 0.644339 0.060368 0.614257
Si Si5 0.328413 0.565375 0.774907
Si Si6 0.268930 0.060406 0.585894
Si Si7 0.116402 0.061477 0.350961
O O1 0.649816 0.250000 0.945744
O O2 0.645249 0.008835 0.854058
O O3 0.472483 0.025312 0.858983
O O4 0.729357 0.979965 0.044488
O O5 0.192641 0.250000 0.825334
O O6 0.244475 0.976133 0.798638
O O7 0.026654 0.015074 0.751888
O O8 0.417786 0.750000 0.259514
O O9 0.349590 0.509881 0.296367
O O10 0.578521 0.514075 0.351981
O O11 0.646942 0.250000 0.612225
O O12 0.500000 0.000000 0.500000
O O13 0.765507 0.991376 0.636087
O O14 0.356893 0.750000 0.788787
O O15 0.250387 0.514191 0.655242
O O16 0.267405 0.250000 0.592375
O O17 0.163807 0.015410 0.461179
O O18 0.104758 0.250000 0.342482
#
# Coordination Sequence:
#
# PCOD9164138 Si02
#       7
#     4   4   4   4   4   4   4
#     4  10  20  39  63  86 114 152 194 240 286 335
#     4  12  25  41  58  82 115 154 195 240 290 346
#     4   8  16  33  58  86 115 147 186 235 285 330
#     4  11  20  35  59  90 120 153 191 235 286 343
#     4  11  22  37  60  89 116 149 193 239 286 342
#     4   9  18  36  58  83 116 152 190 237 287 339
#     4  11  23  40  59  84 118 156 194 238 291 347
#
# _framework density 18.453064999999999
#
# number of rings (size 3 to 8) (size 9 to 14) (size 15 to 20)
#    0.000    1.714    1.429    5.143    0.000    1.714 
#    0.000    2.857    0.000    0.000    0.000    0.000 
#    0.000    0.000    0.000    0.000    0.000    0.000 
#
# Total GULP energy -156407.590895 kJ/mol
# GULP energy per Si atom -5585.985389 kJ/mol
# Density = 1.841106 g / cm^3
# Si number density = 18.453065 Si / 1000 Ang^3
#
#
#
# Elastic Constant Matrix: (Units=GPa)
#
#
# Indices 1 2 3 4 5 6 
#
# 1 51.2708 -11.9242 111.5006 0.0000 -23.3721 0.0000
# 2 -11.9242 30.0721 -5.7308 0.0000 -4.2464 0.0000
# 3 111.5006 -5.7308 -160.0663 0.0000 20.3278 0.0000
# 4 0.0000 0.0000 0.0000 23.9059 0.0000 -5.6690
# 5 -23.3721 -4.2464 20.3278 0.0000 19.3818 0.0000
# 6 0.0000 0.0000 0.0000 -5.6690 0.0000 24.3137
#
#
#
# Elastic Compliance Matrix: (Units=1/GPa)
#
#
# Indices 1 2 3 4 5 6 
#
# 1 0.008775 0.005419 0.006542 0.000000 0.004908 0.000000
# 2 0.005419 0.037651 0.003798 0.000000 0.010800 0.000000
# 3 0.006542 0.003798 -0.000634 0.000000 0.009386 0.000000
# 4 0.000000 0.000000 0.000000 0.044279 0.000000 0.010324
# 5 0.004908 0.010800 0.009386 0.000000 0.050035 0.000000
# 6 0.000000 0.000000 0.000000 0.010324 0.000000 0.043536
#
#
# Mechanical properties :
#
#
# Convention : Reuss Voigt Hill
#
# Bulk Modulus (GPa) = 12.93481 12.10756 12.52118
# Shear Modulus (GPa) = 28.10678 2.01567 15.06122
#
# Velocity S-wave (km/s) = 3.90699 1.04628 2.86000
# Velocity P-wave (km/s) = 5.23236 2.83463 4.20789
#
# Compressibility (1/GPa) = 0.07731075
#
# Stress axis : x y z
#
# Youngs Moduli (GPa) = 113.95957 26.55965 -1576.32045
#
# Poissons Ratio (x) = -0.14393 10.31207
# Poissons Ratio (y) = -0.61756 5.98764
# Poissons Ratio (z) = -0.74551 -0.10089
#
# Static dielectric constant tensor:
#      x y z
#    x 1.616020 0.000000 -0.025660 
#    y 0.000000 1.623560 0.000000 
#    z -0.025660 0.000000 1.622780 
# 
# From -- ./inp_files/60120.got.cif
#   From: 2010.05.17/outbox.cif.g08.bks.cpg/sg11_31_cif.got.tgz:60120.got - 2010.06.03 12:22:45.
