data_PCOD9164333
_publ_section_title
;
Structure prediction by ZEFSAII (Michael W. Deem and Ramdas Pophale) SiO2 
 PCOD9164333
Probable space group: P 21/M
;
_chemical_formula_sum "Si O2"
_cell_formula_units_Z 26
_cell_length_a 5.303849
_cell_length_b 14.355761
_cell_length_c 16.712336
_cell_angle_alpha 90.000000
_cell_angle_beta 62.638244
_cell_angle_gamma 90.000000
_cell_volume 1130.127219
_symmetry_space_group_name_H-M "P 21/M"
_symmetry_group_IT_number 11
_symmetry_cell_setting 'monoclinic'
loop_
_space_group_symop_operation_xyz
x,y,z
-x,1/2+y,-z
-x,-y,-z
x,1/2-y,z
loop_
_atom_site_type_symbol
_atom_site_label
_atom_site_fract_x
_atom_site_fract_y
_atom_site_fract_z
Si Si1 0.553450 0.391462 0.976442
Si Si2 0.761847 0.437038 0.491034
Si Si3 0.873343 0.929298 0.182240
Si Si4 0.329675 0.899399 0.862146
Si Si5 0.082088 0.456829 0.294994
Si Si6 0.672353 0.148738 0.668596
Si Si7 0.910456 0.750000 0.935558
O O1 0.823104 0.384895 0.879627
O O2 0.500000 0.500000 0.000000
O O3 0.631703 0.356448 0.054601
O O4 0.284324 0.331371 0.992343
O O5 0.500000 0.500000 0.500000
O O6 0.660962 0.366447 0.574369
O O7 0.000000 0.500000 0.500000
O O8 0.911009 0.402205 0.387997
O O9 0.637085 0.859048 0.246372
O O10 0.775586 0.993404 0.121911
O O11 0.897649 0.009107 0.246992
O O12 0.634585 0.904944 0.775297
O O13 0.093095 0.831590 0.862438
O O14 0.171437 0.558018 0.318676
O O15 0.800361 0.250000 0.667539
#
# Coordination Sequence:
#
# PCOD9164333 Si02
#       7
#     4   4   4   4   4   4   2
#     4  12  24  43  64  93 132 179 229 282 348 408
#     4  10  20  41  69  95 132 183 224 272 347 420
#     4  11  22  40  66  92 127 180 219 277 344 414
#     4  11  23  43  66  89 131 178 231 281 339 412
#     4  10  21  41  67  93 131 179 226 273 346 415
#     4  10  23  40  64  98 136 170 219 286 346 417
#     4  12  26  40  64  94 130 174 236 296 334 412
#
# _framework density 23.006260999999999
#
# number of rings (size 3 to 8) (size 9 to 14) (size 15 to 20)
#    0.000    1.231    4.615    0.923    1.077    0.615 
#    4.154    0.000    0.000    0.000    0.000    0.000 
#    0.000    0.000    0.000    0.000    0.000    0.000 
#
# Total GULP energy -144737.922689 kJ/mol
# GULP energy per Si atom -5566.843180 kJ/mol
# Density = 2.295390 g / cm^3
# Si number density = 23.006261 Si / 1000 Ang^3
#
#
#
# Elastic Constant Matrix: (Units=GPa)
#
#
# Indices 1 2 3 4 5 6 
#
# 1 48.3613 1.5557 4.1537 0.0000 -7.8744 0.0000
# 2 1.5557 114.0515 21.5731 0.0000 -6.1003 0.0000
# 3 4.1537 21.5731 96.3177 0.0000 -2.0138 0.0000
# 4 0.0000 0.0000 0.0000 10.4271 0.0000 18.6865
# 5 -7.8744 -6.1003 -2.0138 0.0000 33.4560 0.0000
# 6 0.0000 0.0000 0.0000 18.6865 0.0000 -76.1462
#
#
#
# Elastic Compliance Matrix: (Units=1/GPa)
#
#
# Indices 1 2 3 4 5 6 
#
# 1 0.021569 0.000138 -0.000855 0.000000 0.005050 0.000000
# 2 0.000138 0.009238 -0.002042 0.000000 0.001594 0.000000
# 3 -0.000855 -0.002042 0.010878 0.000000 0.000081 0.000000
# 4 0.000000 0.000000 0.000000 0.066610 0.000000 0.016346
# 5 0.005050 0.001594 0.000081 0.000000 0.031374 0.000000
# 6 0.000000 0.000000 0.000000 0.016346 0.000000 -0.009121
#
#
# Mechanical properties :
#
#
# Convention : Reuss Voigt Hill
#
# Bulk Modulus (GPa) = 27.65022 34.81060 31.23041
# Shear Modulus (GPa) = 33.75609 8.97724 21.36666
#
# Velocity S-wave (km/s) = 3.83463 1.97751 3.05082
# Velocity P-wave (km/s) = 5.62588 4.51418 5.10041
#
# Compressibility (1/GPa) = 0.03616608
#
# Stress axis : x y z
#
# Youngs Moduli (GPa) = 46.36278 108.25420 91.92721
#
# Poissons Ratio (x) = -0.01491 0.07864
# Poissons Ratio (y) = -0.00639 0.18768
# Poissons Ratio (z) = 0.03966 0.22101
#
# Static dielectric constant tensor:
#      x y z
#    x 2.056750 0.000000 0.091570 
#    y 0.000000 1.936880 0.000000 
#    z 0.091570 0.000000 1.914290 
# 
# From -- ./inp_files/7845.got.cif
#   From: 2010.05.17/outbox.cif.g08.bks.cpg/sg11_4_cif.got.tgz:7845.got - 2010.06.03 12:22:45.
