data_PCOD9164152
_publ_section_title
;
Structure prediction by ZEFSAII (Michael W. Deem and Ramdas Pophale) SiO2 
 PCOD9164152
Probable space group: P 21/M
;
_chemical_formula_sum "Si O2"
_cell_formula_units_Z 32
_cell_length_a 24.089280
_cell_length_b 14.314906
_cell_length_c 9.182988
_cell_angle_alpha 90.000000
_cell_angle_beta 29.650617
_cell_angle_gamma 90.000000
_cell_volume 1566.559387
_symmetry_space_group_name_H-M "P 21/M"
_symmetry_group_IT_number 11
_symmetry_cell_setting 'monoclinic'
loop_
_space_group_symop_operation_xyz
x,y,z
-x,1/2+y,-z
-x,-y,-z
x,1/2-y,z
loop_
_atom_site_type_symbol
_atom_site_label
_atom_site_fract_x
_atom_site_fract_y
_atom_site_fract_z
Si Si1 0.173238 0.859641 0.930558
Si Si2 0.594759 0.356496 0.500148
Si Si3 0.535930 0.092852 0.332268
Si Si4 0.714562 0.646650 0.161410
Si Si5 0.880929 0.477339 0.694231
Si Si6 0.028147 0.483447 0.100579
Si Si7 0.417650 0.482884 0.049215
Si Si8 0.763725 0.642109 0.386778
O O1 0.162136 0.750000 0.922925
O O2 0.302568 0.893192 0.635095
O O3 0.148368 0.881893 0.156737
O O4 0.096444 0.927447 0.009941
O O5 0.584927 0.250000 0.562410
O O6 0.611057 0.361774 0.287977
O O7 0.483370 0.407310 0.802675
O O8 0.415499 0.141839 0.587119
O O9 0.500000 0.000000 0.500000
O O10 0.588779 0.068585 0.053373
O O11 0.760498 0.750000 0.015835
O O12 0.713919 0.639901 0.337545
O O13 0.790128 0.559891 0.930752
O O14 0.000000 0.500000 0.500000
O O15 0.914536 0.470284 0.450908
O O16 0.109912 0.394502 0.922806
O O17 0.000000 0.500000 0.000000
O O18 0.304080 0.433065 0.361842
O O19 0.500000 0.500000 0.000000
O O20 0.757882 0.750000 0.452866
#
# Coordination Sequence:
#
# PCOD9164152 Si02
#       8
#     4   4   4   4   4   4   4   4
#     4  10  21  40  65  88 120 164 211 256 314 388
#     4  10  21  38  58  87 125 162 205 253 299 374
#     4  10  21  35  60  90 126 168 208 256 310 375
#     4  11  21  38  64  96 128 163 215 266 312 377
#     4  10  20  39  63  90 116 163 213 259 323 376
#     4  11  25  43  63  90 126 161 209 272 330 383
#     4  11  20  36  60  90 126 169 204 248 317 380
#     4  11  23  39  62  92 126 164 208 263 321 378
#
# _framework density 20.426929000000001
#
# number of rings (size 3 to 8) (size 9 to 14) (size 15 to 20)
#    0.000    1.500    3.750    3.000    0.000    6.000 
#    0.000    2.500    0.000    3.750    0.000    0.000 
#    0.000    0.000    0.000    0.000    0.000    0.000 
#
# Total GULP energy -178233.561039 kJ/mol
# GULP energy per Si atom -5569.798782 kJ/mol
# Density = 2.038044 g / cm^3
# Si number density = 20.426929 Si / 1000 Ang^3
#
#
#
# Elastic Constant Matrix: (Units=GPa)
#
#
# Indices 1 2 3 4 5 6 
#
# 1 98.6704 19.5031 16.4132 0.0000 10.5360 0.0000
# 2 19.5031 78.5317 28.0335 0.0000 -0.3445 0.0000
# 3 16.4132 28.0335 81.9879 0.0000 14.1536 0.0000
# 4 0.0000 0.0000 0.0000 21.1414 0.0000 2.4644
# 5 10.5360 -0.3445 14.1536 0.0000 34.3593 0.0000
# 6 0.0000 0.0000 0.0000 2.4644 0.0000 9.2067
#
#
#
# Elastic Compliance Matrix: (Units=1/GPa)
#
#
# Indices 1 2 3 4 5 6 
#
# 1 0.011092 -0.002466 -0.000846 0.000000 -0.003077 0.000000
# 2 -0.002466 0.015232 -0.005244 0.000000 0.003069 0.000000
# 3 -0.000846 -0.005244 0.015205 0.000000 -0.006057 0.000000
# 4 0.000000 0.000000 0.000000 0.048824 0.000000 -0.013069
# 5 -0.003077 0.003069 -0.006057 0.000000 0.032574 0.000000
# 6 0.000000 0.000000 0.000000 -0.013069 0.000000 0.112115
#
#
# Mechanical properties :
#
#
# Convention : Reuss Voigt Hill
#
# Bulk Modulus (GPa) = 40.95735 43.00997 41.98366
# Shear Modulus (GPa) = 19.20922 25.95748 22.58335
#
# Velocity S-wave (km/s) = 3.06990 3.56862 3.32861
# Velocity P-wave (km/s) = 5.71488 6.17101 5.94732
#
# Compressibility (1/GPa) = 0.02441564
#
# Stress axis : x y z
#
# Youngs Moduli (GPa) = 90.15894 65.65289 65.76824
#
# Poissons Ratio (x) = 0.16190 0.05564
# Poissons Ratio (y) = 0.22234 0.34490
# Poissons Ratio (z) = 0.07627 0.34430
#
# Static dielectric constant tensor:
#      x y z
#    x 1.949430 0.000000 -0.114220 
#    y 0.000000 1.769530 0.000000 
#    z -0.114220 0.000000 1.869890 
# 
# From -- ./inp_files/27778.got.cif
#   From: 2010.05.17/outbox.cif.g08.bks.cpg/sg11_14_cif.got.tgz:27778.got - 2010.06.03 12:22:45.
