data_PCOD9164739
_publ_section_title
;
Structure prediction by ZEFSAII (Michael W. Deem and Ramdas Pophale) SiO2 
 PCOD9164739
Probable space group: P 21/M
;
_chemical_formula_sum "Si O2"
_cell_formula_units_Z 32
_cell_length_a 5.436192
_cell_length_b 19.400563
_cell_length_c 19.999725
_cell_angle_alpha 90.000000
_cell_angle_beta 51.794481
_cell_angle_gamma 90.000000
_cell_volume 1657.462413
_symmetry_space_group_name_H-M "P 21/M"
_symmetry_group_IT_number 11
_symmetry_cell_setting 'monoclinic'
loop_
_space_group_symop_operation_xyz
x,y,z
-x,1/2+y,-z
-x,-y,-z
x,1/2-y,z
loop_
_atom_site_type_symbol
_atom_site_label
_atom_site_fract_x
_atom_site_fract_y
_atom_site_fract_z
Si Si1 0.707854 0.670438 0.868646
Si Si2 0.591268 0.831716 0.536821
Si Si3 0.334502 0.668509 0.430390
Si Si4 0.246096 0.423878 0.736901
Si Si5 0.411174 0.919179 0.828759
Si Si6 0.290917 0.066717 0.018971
Si Si7 0.461415 0.933884 0.164346
Si Si8 0.296177 0.586554 0.707745
O O1 0.771809 0.750000 0.865352
O O2 0.427854 0.651746 0.865510
O O3 0.996563 0.630667 0.784057
O O4 0.618665 0.632534 0.952073
O O5 0.540389 0.750000 0.559706
O O6 0.449151 0.845454 0.487132
O O7 0.424090 0.878905 0.619919
O O8 0.965005 0.844319 0.479942
O O9 0.388009 0.750000 0.409298
O O10 0.537978 0.622698 0.346224
O O11 0.379621 0.419363 0.790579
O O12 0.264611 0.503835 0.709634
O O13 0.882080 0.402309 0.790425
O O14 0.519151 0.906303 0.735416
O O15 0.595677 0.983317 0.828044
O O16 0.059278 0.947240 0.896745
O O17 0.319100 0.081801 0.935828
O O18 0.500000 0.000000 0.000000
#
# Coordination Sequence:
#
# PCOD9164739 Si02
#       8
#     4   4   4   4   4   4   4   4
#     4  11  23  38  58  89 129 167 200 251 317 377
#     4  10  22  39  63  89 122 165 205 250 312 385
#     4  10  23  43  62  88 121 161 207 259 324 374
#     4  11  23  39  65  93 122 160 207 265 314 367
#     4  10  21  36  60  89 124 165 196 256 307 367
#     4  11  21  38  63  88 122 166 215 255 300 362
#     4  11  21  38  63  93 116 157 214 251 306 366
#     4  10  22  38  59  91 127 158 209 246 306 376
#
# _framework density 19.306622000000001
#
# number of rings (size 3 to 8) (size 9 to 14) (size 15 to 20)
#    0.000    1.500    2.500    3.000    3.500    3.500 
#    0.000    1.250    0.000    0.000    0.000    0.000 
#    0.000    0.000    0.000    0.000    0.000    0.000 
#
# Total GULP energy -178385.303348 kJ/mol
# GULP energy per Si atom -5574.540730 kJ/mol
# Density = 1.926268 g / cm^3
# Si number density = 19.306622 Si / 1000 Ang^3
#
#
#
# Elastic Constant Matrix: (Units=GPa)
#
#
# Indices 1 2 3 4 5 6 
#
# 1 96.3771 36.8531 53.1259 0.0000 5.5134 0.0000
# 2 36.8531 89.2801 62.9802 0.0000 10.5203 0.0000
# 3 53.1259 62.9802 132.1781 0.0000 26.3083 0.0000
# 4 0.0000 0.0000 0.0000 32.6020 0.0000 1.5588
# 5 5.5134 10.5203 26.3083 0.0000 24.7960 0.0000
# 6 0.0000 0.0000 0.0000 1.5588 0.0000 16.0908
#
#
#
# Elastic Compliance Matrix: (Units=1/GPa)
#
#
# Indices 1 2 3 4 5 6 
#
# 1 0.013955 -0.002603 -0.005034 0.000000 0.003342 0.000000
# 2 -0.002603 0.017416 -0.007475 0.000000 0.001121 0.000000
# 3 -0.005034 -0.007475 0.015588 0.000000 -0.012248 0.000000
# 4 0.000000 0.000000 0.000000 0.030816 0.000000 -0.002985
# 5 0.003342 0.001121 -0.012248 0.000000 0.052106 0.000000
# 6 0.000000 0.000000 0.000000 -0.002985 0.000000 0.062436
#
#
# Mechanical properties :
#
#
# Convention : Reuss Voigt Hill
#
# Bulk Modulus (GPa) = 59.75425 69.30598 64.53012
# Shear Modulus (GPa) = 21.91824 25.68952 23.80388
#
# Velocity S-wave (km/s) = 3.37303 3.65171 3.51513
# Velocity P-wave (km/s) = 6.79611 7.33181 7.06903
#
# Compressibility (1/GPa) = 0.01673521
#
# Stress axis : x y z
#
# Youngs Moduli (GPa) = 71.65957 57.41683 64.15020
#
# Poissons Ratio (x) = 0.14947 0.32291
# Poissons Ratio (y) = 0.18655 0.47954
# Poissons Ratio (z) = 0.36071 0.42921
#
# Static dielectric constant tensor:
#      x y z
#    x 1.839570 0.000000 0.019850 
#    y 0.000000 1.650060 0.000000 
#    z 0.019850 0.000000 1.646930 
# 
# From -- ./inp_files/57230.got.cif
#   From: 2010.05.17/outbox.cif.g08.bks.cpg/sg11_29_cif.got.tgz:57230.got - 2010.06.03 12:22:45.
