data_PCOD9164253
_publ_section_title
;
Structure prediction by ZEFSAII (Michael W. Deem and Ramdas Pophale) SiO2 
 PCOD9164253
Probable space group: P 21/M
;
_chemical_formula_sum "Si O2"
_cell_formula_units_Z 30
_cell_length_a 9.758850
_cell_length_b 13.065734
_cell_length_c 12.325570
_cell_angle_alpha 90.000000
_cell_angle_beta 65.155310
_cell_angle_gamma 90.000000
_cell_volume 1426.140093
_symmetry_space_group_name_H-M "P 21/M"
_symmetry_group_IT_number 11
_symmetry_cell_setting 'monoclinic'
loop_
_space_group_symop_operation_xyz
x,y,z
-x,1/2+y,-z
-x,-y,-z
x,1/2-y,z
loop_
_atom_site_type_symbol
_atom_site_label
_atom_site_fract_x
_atom_site_fract_y
_atom_site_fract_z
Si Si1 0.725501 0.560079 0.475591
Si Si2 0.995944 0.974110 0.733921
Si Si3 0.232665 0.865446 0.808593
Si Si4 0.709007 0.630837 0.729696
Si Si5 0.465996 0.638127 0.418991
Si Si6 0.542642 0.526385 0.190329
Si Si7 0.790651 0.134256 0.926826
Si Si8 0.500000 0.500000 0.000000
O O1 0.707122 0.607350 0.601534
O O2 0.628182 0.625824 0.423030
O O3 0.644130 0.449662 0.502949
O O4 0.895841 0.536760 0.384284
O O5 0.907169 0.057354 0.833414
O O6 0.871693 0.903325 0.717564
O O7 0.102223 0.904846 0.774204
O O8 0.283402 0.750000 0.764579
O O9 0.365744 0.949607 0.763207
O O10 0.187434 0.865641 0.950114
O O11 0.674040 0.750000 0.761375
O O12 0.585745 0.550118 0.822756
O O13 0.404746 0.750000 0.459790
O O14 0.483191 0.614482 0.285670
O O15 0.616663 0.557117 0.053965
O O16 0.815259 0.250000 0.879847
O O17 0.621490 0.098521 0.955897
#
# Coordination Sequence:
#
# PCOD9164253 Si02
#       8
#     4   4   4   4   4   4   4   2
#     4  10  23  41  60  90 125 166 204 264 315 366
#     4  12  22  42  62  94 128 156 211 260 307 375
#     4  10  21  39  64  91 125 166 205 252 312 374
#     4  11  23  39  61  89 122 163 206 255 315 369
#     4  10  21  40  64  92 123 164 216 259 308 369
#     4  10  20  40  63  92 122 161 207 253 306 369
#     4  10  23  41  65  93 128 171 202 252 323 369
#     4  10  20  42  64  90 128 156 208 254 290 380
#
# _framework density 21.035802
#
# number of rings (size 3 to 8) (size 9 to 14) (size 15 to 20)
#    0.000    1.600    2.667    2.000    0.000    3.200 
#    0.000    0.000    0.000    0.000    0.000    0.000 
#    0.000    0.000    0.000    0.000    0.000    0.000 
#
# Total GULP energy -167138.347843 kJ/mol
# GULP energy per Si atom -5571.278261 kJ/mol
# Density = 2.098792 g / cm^3
# Si number density = 21.035802 Si / 1000 Ang^3
#
#
#
# Elastic Constant Matrix: (Units=GPa)
#
#
# Indices 1 2 3 4 5 6 
#
# 1 95.7490 5.7589 2.9580 0.0000 11.4545 0.0000
# 2 5.7589 78.3745 14.3689 0.0000 8.1843 0.0000
# 3 2.9580 14.3689 55.9558 0.0000 9.0157 0.0000
# 4 0.0000 0.0000 0.0000 13.4157 0.0000 0.2865
# 5 11.4545 8.1843 9.0157 0.0000 33.1136 0.0000
# 6 0.0000 0.0000 0.0000 0.2865 0.0000 22.1512
#
#
#
# Elastic Compliance Matrix: (Units=1/GPa)
#
#
# Indices 1 2 3 4 5 6 
#
# 1 0.010909 -0.000439 0.000132 0.000000 -0.003701 0.000000
# 2 -0.000439 0.013605 -0.003089 0.000000 -0.002370 0.000000
# 3 0.000132 -0.003089 0.019392 0.000000 -0.004562 0.000000
# 4 0.000000 0.000000 0.000000 0.074560 0.000000 -0.000964
# 5 -0.003701 -0.002370 -0.004562 0.000000 0.033307 0.000000
# 6 0.000000 0.000000 0.000000 -0.000964 0.000000 0.045157
#
#
# Mechanical properties :
#
#
# Convention : Reuss Voigt Hill
#
# Bulk Modulus (GPa) = 26.94281 30.69456 28.81868
# Shear Modulus (GPa) = 23.13810 27.53567 25.33688
#
# Velocity S-wave (km/s) = 3.32013 3.62192 3.47431
# Velocity P-wave (km/s) = 5.24724 5.66695 5.46113
#
# Compressibility (1/GPa) = 0.03711566
#
# Stress axis : x y z
#
# Youngs Moduli (GPa) = 91.66684 73.50096 51.56635
#
# Poissons Ratio (x) = 0.03230 -0.00683
# Poissons Ratio (y) = 0.04028 0.15927
# Poissons Ratio (z) = -0.01214 0.22702
#
# Static dielectric constant tensor:
#      x y z
#    x 1.759750 0.000000 -0.134950 
#    y 0.000000 1.699660 0.000000 
#    z -0.134950 0.000000 0.625260 
# 
# From -- ./inp_files/47176.got.cif
#   From: 2010.05.17/outbox.cif.g08.bks.cpg/sg11_24_cif.got.tgz:47176.got - 2010.06.03 12:22:45.
