data_PCOD9164572
_publ_section_title
;
Structure prediction by ZEFSAII (Michael W. Deem and Ramdas Pophale) SiO2 
 PCOD9164572
Probable space group: P 21/M
;
_chemical_formula_sum "Si O2"
_cell_formula_units_Z 28
_cell_length_a 18.122696
_cell_length_b 8.315753
_cell_length_c 14.136479
_cell_angle_alpha 90.000000
_cell_angle_beta 135.841959
_cell_angle_gamma 90.000000
_cell_volume 1484.136984
_symmetry_space_group_name_H-M "P 21/M"
_symmetry_group_IT_number 11
_symmetry_cell_setting 'monoclinic'
loop_
_space_group_symop_operation_xyz
x,y,z
-x,1/2+y,-z
-x,-y,-z
x,1/2-y,z
loop_
_atom_site_type_symbol
_atom_site_label
_atom_site_fract_x
_atom_site_fract_y
_atom_site_fract_z
Si Si1 0.378972 0.444750 0.625026
Si Si2 0.832423 0.058148 0.671600
Si Si3 0.745208 0.443997 0.104900
Si Si4 0.189077 0.553710 0.134747
Si Si5 0.389025 0.945518 0.202705
Si Si6 0.943450 0.443789 0.169177
Si Si7 0.391012 0.058610 0.852797
O O1 0.379065 0.250000 0.624948
O O2 0.275454 0.502142 0.475903
O O3 0.489986 0.499932 0.680649
O O4 0.379094 0.500687 0.734385
O O5 0.832882 0.250000 0.675355
O O6 0.836694 0.996371 0.784021
O O7 0.937183 0.001766 0.713675
O O8 0.743943 0.250000 0.107561
O O9 0.860748 0.495965 0.174181
O O10 0.704553 0.508571 0.166695
O O11 0.662545 0.491638 0.945756
O O12 0.187749 0.750000 0.133936
O O13 0.306045 0.503229 0.206765
O O14 0.106798 0.502267 0.977730
O O15 0.389613 0.750000 0.204480
O O16 0.942663 0.250000 0.168205
O O17 0.396425 0.250000 0.853391
O O18 0.500000 0.000000 0.000000
#
# Coordination Sequence:
#
# PCOD9164572 Si02
#       7
#     4   4   4   4   4   4   4
#     4  10  21  36  53  74 105 145 180 207 253 325
#     4  11  22  34  50  77 111 141 176 224 265 298
#     4   9  17  33  57  83 105 132 174 219 264 311
#     4   8  16  31  54  80 104 136 176 219 263 307
#     4   8  14  30  53  76 104 137 172 210 258 317
#     4   9  18  35  59  79 102 141 181 213 258 323
#     4  11  21  34  56  83 108 136 173 216 262 315
#
# _framework density 18.866182999999999
#
# number of rings (size 3 to 8) (size 9 to 14) (size 15 to 20)
#    0.000    2.571    1.429    3.000    0.000    2.286 
#    0.000    1.429    0.000    2.571    0.000    0.000 
#    0.000    0.000    0.000    0.000    0.000    0.000 
#
# Total GULP energy -156189.144610 kJ/mol
# GULP energy per Si atom -5578.183736 kJ/mol
# Density = 1.882324 g / cm^3
# Si number density = 18.866183 Si / 1000 Ang^3
#
#
#
# Elastic Constant Matrix: (Units=GPa)
#
#
# Indices 1 2 3 4 5 6 
#
# 1 85.1491 6.4640 21.5100 0.0000 28.0614 0.0000
# 2 6.4640 9.9677 2.6124 0.0000 3.5858 0.0000
# 3 21.5100 2.6124 46.5703 0.0000 32.0560 0.0000
# 4 0.0000 0.0000 0.0000 17.9703 0.0000 0.1369
# 5 28.0614 3.5858 32.0560 0.0000 34.3615 0.0000
# 6 0.0000 0.0000 0.0000 0.1369 0.0000 21.1789
#
#
#
# Elastic Compliance Matrix: (Units=1/GPa)
#
#
# Indices 1 2 3 4 5 6 
#
# 1 0.016732 -0.005828 0.004431 0.000000 -0.017190 0.000000
# 2 -0.005828 0.106618 0.003055 0.000000 -0.009216 0.000000
# 3 0.004431 0.003055 0.061381 0.000000 -0.061201 0.000000
# 4 0.000000 0.000000 0.000000 0.055650 0.000000 -0.000360
# 5 -0.017190 -0.009216 -0.061201 0.000000 0.101197 0.000000
# 6 0.000000 0.000000 0.000000 -0.000360 0.000000 0.047219
#
#
# Mechanical properties :
#
#
# Convention : Reuss Voigt Hill
#
# Bulk Modulus (GPa) = 5.31780 22.54001 13.92890
# Shear Modulus (GPa) = 11.15661 22.10884 16.63272
#
# Velocity S-wave (km/s) = 2.43442 3.42698 2.97242
# Velocity P-wave (km/s) = 3.27516 5.25663 4.37943
#
# Compressibility (1/GPa) = 0.18804786
#
# Stress axis : x y z
#
# Youngs Moduli (GPa) = 59.76465 9.37925 16.29160
#
# Poissons Ratio (x) = 0.05466 -0.07219
# Poissons Ratio (y) = 0.34832 -0.04977
# Poissons Ratio (z) = -0.26483 -0.02865
#
# Static dielectric constant tensor:
#      x y z
#    x 1.671840 0.000000 0.003010 
#    y 0.000000 1.656360 0.000000 
#    z 0.003010 0.000000 1.629990 
# 
# From -- ./inp_files/44671.got.cif
#   From: 2010.05.17/outbox.cif.g08.bks.cpg/sg11_23_cif.got.tgz:44671.got - 2010.06.03 12:22:45.
