data_PCOD9164999
_publ_section_title
;
Structure prediction by ZEFSAII (Michael W. Deem and Ramdas Pophale) SiO2 
 PCOD9164999
Probable space group: P 21/M
;
_chemical_formula_sum "Si O2"
_cell_formula_units_Z 32
_cell_length_a 7.568015
_cell_length_b 22.298413
_cell_length_c 14.220833
_cell_angle_alpha 90.000000
_cell_angle_beta 35.639688
_cell_angle_gamma 90.000000
_cell_volume 1398.349075
_symmetry_space_group_name_H-M "P 21/M"
_symmetry_group_IT_number 11
_symmetry_cell_setting 'monoclinic'
loop_
_space_group_symop_operation_xyz
x,y,z
-x,1/2+y,-z
-x,-y,-z
x,1/2-y,z
loop_
_atom_site_type_symbol
_atom_site_label
_atom_site_fract_x
_atom_site_fract_y
_atom_site_fract_z
Si Si1 0.716868 0.497185 0.998045
Si Si2 0.732782 0.097539 0.574969
Si Si3 0.279401 0.649729 0.742706
Si Si4 0.266415 0.127278 0.914009
Si Si5 0.588203 0.614902 0.785513
Si Si6 0.152792 0.679436 0.074853
Si Si7 0.385566 0.508538 0.655514
Si Si8 0.396677 0.184005 0.579972
O O1 0.749150 0.559129 0.040942
O O2 0.584520 0.447793 0.125618
O O3 0.500000 0.500000 0.000000
O O4 0.051923 0.481234 0.816403
O O5 0.609494 0.128813 0.724186
O O6 0.618745 0.028971 0.618618
O O7 0.561009 0.132806 0.566800
O O8 0.076914 0.102156 0.393798
O O9 0.454133 0.658498 0.764362
O O10 0.344560 0.579112 0.692442
O O11 0.446075 0.683921 0.588464
O O12 0.924420 0.660477 0.920337
O O13 0.065304 0.147202 0.909434
O O14 0.481595 0.648406 0.927001
O O15 0.178381 0.750000 0.044334
O O16 0.963288 0.672788 0.253548
O O17 0.500000 0.500000 0.500000
O O18 0.446653 0.250000 0.602305
#
# Coordination Sequence:
#
# PCOD9164999 Si02
#       8
#     4   4   4   4   4   4   4   4
#     4  11  23  38  60  95 134 168 208 259 313 377
#     4  11  22  40  60  92 127 168 207 252 310 377
#     4  10  21  37  60  91 122 163 204 254 308 373
#     4   9  21  39  61  90 125 163 208 252 309 376
#     4  11  24  38  61  93 129 163 207 256 313 370
#     4   9  20  42  68  88 117 163 211 262 317 369
#     4  11  20  34  60  86 124 161 205 245 307 375
#     4  10  21  40  66  90 116 161 213 260 314 372
#
# _framework density 22.884129000000001
#
# number of rings (size 3 to 8) (size 9 to 14) (size 15 to 20)
#    0.000    1.750    1.250    3.750    1.750    9.000 
#    0.000    0.000    0.000    0.000    0.000    0.000 
#    0.000    0.000    0.000    0.000    0.000    0.000 
#
# Total GULP energy -178267.909614 kJ/mol
# GULP energy per Si atom -5570.872175 kJ/mol
# Density = 2.283204 g / cm^3
# Si number density = 22.884129 Si / 1000 Ang^3
#
#
#
# Elastic Constant Matrix: (Units=GPa)
#
#
# Indices 1 2 3 4 5 6 
#
# 1 34.7007 5.6633 27.3384 0.0000 -1.1416 0.0000
# 2 5.6633 75.0500 29.8056 0.0000 -7.7584 0.0000
# 3 27.3384 29.8056 269.4109 0.0000 -16.5547 0.0000
# 4 0.0000 0.0000 0.0000 35.3675 0.0000 6.7160
# 5 -1.1416 -7.7584 -16.5547 0.0000 38.2839 0.0000
# 6 0.0000 0.0000 0.0000 6.7160 0.0000 6.9855
#
#
#
# Elastic Compliance Matrix: (Units=1/GPa)
#
#
# Indices 1 2 3 4 5 6 
#
# 1 0.031433 -0.001209 -0.003096 0.000000 -0.000646 0.000000
# 2 -0.001209 0.014169 -0.001305 0.000000 0.002271 0.000000
# 3 -0.003096 -0.001305 0.004262 0.000000 0.001486 0.000000
# 4 0.000000 0.000000 0.000000 0.034589 0.000000 -0.033255
# 5 -0.000646 0.002271 0.001486 0.000000 0.027204 0.000000
# 6 0.000000 0.000000 0.000000 -0.033255 0.000000 0.175127
#
#
# Mechanical properties :
#
#
# Convention : Reuss Voigt Hill
#
# Bulk Modulus (GPa) = 25.87802 56.08625 40.98214
# Shear Modulus (GPa) = 16.08311 37.21766 26.65039
#
# Velocity S-wave (km/s) = 2.65393 4.03718 3.41630
# Velocity P-wave (km/s) = 4.55235 6.80395 5.78868
#
# Compressibility (1/GPa) = 0.03864283
#
# Stress axis : x y z
#
# Youngs Moduli (GPa) = 31.81400 70.57742 234.65154
#
# Poissons Ratio (x) = 0.08535 0.72637
# Poissons Ratio (y) = 0.03847 0.30628
# Poissons Ratio (z) = 0.09848 0.09212
#
# Static dielectric constant tensor:
#      x y z
#    x 1.906390 0.000000 0.017800 
#    y 0.000000 1.903410 0.000000 
#    z 0.017800 0.000000 1.962210 
# 
# From -- ./inp_files/48443.got.cif
#   From: 2010.05.17/outbox.cif.g08.bks.cpg/sg11_25_cif.got.tgz:48443.got - 2010.06.03 12:22:45.
