data_PCOD9164096
_publ_section_title
;
Structure prediction by ZEFSAII (Michael W. Deem and Ramdas Pophale) SiO2 
 PCOD9164096
Probable space group: P 21/M
;
_chemical_formula_sum "Si O2"
_cell_formula_units_Z 24
_cell_length_a 19.033062
_cell_length_b 13.108595
_cell_length_c 5.486129
_cell_angle_alpha 90.000000
_cell_angle_beta 125.075038
_cell_angle_gamma 90.000000
_cell_volume 1120.202467
_symmetry_space_group_name_H-M "P 21/M"
_symmetry_group_IT_number 11
_symmetry_cell_setting 'monoclinic'
loop_
_space_group_symop_operation_xyz
x,y,z
-x,1/2+y,-z
-x,-y,-z
x,1/2-y,z
loop_
_atom_site_type_symbol
_atom_site_label
_atom_site_fract_x
_atom_site_fract_y
_atom_site_fract_z
Si Si1 0.081314 0.864311 0.176014
Si Si2 0.191199 0.504292 0.728375
Si Si3 0.081652 0.433897 0.885183
Si Si4 0.737033 0.631025 0.508837
Si Si5 0.403728 0.536516 0.763023
Si Si6 0.338688 0.629897 0.154432
O O1 0.094109 0.750000 0.111923
O O2 0.163145 0.909649 0.480389
O O3 0.066259 0.951139 0.947831
O O4 0.998611 0.868398 0.189925
O O5 0.244582 0.411147 0.725562
O O6 0.105076 0.451269 0.652614
O O7 0.250032 0.568275 0.028182
O O8 0.171829 0.391931 0.175385
O O9 0.718577 0.750000 0.486651
O O10 0.657091 0.560512 0.422326
O O11 0.397012 0.606578 0.507564
O O12 0.500000 0.500000 0.000000
O O13 0.371664 0.588380 0.954994
O O14 0.324358 0.750000 0.106434
#
# Coordination Sequence:
#
# PCOD9164096 Si02
#       6
#     4   4   4   4   4   4
#     4  10  21  34  56  86 118 160 208 257 317 377
#     4  10  21  39  57  88 122 160 207 266 309 376
#     4  10  20  39  56  82 122 157 206 264 313 375
#     4  10  22  39  61  87 120 165 209 258 322 382
#     4  11  24  45  66  98 135 164 213 271 318 386
#     4  11  23  42  69  97 130 171 212 261 325 383
#
# _framework density 21.424696999999998
#
# number of rings (size 3 to 8) (size 9 to 14) (size 15 to 20)
#    0.000    1.667    1.667    2.500    0.000    4.000 
#    0.000    0.000    0.000    0.000    0.000    0.000 
#    0.000    0.000    0.000    0.000    0.000    0.000 
#
# Total GULP energy -133827.233805 kJ/mol
# GULP energy per Si atom -5576.134742 kJ/mol
# Density = 2.137593 g / cm^3
# Si number density = 21.424697 Si / 1000 Ang^3
#
#
#
# Elastic Constant Matrix: (Units=GPa)
#
#
# Indices 1 2 3 4 5 6 
#
# 1 65.2439 24.7855 11.3823 0.0000 8.1343 0.0000
# 2 24.7855 149.4886 24.1221 0.0000 -3.9650 0.0000
# 3 11.3823 24.1221 88.8100 0.0000 13.0031 0.0000
# 4 0.0000 0.0000 0.0000 18.0947 0.0000 2.1476
# 5 8.1343 -3.9650 13.0031 0.0000 30.3005 0.0000
# 6 0.0000 0.0000 0.0000 2.1476 0.0000 16.3716
#
#
#
# Elastic Compliance Matrix: (Units=1/GPa)
#
#
# Indices 1 2 3 4 5 6 
#
# 1 0.017115 -0.002841 -0.000741 0.000000 -0.004648 0.000000
# 2 -0.002841 0.007566 -0.002078 0.000000 0.002645 0.000000
# 3 -0.000741 -0.002078 0.012730 0.000000 -0.005536 0.000000
# 4 0.000000 0.000000 0.000000 0.056139 0.000000 -0.007364
# 5 -0.004648 0.002645 -0.005536 0.000000 0.036972 0.000000
# 6 0.000000 0.000000 0.000000 -0.007364 0.000000 0.062048
#
#
# Mechanical properties :
#
#
# Convention : Reuss Voigt Hill
#
# Bulk Modulus (GPa) = 38.32902 47.12472 42.72687
# Shear Modulus (GPa) = 23.51965 29.17020 26.34492
#
# Velocity S-wave (km/s) = 3.31687 3.69388 3.51044
# Velocity P-wave (km/s) = 5.70945 6.34321 6.03465
#
# Compressibility (1/GPa) = 0.02608989
#
# Stress axis : x y z
#
# Youngs Moduli (GPa) = 58.42693 132.16894 78.55488
#
# Poissons Ratio (x) = 0.37555 0.05822
# Poissons Ratio (y) = 0.16602 0.16325
# Poissons Ratio (z) = 0.04331 0.27466
#
# Static dielectric constant tensor:
#      x y z
#    x 1.862810 0.000000 -0.044760 
#    y 0.000000 1.714420 0.000000 
#    z -0.044760 0.000000 1.869320 
# 
# From -- ./inp_files/8678.got.cif
#   From: 2010.05.17/outbox.cif.g08.bks.cpg/sg11_5_cif.got.tgz:8678.got - 2010.06.03 12:22:45.
