data_PCOD9164400
_publ_section_title
;
Structure prediction by ZEFSAII (Michael W. Deem and Ramdas Pophale) SiO2 
 PCOD9164400
Probable space group: P 21/M
;
_chemical_formula_sum "Si O2"
_cell_formula_units_Z 24
_cell_length_a 17.952611
_cell_length_b 18.109470
_cell_length_c 5.057037
_cell_angle_alpha 90.000000
_cell_angle_beta 128.734165
_cell_angle_gamma 90.000000
_cell_volume 1282.496169
_symmetry_space_group_name_H-M "P 21/M"
_symmetry_group_IT_number 11
_symmetry_cell_setting 'monoclinic'
loop_
_space_group_symop_operation_xyz
x,y,z
-x,1/2+y,-z
-x,-y,-z
x,1/2-y,z
loop_
_atom_site_type_symbol
_atom_site_label
_atom_site_fract_x
_atom_site_fract_y
_atom_site_fract_z
Si Si1 0.897166 0.980728 0.648270
Si Si2 0.399131 0.527823 0.174928
Si Si3 0.284728 0.522659 0.429560
Si Si4 0.692744 0.165843 0.219243
Si Si5 0.015071 0.167809 0.179023
Si Si6 0.109423 0.867068 0.607352
O O1 0.813988 0.991412 0.678071
O O2 0.909132 0.896366 0.589812
O O3 0.882729 0.043841 0.395933
O O4 0.000000 0.000000 0.000000
O O5 0.500000 0.500000 0.500000
O O6 0.319619 0.506392 0.215276
O O7 0.366398 0.496522 0.819048
O O8 0.387765 0.616633 0.108366
O O9 0.283213 0.611564 0.480127
O O10 0.667978 0.250000 0.226623
O O11 0.789099 0.164227 0.258364
O O12 0.054214 0.250000 0.288267
O O13 0.929255 0.157768 0.197667
O O14 0.968400 0.156807 0.786224
#
# Coordination Sequence:
#
# PCOD9164400 Si02
#       6
#     4   4   4   4   4   4
#     4   9  20  34  55  78 111 145 185 212 261 321
#     4  10  21  37  57  78 107 139 178 220 273 318
#     4   9  21  35  55  79 108 142 178 217 263 319
#     4   9  20  32  54  81 109 133 169 220 279 323
#     4  11  21  33  50  75 110 146 182 220 260 305
#     4  10  21  34  49  76 109 144 176 218 267 322
#
# _framework density 18.713505000000001
#
# number of rings (size 3 to 8) (size 9 to 14) (size 15 to 20)
#    1.000    1.333    0.000    2.500    7.000    3.333 
#    0.000    0.000    0.000    2.000    0.000    0.000 
#    0.000    0.000    0.000    0.000    0.000    0.000 
#
# Total GULP energy -133783.123630 kJ/mol
# GULP energy per Si atom -5574.296818 kJ/mol
# Density = 1.867091 g / cm^3
# Si number density = 18.713505 Si / 1000 Ang^3
#
#
#
# Elastic Constant Matrix: (Units=GPa)
#
#
# Indices 1 2 3 4 5 6 
#
# 1 34.5746 11.6834 -2.3052 0.0000 3.2489 0.0000
# 2 11.6834 133.3779 0.2700 0.0000 11.0023 0.0000
# 3 -2.3052 0.2700 36.8337 0.0000 1.3394 0.0000
# 4 0.0000 0.0000 0.0000 18.7386 0.0000 5.9991
# 5 3.2489 11.0023 1.3394 0.0000 35.7280 0.0000
# 6 0.0000 0.0000 0.0000 5.9991 0.0000 10.5471
#
#
#
# Elastic Compliance Matrix: (Units=1/GPa)
#
#
# Indices 1 2 3 4 5 6 
#
# 1 0.030082 -0.002470 0.001975 0.000000 -0.002049 0.000000
# 2 -0.002470 0.007896 -0.000132 0.000000 -0.002202 0.000000
# 3 0.001975 -0.000132 0.027316 0.000000 -0.001163 0.000000
# 4 0.000000 0.000000 0.000000 0.065247 0.000000 -0.037112
# 5 -0.002049 -0.002202 -0.001163 0.000000 0.028897 0.000000
# 6 0.000000 0.000000 0.000000 -0.037112 0.000000 0.115922
#
#
# Mechanical properties :
#
#
# Convention : Reuss Voigt Hill
#
# Bulk Modulus (GPa) = 15.61543 24.89808 20.25675
# Shear Modulus (GPa) = 16.78075 26.01194 21.39634
#
# Velocity S-wave (km/s) = 2.99777 3.73233 3.38503
# Velocity P-wave (km/s) = 4.51052 5.64867 5.11137
#
# Compressibility (1/GPa) = 0.06403922
#
# Stress axis : x y z
#
# Youngs Moduli (GPa) = 33.24256 126.65020 36.60872
#
# Poissons Ratio (x) = 0.31283 -0.07231
# Poissons Ratio (y) = 0.08211 0.00485
# Poissons Ratio (z) = -0.06566 0.01677
#
# Static dielectric constant tensor:
#      x y z
#    x 1.629890 0.000000 -0.015560 
#    y 0.000000 1.695020 0.000000 
#    z -0.015560 0.000000 1.707370 
# 
# From -- ./inp_files/8204.got.cif
#   From: 2010.05.17/outbox.cif.g08.bks.cpg/sg11_5_cif.got.tgz:8204.got - 2010.06.03 12:22:45.
