data_PCOD9164047
_publ_section_title
;
Structure prediction by ZEFSAII (Michael W. Deem and Ramdas Pophale) SiO2 
 PCOD9164047
Probable space group: P 21/M
;
_chemical_formula_sum "Si O2"
_cell_formula_units_Z 28
_cell_length_a 8.123921
_cell_length_b 27.021533
_cell_length_c 8.253927
_cell_angle_alpha 90.000000
_cell_angle_beta 42.115562
_cell_angle_gamma 90.000000
_cell_volume 1215.116895
_symmetry_space_group_name_H-M "P 21/M"
_symmetry_group_IT_number 11
_symmetry_cell_setting 'monoclinic'
loop_
_space_group_symop_operation_xyz
x,y,z
-x,1/2+y,-z
-x,-y,-z
x,1/2-y,z
loop_
_atom_site_type_symbol
_atom_site_label
_atom_site_fract_x
_atom_site_fract_y
_atom_site_fract_z
Si Si1 0.293402 0.351645 0.334737
Si Si2 0.231688 0.842462 0.810159
Si Si3 0.066213 0.986526 0.768318
Si Si4 0.063173 0.750000 0.114005
Si Si5 0.424305 0.593394 0.422347
Si Si6 0.336141 0.250000 0.284248
Si Si7 0.409767 0.443480 0.030652
Si Si8 0.933596 0.594311 0.243563
O O1 0.499575 0.332768 0.312283
O O2 0.257909 0.302023 0.258690
O O3 0.064818 0.367230 0.611022
O O4 0.387295 0.402031 0.185022
O O5 0.264937 0.859961 0.601409
O O6 0.057314 0.798476 0.999966
O O7 0.145115 0.891872 0.966031
O O8 0.316901 0.957816 0.569531
O O9 0.059998 0.039706 0.687880
O O10 0.861541 0.951761 0.841757
O O11 0.000000 0.000000 0.000000
O O12 0.849909 0.750000 0.411807
O O13 0.357069 0.750000 0.952949
O O14 0.438621 0.583115 0.222460
O O15 0.688459 0.598700 0.314362
O O16 0.500000 0.500000 0.000000
#
# Coordination Sequence:
#
# PCOD9164047 Si02
#       8
#     4   4   4   2   4   2   4   4
#     4  10  23  38  64  95 130 171 223 279 341 408
#     4  10  20  38  64  96 121 166 218 277 341 402
#     4  12  23  38  61  89 125 174 218 263 335 400
#     4  10  20  38  69 105 131 169 230 290 347 409
#     4  11  23  39  60  86 129 171 218 269 334 405
#     4  10  20  42  67 101 135 177 226 290 345 421
#     4  12  26  41  60  97 138 177 227 277 339 419
#     4  11  20  37  64  89 123 167 215 272 329 402
#
# _framework density 23.043050000000001
#
# number of rings (size 3 to 8) (size 9 to 14) (size 15 to 20)
#    0.000    1.143    4.286    2.143    2.000    3.429 
#    0.000    0.714    0.000    2.571    0.000    0.000 
#    0.000    0.000    0.000    0.000    0.000    0.000 
#
# Total GULP energy -155988.397867 kJ/mol
# GULP energy per Si atom -5571.014210 kJ/mol
# Density = 2.299060 g / cm^3
# Si number density = 23.043050 Si / 1000 Ang^3
#
#
#
# Elastic Constant Matrix: (Units=GPa)
#
#
# Indices 1 2 3 4 5 6 
#
# 1 41.1522 8.2428 11.8973 0.0000 -9.4110 0.0000
# 2 8.2428 122.9573 22.1591 0.0000 6.6818 0.0000
# 3 11.8973 22.1591 99.3664 0.0000 5.5151 0.0000
# 4 0.0000 0.0000 0.0000 46.7623 0.0000 -0.8754
# 5 -9.4110 6.6818 5.5151 0.0000 25.0952 0.0000
# 6 0.0000 0.0000 0.0000 -0.8754 0.0000 19.4193
#
#
#
# Elastic Compliance Matrix: (Units=1/GPa)
#
#
# Indices 1 2 3 4 5 6 
#
# 1 0.028478 -0.001903 -0.003651 0.000000 0.011989 0.000000
# 2 -0.001903 0.008688 -0.001561 0.000000 -0.002684 0.000000
# 3 -0.003651 -0.001561 0.011036 0.000000 -0.003379 0.000000
# 4 0.000000 0.000000 0.000000 0.021403 0.000000 0.000965
# 5 0.011989 -0.002684 -0.003379 0.000000 0.045801 0.000000
# 6 0.000000 0.000000 0.000000 0.000965 0.000000 0.051539
#
#
# Mechanical properties :
#
#
# Convention : Reuss Voigt Hill
#
# Bulk Modulus (GPa) = 29.43423 38.67493 34.05458
# Shear Modulus (GPa) = 25.97432 33.00047 29.48739
#
# Velocity S-wave (km/s) = 3.36103 3.78844 3.58112
# Velocity P-wave (km/s) = 5.27858 5.99638 5.64889
#
# Compressibility (1/GPa) = 0.03397405
#
# Stress axis : x y z
#
# Youngs Moduli (GPa) = 35.11450 115.10740 90.60884
#
# Poissons Ratio (x) = 0.21901 0.33080
# Poissons Ratio (y) = 0.06681 0.14140
# Poissons Ratio (z) = 0.12820 0.17964
#
# Static dielectric constant tensor:
#      x y z
#    x 1.935660 0.000000 0.015020 
#    y 0.000000 2.012460 0.000000 
#    z 0.015020 0.000000 1.911910 
# 
# From -- ./inp_files/3233.got.cif
#   From: 2010.05.17/outbox.cif.g08.bks.cpg/sg11_2_cif.got.tgz:3233.got - 2010.06.03 12:22:45.
