data_PCOD9164370
_publ_section_title
;
Structure prediction by ZEFSAII (Michael W. Deem and Ramdas Pophale) SiO2 
 PCOD9164370
Probable space group: P 21/M
;
_chemical_formula_sum "Si O2"
_cell_formula_units_Z 20
_cell_length_a 11.843237
_cell_length_b 8.352490
_cell_length_c 26.905012
_cell_angle_alpha 90.000000
_cell_angle_beta 159.009990
_cell_angle_gamma 90.000000
_cell_volume 953.347913
_symmetry_space_group_name_H-M "P 21/M"
_symmetry_group_IT_number 11
_symmetry_cell_setting 'monoclinic'
loop_
_space_group_symop_operation_xyz
x,y,z
-x,1/2+y,-z
-x,-y,-z
x,1/2-y,z
loop_
_atom_site_type_symbol
_atom_site_label
_atom_site_fract_x
_atom_site_fract_y
_atom_site_fract_z
Si Si1 0.456997 0.250000 0.500340
Si Si2 0.164579 0.250000 0.770488
Si Si3 0.145839 0.750000 0.937963
Si Si4 0.706039 0.068405 0.349663
Si Si5 0.061058 0.499201 0.399100
Si Si6 0.963651 0.439093 0.928361
Si Si7 0.449416 0.250000 0.377990
O O1 0.281758 0.394437 0.454780
O O2 0.402696 0.250000 0.418824
O O3 0.833559 0.250000 0.663915
O O4 0.139087 0.103223 0.721693
O O5 0.494237 0.250000 0.933944
O O6 0.108473 0.583730 0.954192
O O7 0.873671 0.750000 0.784442
O O8 0.619707 0.250000 0.328801
O O9 0.410255 0.953210 0.235164
O O10 0.000000 0.000000 0.500000
O O11 0.821150 0.073585 0.339722
O O12 0.318150 0.601282 0.535585
O O13 0.062636 0.250000 0.963315
O O14 0.000000 0.500000 0.000000
#
# Coordination Sequence:
#
# PCOD9164370 Si02
#       7
#     2   2   2   4   4   4   2
#     4  10  20  45  67  99 122 172 225 273 330 394
#     4  10  22  38  69  87 126 167 219 268 322 400
#     4  12  24  45  64 101 136 176 222 273 342 384
#     4  12  24  38  62 100 133 170 219 274 329 399
#     4  10  21  40  66  93 125 169 219 266 329 394
#     4  12  25  43  66  94 140 182 224 268 329 409
#     4  10  22  38  66  89 132 169 214 284 330 384
#
# _framework density 20.978698999999999
#
# number of rings (size 3 to 8) (size 9 to 14) (size 15 to 20)
#    0.000    1.200    3.000    5.400    5.600    0.000 
#    3.600    4.000    0.000    0.000    0.000    0.000 
#    0.000    0.000    0.000    0.000    0.000    0.000 
#
# Total GULP energy -111587.356157 kJ/mol
# GULP energy per Si atom -5579.367808 kJ/mol
# Density = 2.093095 g / cm^3
# Si number density = 20.978699 Si / 1000 Ang^3
#
#
#
# Elastic Constant Matrix: (Units=GPa)
#
#
# Indices 1 2 3 4 5 6 
#
# 1 69.3694 24.8824 1.3407 0.0000 21.6723 0.0000
# 2 24.8824 135.4383 20.6600 0.0000 3.4157 0.0000
# 3 1.3407 20.6600 131.0177 0.0000 8.3922 0.0000
# 4 0.0000 0.0000 0.0000 15.2106 0.0000 7.7051
# 5 21.6723 3.4157 8.3922 0.0000 25.4241 0.0000
# 6 0.0000 0.0000 0.0000 7.7051 0.0000 16.0874
#
#
#
# Elastic Compliance Matrix: (Units=1/GPa)
#
#
# Indices 1 2 3 4 5 6 
#
# 1 0.021425 -0.003710 0.001536 0.000000 -0.018272 0.000000
# 2 -0.003710 0.008218 -0.001420 0.000000 0.002527 0.000000
# 3 0.001536 -0.001420 0.008083 0.000000 -0.003787 0.000000
# 4 0.000000 0.000000 0.000000 0.086803 0.000000 -0.041574
# 5 -0.018272 0.002527 -0.003787 0.000000 0.055819 0.000000
# 6 0.000000 0.000000 0.000000 -0.041574 0.000000 0.082073
#
#
# Mechanical properties :
#
#
# Convention : Reuss Voigt Hill
#
# Bulk Modulus (GPa) = 32.74436 47.73240 40.23838
# Shear Modulus (GPa) = 17.87069 30.60723 24.23896
#
# Velocity S-wave (km/s) = 2.92181 3.82379 3.40282
# Velocity P-wave (km/s) = 5.19855 6.50364 5.88737
#
# Compressibility (1/GPa) = 0.03053961
#
# Stress axis : x y z
#
# Youngs Moduli (GPa) = 46.67420 121.68681 123.71207
#
# Poissons Ratio (x) = 0.45142 -0.19004
# Poissons Ratio (y) = 0.17315 0.17564
# Poissons Ratio (z) = -0.07170 0.17276
#
# Static dielectric constant tensor:
#      x y z
#    x 1.757400 0.000000 -0.013580 
#    y 0.000000 1.729270 0.000000 
#    z -0.013580 0.000000 1.737760 
# 
# From -- ./inp_files/25702.got.cif
#   From: 2010.05.17/outbox.cif.g08.bks.cpg/sg11_13_cif.got.tgz:25702.got - 2010.06.03 12:22:45.
