data_PCOD9164026
_publ_section_title
;
Structure prediction by ZEFSAII (Michael W. Deem and Ramdas Pophale) SiO2 
 PCOD9164026
Probable space group: P 21/M
;
_chemical_formula_sum "Si O2"
_cell_formula_units_Z 24
_cell_length_a 13.819944
_cell_length_b 13.662452
_cell_length_c 11.308452
_cell_angle_alpha 90.000000
_cell_angle_beta 147.176805
_cell_angle_gamma 90.000000
_cell_volume 1157.380603
_symmetry_space_group_name_H-M "P 21/M"
_symmetry_group_IT_number 11
_symmetry_cell_setting 'monoclinic'
loop_
_space_group_symop_operation_xyz
x,y,z
-x,1/2+y,-z
-x,-y,-z
x,1/2-y,z
loop_
_atom_site_type_symbol
_atom_site_label
_atom_site_fract_x
_atom_site_fract_y
_atom_site_fract_z
Si Si1 0.627529 0.634080 0.518497
Si Si2 0.399922 0.365994 0.979171
Si Si3 0.945074 0.866507 0.006356
Si Si4 0.072179 0.470302 0.766238
Si Si5 0.212960 0.634743 0.068979
Si Si6 0.313797 0.479303 0.660898
O O1 0.658474 0.750000 0.525793
O O2 0.746921 0.609730 0.754749
O O3 0.417009 0.619548 0.317163
O O4 0.688901 0.571013 0.469694
O O5 0.418894 0.250000 0.008401
O O6 0.215556 0.403577 0.847437
O O7 0.393743 0.402503 0.837132
O O8 0.560313 0.425611 0.205672
O O9 0.956505 0.750000 0.034327
O O10 0.981824 0.916794 0.167479
O O11 0.081654 0.892182 0.041707
O O12 0.887868 0.492854 0.511306
O O13 0.166837 0.570080 0.907531
O O14 0.187513 0.750000 0.017700
#
# Coordination Sequence:
#
# PCOD9164026 Si02
#       6
#     4   4   4   4   4   4
#     4  10  20  38  63  93 127 167 212 257 308 369
#     4  11  26  46  65  93 127 164 212 264 318 376
#     4  10  22  38  60  93 131 170 209 257 312 372
#     4  12  23  41  66  96 129 166 208 262 318 375
#     4  10  21  36  59  94 128 167 214 253 304 368
#     4  11  24  43  68  93 122 168 213 259 318 373
#
# _framework density 20.736478999999999
#
# number of rings (size 3 to 8) (size 9 to 14) (size 15 to 20)
#    0.000    1.333    3.333    2.000    0.000    4.000 
#    0.000    1.667    0.000    0.000    0.000    0.000 
#    0.000    0.000    0.000    0.000    0.000    0.000 
#
# Total GULP energy -134261.598337 kJ/mol
# GULP energy per Si atom -5594.233264 kJ/mol
# Density = 2.068928 g / cm^3
# Si number density = 20.736479 Si / 1000 Ang^3
#
#
#
# Elastic Constant Matrix: (Units=GPa)
#
#
# Indices 1 2 3 4 5 6 
#
# 1 34.5359 27.0171 2.6583 0.0000 8.7959 0.0000
# 2 27.0171 118.7198 31.4699 0.0000 8.6081 0.0000
# 3 2.6583 31.4699 87.3607 0.0000 20.4976 0.0000
# 4 0.0000 0.0000 0.0000 21.5925 0.0000 3.7012
# 5 8.7959 8.6081 20.4976 0.0000 35.9459 0.0000
# 6 0.0000 0.0000 0.0000 3.7012 0.0000 31.6952
#
#
#
# Elastic Compliance Matrix: (Units=1/GPa)
#
#
# Indices 1 2 3 4 5 6 
#
# 1 0.038258 -0.009174 0.004412 0.000000 -0.009681 0.000000
# 2 -0.009174 0.011516 -0.004328 0.000000 0.001955 0.000000
# 3 0.004412 -0.004328 0.014872 0.000000 -0.008523 0.000000
# 4 0.000000 0.000000 0.000000 0.047258 0.000000 -0.005519
# 5 -0.009681 0.001955 -0.008523 0.000000 0.034581 0.000000
# 6 0.000000 0.000000 0.000000 -0.005519 0.000000 0.032195
#
#
# Mechanical properties :
#
#
# Convention : Reuss Voigt Hill
#
# Bulk Modulus (GPa) = 21.52121 40.32301 30.92211
# Shear Modulus (GPa) = 23.54617 29.81146 26.67881
#
# Velocity S-wave (km/s) = 3.37337 3.79573 3.59076
# Velocity P-wave (km/s) = 5.05705 6.22075 5.66884
#
# Compressibility (1/GPa) = 0.04646579
#
# Stress axis : x y z
#
# Youngs Moduli (GPa) = 26.13824 86.83227 67.24265
#
# Poissons Ratio (x) = 0.79660 -0.29667
# Poissons Ratio (y) = 0.23979 0.29103
# Poissons Ratio (z) = -0.11532 0.37582
#
# Static dielectric constant tensor:
#      x y z
#    x 1.727770 0.000000 0.017270 
#    y 0.000000 1.737960 0.000000 
#    z 0.017270 0.000000 1.712210 
# 
# From -- ./inp_files/39523.got.cif
#   From: 2010.05.17/outbox.cif.g08.bks.cpg/sg11_20_cif.got.tgz:39523.got - 2010.06.03 12:22:45.
