data_PCOD9164862
_publ_section_title
;
Structure prediction by ZEFSAII (Michael W. Deem and Ramdas Pophale) SiO2 
 PCOD9164862
Probable space group: P 21/M
;
_chemical_formula_sum "Si O2"
_cell_formula_units_Z 28
_cell_length_a 14.739056
_cell_length_b 9.157650
_cell_length_c 19.940695
_cell_angle_alpha 90.000000
_cell_angle_beta 147.174801
_cell_angle_gamma 90.000000
_cell_volume 1459.001229
_symmetry_space_group_name_H-M "P 21/M"
_symmetry_group_IT_number 11
_symmetry_cell_setting 'monoclinic'
loop_
_space_group_symop_operation_xyz
x,y,z
-x,1/2+y,-z
-x,-y,-z
x,1/2-y,z
loop_
_atom_site_type_symbol
_atom_site_label
_atom_site_fract_x
_atom_site_fract_y
_atom_site_fract_z
Si Si1 0.388276 0.075913 0.781931
Si Si2 0.879225 0.579724 0.267126
Si Si3 0.285205 0.078023 0.050321
Si Si4 0.334885 0.075894 0.368787
Si Si5 0.024003 0.578238 0.804044
Si Si6 0.176168 0.424138 0.127844
Si Si7 0.137969 0.578721 0.539832
O O1 0.393298 0.250000 0.778542
O O2 0.267756 0.043292 0.770810
O O3 0.570430 0.007080 0.899476
O O4 0.305290 0.003565 0.664405
O O5 0.856539 0.750000 0.233484
O O6 0.890563 0.475534 0.211058
O O7 0.057009 0.568492 0.416390
O O8 0.296699 0.250000 0.044334
O O9 0.292427 0.054437 0.134683
O O10 0.110318 0.014011 0.916168
O O11 0.365143 0.250000 0.383706
O O12 0.269475 0.027872 0.254055
O O13 0.174604 0.051214 0.317358
O O14 0.500000 0.000000 0.500000
O O15 0.050926 0.750000 0.831969
O O16 0.143921 0.250000 0.114910
O O17 0.000000 0.500000 0.000000
O O18 0.151965 0.750000 0.565313
O O19 0.000000 0.500000 0.500000
#
# Coordination Sequence:
#
# PCOD9164862 Si02
#       7
#     4   4   4   4   4   4   4
#     4  10  21  37  57  84 119 157 199 250 299 351
#     4   9  20  37  57  82 116 159 200 241 297 357
#     4  11  23  38  61  89 116 155 202 248 303 364
#     4  10  23  42  63  92 126 157 198 249 304 366
#     4  11  23  39  60  86 118 156 199 249 303 361
#     4  10  21  40  65  90 119 156 200 248 303 365
#     4   9  17  32  54  79 110 149 194 243 294 351
#
# _framework density 19.191212
#
# number of rings (size 3 to 8) (size 9 to 14) (size 15 to 20)
#    0.000    2.000    1.429    2.571    0.000    7.429 
#    0.000    4.286    0.000    0.000    0.000    0.000 
#    0.000    0.000    0.000    0.000    0.000    0.000 
#
# Total GULP energy -156171.334559 kJ/mol
# GULP energy per Si atom -5577.547663 kJ/mol
# Density = 1.914753 g / cm^3
# Si number density = 19.191212 Si / 1000 Ang^3
#
#
#
# Elastic Constant Matrix: (Units=GPa)
#
#
# Indices 1 2 3 4 5 6 
#
# 1 86.3994 54.4324 42.6804 0.0000 -1.8710 0.0000
# 2 54.4324 74.5894 46.6355 0.0000 0.4521 0.0000
# 3 42.6804 46.6355 113.5450 0.0000 7.2129 0.0000
# 4 0.0000 0.0000 0.0000 40.6318 0.0000 0.7872
# 5 -1.8710 0.4521 7.2129 0.0000 25.3829 0.0000
# 6 0.0000 0.0000 0.0000 0.7872 0.0000 20.0097
#
#
#
# Elastic Compliance Matrix: (Units=1/GPa)
#
#
# Indices 1 2 3 4 5 6 
#
# 1 0.022003 -0.014530 -0.002467 0.000000 0.002582 0.000000
# 2 -0.014530 0.027717 -0.005930 0.000000 0.000120 0.000000
# 3 -0.002467 -0.005930 0.012399 0.000000 -0.003599 0.000000
# 4 0.000000 0.000000 0.000000 0.024630 0.000000 -0.000969
# 5 0.002582 0.000120 -0.003599 0.000000 0.040608 0.000000
# 6 0.000000 0.000000 0.000000 -0.000969 0.000000 0.050014
#
#
# Mechanical properties :
#
#
# Convention : Reuss Voigt Hill
#
# Bulk Modulus (GPa) = 61.48279 62.44783 61.96531
# Shear Modulus (GPa) = 21.86798 25.92391 23.89594
#
# Velocity S-wave (km/s) = 3.37928 3.67934 3.53250
# Velocity P-wave (km/s) = 6.87986 7.11762 6.99975
#
# Compressibility (1/GPa) = 0.01626471
#
# Stress axis : x y z
#
# Youngs Moduli (GPa) = 45.44910 36.07893 80.65468
#
# Poissons Ratio (x) = 0.52423 0.19896
# Poissons Ratio (y) = 0.66038 0.47828
# Poissons Ratio (z) = 0.11211 0.21395
#
# Static dielectric constant tensor:
#      x y z
#    x 1.681250 0.000000 -0.020540 
#    y 0.000000 1.636440 0.000000 
#    z -0.020540 0.000000 1.672470 
# 
# From -- ./inp_files/65472.got.cif
#   From: 2010.05.17/outbox.cif.g08.bks.cpg/sg11_33_cif.got.tgz:65472.got - 2010.06.03 12:22:45.
