data_PCOD9164853
_publ_section_title
;
Structure prediction by ZEFSAII (Michael W. Deem and Ramdas Pophale) SiO2 
 PCOD9164853
Probable space group: P 21/M
;
_chemical_formula_sum "Si O2"
_cell_formula_units_Z 32
_cell_length_a 25.457383
_cell_length_b 8.568182
_cell_length_c 25.532177
_cell_angle_alpha 90.000000
_cell_angle_beta 162.454745
_cell_angle_gamma 90.000000
_cell_volume 1678.875675
_symmetry_space_group_name_H-M "P 21/M"
_symmetry_group_IT_number 11
_symmetry_cell_setting 'monoclinic'
loop_
_space_group_symop_operation_xyz
x,y,z
-x,1/2+y,-z
-x,-y,-z
x,1/2-y,z
loop_
_atom_site_type_symbol
_atom_site_label
_atom_site_fract_x
_atom_site_fract_y
_atom_site_fract_z
Si Si1 0.267419 0.561482 0.323814
Si Si2 0.075110 0.059406 0.939650
Si Si3 0.340701 0.061578 0.280649
Si Si4 0.075395 0.569631 0.518294
Si Si5 0.140538 0.063824 0.471774
Si Si6 0.115464 0.436432 0.858560
Si Si7 0.456130 0.935920 0.127571
Si Si8 0.446168 0.063263 0.892568
O O1 0.265349 0.750000 0.319884
O O2 0.456750 0.512099 0.525755
O O3 0.255618 0.499062 0.253476
O O4 0.106769 0.510075 0.206872
O O5 0.075990 0.250000 0.939941
O O6 0.095772 0.007119 0.899626
O O7 0.232134 0.009318 0.127006
O O8 0.337320 0.250000 0.278615
O O9 0.029275 0.750000 0.471436
O O10 0.039478 0.490345 0.428335
O O11 0.279140 0.537726 0.718998
O O12 0.000000 0.500000 0.500000
O O13 0.142615 0.250000 0.474150
O O14 0.345135 0.013289 0.668976
O O15 0.036021 0.003120 0.322549
O O16 0.100838 0.250000 0.844284
O O17 0.303552 0.483051 0.014449
O O18 0.447069 0.750000 0.128246
O O19 0.429733 0.958621 0.039736
O O20 0.406686 0.250000 0.857478
O O21 0.500000 0.000000 0.000000
#
# Coordination Sequence:
#
# PCOD9164853 Si02
#       8
#     4   4   4   4   4   4   4   4
#     4   9  17  31  52  77 108 144 181 225 276 328
#     4   9  19  34  51  77 109 143 185 227 274 333
#     4   9  17  31  52  77 107 143 181 225 277 328
#     4  11  22  37  58  85 114 144 181 228 284 345
#     4  10  22  42  62  81 112 150 191 236 287 345
#     4  11  23  37  59  87 113 150 197 241 287 342
#     4   9  21  41  60  79 110 150 188 232 286 341
#     4  10  21  37  57  83 113 146 184 228 284 345
#
# _framework density 19.060373999999999
#
# number of rings (size 3 to 8) (size 9 to 14) (size 15 to 20)
#    0.000    2.250    0.000    3.375    1.750    4.000 
#    0.000    5.000    0.000    3.000    0.000    0.000 
#    0.000    0.000    0.000    0.000    0.000    0.000 
#
# Total GULP energy -178489.700718 kJ/mol
# GULP energy per Si atom -5577.803147 kJ/mol
# Density = 1.901699 g / cm^3
# Si number density = 19.060374 Si / 1000 Ang^3
#
#
#
# Elastic Constant Matrix: (Units=GPa)
#
#
# Indices 1 2 3 4 5 6 
#
# 1 155.2658 29.8871 89.9306 0.0000 -31.8812 0.0000
# 2 29.8871 34.8728 24.5235 0.0000 -4.8422 0.0000
# 3 89.9306 24.5235 106.8594 0.0000 -22.0654 0.0000
# 4 0.0000 0.0000 0.0000 20.8405 0.0000 -0.8324
# 5 -31.8812 -4.8422 -22.0654 0.0000 23.8364 0.0000
# 6 0.0000 0.0000 0.0000 -0.8324 0.0000 29.9959
#
#
#
# Elastic Compliance Matrix: (Units=1/GPa)
#
#
# Indices 1 2 3 4 5 6 
#
# 1 0.014844 -0.004772 -0.009269 0.000000 0.010303 0.000000
# 2 -0.004772 0.035731 -0.004949 0.000000 -0.003706 0.000000
# 3 -0.009269 -0.004949 0.019197 0.000000 0.004367 0.000000
# 4 0.000000 0.000000 0.000000 0.048037 0.000000 0.001333
# 5 0.010303 -0.003706 0.004367 0.000000 0.059023 0.000000
# 6 0.000000 0.000000 0.000000 0.001333 0.000000 0.033375
#
#
# Mechanical properties :
#
#
# Convention : Reuss Voigt Hill
#
# Bulk Modulus (GPa) = 31.45629 65.07560 48.26595
# Shear Modulus (GPa) = 19.32110 25.11168 22.21639
#
# Velocity S-wave (km/s) = 3.18729 3.63365 3.41776
# Velocity P-wave (km/s) = 5.48492 7.19865 6.39941
#
# Compressibility (1/GPa) = 0.03179014
#
# Stress axis : x y z
#
# Youngs Moduli (GPa) = 67.36899 27.98656 52.09282
#
# Poissons Ratio (x) = 0.13356 0.48287
# Poissons Ratio (y) = 0.32151 0.25781
# Poissons Ratio (z) = 0.62447 0.13851
#
# Static dielectric constant tensor:
#      x y z
#    x 1.670050 0.000000 -0.003830 
#    y 0.000000 1.652860 0.000000 
#    z -0.003830 0.000000 1.655470 
# 
# From -- ./inp_files/70022.got.cif
#   From: 2010.05.17/outbox.cif.g08.bks.cpg/sg11_36_cif.got.tgz:70022.got - 2010.06.03 12:22:45.
