data_PCOD9164080
_publ_section_title
;
Structure prediction by ZEFSAII (Michael W. Deem and Ramdas Pophale) SiO2 
 PCOD9164080
Probable space group: P 21/M
;
_chemical_formula_sum "Si O2"
_cell_formula_units_Z 26
_cell_length_a 9.526212
_cell_length_b 9.155689
_cell_length_c 16.018808
_cell_angle_alpha 90.000000
_cell_angle_beta 57.494392
_cell_angle_gamma 90.000000
_cell_volume 1178.266632
_symmetry_space_group_name_H-M "P 21/M"
_symmetry_group_IT_number 11
_symmetry_cell_setting 'monoclinic'
loop_
_space_group_symop_operation_xyz
x,y,z
-x,1/2+y,-z
-x,-y,-z
x,1/2-y,z
loop_
_atom_site_type_symbol
_atom_site_label
_atom_site_fract_x
_atom_site_fract_y
_atom_site_fract_z
Si Si1 0.611566 0.074208 0.807560
Si Si2 0.759023 0.912636 0.259331
Si Si3 0.062702 0.420572 0.236364
Si Si4 0.880704 0.080669 0.473117
Si Si5 0.965070 0.250000 0.048083
Si Si6 0.573588 0.574824 0.636434
Si Si7 0.758073 0.968207 0.066929
O O1 0.633561 0.250000 0.793269
O O2 0.430266 0.041080 0.904510
O O3 0.760279 0.999085 0.810973
O O4 0.610499 0.998734 0.715455
O O5 0.740862 0.750000 0.301548
O O6 0.749264 0.899690 0.162733
O O7 0.609595 0.020918 0.331226
O O8 0.934110 0.984418 0.224378
O O9 0.070514 0.250000 0.209265
O O10 0.975321 0.421760 0.355484
O O11 0.851136 0.250000 0.506133
O O12 0.709197 0.991557 0.530391
O O13 0.000000 0.000000 0.500000
O O14 0.105177 0.376147 0.024704
O O15 0.831663 0.374372 0.060194
O O16 0.582766 0.750000 0.639509
#
# Coordination Sequence:
#
# PCOD9164080 Si02
#       7
#     4   4   4   4   2   4   4
#     4  11  21  37  59  90 122 160 202 247 294 358
#     4  11  23  41  60  89 124 163 198 247 303 361
#     4  11  25  39  60  87 121 164 207 244 307 354
#     4  11  22  38  58  86 120 158 207 262 298 348
#     4  10  20  38  66  98 120 148 192 248 292 358
#     4  11  22  36  61  87 118 158 212 254 299 345
#     4  10  21  38  66  96 121 150 197 242 297 353
#
# _framework density 22.066313999999998
#
# number of rings (size 3 to 8) (size 9 to 14) (size 15 to 20)
#    0.000    1.231    3.077    4.154    6.462    2.462 
#    0.000    0.000    0.000    5.538    0.000    0.000 
#    0.000    0.000    0.000    0.000    0.000    0.000 
#
# Total GULP energy -144885.584228 kJ/mol
# GULP energy per Si atom -5572.522470 kJ/mol
# Density = 2.201609 g / cm^3
# Si number density = 22.066314 Si / 1000 Ang^3
#
#
#
# Elastic Constant Matrix: (Units=GPa)
#
#
# Indices 1 2 3 4 5 6 
#
# 1 116.2284 34.5837 31.7654 0.0000 -52.2410 0.0000
# 2 34.5837 198.9206 54.7724 0.0000 -43.3031 0.0000
# 3 31.7654 54.7724 64.2926 0.0000 -21.0579 0.0000
# 4 0.0000 0.0000 0.0000 -472.2718 0.0000 846.1415
# 5 -52.2410 -43.3031 -21.0579 0.0000 41.2687 0.0000
# 6 0.0000 0.0000 0.0000 846.1415 0.0000-1394.9689
#
#
#
# Elastic Compliance Matrix: (Units=1/GPa)
#
#
# Indices 1 2 3 4 5 6 
#
# 1 0.021965 0.003841 -0.004439 0.000000 0.029569 0.000000
# 2 0.003841 0.008160 -0.005346 0.000000 0.010696 0.000000
# 3 -0.004439 -0.005346 0.022361 0.000000 0.000181 0.000000
# 4 0.000000 0.000000 0.000000 0.024408 0.000000 0.014805
# 5 0.029569 0.010696 0.000181 0.000000 0.072978 0.000000
# 6 0.000000 0.000000 0.000000 0.014805 0.000000 0.008264
#
#
# Mechanical properties :
#
#
# Convention : Reuss Voigt Hill
#
# Bulk Modulus (GPa) = 24.63276 69.07607 46.85441
# Shear Modulus (GPa) = 27.23962 -347.97306 -160.36672
#
# Velocity S-wave (km/s) = 3.51728 -12.57126 -8.53421
# Velocity P-wave (km/s) = 5.26139 13.39192 8.70808
#
# Compressibility (1/GPa) = 0.04059635
#
# Stress axis : x y z
#
# Youngs Moduli (GPa) = 45.52762 122.55247 44.72139
#
# Poissons Ratio (x) = -0.47067 0.19853
# Poissons Ratio (y) = -0.17485 0.23907
# Poissons Ratio (z) = 0.20211 0.65514
#
# Static dielectric constant tensor:
#      x y z
#    x 1.803690 0.000000 0.023740 
#    y 0.000000 1.744320 0.000000 
#    z 0.023740 0.000000 1.903220 
# 
# From -- ./inp_files/24148.got.cif
#   From: 2010.05.17/outbox.cif.g08.bks.cpg/sg11_13_cif.got.tgz:24148.got - 2010.06.03 12:22:45.
