data_PCOD9164205
_publ_section_title
;
Structure prediction by ZEFSAII (Michael W. Deem and Ramdas Pophale) SiO2 
 PCOD9164205
Probable space group: P 21/M
;
_chemical_formula_sum "Si O2"
_cell_formula_units_Z 20
_cell_length_a 9.151170
_cell_length_b 13.737979
_cell_length_c 14.537038
_cell_angle_alpha 90.000000
_cell_angle_beta 26.549746
_cell_angle_gamma 90.000000
_cell_volume 816.880060
_symmetry_space_group_name_H-M "P 21/M"
_symmetry_group_IT_number 11
_symmetry_cell_setting 'monoclinic'
loop_
_space_group_symop_operation_xyz
x,y,z
-x,1/2+y,-z
-x,-y,-z
x,1/2-y,z
loop_
_atom_site_type_symbol
_atom_site_label
_atom_site_fract_x
_atom_site_fract_y
_atom_site_fract_z
Si Si1 0.623937 0.250000 0.886600
Si Si2 0.419607 0.903832 0.625066
Si Si3 0.309010 0.750000 0.849440
Si Si4 0.211519 0.250000 0.696313
Si Si5 0.891725 0.750000 0.668945
Si Si6 0.728347 0.633288 0.037943
Si Si7 0.756035 0.452388 0.560997
O O1 0.928982 0.250000 0.778875
O O2 0.291420 0.250000 0.131463
O O3 0.592184 0.152307 0.844613
O O4 0.367908 0.840857 0.748517
O O5 0.571369 0.842349 0.455855
O O6 0.036039 0.920434 0.820317
O O7 0.670817 0.984461 0.519101
O O8 0.608686 0.750000 0.752089
O O9 0.982109 0.750000 0.098055
O O10 0.099676 0.846818 0.542308
O O11 0.804808 0.750000 0.012454
O O12 0.597819 0.570507 0.194924
O O13 0.000000 0.500000 0.500000
#
# Coordination Sequence:
#
# PCOD9164205 Si02
#       7
#     2   4   2   2   2   4   4
#     4   9  20  39  63  87 130 169 208 265 323 378
#     4  11  22  42  65  97 130 168 216 266 321 390
#     4  10  20  39  66  98 127 163 216 268 321 378
#     4  10  20  39  65  96 129 167 212 270 318 370
#     4  11  22  41  60 101 124 165 218 275 320 372
#     4  10  21  42  63  88 130 172 201 263 328 374
#     4  12  23  39  70  95 124 171 224 259 322 389
#
# _framework density 24.483397
#
# number of rings (size 3 to 8) (size 9 to 14) (size 15 to 20)
#    0.600    0.800    5.000    1.800    2.800    0.000 
#   10.800    4.000    0.000    0.000    0.000    0.000 
#    0.000    0.000    0.000    0.000    0.000    0.000 
#
# Total GULP energy -111684.647457 kJ/mol
# GULP energy per Si atom -5584.232373 kJ/mol
# Density = 2.442767 g / cm^3
# Si number density = 24.483397 Si / 1000 Ang^3
#
#
#
# Elastic Constant Matrix: (Units=GPa)
#
#
# Indices 1 2 3 4 5 6 
#
# 1 74.5068 20.0573 18.5819 0.0000 2.2943 0.0000
# 2 20.0573 110.6127 48.3595 0.0000 6.8311 0.0000
# 3 18.5819 48.3595 156.5274 0.0000 12.3842 0.0000
# 4 0.0000 0.0000 0.0000 18.4529 0.0000 0.7509
# 5 2.2943 6.8311 12.3842 0.0000 41.5246 0.0000
# 6 0.0000 0.0000 0.0000 0.7509 0.0000 34.7148
#
#
#
# Elastic Compliance Matrix: (Units=1/GPa)
#
#
# Indices 1 2 3 4 5 6 
#
# 1 0.014254 -0.002129 -0.001024 0.000000 -0.000132 0.000000
# 2 -0.002129 0.010795 -0.003022 0.000000 -0.000757 0.000000
# 3 -0.001024 -0.003022 0.007579 0.000000 -0.001707 0.000000
# 4 0.000000 0.000000 0.000000 0.054240 0.000000 -0.001173
# 5 -0.000132 -0.000757 -0.001707 0.000000 0.024723 0.000000
# 6 0.000000 0.000000 0.000000 -0.001173 0.000000 0.028832
#
#
# Mechanical properties :
#
#
# Convention : Reuss Voigt Hill
#
# Bulk Modulus (GPa) = 49.31628 57.29380 53.30504
# Shear Modulus (GPa) = 31.34171 35.91501 33.62836
#
# Velocity S-wave (km/s) = 3.58176 3.83418 3.71012
# Velocity P-wave (km/s) = 6.10670 6.56149 6.33818
#
# Compressibility (1/GPa) = 0.02027728
#
# Stress axis : x y z
#
# Youngs Moduli (GPa) = 70.15507 92.63795 131.94297
#
# Poissons Ratio (x) = 0.19721 0.13511
# Poissons Ratio (y) = 0.14935 0.39879
# Poissons Ratio (z) = 0.07184 0.27999
#
# Static dielectric constant tensor:
#      x y z
#    x 2.092430 0.000000 -0.043680 
#    y 0.000000 2.045590 0.000000 
#    z -0.043680 0.000000 1.913710 
# 
# From -- ./inp_files/59358.got.cif
#   From: 2010.05.17/outbox.cif.g08.bks.cpg/sg11_30_cif.got.tgz:59358.got - 2010.06.03 12:22:45.
