data_PCOD9164250
_publ_section_title
;
Structure prediction by ZEFSAII (Michael W. Deem and Ramdas Pophale) SiO2 
 PCOD9164250
Probable space group: P 21/M
;
_chemical_formula_sum "Si O2"
_cell_formula_units_Z 24
_cell_length_a 20.223487
_cell_length_b 12.443247
_cell_length_c 13.633311
_cell_angle_alpha 90.000000
_cell_angle_beta 163.312106
_cell_angle_gamma 90.000000
_cell_volume 985.172383
_symmetry_space_group_name_H-M "P 21/M"
_symmetry_group_IT_number 11
_symmetry_cell_setting 'monoclinic'
loop_
_space_group_symop_operation_xyz
x,y,z
-x,1/2+y,-z
-x,-y,-z
x,1/2-y,z
loop_
_atom_site_type_symbol
_atom_site_label
_atom_site_fract_x
_atom_site_fract_y
_atom_site_fract_z
Si Si1 0.895585 0.250000 0.081079
Si Si2 0.627011 0.067080 0.806550
Si Si3 0.714253 0.053731 0.162482
Si Si4 0.291064 0.250000 0.364862
Si Si5 0.230827 0.750000 0.324995
Si Si6 0.588021 0.750000 0.232903
Si Si7 0.085781 0.379408 0.832807
Si Si8 0.631845 0.372687 0.311569
O O1 0.167481 0.250000 0.468082
O O2 0.808119 0.145302 0.011742
O O3 0.798678 0.250000 0.832183
O O4 0.682866 0.064250 0.001767
O O5 0.393918 0.139375 0.467195
O O6 0.681919 0.950853 0.837468
O O7 0.964540 0.084527 0.557849
O O8 0.557589 0.144340 0.990272
O O9 0.591802 0.944393 0.021259
O O10 0.361150 0.250000 0.577947
O O11 0.019248 0.250000 0.979237
O O12 0.344892 0.855218 0.536473
O O13 0.124150 0.250000 0.891488
O O14 0.878095 0.409182 0.615117
O O15 0.597029 0.250000 0.229117
#
# Coordination Sequence:
#
# PCOD9164250 Si02
#       8
#     2   4   4   2   2   2   4   4
#     4  10  20  40  63  88 122 166 219 264 317 366
#     4  10  22  38  61  98 129 164 209 257 311 392
#     4  11  20  40  63  96 133 167 204 252 325 376
#     4   8  18  40  61  84 120 162 215 260 313 358
#     4   9  20  45  68  88 122 167 214 275 320 354
#     4   9  18  33  62  86 120 169 212 255 286 380
#     4  11  22  40  63  92 138 170 201 252 320 378
#     4   9  22  40  64  92 126 161 218 267 302 375
#
# _framework density 24.361219999999999
#
# number of rings (size 3 to 8) (size 9 to 14) (size 15 to 20)
#    0.500    1.667    0.833    2.500    0.000    0.667 
#    3.000   18.333    0.000    0.000    2.167    0.000 
#    0.000    0.000    0.000    0.000    0.000    0.000 
#
# Total GULP energy -134070.851483 kJ/mol
# GULP energy per Si atom -5586.285478 kJ/mol
# Density = 2.430577 g / cm^3
# Si number density = 24.361220 Si / 1000 Ang^3
#
#
#
# Elastic Constant Matrix: (Units=GPa)
#
#
# Indices 1 2 3 4 5 6 
#
# 1 129.1851 39.4316 9.2932 0.0000 0.2930 0.0000
# 2 39.4316 124.2011 45.6100 0.0000 18.1825 0.0000
# 3 9.2932 45.6100 59.0738 0.0000 13.0822 0.0000
# 4 0.0000 0.0000 0.0000 1.8599 0.0000 -0.8727
# 5 0.2930 18.1825 13.0822 0.0000 36.6395 0.0000
# 6 0.0000 0.0000 0.0000 -0.8727 0.0000 40.6772
#
#
#
# Elastic Compliance Matrix: (Units=1/GPa)
#
#
# Indices 1 2 3 4 5 6 
#
# 1 0.008668 -0.003254 0.000876 0.000000 0.001233 0.000000
# 2 -0.003254 0.012709 -0.008589 0.000000 -0.003214 0.000000
# 3 0.000876 -0.008589 0.024409 0.000000 -0.004460 0.000000
# 4 0.000000 0.000000 0.000000 0.543117 0.000000 0.011653
# 5 0.001233 -0.003214 -0.004460 0.000000 0.030471 0.000000
# 6 0.000000 0.000000 0.000000 0.011653 0.000000 0.024834
#
#
# Mechanical properties :
#
#
# Convention : Reuss Voigt Hill
#
# Bulk Modulus (GPa) = 41.92454 55.68106 48.80280
# Shear Modulus (GPa) = 7.41738 30.37702 18.89720
#
# Velocity S-wave (km/s) = 1.74681 3.53504 2.78818
# Velocity P-wave (km/s) = 4.61686 6.29031 5.51740
#
# Compressibility (1/GPa) = 0.02385238
#
# Stress axis : x y z
#
# Youngs Moduli (GPa) = 115.36292 78.68322 40.96813
#
# Poissons Ratio (x) = 0.25604 -0.03588
# Poissons Ratio (y) = 0.37540 0.35187
# Poissons Ratio (z) = -0.10103 0.67580
#
# Static dielectric constant tensor:
#      x y z
#    x 1.993970 0.000000 -0.061230 
#    y 0.000000 2.058000 0.000000 
#    z -0.061230 0.000000 1.950740 
# 
# From -- ./inp_files/54855.got.cif
#   From: 2010.05.17/outbox.cif.g08.bks.cpg/sg11_28_cif.got.tgz:54855.got - 2010.06.03 12:22:45.
