data_PCOD9164432
_publ_section_title
;
Structure prediction by ZEFSAII (Michael W. Deem and Ramdas Pophale) SiO2 
 PCOD9164432
Probable space group: P 21/M
;
_chemical_formula_sum "Si O2"
_cell_formula_units_Z 32
_cell_length_a 25.122416
_cell_length_b 7.373516
_cell_length_c 23.877944
_cell_angle_alpha 90.000000
_cell_angle_beta 161.494600
_cell_angle_gamma 90.000000
_cell_volume 1403.885589
_symmetry_space_group_name_H-M "P 21/M"
_symmetry_group_IT_number 11
_symmetry_cell_setting 'monoclinic'
loop_
_space_group_symop_operation_xyz
x,y,z
-x,1/2+y,-z
-x,-y,-z
x,1/2-y,z
loop_
_atom_site_type_symbol
_atom_site_label
_atom_site_fract_x
_atom_site_fract_y
_atom_site_fract_z
Si Si1 0.301238 0.041829 0.436866
Si Si2 0.991050 0.033081 0.056864
Si Si3 0.678739 0.029534 0.941923
Si Si4 0.804821 0.464989 0.305498
Si Si5 0.683938 0.028564 0.823901
Si Si6 0.673601 0.471866 0.294596
Si Si7 0.285135 0.544270 0.904534
Si Si8 0.281356 0.543038 0.541766
O O1 0.320564 0.250000 0.438157
O O2 0.155902 0.960711 0.253320
O O3 0.490997 0.964825 0.623659
O O4 0.241304 0.042672 0.441983
O O5 0.990113 0.250000 0.064909
O O6 0.817868 0.966955 0.911856
O O7 0.000000 0.000000 0.000000
O O8 0.675067 0.250000 0.941221
O O9 0.746894 0.977708 0.949161
O O10 0.485312 0.965169 0.747840
O O11 0.767791 0.965138 0.087917
O O12 0.763828 0.250000 0.264311
O O13 0.740325 0.532761 0.300951
O O14 0.745044 0.542034 0.186198
O O15 0.000000 0.500000 0.500000
O O16 0.676872 0.250000 0.816531
O O17 0.670428 0.250000 0.292810
O O18 0.768401 0.529909 0.446311
O O19 0.485479 0.544307 0.109704
O O20 0.217819 0.750000 0.834441
O O21 0.225621 0.750000 0.482641
#
# Coordination Sequence:
#
# PCOD9164432 Si02
#       8
#     4   4   4   4   4   4   4   4
#     4   9  18  34  54  76 102 134 170 207 249 299
#     4  10  21  36  53  76 104 135 170 205 246 298
#     4   8  14  28  50  73  98 125 157 204 252 294
#     4  10  21  35  46  65  99 134 169 209 253 303
#     4   8  15  31  53  73 100 134 163 201 253 295
#     4   9  18  32  50  71  98 130 163 204 258 311
#     4   9  17  30  51  75  94 120 167 215 250 297
#     4   9  16  28  49  75 100 127 161 202 249 300
#
# _framework density 22.793879
#
# number of rings (size 3 to 8) (size 9 to 14) (size 15 to 20)
#    0.000    3.000    0.000    1.500    0.000    2.500 
#    2.250    2.500    0.000    0.000    0.000    0.000 
#    0.000    0.000    0.000    0.000    0.000    0.000 
#
# Total GULP energy -178304.578428 kJ/mol
# GULP energy per Si atom -5572.018076 kJ/mol
# Density = 2.274200 g / cm^3
# Si number density = 22.793879 Si / 1000 Ang^3
#
#
#
# Elastic Constant Matrix: (Units=GPa)
#
#
# Indices 1 2 3 4 5 6 
#
# 1 312.7720 -10.0438 66.2870 0.0000 48.2406 0.0000
# 2 -10.0438 85.4593 2.1459 0.0000 -8.6677 0.0000
# 3 66.2870 2.1459 91.5430 0.0000 -34.7329 0.0000
# 4 0.0000 0.0000 0.0000 -8.7862 0.0000 12.8748
# 5 48.2406 -8.6677 -34.7329 0.0000 88.7213 0.0000
# 6 0.0000 0.0000 0.0000 12.8748 0.0000 -2.8185
#
#
#
# Elastic Compliance Matrix: (Units=1/GPa)
#
#
# Indices 1 2 3 4 5 6 
#
# 1 0.005174 0.000243 -0.005649 0.000000 -0.005001 0.000000
# 2 0.000243 0.011833 -0.000076 0.000000 0.000994 0.000000
# 3 -0.005649 -0.000076 0.019001 0.000000 0.010503 0.000000
# 4 0.000000 0.000000 0.000000 0.019990 0.000000 0.091313
# 5 -0.005001 0.000994 0.010503 0.000000 0.018199 0.000000
# 6 0.000000 0.000000 0.000000 0.091313 0.000000 0.062316
#
#
# Mechanical properties :
#
#
# Convention : Reuss Voigt Hill
#
# Bulk Modulus (GPa) = 39.93181 67.39471 53.66326
# Shear Modulus (GPa) = 32.08717 44.18234 38.13475
#
# Velocity S-wave (km/s) = 3.75602 4.40744 4.09470
# Velocity P-wave (km/s) = 6.03050 7.45197 6.77860
#
# Compressibility (1/GPa) = 0.02504269
#
# Stress axis : x y z
#
# Youngs Moduli (GPa) = 193.28684 84.51120 52.62752
#
# Poissons Ratio (x) = -0.02051 0.29732
# Poissons Ratio (y) = -0.04691 0.00399
# Poissons Ratio (z) = 1.09196 0.00641
#
# Static dielectric constant tensor:
#      x y z
#    x 1.926350 0.000000 -0.031210 
#    y 0.000000 1.868310 0.000000 
#    z -0.031210 0.000000 1.823330 
# 
# From -- ./inp_files/69997.got.cif
#   From: 2010.05.17/outbox.cif.g08.bks.cpg/sg11_35_cif.got.tgz:69997.got - 2010.06.03 12:22:45.
