data_PCOD9164679
_publ_section_title
;
Structure prediction by ZEFSAII (Michael W. Deem and Ramdas Pophale) SiO2 
 PCOD9164679
Probable space group: P 21/M
;
_chemical_formula_sum "Si O2"
_cell_formula_units_Z 26
_cell_length_a 26.615044
_cell_length_b 9.217909
_cell_length_c 4.915545
_cell_angle_alpha 90.000000
_cell_angle_beta 107.775728
_cell_angle_gamma 90.000000
_cell_volume 1148.381743
_symmetry_space_group_name_H-M "P 21/M"
_symmetry_group_IT_number 11
_symmetry_cell_setting 'monoclinic'
loop_
_space_group_symop_operation_xyz
x,y,z
-x,1/2+y,-z
-x,-y,-z
x,1/2-y,z
loop_
_atom_site_type_symbol
_atom_site_label
_atom_site_fract_x
_atom_site_fract_y
_atom_site_fract_z
Si Si1 0.223085 0.423689 0.924224
Si Si2 0.126662 0.908394 0.972132
Si Si3 0.447676 0.421344 0.510436
Si Si4 0.274109 0.574966 0.512068
Si Si5 0.378429 0.423160 0.897456
Si Si6 0.057143 0.542653 0.363506
Si Si7 0.978895 0.750000 0.926448
O O1 0.230491 0.250000 0.916468
O O2 0.263043 0.498655 0.204571
O O3 0.165704 0.465334 0.946119
O O4 0.232191 0.504098 0.652903
O O5 0.152665 0.750000 0.976826
O O6 0.075460 0.914276 0.694111
O O7 0.105737 0.918791 0.242404
O O8 0.500000 0.500000 0.500000
O O9 0.456849 0.250000 0.498289
O O10 0.428224 0.450807 0.782318
O O11 0.398472 0.456540 0.232110
O O12 0.270891 0.750000 0.494848
O O13 0.330034 0.519828 0.719917
O O14 0.365105 0.250000 0.855620
O O15 0.046951 0.375585 0.306590
O O16 0.007123 0.628166 0.170576
#
# Coordination Sequence:
#
# PCOD9164679 Si02
#       7
#     4   4   4   4   4   4   2
#     4  12  27  45  71  98 132 174 220 271 332 401
#     4  12  24  44  65  95 129 167 208 262 322 380
#     4  10  21  36  57  87 126 170 216 269 322 380
#     4  12  25  45  70 101 133 171 220 280 337 394
#     4  10  21  38  61  89 125 169 218 268 325 387
#     4  11  25  41  67  92 130 164 212 257 315 375
#     4  10  24  44  64  96 126 170 208 260 312 376
#
# _framework density 22.640554000000002
#
# number of rings (size 3 to 8) (size 9 to 14) (size 15 to 20)
#    0.000    0.923    1.538    5.077    2.154    6.154 
#    0.000    0.000    0.000    0.000    0.000    0.000 
#    0.000    0.000    0.000    0.000    0.000    0.000 
#
# Total GULP energy -145051.708724 kJ/mol
# GULP energy per Si atom -5578.911874 kJ/mol
# Density = 2.258902 g / cm^3
# Si number density = 22.640554 Si / 1000 Ang^3
#
#
#
# Elastic Constant Matrix: (Units=GPa)
#
#
# Indices 1 2 3 4 5 6 
#
# 1 61.7027 13.2612 5.6161 0.0000 -0.3266 0.0000
# 2 13.2612 184.6518 17.4888 0.0000 5.4623 0.0000
# 3 5.6161 17.4888 57.1076 0.0000 -5.1155 0.0000
# 4 0.0000 0.0000 0.0000 29.2372 0.0000 7.5790
# 5 -0.3266 5.4623 -5.1155 0.0000 25.4790 0.0000
# 6 0.0000 0.0000 0.0000 7.5790 0.0000 85.9780
#
#
#
# Elastic Compliance Matrix: (Units=1/GPa)
#
#
# Indices 1 2 3 4 5 6 
#
# 1 0.016555 -0.001073 -0.001283 0.000000 0.000185 0.000000
# 2 -0.001073 0.005709 -0.001786 0.000000 -0.001596 0.000000
# 3 -0.001283 -0.001786 0.018550 0.000000 0.004091 0.000000
# 4 0.000000 0.000000 0.000000 0.035003 0.000000 -0.003086
# 5 0.000185 -0.001596 0.004091 0.000000 0.040414 0.000000
# 6 0.000000 0.000000 0.000000 -0.003086 0.000000 0.011903
#
#
# Mechanical properties :
#
#
# Convention : Reuss Voigt Hill
#
# Bulk Modulus (GPa) = 30.73984 41.79936 36.26960
# Shear Modulus (GPa) = 33.95334 45.94526 39.94930
#
# Velocity S-wave (km/s) = 3.87676 4.50970 4.20515
# Velocity P-wave (km/s) = 5.80050 6.75417 6.29542
#
# Compressibility (1/GPa) = 0.03253107
#
# Stress axis : x y z
#
# Youngs Moduli (GPa) = 60.40443 175.16180 53.90749
#
# Poissons Ratio (x) = 0.18793 0.06916
# Poissons Ratio (y) = 0.06481 0.09627
# Poissons Ratio (z) = 0.07750 0.31281
#
# Static dielectric constant tensor:
#      x y z
#    x 1.884960 0.000000 0.003260 
#    y 0.000000 1.760620 0.000000 
#    z 0.003260 0.000000 1.823260 
# 
# From -- ./inp_files/9618.got.cif
#   From: 2010.05.17/outbox.cif.g08.bks.cpg/sg11_5_cif.got.tgz:9618.got - 2010.06.03 12:22:45.
