data_PCOD9164310
_publ_section_title
;
Structure prediction by ZEFSAII (Michael W. Deem and Ramdas Pophale) SiO2 
 PCOD9164310
Probable space group: P 21/M
;
_chemical_formula_sum "Si O2"
_cell_formula_units_Z 20
_cell_length_a 13.470798
_cell_length_b 14.673034
_cell_length_c 5.124198
_cell_angle_alpha 90.000000
_cell_angle_beta 83.625166
_cell_angle_gamma 90.000000
_cell_volume 1006.573464
_symmetry_space_group_name_H-M "P 21/M"
_symmetry_group_IT_number 11
_symmetry_cell_setting 'monoclinic'
loop_
_space_group_symop_operation_xyz
x,y,z
-x,1/2+y,-z
-x,-y,-z
x,1/2-y,z
loop_
_atom_site_type_symbol
_atom_site_label
_atom_site_fract_x
_atom_site_fract_y
_atom_site_fract_z
Si Si1 0.396534 0.750000 0.742309
Si Si2 0.475374 0.250000 0.778387
Si Si3 0.038730 0.750000 0.754565
Si Si4 0.175144 0.750000 0.214328
Si Si5 0.743318 0.092436 0.149432
Si Si6 0.562292 0.538289 0.224764
Si Si7 0.033765 0.945290 0.739547
O O1 0.489570 0.750000 0.529597
O O2 0.329093 0.664127 0.688566
O O3 0.436509 0.750000 0.027280
O O4 0.429221 0.148131 0.809418
O O5 0.127200 0.750000 0.511835
O O6 0.984575 0.845311 0.738193
O O7 0.085000 0.750000 0.029905
O O8 0.230531 0.655239 0.115901
O O9 0.847435 0.070171 0.258427
O O10 0.672826 0.004815 0.158840
O O11 0.500000 0.500000 0.500000
O O12 0.500000 0.500000 0.000000
O O13 0.000000 0.000000 0.500000
O O14 0.000000 0.000000 0.000000
#
# Coordination Sequence:
#
# PCOD9164310 Si02
#       7
#     2   2   2   2   4   4   4
#     4  11  22  38  68  93 120 163 218 284 318 361
#     4  12  22  41  60  97 130 168 218 261 324 385
#     4  10  20  41  62  93 123 160 209 287 310 361
#     4   9  20  34  64  91 121 155 221 270 322 353
#     4  10  22  40  63  96 128 170 212 270 327 374
#     4  12  24  40  63  93 134 174 211 267 329 391
#     4  11  24  41  65  96 130 168 220 268 325 391
#
# _framework density 19.869389999999999
#
# number of rings (size 3 to 8) (size 9 to 14) (size 15 to 20)
#    0.000    1.200    4.000    3.000    0.000   12.800 
#    0.000    2.000    0.000    0.000    0.000    0.000 
#    0.000    0.000    0.000    0.000    0.000    0.000 
#
# Total GULP energy -111394.595518 kJ/mol
# GULP energy per Si atom -5569.729776 kJ/mol
# Density = 1.982417 g / cm^3
# Si number density = 19.869390 Si / 1000 Ang^3
#
#
#
# Elastic Constant Matrix: (Units=GPa)
#
#
# Indices 1 2 3 4 5 6 
#
# 1 66.7681 53.2789 15.9618 0.0000 16.3972 0.0000
# 2 53.2789 225.9374 43.9003 0.0000 3.3219 0.0000
# 3 15.9618 43.9003 88.8749 0.0000 16.5788 0.0000
# 4 0.0000 0.0000 0.0000 20.3387 0.0000 -6.4840
# 5 16.3972 3.3219 16.5788 0.0000 22.2558 0.0000
# 6 0.0000 0.0000 0.0000 -6.4840 0.0000 49.3568
#
#
#
# Elastic Compliance Matrix: (Units=1/GPa)
#
#
# Indices 1 2 3 4 5 6 
#
# 1 0.023380 -0.005620 0.001898 0.000000 -0.017800 0.000000
# 2 -0.005620 0.006277 -0.003123 0.000000 0.005530 0.000000
# 3 0.001898 -0.003123 0.014665 0.000000 -0.011856 0.000000
# 4 0.000000 0.000000 0.000000 0.051316 0.000000 0.006741
# 5 -0.017800 0.005530 -0.011856 0.000000 0.066053 0.000000
# 6 0.000000 0.000000 0.000000 0.006741 0.000000 0.021146
#
#
# Mechanical properties :
#
#
# Convention : Reuss Voigt Hill
#
# Bulk Modulus (GPa) = 32.64657 67.54028 50.09342
# Shear Modulus (GPa) = 24.18517 36.28623 30.23570
#
# Velocity S-wave (km/s) = 3.49263 4.27809 3.90516
# Velocity P-wave (km/s) = 5.72109 7.64648 6.75276
#
# Compressibility (1/GPa) = 0.03063109
#
# Stress axis : x y z
#
# Youngs Moduli (GPa) = 42.77207 159.31777 68.18906
#
# Poissons Ratio (x) = 0.89541 -0.12940
# Poissons Ratio (y) = 0.24039 0.21293
# Poissons Ratio (z) = -0.08117 0.49749
#
# Static dielectric constant tensor:
#      x y z
#    x 1.714600 0.000000 -0.021590 
#    y 0.000000 1.787950 0.000000 
#    z -0.021590 0.000000 1.718010 
# 
# From -- ./inp_files/4152.got.cif
#   From: 2010.05.17/outbox.cif.g08.bks.cpg/sg11_3_cif.got.tgz:4152.got - 2010.06.03 12:22:45.
