data_PCOD9164617
_publ_section_title
;
Structure prediction by ZEFSAII (Michael W. Deem and Ramdas Pophale) SiO2 
 PCOD9164617
Probable space group: P 21/M
;
_chemical_formula_sum "Si O2"
_cell_formula_units_Z 30
_cell_length_a 25.788467
_cell_length_b 9.456472
_cell_length_c 7.022703
_cell_angle_alpha 90.000000
_cell_angle_beta 132.834113
_cell_angle_gamma 90.000000
_cell_volume 1255.901508
_symmetry_space_group_name_H-M "P 21/M"
_symmetry_group_IT_number 11
_symmetry_cell_setting 'monoclinic'
loop_
_space_group_symop_operation_xyz
x,y,z
-x,1/2+y,-z
-x,-y,-z
x,1/2-y,z
loop_
_atom_site_type_symbol
_atom_site_label
_atom_site_fract_x
_atom_site_fract_y
_atom_site_fract_z
Si Si1 0.948799 0.010549 0.609209
Si Si2 0.854668 0.580089 0.703016
Si Si3 0.979584 0.750000 0.407960
Si Si4 0.173901 0.913268 0.985731
Si Si5 0.536007 0.592125 0.313602
Si Si6 0.415944 0.091797 0.136376
Si Si7 0.281729 0.912375 0.747754
Si Si8 0.670893 0.408000 0.575812
O O1 0.920839 0.977346 0.748538
O O2 0.971237 0.871587 0.552250
O O3 0.007268 0.127940 0.721802
O O4 0.881319 0.071284 0.321287
O O5 0.851147 0.750000 0.694300
O O6 0.847132 0.518101 0.896917
O O7 0.786608 0.512104 0.424326
O O8 0.170500 0.750000 0.045942
O O9 0.255364 0.941085 0.132408
O O10 0.523023 0.750000 0.204041
O O11 0.545222 0.607698 0.565047
O O12 0.469953 0.486186 0.128067
O O13 0.609783 0.521923 0.439659
O O14 0.395176 0.250000 0.019825
O O15 0.349043 0.990797 0.005088
O O16 0.269528 0.750000 0.782129
O O17 0.304285 0.902893 0.581240
O O18 0.645876 0.250000 0.568958
#
# Coordination Sequence:
#
# PCOD9164617 Si02
#       8
#     4   4   2   4   4   4   4   4
#     4  11  23  46  69  96 137 172 210 268 314 381
#     4  11  24  41  66  99 132 170 218 267 321 380
#     4  10  24  44  70  98 134 170 218 258 310 386
#     4  10  23  42  67  97 130 173 220 263 321 383
#     4  10  21  36  55  82 115 156 203 251 308 371
#     4  10  21  37  56  82 117 156 203 255 307 370
#     4  10  22  39  60  87 120 158 206 256 307 374
#     4   9  20  38  57  85 117 152 203 254 302 368
#
# _framework density 23.887225000000001
#
# number of rings (size 3 to 8) (size 9 to 14) (size 15 to 20)
#    0.000    1.867    1.333    2.400    4.667    4.800 
#    0.000    4.000    0.000    0.000    0.000    0.000 
#    0.000    0.000    0.000    0.000    0.000    0.000 
#
# Total GULP energy -167368.957056 kJ/mol
# GULP energy per Si atom -5578.965235 kJ/mol
# Density = 2.383286 g / cm^3
# Si number density = 23.887225 Si / 1000 Ang^3
#
#
#
# Elastic Constant Matrix: (Units=GPa)
#
#
# Indices 1 2 3 4 5 6 
#
# 1 113.3562 59.6025 -7.3188 0.0000 11.3875 0.0000
# 2 59.6025 196.3730 16.1865 0.0000 29.3404 0.0000
# 3 -7.3188 16.1865 69.1658 0.0000 12.4624 0.0000
# 4 0.0000 0.0000 0.0000 69.3701 0.0000 42.4954
# 5 11.3875 29.3404 12.4624 0.0000 33.1818 0.0000
# 6 0.0000 0.0000 0.0000 42.4954 0.0000 64.0704
#
#
#
# Elastic Compliance Matrix: (Units=1/GPa)
#
#
# Indices 1 2 3 4 5 6 
#
# 1 0.010824 -0.003213 0.002204 0.000000 -0.001702 0.000000
# 2 -0.003213 0.006835 -0.001125 0.000000 -0.004519 0.000000
# 3 0.002204 -0.001125 0.015994 0.000000 -0.005768 0.000000
# 4 0.000000 0.000000 0.000000 0.024281 0.000000 -0.016105
# 5 -0.001702 -0.004519 -0.005768 0.000000 0.036883 0.000000
# 6 0.000000 0.000000 0.000000 -0.016105 0.000000 0.026289
#
#
# Mechanical properties :
#
#
# Convention : Reuss Voigt Hill
#
# Bulk Modulus (GPa) = 34.03107 57.31504 45.67306
# Shear Modulus (GPa) = 36.99027 54.01943 45.50485
#
# Velocity S-wave (km/s) = 3.93942 4.76061 4.36935
# Velocity P-wave (km/s) = 5.91350 7.36641 6.67958
#
# Compressibility (1/GPa) = 0.02938491
#
# Stress axis : x y z
#
# Youngs Moduli (GPa) = 92.38520 146.29715 62.52383
#
# Poissons Ratio (x) = 0.47002 -0.13779
# Poissons Ratio (y) = 0.29681 0.07036
# Poissons Ratio (z) = -0.20360 0.16464
#
# Static dielectric constant tensor:
#      x y z
#    x 1.910930 0.000000 -0.012690 
#    y 0.000000 1.854320 0.000000 
#    z -0.012690 0.000000 1.997890 
# 
# From -- ./inp_files/28104.got.cif
#   From: 2010.05.17/outbox.cif.g08.bks.cpg/sg11_15_cif.got.tgz:28104.got - 2010.06.03 12:22:45.
