data_PCOD9164744
_publ_section_title
;
Structure prediction by ZEFSAII (Michael W. Deem and Ramdas Pophale) SiO2 
 PCOD9164744
Probable space group: P 21/M
;
_chemical_formula_sum "Si O2"
_cell_formula_units_Z 28
_cell_length_a 14.862411
_cell_length_b 8.553773
_cell_length_c 12.925423
_cell_angle_alpha 90.000000
_cell_angle_beta 58.210235
_cell_angle_gamma 90.000000
_cell_volume 1396.702595
_symmetry_space_group_name_H-M "P 21/M"
_symmetry_group_IT_number 11
_symmetry_cell_setting 'monoclinic'
loop_
_space_group_symop_operation_xyz
x,y,z
-x,1/2+y,-z
-x,-y,-z
x,1/2-y,z
loop_
_atom_site_type_symbol
_atom_site_label
_atom_site_fract_x
_atom_site_fract_y
_atom_site_fract_z
Si Si1 0.381313 0.060991 0.082832
Si Si2 0.784789 0.436859 0.226424
Si Si3 0.999114 0.437499 0.821539
Si Si4 0.928111 0.938381 0.451434
Si Si5 0.690521 0.561191 0.645966
Si Si6 0.768123 0.562866 0.016488
Si Si7 0.603102 0.062959 0.494808
O O1 0.382242 0.250000 0.081559
O O2 0.336085 0.010144 0.221651
O O3 0.306975 0.010283 0.032508
O O4 0.500000 0.000000 0.000000
O O5 0.794724 0.250000 0.223346
O O6 0.738210 0.488675 0.144541
O O7 0.706562 0.488152 0.366160
O O8 0.900642 0.510658 0.171106
O O9 0.988941 0.250000 0.832566
O O10 0.027831 0.486726 0.686814
O O11 0.888710 0.513330 0.920499
O O12 0.928095 0.750000 0.453427
O O13 0.808062 0.991892 0.542677
O O14 0.000000 0.000000 0.500000
O O15 0.688131 0.750000 0.645194
O O16 0.612196 0.498581 0.605875
O O17 0.761868 0.750000 0.028056
O O18 0.601165 0.250000 0.496448
O O19 0.500000 0.000000 0.500000
#
# Coordination Sequence:
#
# PCOD9164744 Si02
#       7
#     4   4   4   4   4   4   4
#     4  10  24  43  65  91 123 164 208 257 309 364
#     4  11  24  42  64  93 127 165 208 256 310 369
#     4  11  22  39  63  93 126 164 207 254 310 370
#     4  10  21  36  60  90 124 162 203 252 305 365
#     4  10  21  42  65  90 125 162 204 254 308 366
#     4  11  24  42  64  91 127 168 209 256 309 370
#     4  11  25  42  65  95 126 163 207 257 312 370
#
# _framework density 20.047215999999999
#
# number of rings (size 3 to 8) (size 9 to 14) (size 15 to 20)
#    0.000    1.429    1.429    3.000    2.000    6.286 
#    0.000    0.000    0.000    0.000    0.000    0.000 
#    0.000    0.000    0.000    0.000    0.000    0.000 
#
# Total GULP energy -156593.840554 kJ/mol
# GULP energy per Si atom -5592.637163 kJ/mol
# Density = 2.000159 g / cm^3
# Si number density = 20.047216 Si / 1000 Ang^3
#
#
#
# Elastic Constant Matrix: (Units=GPa)
#
#
# Indices 1 2 3 4 5 6 
#
# 1 117.0247 1.2725 20.4786 0.0000 24.2618 0.0000
# 2 1.2725 7.9017 4.3640 0.0000 3.2430 0.0000
# 3 20.4786 4.3640 88.6331 0.0000 25.3152 0.0000
# 4 0.0000 0.0000 0.0000 30.8673 0.0000 3.3998
# 5 24.2618 3.2430 25.3152 0.0000 41.6987 0.0000
# 6 0.0000 0.0000 0.0000 3.3998 0.0000 35.8008
#
#
#
# Elastic Compliance Matrix: (Units=1/GPa)
#
#
# Indices 1 2 3 4 5 6 
#
# 1 0.009768 0.001035 -0.000800 0.000000 -0.005278 0.000000
# 2 0.001035 0.132189 -0.004403 0.000000 -0.008210 0.000000
# 3 -0.000800 -0.004403 0.013856 0.000000 -0.007604 0.000000
# 4 0.000000 0.000000 0.000000 0.032739 0.000000 -0.003109
# 5 -0.005278 -0.008210 -0.007604 0.000000 0.032307 0.000000
# 6 0.000000 0.000000 0.000000 -0.003109 0.000000 0.028228
#
#
# Mechanical properties :
#
#
# Convention : Reuss Voigt Hill
#
# Bulk Modulus (GPa) = 6.78070 29.53221 18.15645
# Shear Modulus (GPa) = 16.30879 34.16964 25.23922
#
# Velocity S-wave (km/s) = 2.85532 4.13299 3.55207
# Velocity P-wave (km/s) = 3.77626 6.12689 5.08915
#
# Compressibility (1/GPa) = 0.14747736
#
# Stress axis : x y z
#
# Youngs Moduli (GPa) = 102.37207 7.56490 72.17113
#
# Poissons Ratio (x) = -0.00783 0.05777
# Poissons Ratio (y) = -0.10597 0.31776
# Poissons Ratio (z) = 0.08194 0.03331
#
# Static dielectric constant tensor:
#      x y z
#    x 1.677000 0.000000 0.008330 
#    y 0.000000 1.681480 0.000000 
#    z 0.008330 0.000000 1.710700 
# 
# From -- ./inp_files/37874.got.cif
#   From: 2010.05.17/outbox.cif.g08.bks.cpg/sg11_19_cif.got.tgz:37874.got - 2010.06.03 12:22:45.
