data_PCOD9164421
_publ_section_title
;
Structure prediction by ZEFSAII (Michael W. Deem and Ramdas Pophale) SiO2 
 PCOD9164421
Probable space group: P 21/M
;
_chemical_formula_sum "Si O2"
_cell_formula_units_Z 28
_cell_length_a 6.203748
_cell_length_b 21.069384
_cell_length_c 12.072808
_cell_angle_alpha 90.000000
_cell_angle_beta 114.560680
_cell_angle_gamma 90.000000
_cell_volume 1435.249107
_symmetry_space_group_name_H-M "P 21/M"
_symmetry_group_IT_number 11
_symmetry_cell_setting 'monoclinic'
loop_
_space_group_symop_operation_xyz
x,y,z
-x,1/2+y,-z
-x,-y,-z
x,1/2-y,z
loop_
_atom_site_type_symbol
_atom_site_label
_atom_site_fract_x
_atom_site_fract_y
_atom_site_fract_z
Si Si1 0.691838 0.823466 0.088735
Si Si2 0.936235 0.912324 0.504480
Si Si3 0.900736 0.537344 0.745608
Si Si4 0.408492 0.178420 0.668960
Si Si5 0.606948 0.475008 0.407967
Si Si6 0.155337 0.597063 0.191697
Si Si7 0.343816 0.936712 0.991327
O O1 0.668810 0.750000 0.047317
O O2 0.657545 0.823889 0.214836
O O3 0.949169 0.853193 0.120040
O O4 0.500320 0.873815 0.002342
O O5 0.926751 0.929587 0.632320
O O6 0.811089 0.847578 0.447355
O O7 0.210386 0.918524 0.532420
O O8 0.777497 0.966733 0.408438
O O9 0.619246 0.542899 0.714086
O O10 0.939717 0.461245 0.756039
O O11 0.102112 0.563018 0.869301
O O12 0.470735 0.250000 0.653366
O O13 0.633359 0.133075 0.702012
O O14 0.500000 0.500000 0.500000
O O15 0.260820 0.567304 0.101395
O O16 0.500000 0.000000 0.000000
#
# Coordination Sequence:
#
# PCOD9164421 Si02
#       7
#     4   4   4   4   4   4   4
#     4  10  23  40  60  86 121 161 203 248 306 366
#     4  10  21  34  56  84 119 153 188 239 297 356
#     4  11  22  34  57  92 118 150 191 248 308 357
#     4  10  22  39  59  86 118 158 201 246 294 362
#     4   9  20  32  52  82 118 148 182 230 296 348
#     4  11  22  36  63  88 123 153 203 252 313 357
#     4  11  24  38  61  93 123 157 203 260 305 361
#
# _framework density 19.508807000000001
#
# number of rings (size 3 to 8) (size 9 to 14) (size 15 to 20)
#    0.000    1.714    2.857    0.857    8.000    0.571 
#    0.000    0.714    0.000    0.857    0.000    0.000 
#    0.000    0.000    0.000    0.000    0.000    0.000 
#
# Total GULP energy -156254.519932 kJ/mol
# GULP energy per Si atom -5580.518569 kJ/mol
# Density = 1.946440 g / cm^3
# Si number density = 19.508807 Si / 1000 Ang^3
#
#
#
# Elastic Constant Matrix: (Units=GPa)
#
#
# Indices 1 2 3 4 5 6 
#
# 1 98.6961 39.6488 43.9875 0.0000 28.1391 0.0000
# 2 39.6488 124.4252 53.9912 0.0000 14.8786 0.0000
# 3 43.9875 53.9912 88.4532 0.0000 31.6996 0.0000
# 4 0.0000 0.0000 0.0000 28.3944 0.0000 7.4964
# 5 28.1391 14.8786 31.6996 0.0000 41.8603 0.0000
# 6 0.0000 0.0000 0.0000 7.4964 0.0000 24.4864
#
#
#
# Elastic Compliance Matrix: (Units=1/GPa)
#
#
# Indices 1 2 3 4 5 6 
#
# 1 0.014399 -0.002317 -0.003531 0.000000 -0.006182 0.000000
# 2 -0.002317 0.011384 -0.006732 0.000000 0.002609 0.000000
# 3 -0.003531 -0.006732 0.021221 0.000000 -0.011304 0.000000
# 4 0.000000 0.000000 0.000000 0.038315 0.000000 -0.011730
# 5 -0.006182 0.002609 -0.011304 0.000000 0.035678 0.000000
# 6 0.000000 0.000000 0.000000 -0.011730 0.000000 0.044430
#
#
# Mechanical properties :
#
#
# Convention : Reuss Voigt Hill
#
# Bulk Modulus (GPa) = 45.77538 65.20326 55.48932
# Shear Modulus (GPa) = 25.26933 30.54469 27.90701
#
# Velocity S-wave (km/s) = 3.60290 3.96117 3.78628
# Velocity P-wave (km/s) = 6.38927 7.37673 6.90069
#
# Compressibility (1/GPa) = 0.02184581
#
# Stress axis : x y z
#
# Youngs Moduli (GPa) = 69.44881 87.84002 47.12227
#
# Poissons Ratio (x) = 0.20352 0.16639
# Poissons Ratio (y) = 0.16091 0.31721
# Poissons Ratio (z) = 0.24522 0.59130
#
# Static dielectric constant tensor:
#      x y z
#    x 1.749240 0.000000 -0.003700 
#    y 0.000000 1.689220 0.000000 
#    z -0.003700 0.000000 1.705030 
# 
# From -- ./inp_files/5037.got.cif
#   From: 2010.05.17/outbox.cif.g08.bks.cpg/sg11_3_cif.got.tgz:5037.got - 2010.06.03 12:22:45.
