data_PCOD9164393
_publ_section_title
;
Structure prediction by ZEFSAII (Michael W. Deem and Ramdas Pophale) SiO2 
 PCOD9164393
Probable space group: P 21/M
;
_chemical_formula_sum "Si O2"
_cell_formula_units_Z 24
_cell_length_a 7.832114
_cell_length_b 7.393034
_cell_length_c 20.486213
_cell_angle_alpha 90.000000
_cell_angle_beta 45.166585
_cell_angle_gamma 90.000000
_cell_volume 841.215794
_symmetry_space_group_name_H-M "P 21/M"
_symmetry_group_IT_number 11
_symmetry_cell_setting 'monoclinic'
loop_
_space_group_symop_operation_xyz
x,y,z
-x,1/2+y,-z
-x,-y,-z
x,1/2-y,z
loop_
_atom_site_type_symbol
_atom_site_label
_atom_site_fract_x
_atom_site_fract_y
_atom_site_fract_z
Si Si1 0.558897 0.033999 0.059183
Si Si2 0.386985 0.039656 0.235118
Si Si3 0.943426 0.970013 0.115123
Si Si4 0.868121 0.535321 0.276555
Si Si5 0.217245 0.034244 0.560864
Si Si6 0.303105 0.466787 0.398094
O O1 0.559318 0.250000 0.068321
O O2 0.383087 0.959319 0.162910
O O3 0.834931 0.966623 0.988768
O O4 0.500000 0.000000 0.000000
O O5 0.325976 0.250000 0.251524
O O6 0.274232 0.958128 0.332051
O O7 0.677453 0.031227 0.168666
O O8 0.942795 0.750000 0.115894
O O9 0.989070 0.034111 0.177766
O O10 0.900364 0.750000 0.270529
O O11 0.914011 0.465329 0.337862
O O12 0.584593 0.502698 0.338605
O O13 0.191366 0.250000 0.565379
O O14 0.172856 0.961816 0.499267
O O15 0.500000 0.000000 0.500000
O O16 0.278781 0.250000 0.402974
#
# Coordination Sequence:
#
# PCOD9164393 Si02
#       6
#     4   4   4   4   4   4
#     4  10  21  34  46  62  84 110 141 176 212 250
#     4   9  17  29  45  65  87 110 138 172 208 247
#     4   9  17  29  45  65  87 110 138 172 208 247
#     4   8  13  21  34  54  80 106 131 160 195 236
#     4   8  12  18  30  50  77 106 130 154 190 234
#     4   8  13  21  34  54  80 106 131 160 195 236
#
# _framework density 28.530131999999998
#
# number of rings (size 3 to 8) (size 9 to 14) (size 15 to 20)
#    0.000    3.333    0.000    0.500    0.000    1.333 
#    0.000    0.000    0.000    0.000    0.000    1.167 
#    0.000    0.000    0.000    0.000    0.000    0.000 
#
# Total GULP energy -134276.433513 kJ/mol
# GULP energy per Si atom -5594.851396 kJ/mol
# Density = 2.846520 g / cm^3
# Si number density = 28.530132 Si / 1000 Ang^3
#
#
#
# Elastic Constant Matrix: (Units=GPa)
#
#
# Indices 1 2 3 4 5 6 
#
# 1 128.6934 24.9643 44.1228 0.0000 42.7531 0.0000
# 2 24.9643 151.6528 27.3453 0.0000 -8.6482 0.0000
# 3 44.1228 27.3453 292.4458 0.0000 36.3309 0.0000
# 4 0.0000 0.0000 0.0000 15.3020 0.0000 -9.3023
# 5 42.7531 -8.6482 36.3309 0.0000 73.3680 0.0000
# 6 0.0000 0.0000 0.0000 -9.3023 0.0000 37.7499
#
#
#
# Elastic Compliance Matrix: (Units=1/GPa)
#
#
# Indices 1 2 3 4 5 6 
#
# 1 0.010334 -0.001923 -0.000643 0.000000 -0.005930 0.000000
# 2 -0.001923 0.007161 -0.000664 0.000000 0.002294 0.000000
# 3 -0.000643 -0.000664 0.003774 0.000000 -0.001573 0.000000
# 4 0.000000 0.000000 0.000000 0.076865 0.000000 0.018941
# 5 -0.005930 0.002294 -0.001573 0.000000 0.018135 0.000000
# 6 0.000000 0.000000 0.000000 0.018941 0.000000 0.031158
#
#
# Mechanical properties :
#
#
# Convention : Reuss Voigt Hill
#
# Bulk Modulus (GPa) = 67.52973 85.07298 76.30135
# Shear Modulus (GPa) = 31.48143 57.04130 44.26136
#
# Velocity S-wave (km/s) = 3.32542 4.47624 3.94304
# Velocity P-wave (km/s) = 6.20206 7.52323 6.89437
#
# Compressibility (1/GPa) = 0.01480829
#
# Stress axis : x y z
#
# Youngs Moduli (GPa) = 96.76856 139.64037 264.97922
#
# Poissons Ratio (x) = 0.26859 0.17026
# Poissons Ratio (y) = 0.18613 0.17605
# Poissons Ratio (z) = 0.06218 0.09278
#
# Static dielectric constant tensor:
#      x y z
#    x 2.394820 0.000000 0.017430 
#    y 0.000000 1.986980 0.000000 
#    z 0.017430 0.000000 2.289900 
# 
# From -- ./inp_files/24291.got.cif
#   From: 2010.05.17/outbox.cif.g08.bks.cpg/sg11_13_cif.got.tgz:24291.got - 2010.06.03 12:22:45.
