data_PCOD9164395
_publ_section_title
;
Structure prediction by ZEFSAII (Michael W. Deem and Ramdas Pophale) SiO2 
 PCOD9164395
Probable space group: P 21/M
;
_chemical_formula_sum "Si O2"
_cell_formula_units_Z 28
_cell_length_a 9.266117
_cell_length_b 13.534530
_cell_length_c 10.457834
_cell_angle_alpha 90.000000
_cell_angle_beta 103.386224
_cell_angle_gamma 90.000000
_cell_volume 1275.910932
_symmetry_space_group_name_H-M "P 21/M"
_symmetry_group_IT_number 11
_symmetry_cell_setting 'monoclinic'
loop_
_space_group_symop_operation_xyz
x,y,z
-x,1/2+y,-z
-x,-y,-z
x,1/2-y,z
loop_
_atom_site_type_symbol
_atom_site_label
_atom_site_fract_x
_atom_site_fract_y
_atom_site_fract_z
Si Si1 0.137789 0.365619 0.300368
Si Si2 0.379426 0.631814 0.279204
Si Si3 0.758880 0.865344 0.976313
Si Si4 0.550755 0.631144 0.573055
Si Si5 0.475364 0.534355 0.828632
Si Si6 0.071805 0.633831 0.116928
Si Si7 0.827184 0.368077 0.157692
O O1 0.121576 0.250000 0.329804
O O2 0.188946 0.368734 0.161858
O O3 0.277961 0.402672 0.409523
O O4 0.970638 0.404326 0.267465
O O5 0.379602 0.750000 0.260360
O O6 0.448040 0.609322 0.431414
O O7 0.481891 0.577943 0.195993
O O8 0.209076 0.594674 0.228427
O O9 0.734530 0.750000 0.002896
O O10 0.605205 0.923081 0.946172
O O11 0.902826 0.904561 0.082908
O O12 0.554030 0.750000 0.587938
O O13 0.494744 0.587066 0.694064
O O14 0.316434 0.568615 0.842567
O O15 0.056998 0.750000 0.144376
O O16 0.129948 0.626767 0.983293
O O17 0.800685 0.250000 0.177832
#
# Coordination Sequence:
#
# PCOD9164395 Si02
#       7
#     4   4   4   4   4   4   4
#     4   7  12  25  46  69  92 119 148 183 231 283
#     4  10  21  34  47  64  95 137 168 187 220 288
#     4   8  14  27  48  73  97 119 150 194 238 280
#     4   9  17  32  52  72  94 122 158 196 236 282
#     4  11  19  28  49  78  98 116 154 207 249 266
#     4   8  16  32  50  68  95 131 161 184 227 290
#     4   9  16  28  49  76  98 113 144 201 251 278
#
# _framework density 21.945104000000001
#
# number of rings (size 3 to 8) (size 9 to 14) (size 15 to 20)
#    0.000    3.143    0.000    4.286    0.000    1.143 
#    0.000    0.714    0.000    1.714    0.000   19.000 
#    0.000    0.000    0.000    0.000    0.000    0.000 
#
# Total GULP energy -156331.463921 kJ/mol
# GULP energy per Si atom -5583.266569 kJ/mol
# Density = 2.189516 g / cm^3
# Si number density = 21.945104 Si / 1000 Ang^3
#
#
#
# Elastic Constant Matrix: (Units=GPa)
#
#
# Indices 1 2 3 4 5 6 
#
# 1 158.5470 33.2866 52.2022 0.0000 46.4494 0.0000
# 2 33.2866 89.4029 29.3890 0.0000 16.6950 0.0000
# 3 52.2022 29.3890 100.5947 0.0000 42.2994 0.0000
# 4 0.0000 0.0000 0.0000 16.7341 0.0000 2.8040
# 5 46.4494 16.6950 42.2994 0.0000 40.8263 0.0000
# 6 0.0000 0.0000 0.0000 2.8040 0.0000 27.4458
#
#
#
# Elastic Compliance Matrix: (Units=1/GPa)
#
#
# Indices 1 2 3 4 5 6 
#
# 1 0.009694 -0.001627 -0.000350 0.000000 -0.010002 0.000000
# 2 -0.001627 0.012773 -0.002604 0.000000 -0.000675 0.000000
# 3 -0.000350 -0.002604 0.018195 0.000000 -0.017389 0.000000
# 4 0.000000 0.000000 0.000000 0.060799 0.000000 -0.006212
# 5 -0.010002 -0.000675 -0.017389 0.000000 0.054166 0.000000
# 6 0.000000 0.000000 0.000000 -0.006212 0.000000 0.037070
#
#
# Mechanical properties :
#
#
# Convention : Reuss Voigt Hill
#
# Bulk Modulus (GPa) = 31.74429 64.25559 47.99994
# Shear Modulus (GPa) = 23.54519 32.57903 28.06211
#
# Velocity S-wave (km/s) = 3.27909 3.85719 3.57983
# Velocity P-wave (km/s) = 5.36966 7.01291 6.24557
#
# Compressibility (1/GPa) = 0.03150173
#
# Stress axis : x y z
#
# Youngs Moduli (GPa) = 103.15476 78.29085 54.96032
#
# Poissons Ratio (x) = 0.12735 0.01922
# Poissons Ratio (y) = 0.16780 0.14310
# Poissons Ratio (z) = 0.03607 0.20385
#
# Static dielectric constant tensor:
#      x y z
#    x 1.805790 0.000000 0.046630 
#    y 0.000000 1.858660 0.000000 
#    z 0.046630 0.000000 1.804000 
# 
# From -- ./inp_files/17713.got.cif
#   From: 2010.05.17/outbox.cif.g08.bks.cpg/sg11_9_cif.got.tgz:17713.got - 2010.06.03 12:22:45.
