data_PCOD9164544
_publ_section_title
;
Structure prediction by ZEFSAII (Michael W. Deem and Ramdas Pophale) SiO2 
 PCOD9164544
Probable space group: P 21/M
;
_chemical_formula_sum "Si O2"
_cell_formula_units_Z 20
_cell_length_a 5.277455
_cell_length_b 14.134020
_cell_length_c 15.498163
_cell_angle_alpha 90.000000
_cell_angle_beta 102.511185
_cell_angle_gamma 90.000000
_cell_volume 1128.582141
_symmetry_space_group_name_H-M "P 21/M"
_symmetry_group_IT_number 11
_symmetry_cell_setting 'monoclinic'
loop_
_space_group_symop_operation_xyz
x,y,z
-x,1/2+y,-z
-x,-y,-z
x,1/2-y,z
loop_
_atom_site_type_symbol
_atom_site_label
_atom_site_fract_x
_atom_site_fract_y
_atom_site_fract_z
Si Si1 0.534448 0.453075 0.269013
Si Si2 0.278401 0.250000 0.465550
Si Si3 0.291923 0.750000 0.655886
Si Si4 0.885314 0.856890 0.843868
Si Si5 0.279855 0.455044 0.543982
Si Si6 0.432751 0.937896 0.912992
O O1 0.654981 0.347129 0.288415
O O2 0.635251 0.515888 0.353688
O O3 0.598673 0.494841 0.179808
O O4 0.226790 0.427236 0.238655
O O5 0.511909 0.250000 0.412316
O O6 0.283644 0.344139 0.523604
O O7 0.003189 0.250000 0.396650
O O8 0.886249 0.750000 0.811642
O O9 0.162723 0.883988 0.901346
O O10 0.671288 0.870214 0.903578
O O11 0.500000 0.500000 0.500000
O O12 0.000000 0.500000 0.500000
O O13 0.500000 0.000000 0.000000
#
# Coordination Sequence:
#
# PCOD9164544 Si02
#       6
#     4   2   2   4   4   4
#     4  10  23  35  63  90 122 154 203 245 306 351
#     4  12  24  40  58  85 129 159 211 248 294 362
#     4  12  22  36  62  93 115 155 201 264 296 344
#     4  10  21  35  61  90 115 150 198 252 297 344
#     4  12  24  39  59  89 122 169 197 246 307 353
#     4  10  22  38  59  86 119 153 188 244 305 358
#
# _framework density 17.721350000000001
#
# number of rings (size 3 to 8) (size 9 to 14) (size 15 to 20)
#    1.200    0.000    5.000    1.200    7.000    0.000 
#    0.000    0.000    4.400    0.000    0.000    0.000 
#    0.000    0.000    0.000    0.000    0.000    0.000 
#
# Total GULP energy -111438.791056 kJ/mol
# GULP energy per Si atom -5571.939553 kJ/mol
# Density = 1.768102 g / cm^3
# Si number density = 17.721350 Si / 1000 Ang^3
#
#
#
# Elastic Constant Matrix: (Units=GPa)
#
#
# Indices 1 2 3 4 5 6 
#
# 1 126.2247 30.0114 48.2158 0.0000 22.2965 0.0000
# 2 30.0114 99.8634 60.1018 0.0000 1.4132 0.0000
# 3 48.2158 60.1018 148.9900 0.0000 -5.9484 0.0000
# 4 0.0000 0.0000 0.0000 35.3867 0.0000 2.8216
# 5 22.2965 1.4132 -5.9484 0.0000 26.9327 0.0000
# 6 0.0000 0.0000 0.0000 2.8216 0.0000 20.5683
#
#
#
# Elastic Compliance Matrix: (Units=1/GPa)
#
#
# Indices 1 2 3 4 5 6 
#
# 1 0.011367 -0.001075 -0.003650 0.000000 -0.010160 0.000000
# 2 -0.001075 0.013422 -0.005104 0.000000 -0.000941 0.000000
# 3 -0.003650 -0.005104 0.010173 0.000000 0.005537 0.000000
# 4 0.000000 0.000000 0.000000 0.028572 0.000000 -0.003919
# 5 -0.010160 -0.000941 0.005537 0.000000 0.046813 0.000000
# 6 0.000000 0.000000 0.000000 -0.003919 0.000000 0.049156
#
#
# Mechanical properties :
#
#
# Convention : Reuss Voigt Hill
#
# Bulk Modulus (GPa) = 65.34752 72.41514 68.88133
# Shear Modulus (GPa) = 27.13502 32.36082 29.74792
#
# Velocity S-wave (km/s) = 3.91731 4.27792 4.10158
# Velocity P-wave (km/s) = 7.57730 8.08410 7.83480
#
# Compressibility (1/GPa) = 0.01530280
#
# Stress axis : x y z
#
# Youngs Moduli (GPa) = 87.97240 74.50511 98.29781
#
# Poissons Ratio (x) = 0.08012 0.35883
# Poissons Ratio (y) = 0.09460 0.50170
# Poissons Ratio (z) = 0.32114 0.38027
#
# Static dielectric constant tensor:
#      x y z
#    x 1.666250 0.000000 0.002220 
#    y 0.000000 1.694630 0.000000 
#    z 0.002220 0.000000 1.606730 
# 
# From -- ./inp_files/56852.got.cif
#   From: 2010.05.17/outbox.cif.g08.bks.cpg/sg11_29_cif.got.tgz:56852.got - 2010.06.03 12:22:45.
