data_PCOD9164070
_publ_section_title
;
Structure prediction by ZEFSAII (Michael W. Deem and Ramdas Pophale) SiO2 
 PCOD9164070
Probable space group: P 21/M
;
_chemical_formula_sum "Si O2"
_cell_formula_units_Z 22
_cell_length_a 10.774743
_cell_length_b 12.158076
_cell_length_c 11.437412
_cell_angle_alpha 90.000000
_cell_angle_beta 143.069622
_cell_angle_gamma 90.000000
_cell_volume 900.246336
_symmetry_space_group_name_H-M "P 21/M"
_symmetry_group_IT_number 11
_symmetry_cell_setting 'monoclinic'
loop_
_space_group_symop_operation_xyz
x,y,z
-x,1/2+y,-z
-x,-y,-z
x,1/2-y,z
loop_
_atom_site_type_symbol
_atom_site_label
_atom_site_fract_x
_atom_site_fract_y
_atom_site_fract_z
Si Si1 0.333147 0.250000 0.091578
Si Si2 0.696715 0.509330 0.234664
Si Si3 0.209373 0.014666 0.087901
Si Si4 0.051647 0.619845 0.761653
Si Si5 0.798082 0.750000 0.259130
Si Si6 0.231311 0.750000 0.451863
Si Si7 0.339264 0.518912 0.519570
O O1 0.219683 0.138402 0.044301
O O2 0.350166 0.250000 0.965633
O O3 0.553172 0.250000 0.317383
O O4 0.752903 0.637559 0.289936
O O5 0.661984 0.465571 0.338530
O O6 0.873666 0.443528 0.298348
O O7 0.500000 0.500000 0.000000
O O8 0.199473 0.926566 0.975493
O O9 0.418742 0.000565 0.320623
O O10 0.000000 0.000000 0.000000
O O11 0.064863 0.750000 0.758540
O O12 0.821419 0.579209 0.622054
O O13 0.028178 0.750000 0.378884
O O14 0.244803 0.632425 0.397968
#
# Coordination Sequence:
#
# PCOD9164070 Si02
#       7
#     2   4   4   4   2   2   4
#     4  10  20  44  67  97 123 170 231 275 324 387
#     4  12  24  40  66 101 137 177 217 268 331 403
#     4  11  25  47  72  95 130 175 231 283 334 388
#     4  12  27  44  66 101 140 178 219 271 340 404
#     4  12  22  40  65  90 137 175 217 259 331 396
#     4  10  20  38  66  91 128 169 222 260 313 393
#     4  11  24  43  67 102 136 175 221 272 334 396
#
# _framework density 24.437754999999999
#
# number of rings (size 3 to 8) (size 9 to 14) (size 15 to 20)
#    0.000    0.727    5.455    1.636    5.091    1.455 
#    0.000    0.000    0.000    0.000    0.000    0.000 
#    0.000    0.000    0.000    0.000    0.000    0.000 
#
# Total GULP energy -123292.198121 kJ/mol
# GULP energy per Si atom -5604.190824 kJ/mol
# Density = 2.438213 g / cm^3
# Si number density = 24.437755 Si / 1000 Ang^3
#
#
#
# Elastic Constant Matrix: (Units=GPa)
#
#
# Indices 1 2 3 4 5 6 
#
# 1 58.7603 34.8718 0.8281 0.0000 15.4814 0.0000
# 2 34.8718 236.1629 25.8828 0.0000 16.2247 0.0000
# 3 0.8281 25.8828 124.2471 0.0000 14.0327 0.0000
# 4 0.0000 0.0000 0.0000 40.9123 0.0000 4.5850
# 5 15.4814 16.2247 14.0327 0.0000 48.4368 0.0000
# 6 0.0000 0.0000 0.0000 4.5850 0.0000 24.5703
#
#
#
# Elastic Compliance Matrix: (Units=1/GPa)
#
#
# Indices 1 2 3 4 5 6 
#
# 1 0.020142 -0.002691 0.001087 0.000000 -0.005851 0.000000
# 2 -0.002691 0.004765 -0.000922 0.000000 -0.000469 0.000000
# 3 0.001087 -0.000922 0.008516 0.000000 -0.002506 0.000000
# 4 0.000000 0.000000 0.000000 0.024965 0.000000 -0.004659
# 5 -0.005851 -0.000469 -0.002506 0.000000 0.023399 0.000000
# 6 0.000000 0.000000 0.000000 -0.004659 0.000000 0.041569
#
#
# Mechanical properties :
#
#
# Convention : Reuss Voigt Hill
#
# Bulk Modulus (GPa) = 35.24670 60.25951 47.75310
# Shear Modulus (GPa) = 36.26763 46.62305 41.44534
#
# Velocity S-wave (km/s) = 3.85656 4.37261 4.12267
# Velocity P-wave (km/s) = 5.85535 7.08554 6.49961
#
# Compressibility (1/GPa) = 0.02837145
#
# Stress axis : x y z
#
# Youngs Moduli (GPa) = 49.64812 209.86380 117.42217
#
# Poissons Ratio (x) = 0.56481 -0.12767
# Poissons Ratio (y) = 0.13362 0.10823
# Poissons Ratio (z) = -0.05398 0.19344
#
# Static dielectric constant tensor:
#      x y z
#    x 1.976540 0.000000 -0.005660 
#    y 0.000000 1.798280 0.000000 
#    z -0.005660 0.000000 2.017060 
# 
# From -- ./inp_files/17054.got.cif
#   From: 2010.05.17/outbox.cif.g08.bks.cpg/sg11_9_cif.got.tgz:17054.got - 2010.06.03 12:22:45.
