data_PCOD9164146
_publ_section_title
;
Structure prediction by ZEFSAII (Michael W. Deem and Ramdas Pophale) SiO2 
 PCOD9164146
Probable space group: P 21/M
;
_chemical_formula_sum "Si O2"
_cell_formula_units_Z 20
_cell_length_a 9.147398
_cell_length_b 18.308976
_cell_length_c 6.967507
_cell_angle_alpha 90.000000
_cell_angle_beta 128.846571
_cell_angle_gamma 90.000000
_cell_volume 908.826162
_symmetry_space_group_name_H-M "P 21/M"
_symmetry_group_IT_number 11
_symmetry_cell_setting 'monoclinic'
loop_
_space_group_symop_operation_xyz
x,y,z
-x,1/2+y,-z
-x,-y,-z
x,1/2-y,z
loop_
_atom_site_type_symbol
_atom_site_label
_atom_site_fract_x
_atom_site_fract_y
_atom_site_fract_z
Si Si1 0.460939 0.076836 0.071077
Si Si2 0.826791 0.456546 0.757107
Si Si3 0.829039 0.336024 0.437803
Si Si4 0.426638 0.414961 0.498560
Si Si5 0.786536 0.831194 0.397204
O O1 0.638615 0.130486 0.199633
O O2 0.352747 0.924754 0.268209
O O3 0.290519 0.112258 0.818652
O O4 0.500000 0.000000 0.000000
O O5 0.880019 0.389680 0.659929
O O6 0.584396 0.579514 0.740012
O O7 0.000000 0.500000 0.000000
O O8 0.288174 0.480355 0.452808
O O9 0.810598 0.250000 0.476758
O O10 0.991040 0.341230 0.411145
O O11 0.330928 0.344384 0.507223
O O12 0.752798 0.750000 0.296285
#
# Coordination Sequence:
#
# PCOD9164146 Si02
#       5
#     4   4   4   4   4
#     4  11  23  43  68  91 124 169 214 264 321 382
#     4  10  20  39  63  88 123 163 208 257 311 374
#     4  10  23  41  62  92 130 170 212 262 323 387
#     4  10  23  39  62  97 123 157 215 265 311 373
#     4  11  24  41  62  92 129 168 210 261 322 383
#
# _framework density 22.006409000000001
#
# number of rings (size 3 to 8) (size 9 to 14) (size 15 to 20)
#    0.000    1.600    0.000    5.400    0.000   10.400 
#    0.000    1.000    0.000    2.400    0.000    0.000 
#    0.000    0.000    0.000    0.000    0.000    0.000 
#
# Total GULP energy -111457.110864 kJ/mol
# GULP energy per Si atom -5572.855543 kJ/mol
# Density = 2.195632 g / cm^3
# Si number density = 22.006409 Si / 1000 Ang^3
#
#
#
# Elastic Constant Matrix: (Units=GPa)
#
#
# Indices 1 2 3 4 5 6 
#
# 1 120.2813 50.0976 47.3570 0.0000 17.2789 0.0000
# 2 50.0976 108.0088 23.2792 0.0000 18.0164 0.0000
# 3 47.3570 23.2792 81.5309 0.0000 7.1216 0.0000
# 4 0.0000 0.0000 0.0000 35.3347 0.0000 3.4416
# 5 17.2789 18.0164 7.1216 0.0000 39.6234 0.0000
# 6 0.0000 0.0000 0.0000 3.4416 0.0000 36.6233
#
#
#
# Elastic Compliance Matrix: (Units=1/GPa)
#
#
# Indices 1 2 3 4 5 6 
#
# 1 0.012807 -0.004213 -0.006010 0.000000 -0.002589 0.000000
# 2 -0.004213 0.011933 -0.000657 0.000000 -0.003471 0.000000
# 3 -0.006010 -0.000657 0.015939 0.000000 0.000055 0.000000
# 4 0.000000 0.000000 0.000000 0.028562 0.000000 -0.002684
# 5 -0.002589 -0.003471 0.000055 0.000000 0.027935 0.000000
# 6 0.000000 0.000000 0.000000 -0.002684 0.000000 0.027557
#
#
# Mechanical properties :
#
#
# Convention : Reuss Voigt Hill
#
# Bulk Modulus (GPa) = 52.85589 61.25427 57.05508
# Shear Modulus (GPa) = 32.72290 34.92211 33.82250
#
# Velocity S-wave (km/s) = 3.86031 3.98792 3.92463
# Velocity P-wave (km/s) = 6.62872 7.00713 6.82055
#
# Compressibility (1/GPa) = 0.01891937
#
# Stress axis : x y z
#
# Youngs Moduli (GPa) = 78.08495 83.80044 62.74016
#
# Poissons Ratio (x) = 0.35305 0.37704
# Poissons Ratio (y) = 0.32897 0.04122
# Poissons Ratio (z) = 0.46926 0.05505
#
# Static dielectric constant tensor:
#      x y z
#    x 1.893430 0.000000 -0.009300 
#    y 0.000000 1.855800 0.000000 
#    z -0.009300 0.000000 1.830100 
# 
# From -- ./inp_files/6568.got.cif
#   From: 2010.05.17/outbox.cif.g08.bks.cpg/sg11_4_cif.got.tgz:6568.got - 2010.06.03 12:22:45.
