data_PCOD9164795
_publ_section_title
;
Structure prediction by ZEFSAII (Michael W. Deem and Ramdas Pophale) SiO2 
 PCOD9164795
Probable space group: P 21/M
;
_chemical_formula_sum "Si O2"
_cell_formula_units_Z 32
_cell_length_a 22.606921
_cell_length_b 8.840959
_cell_length_c 30.830680
_cell_angle_alpha 90.000000
_cell_angle_beta 17.576070
_cell_angle_gamma 90.000000
_cell_volume 1860.759407
_symmetry_space_group_name_H-M "P 21/M"
_symmetry_group_IT_number 11
_symmetry_cell_setting 'monoclinic'
loop_
_space_group_symop_operation_xyz
x,y,z
-x,1/2+y,-z
-x,-y,-z
x,1/2-y,z
loop_
_atom_site_type_symbol
_atom_site_label
_atom_site_fract_x
_atom_site_fract_y
_atom_site_fract_z
Si Si1 0.476145 0.931660 0.080545
Si Si2 0.677541 0.429519 0.348799
Si Si3 0.521679 0.929450 0.372003
Si Si4 0.924469 0.431413 0.329555
Si Si5 0.096416 0.570295 0.058591
Si Si6 0.265498 0.069023 0.022787
Si Si7 0.839875 0.571385 0.079600
Si Si8 0.184140 0.570921 0.216444
O O1 0.506847 0.750000 0.052414
O O2 0.263633 0.968433 0.209070
O O3 0.538149 0.962268 0.086587
O O4 0.635362 0.020337 0.940525
O O5 0.500000 0.500000 0.500000
O O6 0.682248 0.250000 0.350759
O O7 0.637057 0.477141 0.327544
O O8 0.884614 0.499122 0.217816
O O9 0.529203 0.750000 0.378460
O O10 0.295842 0.978435 0.527640
O O11 0.632393 0.945729 0.249016
O O12 0.927054 0.250000 0.329544
O O13 0.082451 0.475302 0.182178
O O14 0.999048 0.492222 0.323706
O O15 0.080912 0.750000 0.068073
O O16 0.243685 0.516264 0.993013
O O17 0.153034 0.507638 0.971802
O O18 0.252610 0.250000 0.024650
O O19 0.880374 0.750000 0.046038
O O20 0.000000 0.500000 0.000000
O O21 0.156852 0.750000 0.233306
#
# Coordination Sequence:
#
# PCOD9164795 Si02
#       8
#     4   4   4   4   4   4   4   4
#     4   8  15  27  43  65  97 135 168 201 243 292
#     4  12  24  37  55  76 102 133 167 205 252 306
#     4  10  21  37  56  76 100 131 171 211 253 303
#     4   9  18  32  49  72 104 137 164 201 251 303
#     4  12  24  37  53  75 103 133 170 212 258 306
#     4   9  17  31  50  72 102 137 170 205 251 301
#     4  11  22  38  59  78  98 129 171 218 261 303
#     4   9  15  24  42  69  99 132 168 201 238 292
#
# _framework density 17.197281
#
# number of rings (size 3 to 8) (size 9 to 14) (size 15 to 20)
#    0.000    2.000    1.250    4.500    0.000    4.500 
#    0.000    0.000    0.000    0.000    0.000    0.875 
#    0.000    0.000    0.000    0.000    0.000    0.000 
#
# Total GULP energy -178473.129519 kJ/mol
# GULP energy per Si atom -5577.285297 kJ/mol
# Density = 1.715814 g / cm^3
# Si number density = 17.197281 Si / 1000 Ang^3
#
#
#
# Elastic Constant Matrix: (Units=GPa)
#
#
# Indices 1 2 3 4 5 6 
#
# 1 124.9893 41.1268 11.0373 0.0000 1.3157 0.0000
# 2 41.1268 68.0713 10.4455 0.0000 9.5861 0.0000
# 3 11.0373 10.4455 13.8077 0.0000 10.4000 0.0000
# 4 0.0000 0.0000 0.0000 18.6117 0.0000 -0.9810
# 5 1.3157 9.5861 10.4000 0.0000 22.3662 0.0000
# 6 0.0000 0.0000 0.0000 -0.9810 0.0000 32.1608
#
#
#
# Elastic Compliance Matrix: (Units=1/GPa)
#
#
# Indices 1 2 3 4 5 6 
#
# 1 0.010642 -0.005964 -0.008386 0.000000 0.005829 0.000000
# 2 -0.005964 0.020018 -0.006431 0.000000 -0.005239 0.000000
# 3 -0.008386 -0.006431 0.125498 0.000000 -0.055105 0.000000
# 4 0.000000 0.000000 0.000000 0.053816 0.000000 0.001642
# 5 0.005829 -0.005239 -0.055105 0.000000 0.072236 0.000000
# 6 0.000000 0.000000 0.000000 0.001642 0.000000 0.031144
#
#
# Mechanical properties :
#
#
# Convention : Reuss Voigt Hill
#
# Bulk Modulus (GPa) = 8.72626 36.89860 22.81243
# Shear Modulus (GPa) = 12.71895 24.24499 18.48197
#
# Velocity S-wave (km/s) = 2.72249 3.75882 3.28182
# Velocity P-wave (km/s) = 3.86883 6.35146 5.25875
#
# Compressibility (1/GPa) = 0.11459664
#
# Stress axis : x y z
#
# Youngs Moduli (GPa) = 93.96551 49.95456 7.96827
#
# Poissons Ratio (x) = 0.29792 0.06682
# Poissons Ratio (y) = 0.56039 0.05124
# Poissons Ratio (z) = 0.78800 0.32125
#
# Static dielectric constant tensor:
#      x y z
#    x 1.620860 0.000000 -0.008700 
#    y 0.000000 1.578820 0.000000 
#    z -0.008700 0.000000 1.568440 
# 
# From -- ./inp_files/40656.got.cif
#   From: 2010.05.17/outbox.cif.g08.bks.cpg/sg11_21_cif.got.tgz:40656.got - 2010.06.03 12:22:45.
