data_PCOD9164895
_publ_section_title
;
Structure prediction by ZEFSAII (Michael W. Deem and Ramdas Pophale) SiO2 
 PCOD9164895
Probable space group: P 21/M
;
_chemical_formula_sum "Si O2"
_cell_formula_units_Z 30
_cell_length_a 18.408526
_cell_length_b 9.566539
_cell_length_c 7.523552
_cell_angle_alpha 90.000000
_cell_angle_beta 90.220001
_cell_angle_gamma 90.000000
_cell_volume 1324.931993
_symmetry_space_group_name_H-M "P 21/M"
_symmetry_group_IT_number 11
_symmetry_cell_setting 'monoclinic'
loop_
_space_group_symop_operation_xyz
x,y,z
-x,1/2+y,-z
-x,-y,-z
x,1/2-y,z
loop_
_atom_site_type_symbol
_atom_site_label
_atom_site_fract_x
_atom_site_fract_y
_atom_site_fract_z
Si Si1 0.834821 0.098262 0.068661
Si Si2 0.712316 0.911886 0.549944
Si Si3 0.295751 0.408724 0.019753
Si Si4 0.956835 0.471968 0.785196
Si Si5 0.427355 0.910869 0.461750
Si Si6 0.144147 0.909922 0.527112
Si Si7 0.570268 0.092234 0.964373
Si Si8 0.030829 0.250000 0.991940
O O1 0.796147 0.250000 0.052751
O O2 0.869313 0.094241 0.263261
O O3 0.779727 0.971483 0.046827
O O4 0.893892 0.092448 0.914700
O O5 0.710610 0.750000 0.489908
O O6 0.643736 0.001914 0.480027
O O7 0.786970 0.990093 0.504891
O O8 0.707145 0.909028 0.765203
O O9 0.307575 0.250000 0.961367
O O10 0.360150 0.510549 0.962287
O O11 0.924029 0.458060 0.589523
O O12 0.965336 0.627629 0.854910
O O13 0.023218 0.372538 0.837098
O O14 0.430544 0.750000 0.529098
O O15 0.421453 0.900669 0.248245
O O16 0.500000 0.000000 0.500000
O O17 0.162877 0.750000 0.472629
O O18 0.563203 0.250000 0.032674
O O19 0.500000 0.000000 0.000000
#
# Coordination Sequence:
#
# PCOD9164895 Si02
#       8
#     4   4   4   4   4   4   4   2
#     4  11  23  39  63  93 126 166 208 257 313 366
#     4  10  21  37  60  88 118 159 209 260 316 373
#     4  10  21  37  60  88 118 159 209 260 316 373
#     4  11  22  46  66  96 130 166 208 260 302 380
#     4  10  21  37  58  84 118 161 207 256 313 370
#     4  11  23  39  63  93 126 166 208 257 313 366
#     4  10  21  37  58  84 118 161 207 256 313 370
#     4  10  24  42  74  94 124 176 208 238 326 374
#
# _framework density 22.642672000000001
#
# number of rings (size 3 to 8) (size 9 to 14) (size 15 to 20)
#    0.000    1.600    2.667    1.600    1.867    4.267 
#    0.000    4.000    0.000    0.000    0.000    0.000 
#    0.000    0.000    0.000    0.000    0.000    0.000 
#
# Total GULP energy -167273.333094 kJ/mol
# GULP energy per Si atom -5575.777770 kJ/mol
# Density = 2.259114 g / cm^3
# Si number density = 22.642672 Si / 1000 Ang^3
#
#
#
# Elastic Constant Matrix: (Units=GPa)
#
#
# Indices 1 2 3 4 5 6 
#
# 1 67.0316 51.8158 10.3498 0.0000 -0.7211 0.0000
# 2 51.8158 241.7614 23.4244 0.0000 9.2147 0.0000
# 3 10.3498 23.4244 77.4692 0.0000 16.5376 0.0000
# 4 0.0000 0.0000 0.0000 28.4727 0.0000 13.3035
# 5 -0.7211 9.2147 16.5376 0.0000 27.9946 0.0000
# 6 0.0000 0.0000 0.0000 13.3035 0.0000 275.3970
#
#
#
# Elastic Compliance Matrix: (Units=1/GPa)
#
#
# Indices 1 2 3 4 5 6 
#
# 1 0.018197 -0.003826 -0.001880 0.000000 0.002839 0.000000
# 2 -0.003826 0.005079 -0.000740 0.000000 -0.001333 0.000000
# 3 -0.001880 -0.000740 0.015267 0.000000 -0.008824 0.000000
# 4 0.000000 0.000000 0.000000 0.035932 0.000000 -0.001736
# 5 0.002839 -0.001333 -0.008824 0.000000 0.041446 0.000000
# 6 0.000000 0.000000 0.000000 -0.001736 0.000000 0.003715
#
#
# Mechanical properties :
#
#
# Convention : Reuss Voigt Hill
#
# Bulk Modulus (GPa) = 38.98615 61.93803 50.46209
# Shear Modulus (GPa) = 35.44137 86.41764 60.92951
#
# Velocity S-wave (km/s) = 3.96061 6.18455 5.19303
# Velocity P-wave (km/s) = 6.17824 8.85507 7.63488
#
# Compressibility (1/GPa) = 0.02565014
#
# Stress axis : x y z
#
# Youngs Moduli (GPa) = 54.95483 196.89514 65.50115
#
# Poissons Ratio (x) = 0.75334 0.12315
# Poissons Ratio (y) = 0.21026 0.04847
# Poissons Ratio (z) = 0.10332 0.14569
#
# Static dielectric constant tensor:
#      x y z
#    x 1.812380 0.000000 -0.026670 
#    y 0.000000 1.819140 0.000000 
#    z -0.026670 0.000000 1.848350 
# 
# From -- ./inp_files/25886.got.cif
#   From: 2010.05.17/outbox.cif.g08.bks.cpg/sg11_13_cif.got.tgz:25886.got - 2010.06.03 12:22:45.
