data_PCOD9164704
_publ_section_title
;
Structure prediction by ZEFSAII (Michael W. Deem and Ramdas Pophale) SiO2 
 PCOD9164704
Probable space group: P 21/M
;
_chemical_formula_sum "Si O2"
_cell_formula_units_Z 32
_cell_length_a 24.663146
_cell_length_b 8.493096
_cell_length_c 14.659611
_cell_angle_alpha 90.000000
_cell_angle_beta 33.003876
_cell_angle_gamma 90.000000
_cell_volume 1672.595619
_symmetry_space_group_name_H-M "P 21/M"
_symmetry_group_IT_number 11
_symmetry_cell_setting 'monoclinic'
loop_
_space_group_symop_operation_xyz
x,y,z
-x,1/2+y,-z
-x,-y,-z
x,1/2-y,z
loop_
_atom_site_type_symbol
_atom_site_label
_atom_site_fract_x
_atom_site_fract_y
_atom_site_fract_z
Si Si1 0.674176 0.940974 0.649084
Si Si2 0.784305 0.940729 0.008913
Si Si3 0.705328 0.941784 0.813175
Si Si4 0.889135 0.940130 0.672274
Si Si5 0.872578 0.939959 0.262825
Si Si6 0.086326 0.439925 0.000941
Si Si7 0.513231 0.561449 0.198972
Si Si8 0.441355 0.936865 0.670306
O O1 0.668649 0.750000 0.655312
O O2 0.683718 0.992685 0.740638
O O3 0.773157 0.989673 0.454769
O O4 0.577552 0.008021 0.735986
O O5 0.780576 0.750000 0.014062
O O6 0.844653 0.993427 0.013384
O O7 0.671739 0.000702 0.168687
O O8 0.842647 0.989731 0.835106
O O9 0.705804 0.750000 0.812013
O O10 0.811330 0.992673 0.704059
O O11 0.616514 0.990793 0.005804
O O12 0.891297 0.750000 0.668695
O O13 0.000000 0.000000 0.500000
O O14 0.875883 0.750000 0.259285
O O15 0.874887 0.991685 0.153595
O O16 0.973042 0.002056 0.167607
O O17 0.086053 0.250000 0.002068
O O18 0.515032 0.750000 0.202819
O O19 0.507250 0.492198 0.308525
O O20 0.440399 0.750000 0.668510
O O21 0.500000 0.000000 0.500000
#
# Coordination Sequence:
#
# PCOD9164704 Si02
#       8
#     4   4   4   4   4   4   4   4
#     4  10  21  36  58  88 117 153 200 249 302 355
#     4  10  21  40  63  87 121 159 200 253 310 362
#     4   9  19  38  60  82 119 159 195 246 306 358
#     4  10  21  38  59  86 120 160 202 252 308 364
#     4   9  19  35  54  81 114 150 192 240 291 350
#     4   9  19  35  56  80 112 152 191 236 292 349
#     4  11  22  41  63  86 118 157 198 246 304 361
#     4  12  26  43  65  93 123 158 202 250 302 368
#
# _framework density 19.13194
#
# number of rings (size 3 to 8) (size 9 to 14) (size 15 to 20)
#    0.000    2.000    1.250    1.875    3.500    1.500 
#    0.000    1.250    0.000    0.000    0.000    0.000 
#    0.000    0.000    0.000    0.000    0.000    0.000 
#
# Total GULP energy -178753.380844 kJ/mol
# GULP energy per Si atom -5586.043151 kJ/mol
# Density = 1.908840 g / cm^3
# Si number density = 19.131940 Si / 1000 Ang^3
#
#
#
# Elastic Constant Matrix: (Units=GPa)
#
#
# Indices 1 2 3 4 5 6 
#
# 1 180.1923 27.8426 77.3468 0.0000 2.1906 0.0000
# 2 27.8426 21.6155 25.9162 0.0000 3.2090 0.0000
# 3 77.3468 25.9162 145.1821 0.0000 9.2189 0.0000
# 4 0.0000 0.0000 0.0000 21.2085 0.0000 -14.9615
# 5 2.1906 3.2090 9.2189 0.0000 14.6144 0.0000
# 6 0.0000 0.0000 0.0000 -14.9615 0.0000 20.2472
#
#
#
# Elastic Compliance Matrix: (Units=1/GPa)
#
#
# Indices 1 2 3 4 5 6 
#
# 1 0.007922 -0.006755 -0.003160 0.000000 0.002289 0.000000
# 2 -0.006755 0.065231 -0.007501 0.000000 -0.008579 0.000000
# 3 -0.003160 -0.007501 0.010184 0.000000 -0.004303 0.000000
# 4 0.000000 0.000000 0.000000 0.098495 0.000000 0.072782
# 5 0.002289 -0.008579 -0.004303 0.000000 0.072681 0.000000
# 6 0.000000 0.000000 0.000000 0.072782 0.000000 0.103171
#
#
# Mechanical properties :
#
#
# Convention : Reuss Voigt Hill
#
# Bulk Modulus (GPa) = 20.61645 67.68900 44.15272
# Shear Modulus (GPa) = 12.23439 25.60631 18.92035
#
# Velocity S-wave (km/s) = 2.53153 3.66239 3.14815
# Velocity P-wave (km/s) = 4.39820 7.30350 6.02848
#
# Compressibility (1/GPa) = 0.04850496
#
# Stress axis : x y z
#
# Youngs Moduli (GPa) = 126.23041 15.33009 98.19740
#
# Poissons Ratio (x) = 0.10356 0.31030
# Poissons Ratio (y) = 0.85274 0.73653
# Poissons Ratio (z) = 0.39889 0.11498
#
# Static dielectric constant tensor:
#      x y z
#    x 1.652110 0.000000 0.013790 
#    y 0.000000 1.655390 0.000000 
#    z 0.013790 0.000000 1.638980 
# 
# From -- ./inp_files/55583.got.cif
#   From: 2010.05.17/outbox.cif.g08.bks.cpg/sg11_28_cif.got.tgz:55583.got - 2010.06.03 12:22:45.
