data_PCOD9164486
_publ_section_title
;
Structure prediction by ZEFSAII (Michael W. Deem and Ramdas Pophale) SiO2 
 PCOD9164486
Probable space group: P 21/M
;
_chemical_formula_sum "Si O2"
_cell_formula_units_Z 32
_cell_length_a 27.262612
_cell_length_b 8.887511
_cell_length_c 21.630288
_cell_angle_alpha 90.000000
_cell_angle_beta 160.657280
_cell_angle_gamma 90.000000
_cell_volume 1735.896592
_symmetry_space_group_name_H-M "P 21/M"
_symmetry_group_IT_number 11
_symmetry_cell_setting 'monoclinic'
loop_
_space_group_symop_operation_xyz
x,y,z
-x,1/2+y,-z
-x,-y,-z
x,1/2-y,z
loop_
_atom_site_type_symbol
_atom_site_label
_atom_site_fract_x
_atom_site_fract_y
_atom_site_fract_z
Si Si1 0.034644 0.931315 0.974015
Si Si2 0.244907 0.571012 0.974391
Si Si3 0.367252 0.930316 0.380298
Si Si4 0.096714 0.429629 0.404279
Si Si5 0.874787 0.569899 0.424641
Si Si6 0.466194 0.930511 0.633805
Si Si7 0.197401 0.930281 0.397939
Si Si8 0.803802 0.927188 0.209393
O O1 0.022833 0.750000 0.962477
O O2 0.205332 0.972616 0.163263
O O3 0.000000 0.000000 0.000000
O O4 0.925220 0.996698 0.792677
O O5 0.250192 0.750000 0.982453
O O6 0.272417 0.515436 0.936861
O O7 0.077474 0.526757 0.795102
O O8 0.373101 0.502822 0.168826
O O9 0.377267 0.750000 0.389241
O O10 0.386756 0.973877 0.475306
O O11 0.500000 0.000000 0.500000
O O12 0.100611 0.250000 0.397534
O O13 0.172712 0.458042 0.561424
O O14 0.169797 0.514277 0.434349
O O15 0.912683 0.750000 0.466211
O O16 0.770022 0.538296 0.241295
O O17 0.023439 0.473100 0.592100
O O18 0.482165 0.750000 0.653382
O O19 0.357446 0.973675 0.560507
O O20 0.185191 0.750000 0.379691
O O21 0.783545 0.750000 0.175199
#
# Coordination Sequence:
#
# PCOD9164486 Si02
#       8
#     4   4   4   4   4   4   4   4
#     4  11  22  40  62  84 110 141 180 224 268 320
#     4  10  21  35  53  80 112 144 181 225 272 323
#     4  10  23  41  59  83 112 140 176 223 271 319
#     4   9  19  35  53  80 113 142 177 224 270 317
#     4   8  15  28  47  74 109 142 177 222 269 317
#     4  10  22  41  57  76 109 144 179 223 269 320
#     4  11  23  39  58  81 109 144 184 224 269 322
#     4   9  15  26  48  76 106 143 179 218 270 321
#
# _framework density 18.434277999999999
#
# number of rings (size 3 to 8) (size 9 to 14) (size 15 to 20)
#    0.000    2.250    1.250    2.250    1.750    5.500 
#    0.000    0.000    0.000    0.750    0.000    0.000 
#    0.000    0.000    0.000    0.000    0.000    0.000 
#
# Total GULP energy -178441.587815 kJ/mol
# GULP energy per Si atom -5576.299619 kJ/mol
# Density = 1.839232 g / cm^3
# Si number density = 18.434278 Si / 1000 Ang^3
#
#
#
# Elastic Constant Matrix: (Units=GPa)
#
#
# Indices 1 2 3 4 5 6 
#
# 1 94.3074 22.3290 -4.7553 0.0000 6.8681 0.0000
# 2 22.3290 22.8972 1.1998 0.0000 4.5846 0.0000
# 3 -4.7553 1.1998 12.1760 0.0000 9.4144 0.0000
# 4 0.0000 0.0000 0.0000 26.7936 0.0000 -3.9460
# 5 6.8681 4.5846 9.4144 0.0000 22.0240 0.0000
# 6 0.0000 0.0000 0.0000 -3.9460 0.0000 33.5275
#
#
#
# Elastic Compliance Matrix: (Units=1/GPa)
#
#
# Indices 1 2 3 4 5 6 
#
# 1 0.015086 -0.013921 0.012936 0.000000 -0.007336 0.000000
# 2 -0.013921 0.058566 -0.007675 0.000000 -0.004569 0.000000
# 3 0.012936 -0.007675 0.134163 0.000000 -0.059786 0.000000
# 4 0.000000 0.000000 0.000000 0.037981 0.000000 0.004470
# 5 -0.007336 -0.004569 -0.059786 0.000000 0.074200 0.000000
# 6 0.000000 0.000000 0.000000 0.004470 0.000000 0.030352
#
#
# Mechanical properties :
#
#
# Convention : Reuss Voigt Hill
#
# Bulk Modulus (GPa) = 5.24946 18.54753 11.89849
# Shear Modulus (GPa) = 11.59649 23.84284 17.71966
#
# Velocity S-wave (km/s) = 2.51085 3.60028 3.10374
# Velocity P-wave (km/s) = 3.35554 5.23125 4.39464
#
# Compressibility (1/GPa) = 0.19049591
#
# Stress axis : x y z
#
# Youngs Moduli (GPa) = 66.28586 17.07486 7.45363
#
# Poissons Ratio (x) = 0.23769 -0.09642
# Poissons Ratio (y) = 0.92275 0.05720
# Poissons Ratio (z) = -0.85748 0.13105
#
# Static dielectric constant tensor:
#      x y z
#    x 1.660470 0.000000 -0.019640 
#    y 0.000000 1.618080 0.000000 
#    z -0.019640 0.000000 1.623650 
# 
# From -- ./inp_files/67237.got.cif
#   From: 2010.05.17/outbox.cif.g08.bks.cpg/sg11_34_cif.got.tgz:67237.got - 2010.06.03 12:22:45.
