data_PCOD9164259
_publ_section_title
;
Structure prediction by ZEFSAII (Michael W. Deem and Ramdas Pophale) SiO2 
 PCOD9164259
Probable space group: P 21/M
;
_chemical_formula_sum "Si O2"
_cell_formula_units_Z 32
_cell_length_a 18.412105
_cell_length_b 16.427219
_cell_length_c 11.339122
_cell_angle_alpha 90.000000
_cell_angle_beta 150.698599
_cell_angle_gamma 90.000000
_cell_volume 1678.472512
_symmetry_space_group_name_H-M "P 21/M"
_symmetry_group_IT_number 11
_symmetry_cell_setting 'monoclinic'
loop_
_space_group_symop_operation_xyz
x,y,z
-x,1/2+y,-z
-x,-y,-z
x,1/2-y,z
loop_
_atom_site_type_symbol
_atom_site_label
_atom_site_fract_x
_atom_site_fract_y
_atom_site_fract_z
Si Si1 0.380544 0.459858 0.916774
Si Si2 0.727365 0.848025 0.659216
Si Si3 0.853157 0.344804 0.107969
Si Si4 0.890927 0.068540 0.398290
Si Si5 0.546378 0.408635 0.594787
Si Si6 0.824014 0.847563 0.534549
Si Si7 0.895920 0.653653 0.132351
Si Si8 0.586853 0.656818 0.828587
O O1 0.267817 0.528444 0.803759
O O2 0.280906 0.395584 0.703101
O O3 0.500000 0.500000 0.000000
O O4 0.448027 0.409589 0.121797
O O5 0.724120 0.750000 0.659301
O O6 0.562980 0.878574 0.456767
O O7 0.784515 0.872122 0.612011
O O8 0.834174 0.874401 0.918076
O O9 0.817056 0.250000 0.037603
O O10 0.715997 0.398764 0.871049
O O11 0.879962 0.362185 0.283603
O O12 0.005232 0.364517 0.255707
O O13 0.966835 0.103898 0.622788
O O14 0.000000 0.000000 0.500000
O O15 0.500000 0.500000 0.500000
O O16 0.509414 0.356529 0.425537
O O17 0.802382 0.750000 0.491937
O O18 0.929936 0.750000 0.173723
O O19 0.757480 0.644693 0.027096
O O20 0.571181 0.750000 0.847853
#
# Coordination Sequence:
#
# PCOD9164259 Si02
#       8
#     4   4   4   4   4   4   4   4
#     4  12  26  41  59  90 125 156 207 259 315 364
#     4   9  20  39  63  89 122 162 200 242 303 370
#     4  11  23  41  65  94 123 165 212 254 304 370
#     4  12  22  39  62  89 122 153 202 260 306 357
#     4  11  23  37  64  97 126 156 204 257 304 356
#     4  10  22  42  65  89 124 167 205 250 311 376
#     4   9  18  37  65  90 115 157 205 245 296 368
#     4  10  20  40  64  86 119 167 207 242 299 374
#
# _framework density 19.064954
#
# number of rings (size 3 to 8) (size 9 to 14) (size 15 to 20)
#    0.000    1.500    2.500    3.375    5.250    2.000 
#    2.250    3.125    0.000    0.000    0.000    0.000 
#    0.000    0.000    0.000    0.000    0.000    0.000 
#
# Total GULP energy -178846.212240 kJ/mol
# GULP energy per Si atom -5588.944133 kJ/mol
# Density = 1.902156 g / cm^3
# Si number density = 19.064954 Si / 1000 Ang^3
#
#
#
# Elastic Constant Matrix: (Units=GPa)
#
#
# Indices 1 2 3 4 5 6 
#
# 1 113.0340 17.5628 23.4098 0.0000 9.0298 0.0000
# 2 17.5628 32.6514 12.3116 0.0000 4.6774 0.0000
# 3 23.4098 12.3116 69.0814 0.0000 8.0005 0.0000
# 4 0.0000 0.0000 0.0000 32.5725 0.0000 -1.9981
# 5 9.0298 4.6774 8.0005 0.0000 20.9944 0.0000
# 6 0.0000 0.0000 0.0000 -1.9981 0.0000 28.4045
#
#
#
# Elastic Compliance Matrix: (Units=1/GPa)
#
#
# Indices 1 2 3 4 5 6 
#
# 1 0.010204 -0.004216 -0.002413 0.000000 -0.002530 0.000000
# 2 -0.004216 0.035153 -0.004330 0.000000 -0.004368 0.000000
# 3 -0.002413 -0.004330 0.016564 0.000000 -0.004309 0.000000
# 4 0.000000 0.000000 0.000000 0.030834 0.000000 0.002169
# 5 -0.002530 -0.004368 -0.004309 0.000000 0.051335 0.000000
# 6 0.000000 0.000000 0.000000 0.002169 0.000000 0.035358
#
#
# Mechanical properties :
#
#
# Convention : Reuss Voigt Hill
#
# Bulk Modulus (GPa) = 24.99912 35.70392 30.35152
# Shear Modulus (GPa) = 23.28808 27.15977 25.22392
#
# Velocity S-wave (km/s) = 3.49881 3.77847 3.64132
# Velocity P-wave (km/s) = 5.42801 6.14849 5.79945
#
# Compressibility (1/GPa) = 0.04000140
#
# Stress axis : x y z
#
# Youngs Moduli (GPa) = 98.00166 28.44717 60.37054
#
# Poissons Ratio (x) = 0.11994 0.14570
# Poissons Ratio (y) = 0.41319 0.26142
# Poissons Ratio (z) = 0.23652 0.12318
#
# Static dielectric constant tensor:
#      x y z
#    x 1.644840 0.000000 -0.018300 
#    y 0.000000 1.673450 0.000000 
#    z -0.018300 0.000000 1.650620 
# 
# From -- ./inp_files/41701.got.cif
#   From: 2010.05.17/outbox.cif.g08.bks.cpg/sg11_21_cif.got.tgz:41701.got - 2010.06.03 12:22:45.
