data_PCOD9164426
_publ_section_title
;
Structure prediction by ZEFSAII (Michael W. Deem and Ramdas Pophale) SiO2 
 PCOD9164426
Probable space group: P 21/M
;
_chemical_formula_sum "Si O2"
_cell_formula_units_Z 24
_cell_length_a 15.569440
_cell_length_b 9.287212
_cell_length_c 13.243883
_cell_angle_alpha 90.000000
_cell_angle_beta 146.281848
_cell_angle_gamma 90.000000
_cell_volume 1063.043783
_symmetry_space_group_name_H-M "P 21/M"
_symmetry_group_IT_number 11
_symmetry_cell_setting 'monoclinic'
loop_
_space_group_symop_operation_xyz
x,y,z
-x,1/2+y,-z
-x,-y,-z
x,1/2-y,z
loop_
_atom_site_type_symbol
_atom_site_label
_atom_site_fract_x
_atom_site_fract_y
_atom_site_fract_z
Si Si1 0.075025 0.920469 0.170622
Si Si2 0.556445 0.923961 0.191579
Si Si3 0.337093 0.102439 0.363794
Si Si4 0.745695 0.578371 0.195923
Si Si5 0.905642 0.086000 0.180757
Si Si6 0.591539 0.468180 0.754462
O O1 0.051671 0.750000 0.145953
O O2 0.251545 0.965642 0.325865
O O3 0.000000 0.000000 0.000000
O O4 0.011840 0.991532 0.211291
O O5 0.525160 0.750000 0.154633
O O6 0.715588 0.947384 0.285848
O O7 0.542803 0.972883 0.293353
O O8 0.417669 0.018388 0.007703
O O9 0.253059 0.250000 0.313238
O O10 0.342342 0.098020 0.247455
O O11 0.505953 0.108833 0.578318
O O12 0.761228 0.750000 0.194180
O O13 0.871608 0.490836 0.254887
O O14 0.960097 0.250000 0.247229
O O15 0.739503 0.091837 0.958733
#
# Coordination Sequence:
#
# PCOD9164426 Si02
#       6
#     4   4   4   4   4   4
#     4  12  25  40  59  81 110 148 189 232 277 333
#     4   9  17  31  50  75 110 147 183 227 277 326
#     4  11  23  38  56  82 116 152 189 231 279 331
#     4   9  17  29  50  80 110 141 182 230 277 327
#     4  11  21  37  60  84 114 148 184 230 279 332
#     4  10  21  34  58  84 116 147 191 225 279 331
#
# _framework density 22.576681000000001
#
# number of rings (size 3 to 8) (size 9 to 14) (size 15 to 20)
#    0.000    1.667    1.667    5.000    0.000    6.667 
#    0.000    0.000    0.000    1.000    0.000    0.000 
#    0.000    0.000    0.000    0.000    0.000    0.000 
#
# Total GULP energy -133623.431534 kJ/mol
# GULP energy per Si atom -5567.642981 kJ/mol
# Density = 2.252530 g / cm^3
# Si number density = 22.576681 Si / 1000 Ang^3
#
#
#
# Elastic Constant Matrix: (Units=GPa)
#
#
# Indices 1 2 3 4 5 6 
#
# 1 215.4881 89.4632 4.2172 0.0000 7.7889 0.0000
# 2 89.4632 156.3736 0.9640 0.0000 15.1844 0.0000
# 3 4.2172 0.9640 21.2185 0.0000 7.1776 0.0000
# 4 0.0000 0.0000 0.0000 -44.0640 0.0000 11.2114
# 5 7.7889 15.1844 7.1776 0.0000 24.5642 0.0000
# 6 0.0000 0.0000 0.0000 11.2114 0.0000 32.7454
#
#
#
# Elastic Compliance Matrix: (Units=1/GPa)
#
#
# Indices 1 2 3 4 5 6 
#
# 1 0.006118 -0.003553 -0.001266 0.000000 0.000627 0.000000
# 2 -0.003553 0.008896 0.001976 0.000000 -0.004950 0.000000
# 3 -0.001266 0.001976 0.052786 0.000000 -0.016244 0.000000
# 4 0.000000 0.000000 0.000000 -0.020876 0.000000 0.007147
# 5 0.000627 -0.004950 -0.016244 0.000000 0.048317 0.000000
# 6 0.000000 0.000000 0.000000 0.007147 0.000000 0.028092
#
#
# Mechanical properties :
#
#
# Convention : Reuss Voigt Hill
#
# Bulk Modulus (GPa) = 16.09960 64.70767 40.40363
# Shear Modulus (GPa) = 33.39486 22.54482 27.96984
#
# Velocity S-wave (km/s) = 3.85018 3.16347 3.52359
# Velocity P-wave (km/s) = 5.18765 6.48590 5.87276
#
# Compressibility (1/GPa) = 0.06211336
#
# Stress axis : x y z
#
# Youngs Moduli (GPa) = 163.45429 112.40711 18.94459
#
# Poissons Ratio (x) = 0.39940 0.02399
# Poissons Ratio (y) = 0.58078 -0.03744
# Poissons Ratio (z) = 0.20701 -0.22217
#
# Static dielectric constant tensor:
#      x y z
#    x 1.947470 0.000000 0.014210 
#    y 0.000000 1.888520 0.000000 
#    z 0.014210 0.000000 1.882130 
# 
# From -- ./inp_files/51818.got.cif
#   From: 2010.05.17/outbox.cif.g08.bks.cpg/sg11_26_cif.got.tgz:51818.got - 2010.06.03 12:22:45.
