data_PCOD9164798
_publ_section_title
;
Structure prediction by ZEFSAII (Michael W. Deem and Ramdas Pophale) SiO2 
 PCOD9164798
Probable space group: P 21/M
;
_chemical_formula_sum "Si O2"
_cell_formula_units_Z 30
_cell_length_a 5.242895
_cell_length_b 24.886988
_cell_length_c 12.368059
_cell_angle_alpha 90.000000
_cell_angle_beta 60.742489
_cell_angle_gamma 90.000000
_cell_volume 1407.915553
_symmetry_space_group_name_H-M "P 21/M"
_symmetry_group_IT_number 11
_symmetry_cell_setting 'monoclinic'
loop_
_space_group_symop_operation_xyz
x,y,z
-x,1/2+y,-z
-x,-y,-z
x,1/2-y,z
loop_
_atom_site_type_symbol
_atom_site_label
_atom_site_fract_x
_atom_site_fract_y
_atom_site_fract_z
Si Si1 0.388180 0.814282 0.692468
Si Si2 0.617077 0.342879 0.547905
Si Si3 0.609316 0.148726 0.884004
Si Si4 0.116129 0.942518 0.588606
Si Si5 0.278890 0.315134 0.165602
Si Si6 0.532274 0.512143 0.663309
Si Si7 0.211356 0.093767 0.789070
Si Si8 0.265711 0.750000 0.298664
O O1 0.381674 0.750000 0.706588
O O2 0.055101 0.833387 0.775827
O O3 0.480817 0.823269 0.549609
O O4 0.588727 0.834033 0.748079
O O5 0.873518 0.385674 0.473397
O O6 0.357370 0.376231 0.656393
O O7 0.709503 0.296445 0.610242
O O8 0.357569 0.122507 0.861897
O O9 0.870398 0.106394 0.849398
O O10 0.726811 0.201741 0.796295
O O11 0.473603 0.165802 0.025868
O O12 0.281786 0.982442 0.470268
O O13 0.326089 0.944132 0.649113
O O14 0.791691 0.962955 0.680313
O O15 0.276589 0.250000 0.165009
O O16 0.324892 0.467286 0.759408
#
# Coordination Sequence:
#
# PCOD9164798 Si02
#       8
#     4   4   4   4   4   4   4   2
#     4  10  21  37  56  77 110 153 191 231 261 321
#     4  10  21  38  53  90 116 156 178 224 284 349
#     4  11  21  38  55  86 109 156 181 234 276 337
#     4   9  18  30  55  73 114 144 187 214 274 334
#     4  10  21  38  57  76 106 151 202 231 260 313
#     4   9  17  34  50  81 106 148 177 235 267 330
#     4  10  22  34  59  85 120 140 189 226 297 337
#     4  10  22  36  54  80 126 142 174 224 282 334
#
# _framework density 21.308098000000001
#
# number of rings (size 3 to 8) (size 9 to 14) (size 15 to 20)
#    0.000    2.133    1.333    1.600    0.000   11.733 
#    2.400    0.000    0.000    0.000    0.000   18.667 
#    0.000    0.000    0.000    0.000    0.000    0.000 
#
# Total GULP energy -167014.915927 kJ/mol
# GULP energy per Si atom -5567.163864 kJ/mol
# Density = 2.125960 g / cm^3
# Si number density = 21.308098 Si / 1000 Ang^3
#
#
#
# Elastic Constant Matrix: (Units=GPa)
#
#
# Indices 1 2 3 4 5 6 
#
# 1 93.8195 20.8730 41.4924 0.0000 13.6705 0.0000
# 2 20.8730 53.3429 14.6244 0.0000 -5.7700 0.0000
# 3 41.4924 14.6244 95.0566 0.0000 6.6154 0.0000
# 4 0.0000 0.0000 0.0000 14.5770 0.0000 -4.6355
# 5 13.6705 -5.7700 6.6154 0.0000 19.8783 0.0000
# 6 0.0000 0.0000 0.0000 -4.6355 0.0000 11.3289
#
#
#
# Elastic Compliance Matrix: (Units=1/GPa)
#
#
# Indices 1 2 3 4 5 6 
#
# 1 0.015904 -0.005960 -0.005266 0.000000 -0.010915 0.000000
# 2 -0.005960 0.022759 -0.001684 0.000000 0.011265 0.000000
# 3 -0.005266 -0.001684 0.013164 0.000000 -0.001249 0.000000
# 4 0.000000 0.000000 0.000000 0.078863 0.000000 0.032269
# 5 -0.010915 0.011265 -0.001249 0.000000 0.061498 0.000000
# 6 0.000000 0.000000 0.000000 0.032269 0.000000 0.101473
#
#
# Mechanical properties :
#
#
# Convention : Reuss Voigt Hill
#
# Bulk Modulus (GPa) = 38.44929 44.02205 41.23567
# Shear Modulus (GPa) = 15.23692 20.17212 17.70452
#
# Velocity S-wave (km/s) = 2.67699 3.08017 2.88563
# Velocity P-wave (km/s) = 5.25725 5.77534 5.52237
#
# Compressibility (1/GPa) = 0.02600828
#
# Stress axis : x y z
#
# Youngs Moduli (GPa) = 62.87739 43.93848 75.96245
#
# Poissons Ratio (x) = 0.26189 0.39998
# Poissons Ratio (y) = 0.37477 0.12791
# Poissons Ratio (z) = 0.33108 0.07398
#
# Static dielectric constant tensor:
#      x y z
#    x 1.787550 0.000000 -0.012540 
#    y 0.000000 1.795450 0.000000 
#    z -0.012540 0.000000 1.745690 
# 
# From -- ./inp_files/30160.got.cif
#   From: 2010.05.17/outbox.cif.g08.bks.cpg/sg11_16_cif.got.tgz:30160.got - 2010.06.03 12:22:45.
