data_PCOD9164797
_publ_section_title
;
Structure prediction by ZEFSAII (Michael W. Deem and Ramdas Pophale) SiO2 
 PCOD9164797
Probable space group: P 21/M
;
_chemical_formula_sum "Si O2"
_cell_formula_units_Z 32
_cell_length_a 11.499423
_cell_length_b 8.892050
_cell_length_c 22.198460
_cell_angle_alpha 90.000000
_cell_angle_beta 54.296289
_cell_angle_gamma 90.000000
_cell_volume 1843.237423
_symmetry_space_group_name_H-M "P 21/M"
_symmetry_group_IT_number 11
_symmetry_cell_setting 'monoclinic'
loop_
_space_group_symop_operation_xyz
x,y,z
-x,1/2+y,-z
-x,-y,-z
x,1/2-y,z
loop_
_atom_site_type_symbol
_atom_site_label
_atom_site_fract_x
_atom_site_fract_y
_atom_site_fract_z
Si Si1 0.555827 0.070423 0.157250
Si Si2 0.177966 0.931237 0.745751
Si Si3 0.467737 0.428382 0.709967
Si Si4 0.585649 0.428684 0.917906
Si Si5 0.140402 0.073360 0.116257
Si Si6 0.282250 0.577405 0.588374
Si Si7 0.151870 0.427610 0.970058
Si Si8 0.405280 0.421703 0.441187
O O1 0.552260 0.250000 0.156286
O O2 0.496657 0.009012 0.238208
O O3 0.472271 0.000658 0.125969
O O4 0.719264 0.012296 0.101814
O O5 0.203602 0.750000 0.741773
O O6 0.180159 0.971581 0.673984
O O7 0.025200 0.963879 0.821255
O O8 0.309823 0.013946 0.737669
O O9 0.466414 0.250000 0.717544
O O10 0.573632 0.477448 0.624097
O O11 0.563832 0.250000 0.923717
O O12 0.750324 0.472512 0.879467
O O13 0.500000 0.500000 0.000000
O O14 0.161303 0.250000 0.125459
O O15 0.172642 0.056769 0.035671
O O16 0.250555 0.750000 0.582048
O O17 0.294285 0.480573 0.524557
O O18 0.439650 0.575133 0.572198
O O19 0.153721 0.250000 0.954904
O O20 0.000000 0.500000 0.000000
O O21 0.376567 0.250000 0.432768
#
# Coordination Sequence:
#
# PCOD9164797 Si02
#       8
#     4   4   4   4   4   4   4   4
#     4  12  24  39  57  76 103 137 176 220 267 313
#     4   9  18  33  52  77 110 144 177 214 261 314
#     4  11  21  33  51  77 109 140 176 218 265 318
#     4  12  24  40  60  80 101 131 175 223 269 314
#     4  10  21  37  56  77 104 138 175 217 263 310
#     4   8  14  25  43  69 102 139 176 212 251 301
#     4  11  22  35  54  79 109 140 175 212 258 315
#     4   9  16  27  44  68 101 140 178 212 255 308
#
# _framework density 17.360759000000002
#
# number of rings (size 3 to 8) (size 9 to 14) (size 15 to 20)
#    0.000    1.750    1.250    5.625    0.000    5.000 
#    0.000    0.000    0.000    0.000    0.000    0.875 
#    0.000    0.000    0.000    0.000    0.000    0.000 
#
# Total GULP energy -178664.834678 kJ/mol
# GULP energy per Si atom -5583.276084 kJ/mol
# Density = 1.732124 g / cm^3
# Si number density = 17.360759 Si / 1000 Ang^3
#
#
#
# Elastic Constant Matrix: (Units=GPa)
#
#
# Indices 1 2 3 4 5 6 
#
# 1 47.4033 35.0708 5.7289 0.0000 20.8550 0.0000
# 2 35.0708 124.2989 39.3036 0.0000 20.9285 0.0000
# 3 5.7289 39.3036 84.5724 0.0000 20.6544 0.0000
# 4 0.0000 0.0000 0.0000 29.2977 0.0000 2.8942
# 5 20.8550 20.9285 20.6544 0.0000 18.6561 0.0000
# 6 0.0000 0.0000 0.0000 2.8942 0.0000 24.8850
#
#
#
# Elastic Compliance Matrix: (Units=1/GPa)
#
#
# Indices 1 2 3 4 5 6 
#
# 1 0.060663 -0.010182 0.019729 0.000000 -0.078233 0.000000
# 2 -0.010182 0.012061 -0.006018 0.000000 0.004515 0.000000
# 3 0.019729 -0.006018 0.023330 0.000000 -0.041132 0.000000
# 4 0.000000 0.000000 0.000000 0.034529 0.000000 -0.004016
# 5 -0.078233 0.004515 -0.041132 0.000000 0.181528 0.000000
# 6 0.000000 0.000000 0.000000 -0.004016 0.000000 0.040652
#
#
# Mechanical properties :
#
#
# Convention : Reuss Voigt Hill
#
# Bulk Modulus (GPa) = 9.69830 46.27569 27.98700
# Shear Modulus (GPa) = 13.15530 26.31251 19.73390
#
# Velocity S-wave (km/s) = 2.75573 3.89733 3.37515
# Velocity P-wave (km/s) = 3.96533 6.85314 5.59863
#
# Compressibility (1/GPa) = 0.10311084
#
# Stress axis : x y z
#
# Youngs Moduli (GPa) = 16.48461 82.91428 42.86356
#
# Poissons Ratio (x) = 0.84423 -0.84564
# Poissons Ratio (y) = 0.16785 0.25795
# Poissons Ratio (z) = -0.32522 0.49897
#
# Static dielectric constant tensor:
#      x y z
#    x 1.569880 0.000000 0.002590 
#    y 0.000000 1.584390 0.000000 
#    z 0.002590 0.000000 1.604860 
# 
# From -- ./inp_files/64192.got.cif
#   From: 2010.05.17/outbox.cif.g08.bks.cpg/sg11_33_cif.got.tgz:64192.got - 2010.06.03 12:22:45.
