data_PCOD9164099
_publ_section_title
;
Structure prediction by ZEFSAII (Michael W. Deem and Ramdas Pophale) SiO2 
 PCOD9164099
Probable space group: P 21/M
;
_chemical_formula_sum "Si O2"
_cell_formula_units_Z 20
_cell_length_a 17.968078
_cell_length_b 9.975840
_cell_length_c 9.482575
_cell_angle_alpha 90.000000
_cell_angle_beta 36.272181
_cell_angle_gamma 90.000000
_cell_volume 1005.591415
_symmetry_space_group_name_H-M "P 21/M"
_symmetry_group_IT_number 11
_symmetry_cell_setting 'monoclinic'
loop_
_space_group_symop_operation_xyz
x,y,z
-x,1/2+y,-z
-x,-y,-z
x,1/2-y,z
loop_
_atom_site_type_symbol
_atom_site_label
_atom_site_fract_x
_atom_site_fract_y
_atom_site_fract_z
Si Si1 0.727615 0.750000 0.953662
Si Si2 0.896441 0.024921 0.278502
Si Si3 0.537607 0.250000 0.483631
Si Si4 0.072895 0.036973 0.246242
Si Si5 0.254182 0.954282 0.747333
Si Si6 0.235333 0.250000 0.429535
Si Si7 0.352253 0.250000 0.535121
O O1 0.812674 0.626947 0.874756
O O2 0.718570 0.750000 0.799676
O O3 0.591201 0.750000 0.231372
O O4 0.845717 0.883665 0.416583
O O5 0.787873 0.088873 0.346418
O O6 0.967904 0.095329 0.298559
O O7 0.000000 0.000000 0.000000
O O8 0.622321 0.377745 0.391617
O O9 0.488371 0.250000 0.398425
O O10 0.000000 0.000000 0.500000
O O11 0.145581 0.932270 0.031369
O O12 0.280582 0.114318 0.692838
O O13 0.345920 0.250000 0.376331
#
# Coordination Sequence:
#
# PCOD9164099 Si02
#       7
#     2   4   2   4   4   2   2
#     4  12  24  38  61  88 130 169 205 265 322 371
#     4   9  20  36  62  90 123 156 204 259 315 380
#     4  12  24  41  65  90 128 168 223 251 307 381
#     4  11  21  37  62  93 124 158 202 264 323 366
#     4  10  22  40  64  95 123 166 211 259 313 379
#     4  10  20  39  57  86 122 162 202 260 326 363
#     4  10  20  40  63  84 122 167 210 254 301 375
#
# _framework density 19.888793
#
# number of rings (size 3 to 8) (size 9 to 14) (size 15 to 20)
#    0.000    1.600    4.000    0.600    0.000    4.800 
#    0.000    6.000    0.000    0.000    0.000    0.000 
#    0.000    0.000    0.000    0.000    0.000    0.000 
#
# Total GULP energy -111409.522834 kJ/mol
# GULP energy per Si atom -5570.476142 kJ/mol
# Density = 1.984353 g / cm^3
# Si number density = 19.888793 Si / 1000 Ang^3
#
#
#
# Elastic Constant Matrix: (Units=GPa)
#
#
# Indices 1 2 3 4 5 6 
#
# 1 221.4451 34.8176 75.8451 0.0000 12.2056 0.0000
# 2 34.8176 72.0885 32.9642 0.0000 -1.9079 0.0000
# 3 75.8451 32.9642 109.2054 0.0000 5.8064 0.0000
# 4 0.0000 0.0000 0.0000 17.2518 0.0000 -16.8152
# 5 12.2056 -1.9079 5.8064 0.0000 42.6527 0.0000
# 6 0.0000 0.0000 0.0000 -16.8152 0.0000 49.3139
#
#
#
# Elastic Compliance Matrix: (Units=1/GPa)
#
#
# Indices 1 2 3 4 5 6 
#
# 1 0.006075 -0.001241 -0.003776 0.000000 -0.001280 0.000000
# 2 -0.001241 0.016429 -0.004186 0.000000 0.001660 0.000000
# 3 -0.003776 -0.004186 0.013091 0.000000 -0.000889 0.000000
# 4 0.000000 0.000000 0.000000 0.086820 0.000000 0.029604
# 5 -0.001280 0.001660 -0.000889 0.000000 0.024007 0.000000
# 6 0.000000 0.000000 0.000000 0.029604 0.000000 0.030373
#
#
# Mechanical properties :
#
#
# Convention : Reuss Voigt Hill
#
# Bulk Modulus (GPa) = 58.17854 76.66585 67.42219
# Shear Modulus (GPa) = 24.88430 39.11781 32.00105
#
# Velocity S-wave (km/s) = 3.54103 4.43970 4.01558
# Velocity P-wave (km/s) = 6.78483 8.05681 7.44803
#
# Compressibility (1/GPa) = 0.01718847
#
# Stress axis : x y z
#
# Youngs Moduli (GPa) = 164.61159 60.86757 76.39106
#
# Poissons Ratio (x) = 0.07554 0.28849
# Poissons Ratio (y) = 0.20430 0.31974
# Poissons Ratio (z) = 0.62165 0.25476
#
# Static dielectric constant tensor:
#      x y z
#    x 1.770720 0.000000 -0.013900 
#    y 0.000000 1.766170 0.000000 
#    z -0.013900 0.000000 1.673640 
# 
# From -- ./inp_files/16735.got.cif
#   From: 2010.05.17/outbox.cif.g08.bks.cpg/sg11_9_cif.got.tgz:16735.got - 2010.06.03 12:22:45.
