data_PCOD9164587
_publ_section_title
;
Structure prediction by ZEFSAII (Michael W. Deem and Ramdas Pophale) SiO2 
 PCOD9164587
Probable space group: P 21/M
;
_chemical_formula_sum "Si O2"
_cell_formula_units_Z 32
_cell_length_a 17.152904
_cell_length_b 11.722245
_cell_length_c 25.357351
_cell_angle_alpha 90.000000
_cell_angle_beta 19.427368
_cell_angle_gamma 90.000000
_cell_volume 1695.859118
_symmetry_space_group_name_H-M "P 21/M"
_symmetry_group_IT_number 11
_symmetry_cell_setting 'monoclinic'
loop_
_space_group_symop_operation_xyz
x,y,z
-x,1/2+y,-z
-x,-y,-z
x,1/2-y,z
loop_
_atom_site_type_symbol
_atom_site_label
_atom_site_fract_x
_atom_site_fract_y
_atom_site_fract_z
Si Si1 0.683422 0.882045 0.585481
Si Si2 0.942783 0.936773 0.668950
Si Si3 0.978954 0.037359 0.266266
Si Si4 0.021853 0.619768 0.848840
Si Si5 0.104245 0.624329 0.452487
Si Si6 0.568512 0.385634 0.040765
Si Si7 0.551763 0.001043 0.164253
Si Si8 0.531519 0.884309 0.565353
O O1 0.711657 0.750000 0.577261
O O2 0.936524 0.939297 0.414120
O O3 0.552262 0.938909 0.717989
O O4 0.536896 0.897259 0.625228
O O5 0.989654 0.750000 0.886980
O O6 0.664967 0.929374 0.839440
O O7 0.049688 0.873699 0.549786
O O8 0.017709 0.898723 0.679654
O O9 0.998833 0.112322 0.201324
O O10 0.201382 0.951902 0.125259
O O11 0.255944 0.462428 0.589605
O O12 0.281097 0.583381 0.701241
O O13 0.816404 0.540481 0.001936
O O14 0.025996 0.750000 0.481779
O O15 0.378600 0.606331 0.265563
O O16 0.000000 0.500000 0.500000
O O17 0.588925 0.250000 0.021188
O O18 0.537404 0.417761 0.122364
O O19 0.574411 0.750000 0.526067
#
# Coordination Sequence:
#
# PCOD9164587 Si02
#       8
#     4   4   4   4   4   4   4   4
#     4   9  19  35  57  83 111 144 184 233 281 341
#     4  10  21  36  53  80 112 145 189 229 280 329
#     4  10  21  37  56  80 110 144 190 230 281 332
#     4  10  21  36  56  79 108 145 184 230 283 336
#     4  11  22  37  58  81 113 152 190 233 283 339
#     4  11  21  35  54  79 115 151 188 233 282 337
#     4  10  21  36  53  82 114 145 187 228 282 336
#     4   9  18  36  59  82 107 140 182 231 284 336
#
# _framework density 18.869492999999999
#
# number of rings (size 3 to 8) (size 9 to 14) (size 15 to 20)
#    0.000    2.000    1.250    2.250    0.000    4.000 
#    0.000    0.625    0.000    0.750    0.000    0.000 
#    0.000    0.000    0.000    0.000    0.000    0.000 
#
# Total GULP energy -178439.999957 kJ/mol
# GULP energy per Si atom -5576.249999 kJ/mol
# Density = 1.882654 g / cm^3
# Si number density = 18.869493 Si / 1000 Ang^3
#
#
#
# Elastic Constant Matrix: (Units=GPa)
#
#
# Indices 1 2 3 4 5 6 
#
# 1 74.7596 35.7421 28.4445 0.0000 -15.1973 0.0000
# 2 35.7421 91.4853 29.3428 0.0000 -7.4738 0.0000
# 3 28.4445 29.3428 67.7837 0.0000 -17.0473 0.0000
# 4 0.0000 0.0000 0.0000 3.7376 0.0000 -4.3367
# 5 -15.1973 -7.4738 -17.0473 0.0000 41.2223 0.0000
# 6 0.0000 0.0000 0.0000 -4.3367 0.0000 19.2219
#
#
#
# Elastic Compliance Matrix: (Units=1/GPa)
#
#
# Indices 1 2 3 4 5 6 
#
# 1 0.018479 -0.005490 -0.004369 0.000000 0.004010 0.000000
# 2 -0.005490 0.014324 -0.004188 0.000000 -0.001159 0.000000
# 3 -0.004369 -0.004188 0.019870 0.000000 0.005847 0.000000
# 4 0.000000 0.000000 0.000000 0.362431 0.000000 0.081770
# 5 0.004010 -0.001159 0.005847 0.000000 0.027945 0.000000
# 6 0.000000 0.000000 0.000000 0.081770 0.000000 0.070472
#
#
# Mechanical properties :
#
#
# Convention : Reuss Voigt Hill
#
# Bulk Modulus (GPa) = 40.68820 46.78751 43.73786
# Shear Modulus (GPa) = 9.09405 22.20297 15.64851
#
# Velocity S-wave (km/s) = 2.19771 3.43397 2.88288
# Velocity P-wave (km/s) = 5.29619 6.36962 5.85754
#
# Compressibility (1/GPa) = 0.02457715
#
# Stress axis : x y z
#
# Youngs Moduli (GPa) = 54.11637 69.81070 50.32756
#
# Poissons Ratio (x) = 0.38329 0.21988
# Poissons Ratio (y) = 0.29712 0.21079
# Poissons Ratio (z) = 0.23644 0.29240
#
# Static dielectric constant tensor:
#      x y z
#    x 1.677540 0.000000 0.002620 
#    y 0.000000 1.652920 0.000000 
#    z 0.002620 0.000000 1.643140 
# 
# From -- ./inp_files/69625.got.cif
#   From: 2010.05.17/outbox.cif.g08.bks.cpg/sg11_35_cif.got.tgz:69625.got - 2010.06.03 12:22:45.
