data_PCOD9164565
_publ_section_title
;
Structure prediction by ZEFSAII (Michael W. Deem and Ramdas Pophale) SiO2 
 PCOD9164565
Probable space group: P 21/M
;
_chemical_formula_sum "Si O2"
_cell_formula_units_Z 20
_cell_length_a 20.757544
_cell_length_b 7.378859
_cell_length_c 7.310945
_cell_angle_alpha 90.000000
_cell_angle_beta 133.627115
_cell_angle_gamma 90.000000
_cell_volume 810.558803
_symmetry_space_group_name_H-M "P 21/M"
_symmetry_group_IT_number 11
_symmetry_cell_setting 'monoclinic'
loop_
_space_group_symop_operation_xyz
x,y,z
-x,1/2+y,-z
-x,-y,-z
x,1/2-y,z
loop_
_atom_site_type_symbol
_atom_site_label
_atom_site_fract_x
_atom_site_fract_y
_atom_site_fract_z
Si Si1 0.309047 0.040853 0.048726
Si Si2 0.747470 0.973144 0.664124
Si Si3 0.405626 0.466731 0.906702
Si Si4 0.063484 0.458991 0.902737
Si Si5 0.115992 0.531145 0.583992
O O1 0.330830 0.250000 0.128122
O O2 0.386567 0.962711 0.073726
O O3 0.216593 0.032676 0.752558
O O4 0.285521 0.963390 0.200279
O O5 0.751543 0.750000 0.673707
O O6 0.673743 0.033123 0.377631
O O7 0.848703 0.037773 0.830302
O O8 0.395742 0.250000 0.898007
O O9 0.500000 0.500000 0.000000
O O10 0.055624 0.250000 0.941297
O O11 0.090661 0.466103 0.739694
O O12 0.963276 0.534868 0.704652
O O13 0.115261 0.750000 0.583783
#
# Coordination Sequence:
#
# PCOD9164565 Si02
#       5
#     4   4   4   4   4
#     4   9  18  33  51  70  95 128 160 189 231 287
#     4   8  15  31  52  70  93 127 160 188 227 283
#     4  10  21  36  53  71  92 121 158 200 244 286
#     4   8  14  26  45  69  99 132 160 187 226 278
#     4   9  15  24  44  73 100 127 159 194 229 267
#
# _framework density 24.674333000000001
#
# number of rings (size 3 to 8) (size 9 to 14) (size 15 to 20)
#    0.000    3.200    0.000    1.800    0.000    2.400 
#    0.000    5.000    0.000    0.000    0.000    0.000 
#    0.000    0.000    0.000    0.000    0.000    0.000 
#
# Total GULP energy -111648.900726 kJ/mol
# GULP energy per Si atom -5582.445036 kJ/mol
# Density = 2.461817 g / cm^3
# Si number density = 24.674333 Si / 1000 Ang^3
#
#
#
# Elastic Constant Matrix: (Units=GPa)
#
#
# Indices 1 2 3 4 5 6 
#
# 1 147.6889 -5.5931 11.0314 0.0000 6.9743 0.0000
# 2 -5.5931 102.9990 -10.5442 0.0000 -11.7273 0.0000
# 3 11.0314 -10.5442 51.0438 0.0000 -9.6677 0.0000
# 4 0.0000 0.0000 0.0000 14.5337 0.0000 9.6960
# 5 6.9743 -11.7273 -9.6677 0.0000 12.9950 0.0000
# 6 0.0000 0.0000 0.0000 9.6960 0.0000 8.8441
#
#
#
# Elastic Compliance Matrix: (Units=1/GPa)
#
#
# Indices 1 2 3 4 5 6 
#
# 1 0.007288 -0.000680 -0.002994 0.000000 -0.006752 0.000000
# 2 -0.000680 0.011975 0.005513 0.000000 0.015274 0.000000
# 3 -0.002994 0.005513 0.026335 0.000000 0.026174 0.000000
# 4 0.000000 0.000000 0.000000 0.256161 0.000000 -0.280834
# 5 -0.006752 0.015274 0.026174 0.000000 0.113833 0.000000
# 6 0.000000 0.000000 0.000000 -0.280834 0.000000 0.420952
#
#
# Mechanical properties :
#
#
# Convention : Reuss Voigt Hill
#
# Bulk Modulus (GPa) = 20.29342 32.39107 26.34225
# Shear Modulus (GPa) = 5.88727 27.73041 16.80884
#
# Velocity S-wave (km/s) = 1.54634 3.35603 2.61287
# Velocity P-wave (km/s) = 3.38092 5.30785 4.44993
#
# Compressibility (1/GPa) = 0.04927705
#
# Stress axis : x y z
#
# Youngs Moduli (GPa) = 137.21641 83.50461 37.97295
#
# Poissons Ratio (x) = 0.05675 0.11370
# Poissons Ratio (y) = 0.09325 -0.20936
# Poissons Ratio (z) = 0.41086 -0.46040
#
# Static dielectric constant tensor:
#      x y z
#    x 2.006370 0.000000 -0.021550 
#    y 0.000000 1.939880 0.000000 
#    z -0.021550 0.000000 1.970030 
# 
# From -- ./inp_files/20120.got.cif
#   From: 2010.05.17/outbox.cif.g08.bks.cpg/sg11_11_cif.got.tgz:20120.got - 2010.06.03 12:22:45.
