data_PCOD9164537
_publ_section_title
;
Structure prediction by ZEFSAII (Michael W. Deem and Ramdas Pophale) SiO2 
 PCOD9164537
Probable space group: P 21/M
;
_chemical_formula_sum "Si O2"
_cell_formula_units_Z 20
_cell_length_a 7.637984
_cell_length_b 26.636492
_cell_length_c 5.044168
_cell_angle_alpha 90.000000
_cell_angle_beta 61.204625
_cell_angle_gamma 90.000000
_cell_volume 899.333370
_symmetry_space_group_name_H-M "P 21/M"
_symmetry_group_IT_number 11
_symmetry_cell_setting 'monoclinic'
loop_
_space_group_symop_operation_xyz
x,y,z
-x,1/2+y,-z
-x,-y,-z
x,1/2-y,z
loop_
_atom_site_type_symbol
_atom_site_label
_atom_site_fract_x
_atom_site_fract_y
_atom_site_fract_z
Si Si1 0.940103 0.611579 0.163666
Si Si2 0.668894 0.691376 0.507383
Si Si3 0.787661 0.993090 0.313808
Si Si4 0.378790 0.132907 0.954804
Si Si5 0.685961 0.447214 0.914974
O O1 0.887803 0.665344 0.325283
O O2 0.791824 0.566363 0.368211
O O3 0.855090 0.618331 0.926424
O O4 0.157446 0.592337 0.072360
O O5 0.666985 0.750000 0.458063
O O6 0.555227 0.658356 0.369341
O O7 0.596114 0.675712 0.846897
O O8 0.778517 0.023935 0.593392
O O9 0.640729 0.015097 0.192883
O O10 0.000000 0.000000 0.000000
O O11 0.501738 0.084599 0.944526
#
# Coordination Sequence:
#
# PCOD9164537 Si02
#       5
#     4   4   4   4   4
#     4   9  23  37  63  83 122 150 199 230 293 342
#     4  10  22  42  61  81 115 151 196 254 299 330
#     4  10  21  35  59  90 124 159 183 236 286 347
#     4  10  23  38  61  85 115 153 194 242 290 342
#     4  11  22  38  60  88 125 153 194 228 292 355
#
# _framework density 22.238693999999999
#
# number of rings (size 3 to 8) (size 9 to 14) (size 15 to 20)
#    1.200    0.800    0.000    4.200    8.400    1.600 
#    0.000    2.000    0.000    0.000    0.000    0.000 
#    0.000    0.000    0.000    0.000    0.000    0.000 
#
# Total GULP energy -111488.586752 kJ/mol
# GULP energy per Si atom -5574.429338 kJ/mol
# Density = 2.218808 g / cm^3
# Si number density = 22.238694 Si / 1000 Ang^3
#
#
#
# Elastic Constant Matrix: (Units=GPa)
#
#
# Indices 1 2 3 4 5 6 
#
# 1 85.4503 33.9824 34.2347 0.0000 25.1746 0.0000
# 2 33.9824 125.1643 33.8564 0.0000 10.4230 0.0000
# 3 34.2347 33.8564 120.8783 0.0000 30.5689 0.0000
# 4 0.0000 0.0000 0.0000 37.9852 0.0000 5.3495
# 5 25.1746 10.4230 30.5689 0.0000 28.2292 0.0000
# 6 0.0000 0.0000 0.0000 5.3495 0.0000 18.9957
#
#
#
# Elastic Compliance Matrix: (Units=1/GPa)
#
#
# Indices 1 2 3 4 5 6 
#
# 1 0.017269 -0.003423 -0.000492 0.000000 -0.013604 0.000000
# 2 -0.003423 0.009335 -0.002128 0.000000 0.001910 0.000000
# 3 -0.000492 -0.002128 0.011979 0.000000 -0.011747 0.000000
# 4 0.000000 0.000000 0.000000 0.027413 0.000000 -0.007720
# 5 -0.013604 0.001910 -0.011747 0.000000 0.059572 0.000000
# 6 0.000000 0.000000 0.000000 -0.007720 0.000000 0.054817
#
#
# Mechanical properties :
#
#
# Convention : Reuss Voigt Hill
#
# Bulk Modulus (GPa) = 37.73984 59.51554 48.62769
# Shear Modulus (GPa) = 24.83808 32.33666 28.58737
#
# Velocity S-wave (km/s) = 3.34561 3.81737 3.58925
# Velocity P-wave (km/s) = 5.65078 6.80073 6.25225
#
# Compressibility (1/GPa) = 0.02649720
#
# Stress axis : x y z
#
# Youngs Moduli (GPa) = 57.90821 107.11906 83.47914
#
# Poissons Ratio (x) = 0.36662 0.04107
# Poissons Ratio (y) = 0.19820 0.17768
# Poissons Ratio (z) = 0.02849 0.22800
#
# Static dielectric constant tensor:
#      x y z
#    x 1.945990 0.000000 -0.015260 
#    y 0.000000 1.796900 0.000000 
#    z -0.015260 0.000000 1.889110 
# 
# From -- ./inp_files/2522.got.cif
#   From: 2010.05.17/outbox.cif.g08.bks.cpg/sg11_2_cif.got.tgz:2522.got - 2010.06.03 12:22:45.
