data_PCOD9164746
_publ_section_title
;
Structure prediction by ZEFSAII (Michael W. Deem and Ramdas Pophale) SiO2 
 PCOD9164746
Probable space group: P 21/M
;
_chemical_formula_sum "Si O2"
_cell_formula_units_Z 30
_cell_length_a 14.105036
_cell_length_b 9.445962
_cell_length_c 12.079075
_cell_angle_alpha 90.000000
_cell_angle_beta 66.234677
_cell_angle_gamma 90.000000
_cell_volume 1472.895230
_symmetry_space_group_name_H-M "P 21/M"
_symmetry_group_IT_number 11
_symmetry_cell_setting 'monoclinic'
loop_
_space_group_symop_operation_xyz
x,y,z
-x,1/2+y,-z
-x,-y,-z
x,1/2-y,z
loop_
_atom_site_type_symbol
_atom_site_label
_atom_site_fract_x
_atom_site_fract_y
_atom_site_fract_z
Si Si1 0.225963 0.090138 0.057324
Si Si2 0.906482 0.587265 0.097556
Si Si3 0.772348 0.413532 0.330112
Si Si4 0.856865 0.583663 0.473011
Si Si5 0.429800 0.918135 0.944847
Si Si6 0.550872 0.029994 0.324627
Si Si7 0.539661 0.750000 0.470570
Si Si8 0.934454 0.584708 0.675076
O O1 0.264059 0.250000 0.066735
O O2 0.130453 0.059786 0.184017
O O3 0.181709 0.093522 0.954529
O O4 0.314121 0.974298 0.022240
O O5 0.934847 0.750000 0.112619
O O6 0.857340 0.500728 0.221137
O O7 0.000000 0.500000 0.000000
O O8 0.801530 0.250000 0.329368
O O9 0.771507 0.492965 0.448279
O O10 0.664053 0.419316 0.316327
O O11 0.847833 0.750000 0.449633
O O12 0.859382 0.567861 0.604258
O O13 0.968379 0.518799 0.384734
O O14 0.438047 0.750000 0.954422
O O15 0.454910 0.954981 0.804731
O O16 0.500000 0.000000 0.000000
O O17 0.470085 0.127632 0.427683
O O18 0.540829 0.872621 0.374015
O O19 0.969330 0.750000 0.657307
#
# Coordination Sequence:
#
# PCOD9164746 Si02
#       8
#     4   4   4   4   4   4   2   4
#     4  10  22  41  64  92 125 169 213 264 325 387
#     4  11  23  37  62  97 132 172 213 262 320 388
#     4  12  23  39  62  91 128 167 214 266 324 388
#     4  10  21  36  60  91 126 170 213 264 321 381
#     4  12  26  46  69  97 132 176 223 279 341 405
#     4  11  24  47  71 100 133 170 220 279 347 407
#     4  10  24  46  74 100 128 170 212 276 340 406
#     4   9  19  40  61  87 128 169 213 261 317 386
#
# _framework density 20.368047000000001
#
# number of rings (size 3 to 8) (size 9 to 14) (size 15 to 20)
#    0.000    1.333    2.667    2.400    3.733    2.667 
#    4.800    0.000    0.000    0.000    0.000    0.000 
#    0.000    0.000    0.000    0.000    0.000    0.000 
#
# Total GULP energy -167116.254586 kJ/mol
# GULP energy per Si atom -5570.541820 kJ/mol
# Density = 2.032169 g / cm^3
# Si number density = 20.368047 Si / 1000 Ang^3
#
#
#
# Elastic Constant Matrix: (Units=GPa)
#
#
# Indices 1 2 3 4 5 6 
#
# 1 61.3842 23.7366 13.8701 0.0000 25.2128 0.0000
# 2 23.7366 159.2999 37.3067 0.0000 6.9059 0.0000
# 3 13.8701 37.3067 67.6082 0.0000 24.2016 0.0000
# 4 0.0000 0.0000 0.0000 16.7746 0.0000 8.0801
# 5 25.2128 6.9059 24.2016 0.0000 30.1697 0.0000
# 6 0.0000 0.0000 0.0000 8.0801 0.0000 15.4033
#
#
#
# Elastic Compliance Matrix: (Units=1/GPa)
#
#
# Indices 1 2 3 4 5 6 
#
# 1 0.027865 -0.004513 0.006649 0.000000 -0.027588 0.000000
# 2 -0.004513 0.008042 -0.005896 0.000000 0.006661 0.000000
# 3 0.006649 -0.005896 0.025513 0.000000 -0.024673 0.000000
# 4 0.000000 0.000000 0.000000 0.079770 0.000000 -0.041845
# 5 -0.027588 0.006661 -0.024673 0.000000 0.074469 0.000000
# 6 0.000000 0.000000 0.000000 -0.041845 0.000000 0.086872
#
#
# Mechanical properties :
#
#
# Convention : Reuss Voigt Hill
#
# Bulk Modulus (GPa) = 18.55299 48.67990 33.61644
# Shear Modulus (GPa) = 15.24317 26.69478 20.96898
#
# Velocity S-wave (km/s) = 2.73863 3.62418 3.21207
# Velocity P-wave (km/s) = 4.37365 6.43932 5.50426
#
# Compressibility (1/GPa) = 0.05389968
#
# Stress axis : x y z
#
# Youngs Moduli (GPa) = 35.88744 124.34686 39.19630
#
# Poissons Ratio (x) = 0.56121 -0.26063
# Poissons Ratio (y) = 0.16197 0.23110
# Poissons Ratio (z) = -0.23863 0.73315
#
# Static dielectric constant tensor:
#      x y z
#    x 1.763780 0.000000 0.004370 
#    y 0.000000 1.690480 0.000000 
#    z 0.004370 0.000000 1.711860 
# 
# From -- ./inp_files/37988.got.cif
#   From: 2010.05.17/outbox.cif.g08.bks.cpg/sg11_19_cif.got.tgz:37988.got - 2010.06.03 12:22:45.
