data_PCOD9164845
_publ_section_title
;
Structure prediction by ZEFSAII (Michael W. Deem and Ramdas Pophale) SiO2 
 PCOD9164845
Probable space group: P 21/M
;
_chemical_formula_sum "Si O2"
_cell_formula_units_Z 24
_cell_length_a 18.331928
_cell_length_b 8.969928
_cell_length_c 15.772658
_cell_angle_alpha 90.000000
_cell_angle_beta 30.807724
_cell_angle_gamma 90.000000
_cell_volume 1328.331598
_symmetry_space_group_name_H-M "P 21/M"
_symmetry_group_IT_number 11
_symmetry_cell_setting 'monoclinic'
loop_
_space_group_symop_operation_xyz
x,y,z
-x,1/2+y,-z
-x,-y,-z
x,1/2-y,z
loop_
_atom_site_type_symbol
_atom_site_label
_atom_site_fract_x
_atom_site_fract_y
_atom_site_fract_z
Si Si1 0.593494 0.428770 0.481538
Si Si2 0.421796 0.926297 0.998871
Si Si3 0.082535 0.925405 0.341322
Si Si4 0.590738 0.927842 0.167672
Si Si5 0.905785 0.571352 0.168282
Si Si6 0.100755 0.929199 0.135232
O O1 0.500000 0.500000 0.500000
O O2 0.601605 0.250000 0.462400
O O3 0.515263 0.459766 0.648996
O O4 0.750069 0.499301 0.324004
O O5 0.450870 0.750000 0.966543
O O6 0.458593 0.000094 0.871782
O O7 0.252119 0.947314 0.179844
O O8 0.500000 0.000000 0.000000
O O9 0.052958 0.750000 0.374526
O O10 0.045597 0.978210 0.283013
O O11 0.000000 0.000000 0.500000
O O12 0.601730 0.750000 0.146594
O O13 0.747062 0.993897 0.032136
O O14 0.895562 0.750000 0.167372
O O15 0.988771 0.541163 0.173239
O O16 0.000000 0.500000 0.000000
O O17 0.125596 0.750000 0.114461
#
# Coordination Sequence:
#
# PCOD9164845 Si02
#       6
#     4   4   4   4   4   4
#     4  11  24  40  59  85 116 149 189 236 284 339
#     4  10  21  37  57  82 113 148 187 231 279 333
#     4   9  19  35  54  79 109 142 181 223 269 322
#     4  10  21  37  58  84 112 145 187 233 281 333
#     4  11  23  39  60  85 114 149 188 231 282 339
#     4   9  20  38  57  79 110 147 185 226 276 334
#
# _framework density 18.067775999999999
#
# number of rings (size 3 to 8) (size 9 to 14) (size 15 to 20)
#    0.000    2.000    0.000    4.000    0.000   11.333 
#    0.000    3.333    0.000    0.000    0.000    0.000 
#    0.000    0.000    0.000    0.000    0.000    0.000 
#
# Total GULP energy -134043.784960 kJ/mol
# GULP energy per Si atom -5585.157707 kJ/mol
# Density = 1.802665 g / cm^3
# Si number density = 18.067776 Si / 1000 Ang^3
#
#
#
# Elastic Constant Matrix: (Units=GPa)
#
#
# Indices 1 2 3 4 5 6 
#
# 1 182.1623 98.2979 103.2520 0.0000 12.0789 0.0000
# 2 98.2979 87.1494 86.8894 0.0000 11.8425 0.0000
# 3 103.2520 86.8894 158.8987 0.0000 23.2231 0.0000
# 4 0.0000 0.0000 0.0000 37.1210 0.0000 -0.8898
# 5 12.0789 11.8425 23.2231 0.0000 23.6835 0.0000
# 6 0.0000 0.0000 0.0000 -0.8898 0.0000 34.0968
#
#
#
# Elastic Compliance Matrix: (Units=1/GPa)
#
#
# Indices 1 2 3 4 5 6 
#
# 1 0.014146 -0.014900 -0.001259 0.000000 0.001471 0.000000
# 2 -0.014900 0.040947 -0.012638 0.000000 -0.000483 0.000000
# 3 -0.001259 -0.012638 0.015180 0.000000 -0.007924 0.000000
# 4 0.000000 0.000000 0.000000 0.026956 0.000000 0.000703
# 5 0.001471 -0.000483 -0.007924 0.000000 0.049485 0.000000
# 6 0.000000 0.000000 0.000000 0.000703 0.000000 0.029347
#
#
# Mechanical properties :
#
#
# Convention : Reuss Voigt Hill
#
# Bulk Modulus (GPa) = 78.87395 111.67653 95.27524
# Shear Modulus (GPa) = 21.01889 28.29833 24.65861
#
# Velocity S-wave (km/s) = 3.41447 3.96186 3.69831
# Velocity P-wave (km/s) = 7.70026 9.10343 8.43109
#
# Compressibility (1/GPa) = 0.01267846
#
# Stress axis : x y z
#
# Youngs Moduli (GPa) = 70.68958 24.42211 65.87446
#
# Poissons Ratio (x) = 0.36389 0.08297
# Poissons Ratio (y) = 1.05329 0.83251
# Poissons Ratio (z) = 0.08903 0.30864
#
# Static dielectric constant tensor:
#      x y z
#    x 1.607430 0.000000 0.012660 
#    y 0.000000 1.608710 0.000000 
#    z 0.012660 0.000000 1.604000 
# 
# From -- ./inp_files/29148.got.cif
#   From: 2010.05.17/outbox.cif.g08.bks.cpg/sg11_15_cif.got.tgz:29148.got - 2010.06.03 12:22:45.
