data_PCOD9164756
_publ_section_title
;
Structure prediction by ZEFSAII (Michael W. Deem and Ramdas Pophale) SiO2 
 PCOD9164756
Probable space group: P 21/M
;
_chemical_formula_sum "Si O2"
_cell_formula_units_Z 28
_cell_length_a 17.686003
_cell_length_b 14.412179
_cell_length_c 6.568278
_cell_angle_alpha 90.000000
_cell_angle_beta 54.236496
_cell_angle_gamma 90.000000
_cell_volume 1358.517626
_symmetry_space_group_name_H-M "P 21/M"
_symmetry_group_IT_number 11
_symmetry_cell_setting 'monoclinic'
loop_
_space_group_symop_operation_xyz
x,y,z
-x,1/2+y,-z
-x,-y,-z
x,1/2-y,z
loop_
_atom_site_type_symbol
_atom_site_label
_atom_site_fract_x
_atom_site_fract_y
_atom_site_fract_z
Si Si1 0.403819 0.990105 0.533947
Si Si2 0.154208 0.646430 0.423133
Si Si3 0.489669 0.856736 0.071127
Si Si4 0.316578 0.139667 0.412721
Si Si5 0.051166 0.947329 0.234391
Si Si6 0.876077 0.536620 0.268272
Si Si7 0.350852 0.647424 0.934251
O O1 0.432316 0.928689 0.294643
O O2 0.339658 0.929769 0.782439
O O3 0.500000 0.000000 0.500000
O O4 0.356215 0.085394 0.546107
O O5 0.125652 0.750000 0.532531
O O6 0.113327 0.625541 0.261203
O O7 0.127432 0.564687 0.619076
O O8 0.265567 0.643599 0.224300
O O9 0.477425 0.750000 0.159406
O O10 0.600377 0.876187 0.883106
O O11 0.445418 0.862552 0.915154
O O12 0.308454 0.250000 0.452872
O O13 0.217188 0.092295 0.529407
O O14 0.967310 0.913668 0.219342
O O15 0.000000 0.000000 0.500000
O O16 0.109642 0.015619 0.993961
O O17 0.351395 0.750000 0.838825
#
# Coordination Sequence:
#
# PCOD9164756 Si02
#       7
#     4   4   4   4   4   4   4
#     4  12  23  35  63  83 120 167 207 248 300 347
#     4  10  21  36  62  93 121 153 204 258 306 364
#     4  10  22  40  59  86 123 159 204 253 301 360
#     4  11  24  41  60  88 125 164 208 253 302 369
#     4   9  20  41  64  90 120 156 199 249 308 370
#     4  10  21  40  66  86 124 163 198 251 313 376
#     4  10  21  38  59  88 121 155 200 251 300 357
#
# _framework density 20.610700000000001
#
# number of rings (size 3 to 8) (size 9 to 14) (size 15 to 20)
#    0.000    1.714    1.429    2.571    2.000    1.714 
#    0.000    9.286    0.000    0.000    0.000    0.000 
#    0.000    0.000    0.000    0.000    0.000    0.000 
#
# Total GULP energy -156208.903862 kJ/mol
# GULP energy per Si atom -5578.889424 kJ/mol
# Density = 2.056379 g / cm^3
# Si number density = 20.610700 Si / 1000 Ang^3
#
#
#
# Elastic Constant Matrix: (Units=GPa)
#
#
# Indices 1 2 3 4 5 6 
#
# 1 83.7278 24.5593 9.0324 0.0000 -18.2530 0.0000
# 2 24.5593 101.0582 32.6217 0.0000 6.1367 0.0000
# 3 9.0324 32.6217 72.5349 0.0000 0.5266 0.0000
# 4 0.0000 0.0000 0.0000 27.3254 0.0000 3.5429
# 5 -18.2530 6.1367 0.5266 0.0000 28.4400 0.0000
# 6 0.0000 0.0000 0.0000 3.5429 0.0000 20.4307
#
#
#
# Elastic Compliance Matrix: (Units=1/GPa)
#
#
# Indices 1 2 3 4 5 6 
#
# 1 0.015657 -0.004467 -0.000021 0.000000 0.011013 0.000000
# 2 -0.004467 0.013017 -0.005257 0.000000 -0.005578 0.000000
# 3 -0.000021 -0.005257 0.016148 0.000000 0.000822 0.000000
# 4 0.000000 0.000000 0.000000 0.037438 0.000000 -0.006492
# 5 0.011013 -0.005578 0.000822 0.000000 0.043418 0.000000
# 6 0.000000 0.000000 0.000000 -0.006492 0.000000 0.050072
#
#
# Mechanical properties :
#
#
# Convention : Reuss Voigt Hill
#
# Bulk Modulus (GPa) = 39.47731 43.30531 41.39131
# Shear Modulus (GPa) = 24.54802 27.97973 26.26388
#
# Velocity S-wave (km/s) = 3.45488 3.68847 3.57358
# Velocity P-wave (km/s) = 5.92539 6.26071 6.09536
#
# Compressibility (1/GPa) = 0.02533101
#
# Stress axis : x y z
#
# Youngs Moduli (GPa) = 63.86986 76.82443 61.92909
#
# Poissons Ratio (x) = 0.34318 0.00128
# Poissons Ratio (y) = 0.28531 0.32558
# Poissons Ratio (z) = 0.00132 0.40389
#
# Static dielectric constant tensor:
#      x y z
#    x 1.770530 0.000000 0.001740 
#    y 0.000000 1.756580 0.000000 
#    z 0.001740 0.000000 1.785950 
# 
# From -- ./inp_files/8027.got.cif
#   From: 2010.05.17/outbox.cif.g08.bks.cpg/sg11_5_cif.got.tgz:8027.got - 2010.06.03 12:22:45.
