data_PCOD9164987
_publ_section_title
;
Structure prediction by ZEFSAII (Michael W. Deem and Ramdas Pophale) SiO2 
 PCOD9164987
Probable space group: P 21/M
;
_chemical_formula_sum "Si O2"
_cell_formula_units_Z 28
_cell_length_a 9.510190
_cell_length_b 8.799380
_cell_length_c 24.982757
_cell_angle_alpha 90.000000
_cell_angle_beta 138.429734
_cell_angle_gamma 90.000000
_cell_volume 1387.226772
_symmetry_space_group_name_H-M "P 21/M"
_symmetry_group_IT_number 11
_symmetry_cell_setting 'monoclinic'
loop_
_space_group_symop_operation_xyz
x,y,z
-x,1/2+y,-z
-x,-y,-z
x,1/2-y,z
loop_
_atom_site_type_symbol
_atom_site_label
_atom_site_fract_x
_atom_site_fract_y
_atom_site_fract_z
Si Si1 0.221518 0.423391 0.573894
Si Si2 0.345956 0.567196 0.001242
Si Si3 0.320123 0.933843 0.316903
Si Si4 0.544992 0.434349 0.846398
Si Si5 0.146923 0.067107 0.156830
Si Si6 0.279806 0.070238 0.416617
Si Si7 0.868241 0.925144 0.330885
O O1 0.205798 0.250000 0.551133
O O2 0.434901 0.489002 0.610125
O O3 0.250997 0.425304 0.646266
O O4 0.000000 0.500000 0.500000
O O5 0.362820 0.750000 0.003711
O O6 0.408081 0.520274 0.079286
O O7 0.500000 0.500000 0.000000
O O8 0.100006 0.527077 0.921807
O O9 0.316263 0.750000 0.315411
O O10 0.222461 0.996065 0.234455
O O11 0.218965 0.999029 0.341744
O O12 0.558304 0.250000 0.845998
O O13 0.710452 0.504685 0.851367
O O14 0.305646 0.477389 0.761386
O O15 0.166686 0.250000 0.164458
O O16 0.302681 0.250000 0.420051
O O17 0.500000 0.000000 0.500000
O O18 0.079265 0.023904 0.395469
O O19 0.930739 0.750000 0.337538
#
# Coordination Sequence:
#
# PCOD9164987 Si02
#       7
#     4   4   4   4   4   4   4
#     4  10  21  37  60  89 119 154 201 253 302 363
#     4  10  24  42  64  96 130 165 209 257 312 375
#     4  11  23  42  65  91 123 168 214 256 313 376
#     4  10  21  42  67  92 124 167 213 255 311 381
#     4  11  23  40  63  97 132 163 207 261 313 372
#     4  12  26  43  62  91 127 168 213 263 319 377
#     4  10  21  40  63  90 122 162 212 260 309 373
#
# _framework density 20.184153999999999
#
# number of rings (size 3 to 8) (size 9 to 14) (size 15 to 20)
#    0.000    1.429    1.429    3.429    2.000    6.286 
#    0.000    0.000    0.000    0.000    0.000    0.000 
#    0.000    0.000    0.000    0.000    0.000    0.000 
#
# Total GULP energy -156481.386335 kJ/mol
# GULP energy per Si atom -5588.620941 kJ/mol
# Density = 2.013821 g / cm^3
# Si number density = 20.184154 Si / 1000 Ang^3
#
#
#
# Elastic Constant Matrix: (Units=GPa)
#
#
# Indices 1 2 3 4 5 6 
#
# 1 91.3061 24.1883 26.7745 0.0000 -3.6799 0.0000
# 2 24.1883 59.2809 34.4320 0.0000 3.5898 0.0000
# 3 26.7745 34.4320 114.0646 0.0000 0.0845 0.0000
# 4 0.0000 0.0000 0.0000 28.1754 0.0000 0.9760
# 5 -3.6799 3.5898 0.0845 0.0000 36.5685 0.0000
# 6 0.0000 0.0000 0.0000 0.9760 0.0000 36.6105
#
#
#
# Elastic Compliance Matrix: (Units=1/GPa)
#
#
# Indices 1 2 3 4 5 6 
#
# 1 0.012648 -0.004291 -0.001675 0.000000 0.001698 0.000000
# 2 -0.004291 0.022057 -0.005649 0.000000 -0.002584 0.000000
# 3 -0.001675 -0.005649 0.010865 0.000000 0.000361 0.000000
# 4 0.000000 0.000000 0.000000 0.035525 0.000000 -0.000947
# 5 0.001698 -0.002584 0.000361 0.000000 0.027770 0.000000
# 6 0.000000 0.000000 0.000000 -0.000947 0.000000 0.027340
#
#
# Mechanical properties :
#
#
# Convention : Reuss Voigt Hill
#
# Bulk Modulus (GPa) = 44.76106 48.38235 46.57171
# Shear Modulus (GPa) = 29.96123 32.22133 31.09128
#
# Velocity S-wave (km/s) = 3.85696 3.99979 3.92903
# Velocity P-wave (km/s) = 6.48532 6.73451 6.61109
#
# Compressibility (1/GPa) = 0.02234085
#
# Stress axis : x y z
#
# Youngs Moduli (GPa) = 79.06082 45.33635 92.03737
#
# Poissons Ratio (x) = 0.19453 0.15416
# Poissons Ratio (y) = 0.33924 0.51994
# Poissons Ratio (z) = 0.13243 0.25611
#
# Static dielectric constant tensor:
#      x y z
#    x 1.696140 0.000000 -0.009920 
#    y 0.000000 1.703020 0.000000 
#    z -0.009920 0.000000 1.717780 
# 
# From -- ./inp_files/70903.got.cif
#   From: 2010.05.17/outbox.cif.g08.bks.cpg/sg11_36_cif.got.tgz:70903.got - 2010.06.03 12:22:45.
