data_PCOD9164141
_publ_section_title
;
Structure prediction by ZEFSAII (Michael W. Deem and Ramdas Pophale) SiO2 
 PCOD9164141
Probable space group: P 21/M
;
_chemical_formula_sum "Si O2"
_cell_formula_units_Z 28
_cell_length_a 26.474270
_cell_length_b 8.026005
_cell_length_c 9.996471
_cell_angle_alpha 90.000000
_cell_angle_beta 139.812851
_cell_angle_gamma 90.000000
_cell_volume 1370.637513
_symmetry_space_group_name_H-M "P 21/M"
_symmetry_group_IT_number 11
_symmetry_cell_setting 'monoclinic'
loop_
_space_group_symop_operation_xyz
x,y,z
-x,1/2+y,-z
-x,-y,-z
x,1/2-y,z
loop_
_atom_site_type_symbol
_atom_site_label
_atom_site_fract_x
_atom_site_fract_y
_atom_site_fract_z
Si Si1 0.999878 0.052242 0.343941
Si Si2 0.140846 0.545138 0.132082
Si Si3 0.409297 0.950407 0.329911
Si Si4 0.308585 0.941932 0.370941
Si Si5 0.680767 0.048095 0.121635
Si Si6 0.143244 0.549258 0.446780
Si Si7 0.411576 0.059033 0.811385
O O1 0.992533 0.250000 0.330387
O O2 0.077735 0.006706 0.419011
O O3 0.000000 0.000000 0.500000
O O4 0.927493 0.988323 0.106450
O O5 0.141522 0.750000 0.136425
O O6 0.224363 0.486861 0.242116
O O7 0.130748 0.491871 0.267112
O O8 0.410850 0.750000 0.342972
O O9 0.361891 0.018112 0.362012
O O10 0.500000 0.000000 0.500000
O O11 0.357216 0.995437 0.096569
O O12 0.292636 0.750000 0.299841
O O13 0.362108 0.948558 0.609768
O O14 0.676089 0.250000 0.127765
O O15 0.770776 0.999297 0.327280
O O16 0.628629 0.961909 0.127678
O O17 0.141617 0.750000 0.440050
O O18 0.408348 0.250000 0.759487
O O19 0.500000 0.000000 0.000000
#
# Coordination Sequence:
#
# PCOD9164141 Si02
#       7
#     4   4   4   4   4   4   4
#     4  11  24  40  62  93 126 160 199 245 295 356
#     4   9  19  38  65  90 117 156 201 245 298 361
#     4  10  22  37  59  86 116 156 199 247 299 357
#     4  10  20  39  63  87 115 155 203 248 298 356
#     4  10  21  39  63  89 118 157 204 247 297 357
#     4  10  20  39  66  91 119 157 198 247 302 359
#     4  12  24  38  59  88 121 158 200 249 298 352
#
# _framework density 20.428449000000001
#
# number of rings (size 3 to 8) (size 9 to 14) (size 15 to 20)
#    0.000    1.714    1.429    3.000    2.000    4.000 
#    0.000    2.143    0.000    0.000    0.000    0.000 
#    0.000    0.000    0.000    0.000    0.000    0.000 
#
# Total GULP energy -156343.408409 kJ/mol
# GULP energy per Si atom -5583.693157 kJ/mol
# Density = 2.038195 g / cm^3
# Si number density = 20.428449 Si / 1000 Ang^3
#
#
#
# Elastic Constant Matrix: (Units=GPa)
#
#
# Indices 1 2 3 4 5 6 
#
# 1 208.8616 17.9936 114.6142 0.0000 3.9889 0.0000
# 2 17.9936 19.1704 14.7969 0.0000 -1.4677 0.0000
# 3 114.6142 14.7969 186.5251 0.0000 6.3207 0.0000
# 4 0.0000 0.0000 0.0000 -23.9815 0.0000 -16.1718
# 5 3.9889 -1.4677 6.3207 0.0000 43.9530 0.0000
# 6 0.0000 0.0000 0.0000 -16.1718 0.0000 22.6122
#
#
#
# Elastic Compliance Matrix: (Units=1/GPa)
#
#
# Indices 1 2 3 4 5 6 
#
# 1 0.007462 -0.003711 -0.004285 0.000000 -0.000185 0.000000
# 2 -0.003711 0.057687 -0.002384 0.000000 0.002606 0.000000
# 3 -0.004285 -0.002384 0.008213 0.000000 -0.000872 0.000000
# 4 0.000000 0.000000 0.000000 -0.028132 0.000000 -0.020119
# 5 -0.000185 0.002606 -0.000872 0.000000 0.022981 0.000000
# 6 0.000000 0.000000 0.000000 -0.020119 0.000000 0.029835
#
#
# Mechanical properties :
#
#
# Convention : Reuss Voigt Hill
#
# Bulk Modulus (GPa) = 19.01077 78.81851 48.91464
# Shear Modulus (GPa) = 36.67289 26.32688 31.49988
#
# Velocity S-wave (km/s) = 4.24156 3.59379 3.93104
# Velocity P-wave (km/s) = 5.77183 7.47576 6.67836
#
# Compressibility (1/GPa) = 0.05260176
#
# Stress axis : x y z
#
# Youngs Moduli (GPa) = 134.00502 17.33497 121.76210
#
# Poissons Ratio (x) = 0.06433 0.52172
# Poissons Ratio (y) = 0.49733 0.29029
# Poissons Ratio (z) = 0.57418 0.04133
#
# Static dielectric constant tensor:
#      x y z
#    x 1.673360 0.000000 0.054640 
#    y 0.000000 1.751070 0.000000 
#    z 0.054640 0.000000 1.620150 
# 
# From -- ./inp_files/28528.got.cif
#   From: 2010.05.17/outbox.cif.g08.bks.cpg/sg11_15_cif.got.tgz:28528.got - 2010.06.03 12:22:45.
