data_PCOD9164642
_publ_section_title
;
Structure prediction by ZEFSAII (Michael W. Deem and Ramdas Pophale) SiO2 
 PCOD9164642
Probable space group: P 21/M
;
_chemical_formula_sum "Si O2"
_cell_formula_units_Z 24
_cell_length_a 4.982574
_cell_length_b 10.988604
_cell_length_c 18.388718
_cell_angle_alpha 90.000000
_cell_angle_beta 81.027012
_cell_angle_gamma 90.000000
_cell_volume 994.489127
_symmetry_space_group_name_H-M "P 21/M"
_symmetry_group_IT_number 11
_symmetry_cell_setting 'monoclinic'
loop_
_space_group_symop_operation_xyz
x,y,z
-x,1/2+y,-z
-x,-y,-z
x,1/2-y,z
loop_
_atom_site_type_symbol
_atom_site_label
_atom_site_fract_x
_atom_site_fract_y
_atom_site_fract_z
Si Si1 0.651994 0.038793 0.594438
Si Si2 0.681513 0.035395 0.750961
Si Si3 0.865683 0.387219 0.209949
Si Si4 0.352322 0.615301 0.092011
Si Si5 0.242513 0.612419 0.941746
Si Si6 0.830105 0.383637 0.432277
O O1 0.699738 0.096009 0.671451
O O2 0.350135 0.985359 0.599883
O O3 0.858827 0.924825 0.580226
O O4 0.723366 0.114981 0.520183
O O5 0.380171 0.980680 0.770097
O O6 0.889453 0.923266 0.748645
O O7 0.753419 0.109088 0.820961
O O8 0.774238 0.250000 0.227110
O O9 0.950931 0.394074 0.120552
O O10 0.485308 0.750000 0.079919
O O11 0.550006 0.499487 0.075596
O O12 0.152462 0.608776 0.030044
O O13 0.366608 0.750000 0.928465
O O14 0.792529 0.250000 0.402836
#
# Coordination Sequence:
#
# PCOD9164642 Si02
#       6
#     4   4   4   4   4   4
#     4  10  22  37  56  86 114 142 188 233 281 345
#     4  11  22  36  56  85 118 148 186 239 293 346
#     4  10  21  36  56  83 115 153 195 241 292 341
#     4   9  18  34  57  85 118 158 199 241 294 349
#     4   8  16  34  58  84 116 156 204 249 286 337
#     4  10  21  39  61  82 110 149 188 231 283 342
#
# _framework density 24.132992999999999
#
# number of rings (size 3 to 8) (size 9 to 14) (size 15 to 20)
#    0.000    2.333    0.000    2.000    0.000    6.000 
#    0.000    3.333    0.000   16.000    0.000    0.000 
#    0.000    0.000    0.000    0.000    0.000    0.000 
#
# Total GULP energy -133911.397807 kJ/mol
# GULP energy per Si atom -5579.641575 kJ/mol
# Density = 2.407807 g / cm^3
# Si number density = 24.132993 Si / 1000 Ang^3
#
#
#
# Elastic Constant Matrix: (Units=GPa)
#
#
# Indices 1 2 3 4 5 6 
#
# 1 62.8812 -0.0098 1.2103 0.0000 3.9034 0.0000
# 2 -0.0098 96.1688 9.2578 0.0000 -3.0173 0.0000
# 3 1.2103 9.2578 189.6901 0.0000 29.2467 0.0000
# 4 0.0000 0.0000 0.0000 -8.3427 0.0000 2.8704
# 5 3.9034 -3.0173 29.2467 0.0000 28.0498 0.0000
# 6 0.0000 0.0000 0.0000 2.8704 0.0000 7.1315
#
#
#
# Elastic Compliance Matrix: (Units=1/GPa)
#
#
# Indices 1 2 3 4 5 6 
#
# 1 0.016056 -0.000107 0.000297 0.000000 -0.002555 0.000000
# 2 -0.000107 0.010541 -0.000823 0.000000 0.002007 0.000000
# 3 0.000297 -0.000823 0.006351 0.000000 -0.006752 0.000000
# 4 0.000000 0.000000 0.000000 -0.105285 0.000000 0.042377
# 5 -0.002555 0.002007 -0.006752 0.000000 0.043262 0.000000
# 6 0.000000 0.000000 0.000000 0.042377 0.000000 0.123167
#
#
# Mechanical properties :
#
#
# Convention : Reuss Voigt Hill
#
# Bulk Modulus (GPa) = 31.56522 41.07296 36.31909
# Shear Modulus (GPa) = 47.20599 27.91984 37.56291
#
# Velocity S-wave (km/s) = 4.42755 3.40504 3.94953
# Velocity P-wave (km/s) = 6.26464 5.70223 5.99004
#
# Compressibility (1/GPa) = 0.03168044
#
# Stress axis : x y z
#
# Youngs Moduli (GPa) = 62.28244 94.87131 157.45404
#
# Poissons Ratio (x) = 0.01016 -0.04673
# Poissons Ratio (y) = 0.00667 0.12962
# Poissons Ratio (z) = -0.01848 0.07810
#
# Static dielectric constant tensor:
#      x y z
#    x 1.851090 0.000000 -0.034550 
#    y 0.000000 1.915280 0.000000 
#    z -0.034550 0.000000 2.026250 
# 
# From -- ./inp_files/56786.got.cif
#   From: 2010.05.17/outbox.cif.g08.bks.cpg/sg11_29_cif.got.tgz:56786.got - 2010.06.03 12:22:45.
