data_PCOD9164602
_publ_section_title
;
Structure prediction by ZEFSAII (Michael W. Deem and Ramdas Pophale) SiO2 
 PCOD9164602
Probable space group: P 21/M
;
_chemical_formula_sum "Si O2"
_cell_formula_units_Z 32
_cell_length_a 5.122777
_cell_length_b 18.033965
_cell_length_c 20.253754
_cell_angle_alpha 90.000000
_cell_angle_beta 122.108984
_cell_angle_gamma 90.000000
_cell_volume 1584.912898
_symmetry_space_group_name_H-M "P 21/M"
_symmetry_group_IT_number 11
_symmetry_cell_setting 'monoclinic'
loop_
_space_group_symop_operation_xyz
x,y,z
-x,1/2+y,-z
-x,-y,-z
x,1/2-y,z
loop_
_atom_site_type_symbol
_atom_site_label
_atom_site_fract_x
_atom_site_fract_y
_atom_site_fract_z
Si Si1 0.727447 0.947686 0.939041
Si Si2 0.069656 0.338651 0.928405
Si Si3 0.796811 0.587669 0.799747
Si Si4 0.305781 0.047514 0.555773
Si Si5 0.632931 0.537772 0.297140
Si Si6 0.606452 0.910653 0.148625
Si Si7 0.167896 0.835124 0.741834
Si Si8 0.812860 0.924067 0.599150
O O1 0.838235 0.917302 0.883374
O O2 0.452749 0.006768 0.889644
O O3 0.707911 0.881978 0.989674
O O4 0.000000 0.000000 0.000000
O O5 0.089961 0.250000 0.937570
O O6 0.168136 0.366151 0.868925
O O7 0.721664 0.367498 0.894475
O O8 0.684413 0.506985 0.758707
O O9 0.076275 0.618389 0.794474
O O10 0.494568 0.640715 0.754690
O O11 0.299208 0.097342 0.489308
O O12 0.347108 0.084628 0.632640
O O13 0.562293 0.983512 0.588644
O O14 0.000000 0.000000 0.500000
O O15 0.706610 0.577732 0.238289
O O16 0.878459 0.473374 0.348497
O O17 0.178941 0.750000 0.760355
O O18 0.889079 0.854262 0.654364
#
# Coordination Sequence:
#
# PCOD9164602 Si02
#       8
#     4   4   4   4   4   4   4   4
#     4   9  21  39  62  86 115 148 194 242 286 339
#     4  11  23  39  57  82 116 152 189 236 295 345
#     4  10  21  36  54  82 111 141 189 233 277 331
#     4   9  16  30  51  83 110 134 173 232 287 319
#     4   9  18  31  56  81 110 139 180 240 285 317
#     4  10  22  37  61  86 110 148 197 239 282 338
#     4  11  22  36  53  77 115 157 187 219 272 347
#     4   9  18  30  52  81 114 139 182 228 281 330
#
# _framework density 20.190382
#
# number of rings (size 3 to 8) (size 9 to 14) (size 15 to 20)
#    0.000    2.250    1.250    1.125    1.750    9.000 
#    0.000    0.000    0.000    1.500    0.000    0.000 
#    0.000    0.000    0.000    0.000    0.000    0.000 
#
# Total GULP energy -178344.640710 kJ/mol
# GULP energy per Si atom -5573.270022 kJ/mol
# Density = 2.014443 g / cm^3
# Si number density = 20.190382 Si / 1000 Ang^3
#
#
#
# Elastic Constant Matrix: (Units=GPa)
#
#
# Indices 1 2 3 4 5 6 
#
# 1 51.4184 23.6232 0.5754 0.0000 -1.6544 0.0000
# 2 23.6232 98.1327 34.0938 0.0000 -9.1229 0.0000
# 3 0.5754 34.0938 131.1100 0.0000 -25.0058 0.0000
# 4 0.0000 0.0000 0.0000 14.0681 0.0000 -3.9293
# 5 -1.6544 -9.1229 -25.0058 0.0000 32.1844 0.0000
# 6 0.0000 0.0000 0.0000 -3.9293 0.0000 21.0183
#
#
#
# Elastic Compliance Matrix: (Units=1/GPa)
#
#
# Indices 1 2 3 4 5 6 
#
# 1 0.022116 -0.005795 0.001542 0.000000 0.000692 0.000000
# 2 -0.005795 0.012752 -0.003121 0.000000 0.000892 0.000000
# 3 0.001542 -0.003121 0.009718 0.000000 0.006745 0.000000
# 4 0.000000 0.000000 0.000000 0.074999 0.000000 0.014021
# 5 0.000692 0.000892 0.006745 0.000000 0.036600 0.000000
# 6 0.000000 0.000000 0.000000 0.014021 0.000000 0.050199
#
#
# Mechanical properties :
#
#
# Convention : Reuss Voigt Hill
#
# Bulk Modulus (GPa) = 33.51312 44.13843 38.82578
# Shear Modulus (GPa) = 21.63764 28.27875 24.95819
#
# Velocity S-wave (km/s) = 3.27720 3.74653 3.51970
# Velocity P-wave (km/s) = 5.56369 6.37368 5.98241
#
# Compressibility (1/GPa) = 0.02983906
#
# Stress axis : x y z
#
# Youngs Moduli (GPa) = 45.21654 78.41629 102.89758
#
# Poissons Ratio (x) = 0.45444 -0.15866
# Poissons Ratio (y) = 0.26204 0.32109
# Poissons Ratio (z) = -0.06972 0.24470
#
# Static dielectric constant tensor:
#      x y z
#    x 1.728160 0.000000 -0.025650 
#    y 0.000000 1.685540 0.000000 
#    z -0.025650 0.000000 1.855590 
# 
# From -- ./inp_files/62909.got.cif
#   From: 2010.05.17/outbox.cif.g08.bks.cpg/sg11_32_cif.got.tgz:62909.got - 2010.06.03 12:22:45.
