data_PCOD9164274
_publ_section_title
;
Structure prediction by ZEFSAII (Michael W. Deem and Ramdas Pophale) SiO2 
 PCOD9164274
Probable space group: P 21/M
;
_chemical_formula_sum "Si O2"
_cell_formula_units_Z 22
_cell_length_a 9.596029
_cell_length_b 13.078661
_cell_length_c 8.206023
_cell_angle_alpha 90.000000
_cell_angle_beta 122.067159
_cell_angle_gamma 90.000000
_cell_volume 872.749361
_symmetry_space_group_name_H-M "P 21/M"
_symmetry_group_IT_number 11
_symmetry_cell_setting 'monoclinic'
loop_
_space_group_symop_operation_xyz
x,y,z
-x,1/2+y,-z
-x,-y,-z
x,1/2-y,z
loop_
_atom_site_type_symbol
_atom_site_label
_atom_site_fract_x
_atom_site_fract_y
_atom_site_fract_z
Si Si1 0.750921 0.865830 0.413960
Si Si2 0.182543 0.750000 0.818164
Si Si3 0.377922 0.576975 0.100658
Si Si4 0.728435 0.636898 0.046032
Si Si5 0.971774 0.750000 0.010091
Si Si6 0.315484 0.543669 0.410064
Si Si7 0.789718 0.250000 0.528208
O O1 0.775839 0.750000 0.487482
O O2 0.555420 0.878488 0.255142
O O3 0.822592 0.880038 0.276365
O O4 0.788414 0.955757 0.563894
O O5 0.127592 0.750000 0.597620
O O6 0.290511 0.648933 0.917015
O O7 0.054323 0.750000 0.887376
O O8 0.268944 0.575888 0.198189
O O9 0.385503 0.459229 0.053094
O O10 0.649005 0.750000 0.011678
O O11 0.852178 0.653362 0.972629
O O12 0.089176 0.750000 0.241742
O O13 0.500000 0.500000 0.500000
O O14 0.314920 0.646507 0.515687
#
# Coordination Sequence:
#
# PCOD9164274 Si02
#       7
#     4   2   4   4   2   4   2
#     4  10  20  40  65  97 140 170 220 280 341 398
#     4  12  24  41  77  92 131 183 229 271 333 406
#     4  11  20  41  66  98 133 172 220 281 339 394
#     4   9  22  41  63  95 131 176 223 281 327 391
#     4  10  24  49  64  94 142 177 228 284 318 402
#     4  10  23  39  68  99 140 175 215 283 335 407
#     4  12  24  48  67 102 131 186 227 263 351 390
#
# _framework density 25.207698000000001
#
# number of rings (size 3 to 8) (size 9 to 14) (size 15 to 20)
#    0.545    1.091    2.727    1.636    3.818    2.909 
#    8.182    1.818    0.000    0.000    0.000    0.000 
#    0.000    0.000    0.000    0.000    0.000    0.000 
#
# Total GULP energy -122982.217833 kJ/mol
# GULP energy per Si atom -5590.100811 kJ/mol
# Density = 2.515032 g / cm^3
# Si number density = 25.207698 Si / 1000 Ang^3
#
#
#
# Elastic Constant Matrix: (Units=GPa)
#
#
# Indices 1 2 3 4 5 6 
#
# 1 94.5612 47.6441 32.0638 0.0000 -26.3847 0.0000
# 2 47.6441 175.5000 53.9835 0.0000 -12.2295 0.0000
# 3 32.0638 53.9835 115.2971 0.0000 -24.7234 0.0000
# 4 0.0000 0.0000 0.0000 32.8188 0.0000 -16.7622
# 5 -26.3847 -12.2295 -24.7234 0.0000 45.9500 0.0000
# 6 0.0000 0.0000 0.0000 -16.7622 0.0000 31.8272
#
#
#
# Elastic Compliance Matrix: (Units=1/GPa)
#
#
# Indices 1 2 3 4 5 6 
#
# 1 0.014424 -0.003103 -0.001085 0.000000 0.006873 0.000000
# 2 -0.003103 0.007325 -0.002861 0.000000 -0.001372 0.000000
# 3 -0.001085 -0.002861 0.011324 0.000000 0.004709 0.000000
# 4 0.000000 0.000000 0.000000 0.041683 0.000000 0.021953
# 5 0.006873 -0.001372 0.004709 0.000000 0.027878 0.000000
# 6 0.000000 0.000000 0.000000 0.021953 0.000000 0.042981
#
#
# Mechanical properties :
#
#
# Convention : Reuss Voigt Hill
#
# Bulk Modulus (GPa) = 52.69830 72.52681 62.61255
# Shear Modulus (GPa) = 30.11379 38.89701 34.50540
#
# Velocity S-wave (km/s) = 3.46009 3.93244 3.70380
# Velocity P-wave (km/s) = 6.07569 7.03228 6.57141
#
# Compressibility (1/GPa) = 0.01897595
#
# Stress axis : x y z
#
# Youngs Moduli (GPa) = 69.32799 136.52180 88.30830
#
# Poissons Ratio (x) = 0.42367 0.09577
# Poissons Ratio (y) = 0.21514 0.25262
# Poissons Ratio (z) = 0.07519 0.39055
#
# Static dielectric constant tensor:
#      x y z
#    x 2.045970 0.000000 -0.038330 
#    y 0.000000 1.979080 0.000000 
#    z -0.038330 0.000000 2.036480 
# 
# From -- ./inp_files/17055.got.cif
#   From: 2010.05.17/outbox.cif.g08.bks.cpg/sg11_9_cif.got.tgz:17055.got - 2010.06.03 12:22:45.
