data_PCOD9164364
_publ_section_title
;
Structure prediction by ZEFSAII (Michael W. Deem and Ramdas Pophale) SiO2 
 PCOD9164364
Probable space group: P 21/M
;
_chemical_formula_sum "Si O2"
_cell_formula_units_Z 20
_cell_length_a 5.179245
_cell_length_b 28.899079
_cell_length_c 5.321654
_cell_angle_alpha 90.000000
_cell_angle_beta 88.931591
_cell_angle_gamma 90.000000
_cell_volume 796.382267
_symmetry_space_group_name_H-M "P 21/M"
_symmetry_group_IT_number 11
_symmetry_cell_setting 'monoclinic'
loop_
_space_group_symop_operation_xyz
x,y,z
-x,1/2+y,-z
-x,-y,-z
x,1/2-y,z
loop_
_atom_site_type_symbol
_atom_site_label
_atom_site_fract_x
_atom_site_fract_y
_atom_site_fract_z
Si Si1 0.707279 0.464678 0.106008
Si Si2 0.693836 0.304749 0.297780
Si Si3 0.819224 0.849403 0.455169
Si Si4 0.110052 0.936480 0.396367
Si Si5 0.458163 0.872415 0.079377
O O1 0.797482 0.471165 0.389677
O O2 0.565312 0.414486 0.114434
O O3 0.500000 0.500000 0.000000
O O4 0.925368 0.457938 0.882401
O O5 0.682303 0.250000 0.274606
O O6 0.935862 0.319812 0.462529
O O7 0.704819 0.330477 0.029055
O O8 0.426230 0.324889 0.413949
O O9 0.890517 0.903186 0.510656
O O10 0.734176 0.854079 0.163899
O O11 0.331987 0.899106 0.318488
#
# Coordination Sequence:
#
# PCOD9164364 Si02
#       5
#     4   4   4   4   4
#     4  10  20  43  74 116 153 198 256 308 370 451
#     4  12  27  45  73 104 144 190 251 316 378 452
#     4  12  23  49  69 105 144 196 244 305 378 452
#     4  10  22  43  73 104 150 198 242 301 376 435
#     4  10  24  43  74 102 151 197 247 303 386 439
#
# _framework density 25.113572000000001
#
# number of rings (size 3 to 8) (size 9 to 14) (size 15 to 20)
#    1.200    0.000    4.000    1.200    5.600    1.600 
#    0.000    2.000    0.000    0.000    0.000    0.000 
#    0.000    0.000    0.000    0.000    0.000    0.000 
#
# Total GULP energy -111621.751839 kJ/mol
# GULP energy per Si atom -5581.087592 kJ/mol
# Density = 2.505641 g / cm^3
# Si number density = 25.113572 Si / 1000 Ang^3
#
#
#
# Elastic Constant Matrix: (Units=GPa)
#
#
# Indices 1 2 3 4 5 6 
#
# 1 136.7215 23.4561 40.1189 0.0000 4.4682 0.0000
# 2 23.4561 94.5581 46.3580 0.0000 6.2601 0.0000
# 3 40.1189 46.3580 140.8266 0.0000 18.2222 0.0000
# 4 0.0000 0.0000 0.0000 23.3385 0.0000 -1.8102
# 5 4.4682 6.2601 18.2222 0.0000 46.8617 0.0000
# 6 0.0000 0.0000 0.0000 -1.8102 0.0000 37.9850
#
#
#
# Elastic Compliance Matrix: (Units=1/GPa)
#
#
# Indices 1 2 3 4 5 6 
#
# 1 0.008067 -0.001043 -0.001973 0.000000 0.000137 0.000000
# 2 -0.001043 0.012746 -0.003887 0.000000 -0.000092 0.000000
# 3 -0.001973 -0.003887 0.009320 0.000000 -0.002917 0.000000
# 4 0.000000 0.000000 0.000000 0.043007 0.000000 0.002050
# 5 0.000137 -0.000092 -0.002917 0.000000 0.022473 0.000000
# 6 0.000000 0.000000 0.000000 0.002050 0.000000 0.026424
#
#
# Mechanical properties :
#
#
# Convention : Reuss Voigt Hill
#
# Bulk Modulus (GPa) = 61.24422 65.77468 63.50945
# Shear Modulus (GPa) = 35.38975 39.11526 37.25251
#
# Velocity S-wave (km/s) = 3.75799 3.95084 3.85562
# Velocity P-wave (km/s) = 6.57798 6.86003 6.72048
#
# Compressibility (1/GPa) = 0.01632807
#
# Stress axis : x y z
#
# Youngs Moduli (GPa) = 123.95469 78.45700 107.29925
#
# Poissons Ratio (x) = 0.08185 0.21166
# Poissons Ratio (y) = 0.12931 0.41704
# Poissons Ratio (z) = 0.24452 0.30494
#
# Static dielectric constant tensor:
#      x y z
#    x 2.081030 0.000000 -0.032680 
#    y 0.000000 1.955380 0.000000 
#    z -0.032680 0.000000 2.137600 
# 
# From -- ./inp_files/832.got.cif
#   From: 2010.05.17/outbox.cif.g08.bks.cpg/sg11_1_cif.got.tgz:832.got - 2010.06.03 12:22:45.
