data_PCOD9164775
_publ_section_title
;
Structure prediction by ZEFSAII (Michael W. Deem and Ramdas Pophale) SiO2 
 PCOD9164775
Probable space group: P 21/M
;
_chemical_formula_sum "Si O2"
_cell_formula_units_Z 32
_cell_length_a 27.112378
_cell_length_b 8.905284
_cell_length_c 21.623324
_cell_angle_alpha 90.000000
_cell_angle_beta 20.840548
_cell_angle_gamma 90.000000
_cell_volume 1857.399257
_symmetry_space_group_name_H-M "P 21/M"
_symmetry_group_IT_number 11
_symmetry_cell_setting 'monoclinic'
loop_
_space_group_symop_operation_xyz
x,y,z
-x,1/2+y,-z
-x,-y,-z
x,1/2-y,z
loop_
_atom_site_type_symbol
_atom_site_label
_atom_site_fract_x
_atom_site_fract_y
_atom_site_fract_z
Si Si1 0.215113 0.569430 0.460552
Si Si2 0.517772 0.568467 0.157911
Si Si3 0.597254 0.067687 0.576876
Si Si4 0.899851 0.430470 0.271569
Si Si5 0.592441 0.069336 0.444831
Si Si6 0.912702 0.070827 0.046553
Si Si7 0.906502 0.929587 0.520974
Si Si8 0.205105 0.929689 0.222855
O O1 0.209992 0.750000 0.459024
O O2 0.375441 0.530239 0.288156
O O3 0.126384 0.531944 0.625996
O O4 0.154780 0.491361 0.470912
O O5 0.530004 0.750000 0.142261
O O6 0.492813 0.520381 0.258504
O O7 0.654038 0.495932 0.969758
O O8 0.594604 0.250000 0.579963
O O9 0.757009 0.027078 0.403765
O O10 0.555257 0.016574 0.557926
O O11 0.914507 0.250000 0.249610
O O12 0.025657 0.509268 0.089705
O O13 0.579501 0.250000 0.458898
O O14 0.752492 0.031821 0.244240
O O15 0.500000 0.000000 0.500000
O O16 0.925979 0.250000 0.033406
O O17 0.000000 0.000000 0.000000
O O18 0.892619 0.750000 0.539847
O O19 0.069437 0.966888 0.340251
O O20 0.826496 0.001989 0.672737
O O21 0.214503 0.750000 0.216362
#
# Coordination Sequence:
#
# PCOD9164775 Si02
#       8
#     4   4   4   4   4   4   4   4
#     4   9  19  35  57  83 110 140 175 220 267 314
#     4   9  18  34  58  82 104 137 180 219 262 317
#     4   8  15  33  56  75 103 140 175 216 263 313
#     4   9  17  34  57  80 107 138 178 222 265 316
#     4  10  21  37  54  75 107 142 178 223 270 315
#     4  11  21  34  56  81 106 139 180 225 269 317
#     4  10  21  37  57  79 108 144 178 217 262 312
#     4  10  21  37  56  79 108 142 180 219 260 312
#
# _framework density 17.228390999999998
#
# number of rings (size 3 to 8) (size 9 to 14) (size 15 to 20)
#    0.000    2.500    1.250    2.625    0.000    4.000 
#    2.250    2.500    0.000    0.000    0.000    0.000 
#    0.000    0.000    0.000    0.000    0.000    0.000 
#
# Total GULP energy -178477.219552 kJ/mol
# GULP energy per Si atom -5577.413111 kJ/mol
# Density = 1.718918 g / cm^3
# Si number density = 17.228391 Si / 1000 Ang^3
#
#
#
# Elastic Constant Matrix: (Units=GPa)
#
#
# Indices 1 2 3 4 5 6 
#
# 1 175.8122 53.2415 88.8169 0.0000 6.5322 0.0000
# 2 53.2415 34.5024 55.1056 0.0000 0.9423 0.0000
# 3 88.8169 55.1056 135.7667 0.0000 11.3186 0.0000
# 4 0.0000 0.0000 0.0000 31.3280 0.0000 1.6833
# 5 6.5322 0.9423 11.3186 0.0000 16.5212 0.0000
# 6 0.0000 0.0000 0.0000 1.6833 0.0000 31.9807
#
#
#
# Elastic Compliance Matrix: (Units=1/GPa)
#
#
# Indices 1 2 3 4 5 6 
#
# 1 0.010861 -0.016356 -0.000197 0.000000 -0.003226 0.000000
# 2 -0.016356 0.113286 -0.037419 0.000000 0.025641 0.000000
# 3 -0.000197 -0.037419 0.023861 0.000000 -0.014135 0.000000
# 4 0.000000 0.000000 0.000000 0.032011 0.000000 -0.001685
# 5 -0.003226 0.025641 -0.014135 0.000000 0.070025 0.000000
# 6 0.000000 0.000000 0.000000 -0.001685 0.000000 0.031358
#
#
# Mechanical properties :
#
#
# Convention : Reuss Voigt Hill
#
# Bulk Modulus (GPa) = 24.96052 82.26771 53.61411
# Shear Modulus (GPa) = 12.41622 25.89382 19.15502
#
# Velocity S-wave (km/s) = 2.68747 3.88103 3.33803
# Velocity P-wave (km/s) = 4.91421 8.24245 6.78555
#
# Compressibility (1/GPa) = 0.04006327
#
# Stress axis : x y z
#
# Youngs Moduli (GPa) = 92.07673 8.82720 41.91007
#
# Poissons Ratio (x) = 0.14438 0.00826
# Poissons Ratio (y) = 1.50602 1.56822
# Poissons Ratio (z) = 0.01815 0.33030
#
# Static dielectric constant tensor:
#      x y z
#    x 1.574330 0.000000 0.009470 
#    y 0.000000 1.576390 0.000000 
#    z 0.009470 0.000000 1.570120 
# 
# From -- ./inp_files/67056.got.cif
#   From: 2010.05.17/outbox.cif.g08.bks.cpg/sg11_34_cif.got.tgz:67056.got - 2010.06.03 12:22:45.
