data_PCOD9164807
_publ_section_title
;
Structure prediction by ZEFSAII (Michael W. Deem and Ramdas Pophale) SiO2 
 PCOD9164807
Probable space group: P 21/M
;
_chemical_formula_sum "Si O2"
_cell_formula_units_Z 26
_cell_length_a 17.752084
_cell_length_b 7.295166
_cell_length_c 7.966572
_cell_angle_alpha 90.000000
_cell_angle_beta 70.704047
_cell_angle_gamma 90.000000
_cell_volume 973.749305
_symmetry_space_group_name_H-M "P 21/M"
_symmetry_group_IT_number 11
_symmetry_cell_setting 'monoclinic'
loop_
_space_group_symop_operation_xyz
x,y,z
-x,1/2+y,-z
-x,-y,-z
x,1/2-y,z
loop_
_atom_site_type_symbol
_atom_site_label
_atom_site_fract_x
_atom_site_fract_y
_atom_site_fract_z
Si Si1 0.849384 0.471521 0.362569
Si Si2 0.683932 0.026577 0.855922
Si Si3 0.969179 0.951601 0.805957
Si Si4 0.122891 0.250000 0.401623
Si Si5 0.564509 0.028877 0.239986
Si Si6 0.382140 0.958591 0.443846
Si Si7 0.800822 0.455062 0.048942
O O1 0.847488 0.250000 0.383552
O O2 0.828075 0.587134 0.538646
O O3 0.942604 0.529414 0.265111
O O4 0.798207 0.529246 0.238811
O O5 0.692163 0.250000 0.835295
O O6 0.662674 0.961331 0.684827
O O7 0.757643 0.957480 0.920157
O O8 0.609454 0.985374 0.034893
O O9 0.975291 0.750000 0.885956
O O10 0.934245 0.905329 0.649638
O O11 0.895617 0.052523 0.944865
O O12 0.559038 0.250000 0.255314
O O13 0.613222 0.964980 0.369955
O O14 0.475213 0.955780 0.319898
O O15 0.352112 0.750000 0.484297
O O16 0.768055 0.250000 0.084255
#
# Coordination Sequence:
#
# PCOD9164807 Si02
#       7
#     4   4   4   2   4   4   4
#     4  10  21  37  61  86 113 150 199 243 294 353
#     4   9  18  34  53  78 109 144 187 225 279 344
#     4   9  21  36  55  83 109 146 190 235 297 339
#     4  10  22  36  62  84 120 148 186 250 310 338
#     4   9  17  31  53  78 107 139 180 228 277 334
#     4   9  17  31  54  79 107 137 180 230 279 331
#     4  10  21  37  56  81 108 151 196 239 284 353
#
# _framework density 26.700918000000001
#
# number of rings (size 3 to 8) (size 9 to 14) (size 15 to 20)
#    0.462    2.154    0.000    1.385    2.154    0.615 
#    2.769    1.538    0.000    0.000    0.000    0.000 
#    0.000    0.000    0.000    0.000    0.000    0.000 
#
# Total GULP energy -144744.561664 kJ/mol
# GULP energy per Si atom -5567.098526 kJ/mol
# Density = 2.664015 g / cm^3
# Si number density = 26.700918 Si / 1000 Ang^3
#
#
#
# Elastic Constant Matrix: (Units=GPa)
#
#
# Indices 1 2 3 4 5 6 
#
# 1 175.4455 4.6921 58.7587 0.0000 31.7188 0.0000
# 2 4.6921 110.3897 17.9819 0.0000 13.5461 0.0000
# 3 58.7587 17.9819 112.0845 0.0000 67.6237 0.0000
# 4 0.0000 0.0000 0.0000 -0.2057 0.0000 12.7820
# 5 31.7188 13.5461 67.6237 0.0000 67.4815 0.0000
# 6 0.0000 0.0000 0.0000 12.7820 0.0000 -41.6051
#
#
#
# Elastic Compliance Matrix: (Units=1/GPa)
#
#
# Indices 1 2 3 4 5 6 
#
# 1 0.006947 0.000282 -0.004256 0.000000 0.000943 0.000000
# 2 0.000282 0.009337 -0.001100 0.000000 -0.000904 0.000000
# 3 -0.004256 -0.001100 0.025264 0.000000 -0.023096 0.000000
# 4 0.000000 0.000000 0.000000 0.268732 0.000000 0.082560
# 5 0.000943 -0.000904 -0.023096 0.000000 0.037701 0.000000
# 6 0.000000 0.000000 0.000000 0.082560 0.000000 0.001329
#
#
# Mechanical properties :
#
#
# Convention : Reuss Voigt Hill
#
# Bulk Modulus (GPa) = 31.84767 62.30945 47.07856
# Shear Modulus (GPa) = 13.51624 26.23327 19.87476
#
# Velocity S-wave (km/s) = 2.25235 3.13786 2.73123
# Velocity P-wave (km/s) = 4.32638 6.04276 5.25512
#
# Compressibility (1/GPa) = 0.03139947
#
# Stress axis : x y z
#
# Youngs Moduli (GPa) = 143.94312 107.10044 39.58217
#
# Poissons Ratio (x) = -0.03023 0.16847
# Poissons Ratio (y) = -0.04064 0.04355
# Poissons Ratio (z) = 0.61266 0.11785
#
# Static dielectric constant tensor:
#      x y z
#    x 2.057860 0.000000 -0.043180 
#    y 0.000000 2.028620 0.000000 
#    z -0.043180 0.000000 2.208150 
# 
# From -- ./inp_files/23991.got.cif
#   From: 2010.05.17/outbox.cif.g08.bks.cpg/sg11_12_cif.got.tgz:23991.got - 2010.06.03 12:22:45.
