data_PCOD9164962
_publ_section_title
;
Structure prediction by ZEFSAII (Michael W. Deem and Ramdas Pophale) SiO2 
 PCOD9164962
Probable space group: P 21/M
;
_chemical_formula_sum "Si O2"
_cell_formula_units_Z 32
_cell_length_a 21.940696
_cell_length_b 8.672654
_cell_length_c 28.183875
_cell_angle_alpha 90.000000
_cell_angle_beta 18.523709
_cell_angle_gamma 90.000000
_cell_volume 1703.790925
_symmetry_space_group_name_H-M "P 21/M"
_symmetry_group_IT_number 11
_symmetry_cell_setting 'monoclinic'
loop_
_space_group_symop_operation_xyz
x,y,z
-x,1/2+y,-z
-x,-y,-z
x,1/2-y,z
loop_
_atom_site_type_symbol
_atom_site_label
_atom_site_fract_x
_atom_site_fract_y
_atom_site_fract_z
Si Si1 0.649659 0.430327 0.926316
Si Si2 0.986868 0.936213 0.935056
Si Si3 0.731941 0.065626 0.461400
Si Si4 0.693118 0.434618 0.224721
Si Si5 0.033162 0.062206 0.158381
Si Si6 0.575194 0.566624 0.082678
Si Si7 0.834920 0.565445 0.587613
Si Si8 0.091812 0.069161 0.573446
O O1 0.607267 0.250000 0.966792
O O2 0.863285 0.440864 0.748146
O O3 0.500000 0.500000 0.000000
O O4 0.637858 0.525377 0.983324
O O5 0.973439 0.750000 0.945603
O O6 0.008857 0.986777 0.864403
O O7 0.168143 0.980977 0.833913
O O8 0.798433 0.002505 0.099866
O O9 0.723311 0.250000 0.465082
O O10 0.879186 0.010264 0.311538
O O11 0.519576 0.998682 0.612116
O O12 0.810800 0.017225 0.454681
O O13 0.687273 0.250000 0.226968
O O14 0.029833 0.250000 0.161792
O O15 0.248211 0.015486 0.014451
O O16 0.549867 0.750000 0.106475
O O17 0.374732 0.484800 0.240687
O O18 0.852427 0.750000 0.574861
O O19 0.857774 0.511286 0.516261
O O20 0.000000 0.500000 0.500000
O O21 0.146812 0.250000 0.536112
#
# Coordination Sequence:
#
# PCOD9164962 Si02
#       8
#     4   4   4   4   4   4   4   4
#     4  11  22  38  62  88 117 156 197 243 299 355
#     4   9  19  39  63  87 119 159 200 240 288 345
#     4  11  22  38  61  87 117 156 200 241 291 354
#     4  10  21  37  59  90 124 156 194 243 293 345
#     4   9  20  38  60  87 117 154 200 245 286 343
#     4  11  22  39  60  87 121 156 199 246 294 352
#     4  11  24  42  62  88 119 154 197 247 301 360
#     4  10  23  41  59  85 120 152 193 246 296 346
#
# _framework density 18.781647
#
# number of rings (size 3 to 8) (size 9 to 14) (size 15 to 20)
#    0.000    1.750    1.250    2.625    1.750    3.500 
#    0.000    1.875    0.000    0.000    0.000    0.000 
#    0.000    0.000    0.000    0.000    0.000    0.000 
#
# Total GULP energy -178753.371294 kJ/mol
# GULP energy per Si atom -5586.042853 kJ/mol
# Density = 1.873890 g / cm^3
# Si number density = 18.781647 Si / 1000 Ang^3
#
#
#
# Elastic Constant Matrix: (Units=GPa)
#
#
# Indices 1 2 3 4 5 6 
#
# 1 342.9785 58.3723 240.9730 0.0000 50.9758 0.0000
# 2 58.3723 37.6789 55.4404 0.0000 2.2866 0.0000
# 3 240.9730 55.4404 276.6522 0.0000 32.1742 0.0000
# 4 0.0000 0.0000 0.0000 26.2349 0.0000 1.2038
# 5 50.9758 2.2866 32.1742 0.0000 41.2509 0.0000
# 6 0.0000 0.0000 0.0000 1.2038 0.0000 27.4256
#
#
#
# Elastic Compliance Matrix: (Units=1/GPa)
#
#
# Indices 1 2 3 4 5 6 
#
# 1 0.008855 -0.004283 -0.006169 0.000000 -0.005893 0.000000
# 2 -0.004283 0.040375 -0.005186 0.000000 0.007100 0.000000
# 3 -0.006169 -0.005186 0.010016 0.000000 0.000099 0.000000
# 4 0.000000 0.000000 0.000000 0.038194 0.000000 -0.001676
# 5 -0.005893 0.007100 0.000099 0.000000 0.031054 0.000000
# 6 0.000000 0.000000 0.000000 -0.001676 0.000000 0.036536
#
#
# Mechanical properties :
#
#
# Convention : Reuss Voigt Hill
#
# Bulk Modulus (GPa) = 35.75331 151.87567 93.81449
# Shear Modulus (GPa) = 24.31555 39.15054 31.73305
#
# Velocity S-wave (km/s) = 3.60202 4.57060 4.11491
# Velocity P-wave (km/s) = 6.03134 10.43519 8.52262
#
# Compressibility (1/GPa) = 0.02796944
#
# Stress axis : x y z
#
# Youngs Moduli (GPa) = 112.93180 24.76764 99.84035
#
# Poissons Ratio (x) = 0.10608 0.61594
# Poissons Ratio (y) = 0.48370 0.51778
# Poissons Ratio (z) = 0.69670 0.12845
#
# Static dielectric constant tensor:
#      x y z
#    x 1.592990 0.000000 0.065680 
#    y 0.000000 1.648770 0.000000 
#    z 0.065680 0.000000 1.537940 
# 
# From -- ./inp_files/72010.got.cif
#   From: 2010.05.17/outbox.cif.g08.bks.cpg/sg11_37_cif.got.tgz:72010.got - 2010.06.03 12:22:45.
