data_PCOD9164466
_publ_section_title
;
Structure prediction by ZEFSAII (Michael W. Deem and Ramdas Pophale) SiO2 
 PCOD9164466
Probable space group: P 21/M
;
_chemical_formula_sum "Si O2"
_cell_formula_units_Z 32
_cell_length_a 27.707522
_cell_length_b 8.834345
_cell_length_c 14.248022
_cell_angle_alpha 90.000000
_cell_angle_beta 29.809775
_cell_angle_gamma 90.000000
_cell_volume 1733.762487
_symmetry_space_group_name_H-M "P 21/M"
_symmetry_group_IT_number 11
_symmetry_cell_setting 'monoclinic'
loop_
_space_group_symop_operation_xyz
x,y,z
-x,1/2+y,-z
-x,-y,-z
x,1/2-y,z
loop_
_atom_site_type_symbol
_atom_site_label
_atom_site_fract_x
_atom_site_fract_y
_atom_site_fract_z
Si Si1 0.697961 0.573302 0.309644
Si Si2 0.906503 0.427023 0.277902
Si Si3 0.798106 0.577341 0.944433
Si Si4 0.193014 0.070389 0.386462
Si Si5 0.885020 0.072494 0.090384
Si Si6 0.315541 0.571655 0.022083
Si Si7 0.986031 0.428774 0.421175
Si Si8 0.499333 0.069758 0.606231
O O1 0.683418 0.750000 0.357173
O O2 0.790397 0.508026 0.208496
O O3 0.599369 0.480090 0.487230
O O4 0.724845 0.563912 0.153926
O O5 0.910913 0.250000 0.296051
O O6 0.825911 0.507720 0.477464
O O7 0.884110 0.440339 0.205241
O O8 0.012956 0.499358 0.113529
O O9 0.794016 0.750000 0.913268
O O10 0.905813 0.555851 0.803094
O O11 0.769587 0.465133 0.909712
O O12 0.201762 0.250000 0.371389
O O13 0.095536 0.017901 0.496699
O O14 0.280778 0.997332 0.179421
O O15 0.884368 0.250000 0.066316
O O16 0.329850 0.750000 0.005657
O O17 0.409527 0.493632 0.817898
O O18 0.961832 0.250000 0.466009
O O19 0.000000 0.500000 0.500000
O O20 0.492383 0.250000 0.609963
O O21 0.500000 0.000000 0.500000
#
# Coordination Sequence:
#
# PCOD9164466 Si02
#       8
#     4   4   4   4   4   4   4   4
#     4  11  22  37  60  87 118 154 195 243 295 350
#     4  10  21  39  62  89 122 158 198 243 291 351
#     4  10  21  35  52  76 112 152 192 235 282 339
#     4  12  24  38  57  82 116 156 197 241 292 351
#     4  10  21  38  62  92 123 155 195 244 297 349
#     4  12  24  38  58  81 111 153 197 240 289 346
#     4  11  21  33  50  76 112 151 190 231 278 337
#     4  12  24  40  60  85 118 154 198 246 296 349
#
# _framework density 18.456968
#
# number of rings (size 3 to 8) (size 9 to 14) (size 15 to 20)
#    0.000    1.000    2.500    5.625    0.000    3.500 
#    0.000    0.000    0.000    0.750    0.000    0.000 
#    0.000    0.000    0.000    0.000    0.000    0.000 
#
# Total GULP energy -178901.732110 kJ/mol
# GULP energy per Si atom -5590.679128 kJ/mol
# Density = 1.841496 g / cm^3
# Si number density = 18.456968 Si / 1000 Ang^3
#
#
#
# Elastic Constant Matrix: (Units=GPa)
#
#
# Indices 1 2 3 4 5 6 
#
# 1 42.9606 35.8532 25.0959 0.0000 -0.2989 0.0000
# 2 35.8532 169.8366 72.1943 0.0000 8.7348 0.0000
# 3 25.0959 72.1943 133.3574 0.0000 7.4168 0.0000
# 4 0.0000 0.0000 0.0000 32.9354 0.0000 -0.6693
# 5 -0.2989 8.7348 7.4168 0.0000 26.3009 0.0000
# 6 0.0000 0.0000 0.0000 -0.6693 0.0000 27.3044
#
#
#
# Elastic Compliance Matrix: (Units=1/GPa)
#
#
# Indices 1 2 3 4 5 6 
#
# 1 0.029237 -0.005082 -0.002909 0.000000 0.002840 0.000000
# 2 -0.005082 0.008582 -0.003584 0.000000 -0.001897 0.000000
# 3 -0.002909 -0.003584 0.010080 0.000000 -0.001685 0.000000
# 4 0.000000 0.000000 0.000000 0.030378 0.000000 0.000745
# 5 0.002840 -0.001897 -0.001685 0.000000 0.039159 0.000000
# 6 0.000000 0.000000 0.000000 0.000745 0.000000 0.036642
#
#
# Mechanical properties :
#
#
# Convention : Reuss Voigt Hill
#
# Bulk Modulus (GPa) = 40.40444 68.04905 54.22675
# Shear Modulus (GPa) = 26.95746 31.50889 29.23318
#
# Velocity S-wave (km/s) = 3.82587 4.13625 3.98409
# Velocity P-wave (km/s) = 6.43856 7.73049 7.11392
#
# Compressibility (1/GPa) = 0.02474975
#
# Stress axis : x y z
#
# Youngs Moduli (GPa) = 34.20305 116.52493 99.20559
#
# Poissons Ratio (x) = 0.59213 0.28859
# Poissons Ratio (y) = 0.17381 0.35556
# Poissons Ratio (z) = 0.09950 0.41763
#
# Static dielectric constant tensor:
#      x y z
#    x 1.636840 0.000000 0.009210 
#    y 0.000000 1.625260 0.000000 
#    z 0.009210 0.000000 1.662840 
# 
# From -- ./inp_files/56147.got.cif
#   From: 2010.05.17/outbox.cif.g08.bks.cpg/sg11_29_cif.got.tgz:56147.got - 2010.06.03 12:22:45.
