data_PCOD9164902
_publ_section_title
;
Structure prediction by ZEFSAII (Michael W. Deem and Ramdas Pophale) SiO2 
 PCOD9164902
Probable space group: P 21/M
;
_chemical_formula_sum "Si O2"
_cell_formula_units_Z 28
_cell_length_a 12.379000
_cell_length_b 13.734560
_cell_length_c 7.493764
_cell_angle_alpha 90.000000
_cell_angle_beta 105.871096
_cell_angle_gamma 90.000000
_cell_volume 1225.521531
_symmetry_space_group_name_H-M "P 21/M"
_symmetry_group_IT_number 11
_symmetry_cell_setting 'monoclinic'
loop_
_space_group_symop_operation_xyz
x,y,z
-x,1/2+y,-z
-x,-y,-z
x,1/2-y,z
loop_
_atom_site_type_symbol
_atom_site_label
_atom_site_fract_x
_atom_site_fract_y
_atom_site_fract_z
Si Si1 0.087958 0.359578 0.535614
Si Si2 0.667046 0.367603 0.762668
Si Si3 0.385576 0.634055 0.855538
Si Si4 0.150150 0.925647 0.661063
Si Si5 0.475391 0.368397 0.400114
Si Si6 0.128018 0.532593 0.036568
Si Si7 0.773651 0.860385 0.760973
O O1 0.116007 0.250000 0.612937
O O2 0.140068 0.457488 0.641362
O O3 0.132451 0.364726 0.351180
O O4 0.953856 0.376864 0.486394
O O5 0.674021 0.250000 0.759828
O O6 0.567784 0.400295 0.585719
O O7 0.792652 0.410377 0.786150
O O8 0.631951 0.399180 0.948929
O O9 0.394958 0.750000 0.873875
O O10 0.275354 0.610259 0.687281
O O11 0.489042 0.599017 0.782577
O O12 0.130932 0.903328 0.861287
O O13 0.481615 0.250000 0.406366
O O14 0.345639 0.391036 0.376293
O O15 0.193276 0.430241 0.064080
O O16 0.000000 0.500000 0.000000
O O17 0.763748 0.750000 0.818210
#
# Coordination Sequence:
#
# PCOD9164902 Si02
#       7
#     4   4   4   4   4   4   4
#     4  10  21  38  59  82 115 157 192 238 297 350
#     4   9  20  37  59  88 117 154 202 247 295 348
#     4   9  18  35  59  88 118 153 195 247 296 339
#     4  10  21  37  58  86 118 146 200 244 287 355
#     4   9  19  38  61  85 118 158 202 244 291 353
#     4  11  22  38  58  86 118 154 193 243 296 348
#     4  10  22  40  60  85 117 157 194 235 299 356
#
# _framework density 22.847418000000001
#
# number of rings (size 3 to 8) (size 9 to 14) (size 15 to 20)
#    0.000    2.286    1.429    0.429    2.000    2.286 
#    2.571    2.857    0.000    0.000    0.000    0.000 
#    0.000    0.000    0.000    0.000    0.000    0.000 
#
# Total GULP energy -156126.989667 kJ/mol
# GULP energy per Si atom -5575.963917 kJ/mol
# Density = 2.279542 g / cm^3
# Si number density = 22.847418 Si / 1000 Ang^3
#
#
#
# Elastic Constant Matrix: (Units=GPa)
#
#
# Indices 1 2 3 4 5 6 
#
# 1 85.3082 23.3638 30.9287 0.0000 16.2598 0.0000
# 2 23.3638 70.7295 6.0954 0.0000 9.9348 0.0000
# 3 30.9287 6.0954 63.7071 0.0000 13.9358 0.0000
# 4 0.0000 0.0000 0.0000 28.9228 0.0000 5.5553
# 5 16.2598 9.9348 13.9358 0.0000 24.4681 0.0000
# 6 0.0000 0.0000 0.0000 5.5553 0.0000 23.7516
#
#
#
# Elastic Compliance Matrix: (Units=1/GPa)
#
#
# Indices 1 2 3 4 5 6 
#
# 1 0.016140 -0.004015 -0.006239 0.000000 -0.005542 0.000000
# 2 -0.004015 0.015993 0.001435 0.000000 -0.004643 0.000000
# 3 -0.006239 0.001435 0.020344 0.000000 -0.008023 0.000000
# 4 0.000000 0.000000 0.000000 0.036201 0.000000 -0.008467
# 5 -0.005542 -0.004643 -0.008023 0.000000 0.051007 0.000000
# 6 0.000000 0.000000 0.000000 -0.008467 0.000000 0.044083
#
#
# Mechanical properties :
#
#
# Convention : Reuss Voigt Hill
#
# Bulk Modulus (GPa) = 28.70509 37.83563 33.27036
# Shear Modulus (GPa) = 23.47193 26.05229 24.76211
#
# Velocity S-wave (km/s) = 3.20868 3.38046 3.29569
# Velocity P-wave (km/s) = 5.13017 5.64205 5.39219
#
# Compressibility (1/GPa) = 0.03483702
#
# Stress axis : x y z
#
# Youngs Moduli (GPa) = 61.95680 62.52641 49.15524
#
# Poissons Ratio (x) = 0.25107 0.30670
# Poissons Ratio (y) = 0.24879 -0.07053
# Poissons Ratio (z) = 0.38657 -0.08971
#
# Static dielectric constant tensor:
#      x y z
#    x 1.871960 0.000000 0.007910 
#    y 0.000000 1.864490 0.000000 
#    z 0.007910 0.000000 1.924970 
# 
# From -- ./inp_files/17820.got.cif
#   From: 2010.05.17/outbox.cif.g08.bks.cpg/sg11_9_cif.got.tgz:17820.got - 2010.06.03 12:22:45.
