data_PCOD9164781
_publ_section_title
;
Structure prediction by ZEFSAII (Michael W. Deem and Ramdas Pophale) SiO2 
 PCOD9164781
Probable space group: P 21/M
;
_chemical_formula_sum "Si O2"
_cell_formula_units_Z 28
_cell_length_a 7.068277
_cell_length_b 14.336339
_cell_length_c 19.084708
_cell_angle_alpha 90.000000
_cell_angle_beta 49.661636
_cell_angle_gamma 90.000000
_cell_volume 1474.097725
_symmetry_space_group_name_H-M "P 21/M"
_symmetry_group_IT_number 11
_symmetry_cell_setting 'monoclinic'
loop_
_space_group_symop_operation_xyz
x,y,z
-x,1/2+y,-z
-x,-y,-z
x,1/2-y,z
loop_
_atom_site_type_symbol
_atom_site_label
_atom_site_fract_x
_atom_site_fract_y
_atom_site_fract_z
Si Si1 0.609253 0.488263 0.550740
Si Si2 0.486552 0.361377 0.231060
Si Si3 0.673666 0.070070 0.914455
Si Si4 0.319542 0.138023 0.878865
Si Si5 0.232288 0.015458 0.764602
Si Si6 0.781823 0.144181 0.032987
Si Si7 0.912182 0.637769 0.563844
O O1 0.500000 0.500000 0.500000
O O2 0.385890 0.466642 0.657664
O O3 0.747917 0.582098 0.545655
O O4 0.816024 0.407046 0.502882
O O5 0.494084 0.250000 0.235007
O O6 0.696113 0.411710 0.227047
O O7 0.558848 0.393281 0.134931
O O8 0.224285 0.387031 0.329272
O O9 0.533542 0.112230 0.881871
O O10 0.938448 0.027831 0.829406
O O11 0.730985 0.142813 0.962907
O O12 0.500000 0.000000 0.000000
O O13 0.311450 0.250000 0.870294
O O14 0.331719 0.084479 0.802111
O O15 0.057602 0.103998 0.975930
O O16 0.807095 0.250000 0.050652
O O17 0.912923 0.750000 0.554441
#
# Coordination Sequence:
#
# PCOD9164781 Si02
#       7
#     4   4   4   4   4   4   4
#     4  10  22  39  60  85 114 147 186 239 294 345
#     4   9  17  34  59  81 108 144 179 226 285 338
#     4  11  21  32  53  81 111 149 191 230 270 323
#     4  10  21  37  55  77 113 155 190 229 275 329
#     4  10  22  38  55  80 113 145 185 230 280 337
#     4   9  18  33  52  77 108 141 180 224 269 320
#     4   9  20  39  61  85 113 146 186 233 289 350
#
# _framework density 18.994669999999999
#
# number of rings (size 3 to 8) (size 9 to 14) (size 15 to 20)
#    0.000    2.286    0.000    2.143    0.000    8.571 
#    0.000    0.714    0.000    6.000    0.000    0.000 
#    0.000    0.000    0.000    0.000    0.000    0.000 
#
# Total GULP energy -156010.541353 kJ/mol
# GULP energy per Si atom -5571.805048 kJ/mol
# Density = 1.895144 g / cm^3
# Si number density = 18.994670 Si / 1000 Ang^3
#
#
#
# Elastic Constant Matrix: (Units=GPa)
#
#
# Indices 1 2 3 4 5 6 
#
# 1 107.9784 16.8690 62.8734 0.0000 -6.1481 0.0000
# 2 16.8690 57.2770 30.1200 0.0000 -13.4892 0.0000
# 3 62.8734 30.1200 165.0397 0.0000 -10.3992 0.0000
# 4 0.0000 0.0000 0.0000 24.1466 0.0000 -1.6010
# 5 -6.1481 -13.4892 -10.3992 0.0000 23.2381 0.0000
# 6 0.0000 0.0000 0.0000 -1.6010 0.0000 13.9754
#
#
#
# Elastic Compliance Matrix: (Units=1/GPa)
#
#
# Indices 1 2 3 4 5 6 
#
# 1 0.011988 -0.001118 -0.004326 0.000000 0.000587 0.000000
# 2 -0.001118 0.021924 -0.002873 0.000000 0.011145 0.000000
# 3 -0.004326 -0.002873 0.008288 0.000000 0.000897 0.000000
# 4 0.000000 0.000000 0.000000 0.041731 0.000000 0.004781
# 5 0.000587 0.011145 0.000897 0.000000 0.050059 0.000000
# 6 0.000000 0.000000 0.000000 0.004781 0.000000 0.072102
#
#
# Mechanical properties :
#
#
# Convention : Reuss Voigt Hill
#
# Bulk Modulus (GPa) = 39.11374 61.11330 50.11352
# Shear Modulus (GPa) = 21.62195 26.96754 24.29474
#
# Velocity S-wave (km/s) = 3.37756 3.77203 3.58023
# Velocity P-wave (km/s) = 5.98725 7.15645 6.59780
#
# Compressibility (1/GPa) = 0.02556647
#
# Stress axis : x y z
#
# Youngs Moduli (GPa) = 83.41628 45.61269 120.65586
#
# Poissons Ratio (x) = 0.05097 0.52196
# Poissons Ratio (y) = 0.09322 0.34666
# Poissons Ratio (z) = 0.36086 0.13105
#
# Static dielectric constant tensor:
#      x y z
#    x 1.653030 0.000000 -0.003880 
#    y 0.000000 1.707800 0.000000 
#    z -0.003880 0.000000 1.696050 
# 
# From -- ./inp_files/56903.got.cif
#   From: 2010.05.17/outbox.cif.g08.bks.cpg/sg11_29_cif.got.tgz:56903.got - 2010.06.03 12:22:45.
