data_PCOD9164444
_publ_section_title
;
Structure prediction by ZEFSAII (Michael W. Deem and Ramdas Pophale) SiO2 
 PCOD9164444
Probable space group: P 21/M
;
_chemical_formula_sum "Si O2"
_cell_formula_units_Z 28
_cell_length_a 7.996118
_cell_length_b 7.395544
_cell_length_c 25.666931
_cell_angle_alpha 90.000000
_cell_angle_beta 137.896145
_cell_angle_gamma 90.000000
_cell_volume 1017.669711
_symmetry_space_group_name_H-M "P 21/M"
_symmetry_group_IT_number 11
_symmetry_cell_setting 'monoclinic'
loop_
_space_group_symop_operation_xyz
x,y,z
-x,1/2+y,-z
-x,-y,-z
x,1/2-y,z
loop_
_atom_site_type_symbol
_atom_site_label
_atom_site_fract_x
_atom_site_fract_y
_atom_site_fract_z
Si Si1 0.215766 0.036989 0.618960
Si Si2 0.360168 0.536304 0.804502
Si Si3 0.318274 0.532282 0.519860
Si Si4 0.857756 0.541082 0.655247
Si Si5 0.079968 0.967303 0.101999
Si Si6 0.756539 0.469797 0.752587
Si Si7 0.439617 0.034041 0.045976
O O1 0.206672 0.250000 0.626232
O O2 0.474637 0.965744 0.701649
O O3 0.937212 0.966564 0.566849
O O4 0.263926 0.011118 0.568055
O O5 0.307470 0.750000 0.793357
O O6 0.644095 0.513789 0.852509
O O7 0.136882 0.459416 0.717098
O O8 0.375429 0.460943 0.867115
O O9 0.325437 0.750000 0.517678
O O10 0.597429 0.459093 0.573279
O O11 0.855318 0.750000 0.639671
O O12 0.820244 0.535335 0.709830
O O13 0.063762 0.750000 0.098518
O O14 0.068066 0.028297 0.159606
O O15 0.845261 0.035991 0.015000
O O16 0.752635 0.250000 0.749601
O O17 0.437492 0.250000 0.053297
O O18 0.500000 0.000000 0.000000
#
# Coordination Sequence:
#
# PCOD9164444 Si02
#       7
#     4   4   4   4   4   4   4
#     4   8  13  22  38  61  88 116 146 184 229 271
#     4  10  21  35  50  70  96 125 157 190 226 272
#     4   8  13  22  38  61  88 116 146 184 229 271
#     4   9  17  29  46  69  94 120 154 193 231 274
#     4  10  21  35  50  70  96 125 157 190 226 272
#     4   9  17  29  46  69  94 120 154 193 231 274
#     4  10  21  36  54  76  98 120 151 190 230 274
#
# _framework density 27.513836000000001
#
# number of rings (size 3 to 8) (size 9 to 14) (size 15 to 20)
#    0.000    2.857    0.000    1.286    0.000    2.286 
#    0.000    0.000    0.000    0.857    0.000    0.000 
#    0.000    0.000    0.000    0.000    0.000    0.000 
#
# Total GULP energy -156575.683967 kJ/mol
# GULP energy per Si atom -5591.988713 kJ/mol
# Density = 2.745121 g / cm^3
# Si number density = 27.513836 Si / 1000 Ang^3
#
#
#
# Elastic Constant Matrix: (Units=GPa)
#
#
# Indices 1 2 3 4 5 6 
#
# 1 109.2471 6.0173 24.5278 0.0000 23.4376 0.0000
# 2 6.0173 126.8388 23.3265 0.0000 -5.3945 0.0000
# 3 24.5278 23.3265 213.2977 0.0000 22.9946 0.0000
# 4 0.0000 0.0000 0.0000 10.2558 0.0000 -2.6582
# 5 23.4376 -5.3945 22.9946 0.0000 58.1560 0.0000
# 6 0.0000 0.0000 0.0000 -2.6582 0.0000 29.9865
#
#
#
# Elastic Compliance Matrix: (Units=1/GPa)
#
#
# Indices 1 2 3 4 5 6 
#
# 1 0.010169 -0.000519 -0.000695 0.000000 -0.003871 0.000000
# 2 -0.000519 0.008146 -0.000977 0.000000 0.001351 0.000000
# 3 -0.000695 -0.000977 0.005071 0.000000 -0.001815 0.000000
# 4 0.000000 0.000000 0.000000 0.099799 0.000000 0.008847
# 5 -0.003871 0.001351 -0.001815 0.000000 0.019599 0.000000
# 6 0.000000 0.000000 0.000000 0.008847 0.000000 0.034133
#
#
# Mechanical properties :
#
#
# Convention : Reuss Voigt Hill
#
# Bulk Modulus (GPa) = 52.62345 61.90299 57.26322
# Shear Modulus (GPa) = 26.64794 46.04711 36.34753
#
# Velocity S-wave (km/s) = 3.11550 4.09540 3.63859
# Velocity P-wave (km/s) = 5.66652 6.70155 6.20565
#
# Compressibility (1/GPa) = 0.01900294
#
# Stress axis : x y z
#
# Youngs Moduli (GPa) = 98.33985 122.76343 197.20929
#
# Poissons Ratio (x) = 0.06374 0.13710
# Poissons Ratio (y) = 0.05106 0.19263
# Poissons Ratio (z) = 0.06837 0.11991
#
# Static dielectric constant tensor:
#      x y z
#    x 2.263450 0.000000 0.027530 
#    y 0.000000 1.995100 0.000000 
#    z 0.027530 0.000000 2.252810 
# 
# From -- ./inp_files/71944.got.cif
#   From: 2010.05.17/outbox.cif.g08.bks.cpg/sg11_36_cif.got.tgz:71944.got - 2010.06.03 12:22:45.
