data_PCOD9164700
_publ_section_title
;
Structure prediction by ZEFSAII (Michael W. Deem and Ramdas Pophale) SiO2 
 PCOD9164700
Probable space group: P 21/M
;
_chemical_formula_sum "Si O2"
_cell_formula_units_Z 32
_cell_length_a 11.756364
_cell_length_b 12.186281
_cell_length_c 11.448516
_cell_angle_alpha 90.000000
_cell_angle_beta 102.229249
_cell_angle_gamma 90.000000
_cell_volume 1602.967849
_symmetry_space_group_name_H-M "P 21/M"
_symmetry_group_IT_number 11
_symmetry_cell_setting 'monoclinic'
loop_
_space_group_symop_operation_xyz
x,y,z
-x,1/2+y,-z
-x,-y,-z
x,1/2-y,z
loop_
_atom_site_type_symbol
_atom_site_label
_atom_site_fract_x
_atom_site_fract_y
_atom_site_fract_z
Si Si1 0.328714 0.542963 0.219315
Si Si2 0.068686 0.554634 0.830256
Si Si3 0.427570 0.125538 0.650140
Si Si4 0.973827 0.620881 0.557824
Si Si5 0.665318 0.506542 0.157528
Si Si6 0.552788 0.873283 0.931320
Si Si7 0.720476 0.627167 0.596593
Si Si8 0.088546 0.868406 0.093564
O O1 0.436398 0.610038 0.294838
O O2 0.383229 0.460867 0.136272
O O3 0.274422 0.465722 0.306316
O O4 0.225433 0.612252 0.141904
O O5 0.026808 0.609704 0.700697
O O6 0.200851 0.513454 0.840802
O O7 0.983358 0.455765 0.847442
O O8 0.065185 0.623361 0.949797
O O9 0.392347 0.250000 0.672530
O O10 0.358443 0.038554 0.714178
O O11 0.392308 0.110136 0.508368
O O12 0.004862 0.750000 0.523109
O O13 0.000000 0.500000 0.500000
O O14 0.834399 0.622217 0.540829
O O15 0.583558 0.404036 0.103420
O O16 0.607612 0.604950 0.069945
O O17 0.571870 0.750000 0.897135
O O18 0.716292 0.750000 0.647399
O O19 0.053515 0.750000 0.129405
#
# Coordination Sequence:
#
# PCOD9164700 Si02
#       8
#     4   4   4   4   4   4   4   4
#     4  11  20  40  59  89 123 158 204 258 312 380
#     4  11  23  44  62  93 127 167 215 261 320 383
#     4  10  21  36  60  88 118 158 204 258 315 371
#     4  11  24  43  67  93 130 173 219 268 321 381
#     4  10  21  38  58  86 120 157 203 252 304 385
#     4  10  21  36  58  87 119 158 198 251 314 375
#     4  10  21  39  61  86 118 161 208 258 315 379
#     4  11  24  40  63  93 128 167 211 266 321 381
#
# _framework density 19.962971
#
# number of rings (size 3 to 8) (size 9 to 14) (size 15 to 20)
#    0.000    1.500    2.500    2.625    0.000    2.500 
#    0.000    0.000    0.000    3.000    0.000    0.000 
#    0.000    0.000    0.000    0.000    0.000    0.000 
#
# Total GULP energy -178425.346202 kJ/mol
# GULP energy per Si atom -5575.792069 kJ/mol
# Density = 1.991753 g / cm^3
# Si number density = 19.962971 Si / 1000 Ang^3
#
#
#
# Elastic Constant Matrix: (Units=GPa)
#
#
# Indices 1 2 3 4 5 6 
#
# 1 70.9656 14.2289 -5.2941 0.0000 11.9545 0.0000
# 2 14.2289 94.9251 28.1112 0.0000 1.0340 0.0000
# 3 -5.2941 28.1112 62.4670 0.0000 13.3811 0.0000
# 4 0.0000 0.0000 0.0000 23.2326 0.0000 16.1352
# 5 11.9545 1.0340 13.3811 0.0000 28.7254 0.0000
# 6 0.0000 0.0000 0.0000 16.1352 0.0000 24.0164
#
#
#
# Elastic Compliance Matrix: (Units=1/GPa)
#
#
# Indices 1 2 3 4 5 6 
#
# 1 0.016838 -0.003963 0.005200 0.000000 -0.009287 0.000000
# 2 -0.003963 0.013231 -0.007266 0.000000 0.004558 0.000000
# 3 0.005200 -0.007266 0.022358 0.000000 -0.012317 0.000000
# 4 0.000000 0.000000 0.000000 0.080695 0.000000 -0.054214
# 5 -0.009287 0.004558 -0.012317 0.000000 0.044251 0.000000
# 6 0.000000 0.000000 0.000000 -0.054214 0.000000 0.078061
#
#
# Mechanical properties :
#
#
# Convention : Reuss Voigt Hill
#
# Bulk Modulus (GPa) = 24.77202 33.60551 29.18876
# Shear Modulus (GPa) = 17.79688 27.94901 22.87294
#
# Velocity S-wave (km/s) = 2.98903 3.74577 3.38859
# Velocity P-wave (km/s) = 4.93440 5.96475 5.47387
#
# Compressibility (1/GPa) = 0.04036813
#
# Stress axis : x y z
#
# Youngs Moduli (GPa) = 59.38875 75.58137 44.72772
#
# Poissons Ratio (x) = 0.29950 -0.23257
# Poissons Ratio (y) = 0.23534 0.32500
# Poissons Ratio (z) = -0.30880 0.54919
#
# Static dielectric constant tensor:
#      x y z
#    x 1.684280 0.000000 -0.001720 
#    y 0.000000 1.710100 0.000000 
#    z -0.001720 0.000000 1.739740 
# 
# From -- ./inp_files/35093.got.cif
#   From: 2010.05.17/outbox.cif.g08.bks.cpg/sg11_18_cif.got.tgz:35093.got - 2010.06.03 12:22:45.
