data_PCOD9164619
_publ_section_title
;
Structure prediction by ZEFSAII (Michael W. Deem and Ramdas Pophale) SiO2 
 PCOD9164619
Probable space group: P 21/M
;
_chemical_formula_sum "Si O2"
_cell_formula_units_Z 32
_cell_length_a 10.147024
_cell_length_b 15.289359
_cell_length_c 12.215260
_cell_angle_alpha 90.000000
_cell_angle_beta 123.383288
_cell_angle_gamma 90.000000
_cell_volume 1582.419118
_symmetry_space_group_name_H-M "P 21/M"
_symmetry_group_IT_number 11
_symmetry_cell_setting 'monoclinic'
loop_
_space_group_symop_operation_xyz
x,y,z
-x,1/2+y,-z
-x,-y,-z
x,1/2-y,z
loop_
_atom_site_type_symbol
_atom_site_label
_atom_site_fract_x
_atom_site_fract_y
_atom_site_fract_z
Si Si1 0.555585 0.099538 0.500754
Si Si2 0.144811 0.855799 0.485811
Si Si3 0.868254 0.856236 0.189311
Si Si4 0.904491 0.854404 0.557927
Si Si5 0.375665 0.145434 0.747297
Si Si6 0.227473 0.104904 0.278603
Si Si7 0.012948 0.349164 0.984152
Si Si8 0.683531 0.079921 0.784298
O O1 0.687415 0.103441 0.467316
O O2 0.394465 0.146800 0.391664
O O3 0.637211 0.131948 0.650515
O O4 0.500000 0.000000 0.500000
O O5 0.161205 0.750000 0.494467
O O6 0.020799 0.877969 0.332715
O O7 0.058972 0.881527 0.559630
O O8 0.856842 0.750000 0.185232
O O9 0.712201 0.884731 0.182447
O O10 0.895413 0.888760 0.078852
O O11 0.917090 0.750000 0.587834
O O12 0.754952 0.864746 0.408492
O O13 0.870197 0.904783 0.653905
O O14 0.412049 0.250000 0.770023
O O15 0.530998 0.091987 0.789198
O O16 0.118047 0.150461 0.139805
O O17 0.276590 0.016007 0.240937
O O18 0.979463 0.250000 0.936849
O O19 0.842028 0.391031 0.916525
#
# Coordination Sequence:
#
# PCOD9164619 Si02
#       8
#     4   4   4   4   4   4   4   4
#     4  10  21  36  55  83 120 148 189 232 282 342
#     4   9  17  33  59  86 112 147 196 242 277 334
#     4   8  16  32  55  83 110 141 189 240 287 331
#     4   9  18  34  57  86 117 148 187 239 296 338
#     4   9  17  32  57  85 110 143 192 247 284 329
#     4  11  23  38  54  84 125 153 185 233 298 351
#     4  11  22  38  59  83 111 150 196 242 290 341
#     4  11  21  37  57  82 114 154 197 231 276 350
#
# _framework density 20.222201999999999
#
# number of rings (size 3 to 8) (size 9 to 14) (size 15 to 20)
#    0.000    2.250    2.500    2.625    0.000    1.500 
#    0.000    6.875    0.000    3.000    0.000    0.000 
#    0.000    0.000    0.000    0.000    0.000    0.000 
#
# Total GULP energy -178501.684190 kJ/mol
# GULP energy per Si atom -5578.177631 kJ/mol
# Density = 2.017617 g / cm^3
# Si number density = 20.222202 Si / 1000 Ang^3
#
#
#
# Elastic Constant Matrix: (Units=GPa)
#
#
# Indices 1 2 3 4 5 6 
#
# 1 199.1562 27.9068 44.9196 0.0000 -0.7767 0.0000
# 2 27.9068 40.9234 5.7701 0.0000 7.6015 0.0000
# 3 44.9196 5.7701 68.3715 0.0000 6.0314 0.0000
# 4 0.0000 0.0000 0.0000 12.1782 0.0000 -6.4336
# 5 -0.7767 7.6015 6.0314 0.0000 23.8219 0.0000
# 6 0.0000 0.0000 0.0000 -6.4336 0.0000 27.5803
#
#
#
# Elastic Compliance Matrix: (Units=1/GPa)
#
#
# Indices 1 2 3 4 5 6 
#
# 1 0.006596 -0.004404 -0.004198 0.000000 0.002683 0.000000
# 2 -0.004404 0.029067 0.001301 0.000000 -0.009748 0.000000
# 3 -0.004198 0.001301 0.017719 0.000000 -0.005038 0.000000
# 4 0.000000 0.000000 0.000000 0.093655 0.000000 0.021847
# 5 0.002683 -0.009748 -0.005038 0.000000 0.046452 0.000000
# 6 0.000000 0.000000 0.000000 0.021847 0.000000 0.041354
#
#
# Mechanical properties :
#
#
# Convention : Reuss Voigt Hill
#
# Bulk Modulus (GPa) = 25.78850 51.73824 38.76337
# Shear Modulus (GPa) = 19.05686 28.03972 23.54829
#
# Velocity S-wave (km/s) = 3.07314 3.72772 3.41615
# Velocity P-wave (km/s) = 5.03711 6.64592 5.89664
#
# Compressibility (1/GPa) = 0.03877697
#
# Stress axis : x y z
#
# Youngs Moduli (GPa) = 151.61274 34.40366 56.43672
#
# Poissons Ratio (x) = 0.15152 0.23694
# Poissons Ratio (y) = 0.66775 -0.07340
# Poissons Ratio (z) = 0.63653 -0.04474
#
# Static dielectric constant tensor:
#      x y z
#    x 1.738830 0.000000 -0.009580 
#    y 0.000000 1.685210 0.000000 
#    z -0.009580 0.000000 1.717740 
# 
# From -- ./inp_files/32667.got.cif
#   From: 2010.05.17/outbox.cif.g08.bks.cpg/sg11_17_cif.got.tgz:32667.got - 2010.06.03 12:22:45.
