data_PCOD9164603
_publ_section_title
;
Structure prediction by ZEFSAII (Michael W. Deem and Ramdas Pophale) SiO2 
 PCOD9164603
Probable space group: P 21/M
;
_chemical_formula_sum "Si O2"
_cell_formula_units_Z 26
_cell_length_a 28.202728
_cell_length_b 9.792910
_cell_length_c 4.974280
_cell_angle_alpha 90.000000
_cell_angle_beta 66.667253
_cell_angle_gamma 90.000000
_cell_volume 1261.478734
_symmetry_space_group_name_H-M "P 21/M"
_symmetry_group_IT_number 11
_symmetry_cell_setting 'monoclinic'
loop_
_space_group_symop_operation_xyz
x,y,z
-x,1/2+y,-z
-x,-y,-z
x,1/2-y,z
loop_
_atom_site_type_symbol
_atom_site_label
_atom_site_fract_x
_atom_site_fract_y
_atom_site_fract_z
Si Si1 0.782375 0.910524 0.448508
Si Si2 0.876212 0.089796 0.025329
Si Si3 0.548499 0.088667 0.802715
Si Si4 0.383289 0.911266 0.849856
Si Si5 0.943117 0.026833 0.375935
Si Si6 0.714004 0.589429 0.099410
Si Si7 0.987513 0.750000 0.472398
O O1 0.796592 0.750000 0.399384
O O2 0.761786 0.940429 0.792156
O O3 0.829267 0.002336 0.245245
O O4 0.734303 0.932893 0.354461
O O5 0.863757 0.250000 0.042265
O O6 0.923804 0.069894 0.124801
O O7 0.894938 0.042280 0.691164
O O8 0.536124 0.250000 0.851968
O O9 0.569176 0.059746 0.458605
O O10 0.596115 0.061437 0.897998
O O11 0.500000 0.000000 0.000000
O O12 0.371270 0.750000 0.851952
O O13 0.334419 0.999131 0.874043
O O14 0.985035 0.131410 0.398277
O O15 0.961238 0.871768 0.349381
O O16 0.701509 0.750000 0.094243
#
# Coordination Sequence:
#
# PCOD9164603 Si02
#       7
#     4   4   4   4   4   4   2
#     4  10  23  39  60  85 116 150 192 239 293 349
#     4  12  24  42  61  91 122 154 196 242 291 356
#     4  10  21  36  54  82 117 153 194 237 283 340
#     4  10  21  36  57  83 114 150 193 238 288 344
#     4  11  25  41  64  90 120 156 197 239 290 349
#     4  10  21  39  59  86 114 147 194 244 288 347
#     4  10  24  44  64  90 122 156 196 244 288 342
#
# _framework density 20.610733
#
# number of rings (size 3 to 8) (size 9 to 14) (size 15 to 20)
#    0.000    1.538    1.538    2.308    2.154    6.154 
#    0.000    0.000    0.000    0.000    0.000    0.000 
#    0.000    0.000    0.000    0.000    0.000    0.000 
#
# Total GULP energy -144929.135030 kJ/mol
# GULP energy per Si atom -5574.197501 kJ/mol
# Density = 2.056382 g / cm^3
# Si number density = 20.610733 Si / 1000 Ang^3
#
#
#
# Elastic Constant Matrix: (Units=GPa)
#
#
# Indices 1 2 3 4 5 6 
#
# 1 33.7056 16.6385 0.3245 0.0000 -9.3985 0.0000
# 2 16.6385 97.4998 5.2975 0.0000 -19.5295 0.0000
# 3 0.3245 5.2975 47.1149 0.0000 5.7490 0.0000
# 4 0.0000 0.0000 0.0000 2.3083 0.0000 -7.4513
# 5 -9.3985 -19.5295 5.7490 0.0000 26.6283 0.0000
# 6 0.0000 0.0000 0.0000 -7.4513 0.0000 46.5177
#
#
#
# Elastic Compliance Matrix: (Units=1/GPa)
#
#
# Indices 1 2 3 4 5 6 
#
# 1 0.034232 -0.003903 -0.000947 0.000000 0.009425 0.000000
# 2 -0.003903 0.012760 -0.002446 0.000000 0.008509 0.000000
# 3 -0.000947 -0.002446 0.022355 0.000000 -0.006955 0.000000
# 4 0.000000 0.000000 0.000000 0.897029 0.000000 0.143687
# 5 0.009425 0.008509 -0.006955 0.000000 0.048622 0.000000
# 6 0.000000 0.000000 0.000000 0.143687 0.000000 0.044513
#
#
# Mechanical properties :
#
#
# Convention : Reuss Voigt Hill
#
# Bulk Modulus (GPa) = 18.26299 24.76014 21.51157
# Shear Modulus (GPa) = 4.57727 25.49485 15.03606
#
# Velocity S-wave (km/s) = 1.49186 3.52087 2.70390
# Velocity P-wave (km/s) = 3.44204 5.34491 4.49531
#
# Compressibility (1/GPa) = 0.05475554
#
# Stress axis : x y z
#
# Youngs Moduli (GPa) = 29.21228 78.37216 44.73303
#
# Poissons Ratio (x) = 0.30585 0.04236
# Poissons Ratio (y) = 0.11400 0.10942
# Poissons Ratio (z) = 0.02766 0.19170
#
# Static dielectric constant tensor:
#      x y z
#    x 1.714830 0.000000 -0.007320 
#    y 0.000000 1.679220 0.000000 
#    z -0.007320 0.000000 1.743660 
# 
# From -- ./inp_files/9589.got.cif
#   From: 2010.05.17/outbox.cif.g08.bks.cpg/sg11_5_cif.got.tgz:9589.got - 2010.06.03 12:22:45.
