data_PCOD9164922
_publ_section_title
;
Structure prediction by ZEFSAII (Michael W. Deem and Ramdas Pophale) SiO2 
 PCOD9164922
Probable space group: P 21/M
;
_chemical_formula_sum "Si O2"
_cell_formula_units_Z 32
_cell_length_a 30.247251
_cell_length_b 7.643274
_cell_length_c 15.967645
_cell_angle_alpha 90.000000
_cell_angle_beta 23.362780
_cell_angle_gamma 90.000000
_cell_volume 1463.881556
_symmetry_space_group_name_H-M "P 21/M"
_symmetry_group_IT_number 11
_symmetry_cell_setting 'monoclinic'
loop_
_space_group_symop_operation_xyz
x,y,z
-x,1/2+y,-z
-x,-y,-z
x,1/2-y,z
loop_
_atom_site_type_symbol
_atom_site_label
_atom_site_fract_x
_atom_site_fract_y
_atom_site_fract_z
Si Si1 0.703561 0.465615 0.771254
Si Si2 0.635138 0.042915 0.522908
Si Si3 0.080895 0.041064 0.784323
Si Si4 0.957695 0.051687 0.331203
Si Si5 0.195614 0.454272 0.910366
Si Si6 0.401128 0.546281 0.875631
Si Si7 0.335660 0.548450 0.344230
Si Si8 0.627489 0.459240 0.255544
O O1 0.704395 0.250000 0.764322
O O2 0.650801 0.525582 0.773849
O O3 0.832663 0.523074 0.559210
O O4 0.638561 0.526317 0.966319
O O5 0.618652 0.250000 0.557551
O O6 0.625064 0.968985 0.635412
O O7 0.749541 0.018024 0.272278
O O8 0.534711 0.966453 0.643032
O O9 0.091799 0.250000 0.753531
O O10 0.202161 0.959949 0.587402
O O11 0.032530 0.952739 0.785966
O O12 0.000000 0.000000 0.000000
O O13 0.951736 0.250000 0.375525
O O14 0.076651 0.968313 0.148149
O O15 0.174359 0.250000 0.934414
O O16 0.286943 0.475147 0.824041
O O17 0.369094 0.750000 0.933051
O O18 0.354088 0.471137 0.871013
O O19 0.373803 0.750000 0.274963
O O20 0.500000 0.500000 0.500000
O O21 0.638401 0.250000 0.235180
#
# Coordination Sequence:
#
# PCOD9164922 Si02
#       8
#     4   4   4   4   4   4   4   4
#     4   8  16  36  60  79 107 148 189 224 266 326
#     4  11  22  34  53  82 114 146 183 232 281 325
#     4  11  20  30  48  74 106 144 185 228 274 323
#     4   9  19  36  57  79 107 144 183 225 274 328
#     4  11  22  36  57  84 112 144 183 228 281 335
#     4  10  21  37  59  82 107 145 187 226 275 336
#     4   9  19  35  53  76 108 147 186 224 272 325
#     4  11  22  37  58  84 113 145 181 227 280 332
#
# _framework density 21.859691000000002
#
# number of rings (size 3 to 8) (size 9 to 14) (size 15 to 20)
#    0.000    2.000    1.250    3.750    0.000    5.000 
#    0.000    3.125    0.000    0.000    0.000    0.000 
#    0.000    0.000    0.000    0.000    0.000    0.000 
#
# Total GULP energy -178447.283613 kJ/mol
# GULP energy per Si atom -5576.477613 kJ/mol
# Density = 2.180994 g / cm^3
# Si number density = 21.859691 Si / 1000 Ang^3
#
#
#
# Elastic Constant Matrix: (Units=GPa)
#
#
# Indices 1 2 3 4 5 6 
#
# 1 118.3788 -1.6420 31.7978 0.0000 7.6161 0.0000
# 2 -1.6420 61.9224 1.5024 0.0000 6.1279 0.0000
# 3 31.7978 1.5024 42.1012 0.0000 8.0070 0.0000
# 4 0.0000 0.0000 0.0000 9.5110 0.0000 -1.9534
# 5 7.6161 6.1279 8.0070 0.0000 40.0977 0.0000
# 6 0.0000 0.0000 0.0000 -1.9534 0.0000 -4.3426
#
#
#
# Elastic Compliance Matrix: (Units=1/GPa)
#
#
# Indices 1 2 3 4 5 6 
#
# 1 0.010621 0.000525 -0.007943 0.000000 -0.000511 0.000000
# 2 0.000525 0.016424 -0.000505 0.000000 -0.002509 0.000000
# 3 -0.007943 -0.000505 0.030631 0.000000 -0.004531 0.000000
# 4 0.000000 0.000000 0.000000 0.096250 0.000000 -0.043295
# 5 -0.000511 -0.002509 -0.004531 0.000000 0.026324 0.000000
# 6 0.000000 0.000000 0.000000 -0.043295 0.000000 -0.210804
#
#
# Mechanical properties :
#
#
# Convention : Reuss Voigt Hill
#
# Bulk Modulus (GPa) = 23.90707 31.74651 27.82679
# Shear Modulus (GPa) = -6557.94251 21.76951 -3268.08650
#
# Velocity S-wave (km/s) = -54.83182 3.15917 -38.70755
# Velocity P-wave (km/s) = 63.22772 5.27840 44.55268
#
# Compressibility (1/GPa) = 0.04182864
#
# Stress axis : x y z
#
# Youngs Moduli (GPa) = 94.15015 60.88758 32.64621
#
# Poissons Ratio (x) = -0.03197 0.25932
# Poissons Ratio (y) = -0.04943 0.01650
# Poissons Ratio (z) = 0.74788 0.03078
#
# Static dielectric constant tensor:
#      x y z
#    x 2.108430 0.000000 -0.390400 
#    y 0.000000 1.834080 0.000000 
#    z -0.390400 0.000000 2.321410 
# 
# From -- ./inp_files/56142.got.cif
#   From: 2010.05.17/outbox.cif.g08.bks.cpg/sg11_29_cif.got.tgz:56142.got - 2010.06.03 12:22:45.
