data_PCOD9164464
_publ_section_title
;
Structure prediction by ZEFSAII (Michael W. Deem and Ramdas Pophale) SiO2 
 PCOD9164464
Probable space group: P 21/M
;
_chemical_formula_sum "Si O2"
_cell_formula_units_Z 28
_cell_length_a 24.972910
_cell_length_b 9.899482
_cell_length_c 8.442957
_cell_angle_alpha 90.000000
_cell_angle_beta 45.161496
_cell_angle_gamma 90.000000
_cell_volume 1480.068707
_symmetry_space_group_name_H-M "P 21/M"
_symmetry_group_IT_number 11
_symmetry_cell_setting 'monoclinic'
loop_
_space_group_symop_operation_xyz
x,y,z
-x,1/2+y,-z
-x,-y,-z
x,1/2-y,z
loop_
_atom_site_type_symbol
_atom_site_label
_atom_site_fract_x
_atom_site_fract_y
_atom_site_fract_z
Si Si1 0.967031 0.908497 0.428680
Si Si2 0.294987 0.604686 0.151367
Si Si3 0.889551 0.093373 0.044474
Si Si4 0.227854 0.406363 0.542009
Si Si5 0.680115 0.897432 0.326724
Si Si6 0.573726 0.091167 0.367138
Si Si7 0.815731 0.490961 0.863581
O O1 0.975877 0.750000 0.446712
O O2 0.879115 0.944666 0.617928
O O3 0.000000 0.000000 0.500000
O O4 0.021091 0.935106 0.165832
O O5 0.294587 0.750000 0.236921
O O6 0.269703 0.482694 0.313801
O O7 0.233549 0.608526 0.138824
O O8 0.375031 0.584756 0.898582
O O9 0.879308 0.250000 0.112374
O O10 0.845566 0.991548 0.250426
O O11 0.853589 0.072658 0.942416
O O12 0.209370 0.250000 0.546993
O O13 0.285324 0.409566 0.570931
O O14 0.643326 0.750000 0.384407
O O15 0.625079 0.018596 0.393699
O O16 0.753539 0.905487 0.059995
O O17 0.559229 0.250000 0.430040
O O18 0.500000 0.000000 0.500000
#
# Coordination Sequence:
#
# PCOD9164464 Si02
#       7
#     4   4   4   4   4   4   4
#     4   9  17  28  46  73 102 134 173 218 266 310
#     4  10  21  36  55  79 105 134 169 210 255 304
#     4   9  17  31  51  73 101 136 174 218 264 309
#     4  10  21  35  52  76 105 139 177 213 253 303
#     4   9  18  33  54  78 105 137 172 211 253 300
#     4  10  21  37  59  85 109 133 164 203 249 301
#     4   9  17  30  52  78 101 131 175 221 261 307
#
# _framework density 18.918042
#
# number of rings (size 3 to 8) (size 9 to 14) (size 15 to 20)
#    0.000    2.571    0.000    1.714    0.000   11.429 
#    0.000    1.429    0.000    0.000    0.000    0.000 
#    0.000    0.000    0.000    0.000    0.000    0.000 
#
# Total GULP energy -156004.892705 kJ/mol
# GULP energy per Si atom -5571.603311 kJ/mol
# Density = 1.887498 g / cm^3
# Si number density = 18.918042 Si / 1000 Ang^3
#
#
#
# Elastic Constant Matrix: (Units=GPa)
#
#
# Indices 1 2 3 4 5 6 
#
# 1 28.4832 18.8343 25.9148 0.0000 -12.6758 0.0000
# 2 18.8343 139.5186 61.1477 0.0000 -4.2967 0.0000
# 3 25.9148 61.1477 85.3998 0.0000 -12.6656 0.0000
# 4 0.0000 0.0000 0.0000 21.8383 0.0000 6.5795
# 5 -12.6758 -4.2967 -12.6656 0.0000 27.0712 0.0000
# 6 0.0000 0.0000 0.0000 6.5795 0.0000 6.1955
#
#
#
# Elastic Compliance Matrix: (Units=1/GPa)
#
#
# Indices 1 2 3 4 5 6 
#
# 1 0.057200 -0.001177 -0.013507 0.000000 0.020277 0.000000
# 2 -0.001177 0.010569 -0.007569 0.000000 -0.002415 0.000000
# 3 -0.013507 -0.007569 0.021611 0.000000 0.002585 0.000000
# 4 0.000000 0.000000 0.000000 0.067335 0.000000 -0.071509
# 5 0.020277 -0.002415 0.002585 0.000000 0.047260 0.000000
# 6 0.000000 0.000000 0.000000 -0.071509 0.000000 0.237348
#
#
# Mechanical properties :
#
#
# Convention : Reuss Voigt Hill
#
# Bulk Modulus (GPa) = 22.28472 51.68835 36.98654
# Shear Modulus (GPa) = 9.98426 20.85466 15.41946
#
# Velocity S-wave (km/s) = 2.29980 3.32380 2.85803
# Velocity P-wave (km/s) = 4.34250 6.48935 5.52128
#
# Compressibility (1/GPa) = 0.04487381
#
# Stress axis : x y z
#
# Youngs Moduli (GPa) = 17.48256 94.61444 46.27253
#
# Poissons Ratio (x) = 0.11139 0.62501
# Poissons Ratio (y) = 0.02058 0.35022
# Poissons Ratio (z) = 0.23614 0.71610
#
# Static dielectric constant tensor:
#      x y z
#    x 1.667320 0.000000 -0.010840 
#    y 0.000000 1.664520 0.000000 
#    z -0.010840 0.000000 1.669620 
# 
# From -- ./inp_files/28410.got.cif
#   From: 2010.05.17/outbox.cif.g08.bks.cpg/sg11_15_cif.got.tgz:28410.got - 2010.06.03 12:22:45.
