data_PCOD9164449
_publ_section_title
;
Structure prediction by ZEFSAII (Michael W. Deem and Ramdas Pophale) SiO2 
 PCOD9164449
Probable space group: P 21/M
;
_chemical_formula_sum "Si O2"
_cell_formula_units_Z 28
_cell_length_a 16.686238
_cell_length_b 19.628923
_cell_length_c 6.969320
_cell_angle_alpha 90.000000
_cell_angle_beta 146.272644
_cell_angle_gamma 90.000000
_cell_volume 1267.439665
_symmetry_space_group_name_H-M "P 21/M"
_symmetry_group_IT_number 11
_symmetry_cell_setting 'monoclinic'
loop_
_space_group_symop_operation_xyz
x,y,z
-x,1/2+y,-z
-x,-y,-z
x,1/2-y,z
loop_
_atom_site_type_symbol
_atom_site_label
_atom_site_fract_x
_atom_site_fract_y
_atom_site_fract_z
Si Si1 0.202981 0.054594 0.669458
Si Si2 0.289511 0.670496 0.663236
Si Si3 0.927955 0.118606 0.212855
Si Si4 0.035434 0.586338 0.267070
Si Si5 0.522698 0.426667 0.230306
Si Si6 0.240537 0.478233 0.193475
Si Si7 0.356277 0.823919 0.247635
O O1 0.084069 0.114784 0.426146
O O2 0.126375 0.984379 0.448557
O O3 0.353595 0.066469 0.867642
O O4 0.242800 0.044285 0.975513
O O5 0.299244 0.750000 0.628374
O O6 0.127074 0.639832 0.325769
O O7 0.397325 0.620744 0.765732
O O8 0.328627 0.666956 0.967246
O O9 0.959876 0.111141 0.503364
O O10 0.848921 0.049068 0.991897
O O11 0.799449 0.172912 0.954469
O O12 0.866221 0.570917 0.899221
O O13 0.604426 0.498754 0.419491
O O14 0.551065 0.384989 0.483919
O O15 0.423343 0.750000 0.414111
#
# Coordination Sequence:
#
# PCOD9164449 Si02
#       7
#     4   4   4   4   4   4   4
#     4   9  16  29  50  80 109 129 161 207 258 313
#     4  10  21  35  51  72 100 136 177 211 242 294
#     4   7  13  28  50  73  98 129 165 206 245 289
#     4   8  15  31  51  72 100 131 165 207 250 292
#     4  11  20  30  52  82 107 131 162 206 260 311
#     4   8  15  28  49  76 103 128 159 204 253 300
#     4   9  18  35  54  69  95 138 179 212 249 294
#
# _framework density 22.091783
#
# number of rings (size 3 to 8) (size 9 to 14) (size 15 to 20)
#    0.000    3.143    0.000    3.429    0.000    1.143 
#    0.000    1.429    0.000    8.571    0.000   25.000 
#    0.000    0.000    0.000    0.000    0.000    0.000 
#
# Total GULP energy -156296.268909 kJ/mol
# GULP energy per Si atom -5582.009604 kJ/mol
# Density = 2.204150 g / cm^3
# Si number density = 22.091783 Si / 1000 Ang^3
#
#
#
# Elastic Constant Matrix: (Units=GPa)
#
#
# Indices 1 2 3 4 5 6 
#
# 1 92.1623 20.9482 30.0763 0.0000 4.0875 0.0000
# 2 20.9482 52.8218 18.6932 0.0000 3.9226 0.0000
# 3 30.0763 18.6932 113.8773 0.0000 24.8210 0.0000
# 4 0.0000 0.0000 0.0000 18.0153 0.0000 -5.2883
# 5 4.0875 3.9226 24.8210 0.0000 36.0488 0.0000
# 6 0.0000 0.0000 0.0000 -5.2883 0.0000 25.1137
#
#
#
# Elastic Compliance Matrix: (Units=1/GPa)
#
#
# Indices 1 2 3 4 5 6 
#
# 1 0.012678 -0.004077 -0.002897 0.000000 0.001001 0.000000
# 2 -0.004077 0.021410 -0.002389 0.000000 -0.000222 0.000000
# 3 -0.002897 -0.002389 0.011543 0.000000 -0.007359 0.000000
# 4 0.000000 0.000000 0.000000 0.059165 0.000000 0.012459
# 5 0.001001 -0.000222 -0.007359 0.000000 0.032718 0.000000
# 6 0.000000 0.000000 0.000000 0.012459 0.000000 0.042442
#
#
# Mechanical properties :
#
#
# Convention : Reuss Voigt Hill
#
# Bulk Modulus (GPa) = 37.16891 44.25518 40.71205
# Shear Modulus (GPa) = 24.07866 28.44516 26.26191
#
# Velocity S-wave (km/s) = 3.30500 3.59219 3.45159
# Velocity P-wave (km/s) = 5.60583 6.10582 5.86116
#
# Compressibility (1/GPa) = 0.02690421
#
# Stress axis : x y z
#
# Youngs Moduli (GPa) = 78.87527 46.70607 86.63362
#
# Poissons Ratio (x) = 0.19042 0.25101
# Poissons Ratio (y) = 0.32157 0.20700
# Poissons Ratio (z) = 0.22853 0.11160
#
# Static dielectric constant tensor:
#      x y z
#    x 1.900120 0.000000 -0.045570 
#    y 0.000000 1.796770 0.000000 
#    z -0.045570 0.000000 1.844540 
# 
# From -- ./inp_files/25278.got.cif
#   From: 2010.05.17/outbox.cif.g08.bks.cpg/sg11_13_cif.got.tgz:25278.got - 2010.06.03 12:22:45.
