data_PCOD9164223
_publ_section_title
;
Structure prediction by ZEFSAII (Michael W. Deem and Ramdas Pophale) SiO2 
 PCOD9164223
Probable space group: P 21/M
;
_chemical_formula_sum "Si O2"
_cell_formula_units_Z 32
_cell_length_a 17.681463
_cell_length_b 14.992600
_cell_length_c 11.282057
_cell_angle_alpha 90.000000
_cell_angle_beta 31.477615
_cell_angle_gamma 90.000000
_cell_volume 1561.678156
_symmetry_space_group_name_H-M "P 21/M"
_symmetry_group_IT_number 11
_symmetry_cell_setting 'monoclinic'
loop_
_space_group_symop_operation_xyz
x,y,z
-x,1/2+y,-z
-x,-y,-z
x,1/2-y,z
loop_
_atom_site_type_symbol
_atom_site_label
_atom_site_fract_x
_atom_site_fract_y
_atom_site_fract_z
Si Si1 0.792556 0.651613 0.164423
Si Si2 0.225840 0.146204 0.533385
Si Si3 0.905622 0.355814 0.858030
Si Si4 0.653058 0.034753 0.712708
Si Si5 0.345551 0.027481 0.043091
Si Si6 0.053362 0.142499 0.414417
Si Si7 0.651912 0.488498 0.228574
Si Si8 0.912939 0.350961 0.347826
O O1 0.740422 0.750000 0.198850
O O2 0.756050 0.637008 0.349846
O O3 0.731258 0.578669 0.159671
O O4 0.963995 0.649975 0.915753
O O5 0.256128 0.250000 0.459764
O O6 0.324648 0.070689 0.342017
O O7 0.057926 0.128677 0.722660
O O8 0.875920 0.250000 0.900459
O O9 0.946309 0.381451 0.666892
O O10 0.769466 0.409805 0.092500
O O11 0.499828 0.070218 0.873260
O O12 0.785746 0.085374 0.478271
O O13 0.672029 0.044248 0.828511
O O14 0.371398 0.986259 0.880460
O O15 0.205532 0.091310 0.227499
O O16 0.076194 0.250000 0.388969
O O17 0.985847 0.121170 0.375977
O O18 0.500000 0.500000 0.500000
O O19 0.859597 0.250000 0.436955
#
# Coordination Sequence:
#
# PCOD9164223 Si02
#       8
#     4   4   4   4   4   4   4   4
#     4  10  22  39  60  87 120 163 212 257 309 381
#     4  10  21  39  63  89 121 165 215 265 322 381
#     4  10  22  40  65  94 119 159 217 267 312 378
#     4  11  23  39  60  93 129 165 207 266 322 377
#     4  11  24  38  59  94 130 166 209 260 321 378
#     4  10  20  39  67  95 125 166 215 266 322 375
#     4  12  25  40  61  89 127 172 211 257 320 382
#     4  10  21  38  62  91 123 163 208 257 315 376
#
# _framework density 20.490777000000001
#
# number of rings (size 3 to 8) (size 9 to 14) (size 15 to 20)
#    0.000    1.500    2.500    2.250    0.000    5.000 
#    0.000    2.500    0.000    0.000    0.000    0.000 
#    0.000    0.000    0.000    0.000    0.000    0.000 
#
# Total GULP energy -178616.559832 kJ/mol
# GULP energy per Si atom -5581.767495 kJ/mol
# Density = 2.044414 g / cm^3
# Si number density = 20.490777 Si / 1000 Ang^3
#
#
#
# Elastic Constant Matrix: (Units=GPa)
#
#
# Indices 1 2 3 4 5 6 
#
# 1 36.1193 18.9928 7.5828 0.0000 -2.7553 0.0000
# 2 18.9928 60.0495 40.7475 0.0000 -10.3848 0.0000
# 3 7.5828 40.7475 91.0902 0.0000 -14.8790 0.0000
# 4 0.0000 0.0000 0.0000 -46.4616 0.0000 10.3008
# 5 -2.7553 -10.3848 -14.8790 0.0000 30.2314 0.0000
# 6 0.0000 0.0000 0.0000 10.3008 0.0000 8.0431
#
#
#
# Elastic Compliance Matrix: (Units=1/GPa)
#
#
# Indices 1 2 3 4 5 6 
#
# 1 0.033706 -0.012560 0.002838 0.000000 0.000154 0.000000
# 2 -0.012560 0.028880 -0.011353 0.000000 0.003189 0.000000
# 3 0.002838 -0.011353 0.016557 0.000000 0.004508 0.000000
# 4 0.000000 0.000000 0.000000 -0.016763 0.000000 0.021469
# 5 0.000154 0.003189 0.004508 0.000000 0.036406 0.000000
# 6 0.000000 0.000000 0.000000 0.021469 0.000000 0.096835
#
#
# Mechanical properties :
#
#
# Convention : Reuss Voigt Hill
#
# Bulk Modulus (GPa) = 27.03154 35.76725 31.39939
# Shear Modulus (GPa) = 19.99181 6.35829 13.17505
#
# Velocity S-wave (km/s) = 3.12693 1.76344 2.53845
# Velocity P-wave (km/s) = 5.12422 4.65183 4.89372
#
# Compressibility (1/GPa) = 0.03699382
#
# Stress axis : x y z
#
# Youngs Moduli (GPa) = 29.66790 34.62560 60.39884
#
# Poissons Ratio (x) = 0.43489 -0.17139
# Poissons Ratio (y) = 0.37262 0.68569
# Poissons Ratio (z) = -0.08419 0.39309
#
# Static dielectric constant tensor:
#      x y z
#    x 1.739750 0.000000 0.002450 
#    y 0.000000 1.745580 0.000000 
#    z 0.002450 0.000000 1.762170 
# 
# From -- ./inp_files/41681.got.cif
#   From: 2010.05.17/outbox.cif.g08.bks.cpg/sg11_21_cif.got.tgz:41681.got - 2010.06.03 12:22:45.
