data_PCOD9164570
_publ_section_title
;
Structure prediction by ZEFSAII (Michael W. Deem and Ramdas Pophale) SiO2 
 PCOD9164570
Probable space group: P 21/M
;
_chemical_formula_sum "Si O2"
_cell_formula_units_Z 32
_cell_length_a 24.778826
_cell_length_b 8.715111
_cell_length_c 18.325421
_cell_angle_alpha 90.000000
_cell_angle_beta 30.058266
_cell_angle_gamma 90.000000
_cell_volume 1982.173541
_symmetry_space_group_name_H-M "P 21/M"
_symmetry_group_IT_number 11
_symmetry_cell_setting 'monoclinic'
loop_
_space_group_symop_operation_xyz
x,y,z
-x,1/2+y,-z
-x,-y,-z
x,1/2-y,z
loop_
_atom_site_type_symbol
_atom_site_label
_atom_site_fract_x
_atom_site_fract_y
_atom_site_fract_z
Si Si1 0.382768 0.066637 0.617201
Si Si2 0.596131 0.436578 0.719267
Si Si3 0.980607 0.065911 0.441815
Si Si4 0.808667 0.067593 0.871652
Si Si5 0.263974 0.935528 0.308785
Si Si6 0.358003 0.065587 0.051554
Si Si7 0.425730 0.934624 0.418526
Si Si8 0.323019 0.434365 0.843337
O O1 0.389332 0.250000 0.607063
O O2 0.310815 0.025932 0.771910
O O3 0.500000 0.000000 0.500000
O O4 0.360362 0.003202 0.563038
O O5 0.596859 0.250000 0.716527
O O6 0.684911 0.484837 0.674127
O O7 0.610738 0.487714 0.618749
O O8 0.477559 0.481462 0.886387
O O9 0.987319 0.250000 0.437075
O O10 0.861040 0.022872 0.555109
O O11 0.074072 0.001885 0.280792
O O12 0.000000 0.000000 0.500000
O O13 0.812799 0.250000 0.860772
O O14 0.729150 0.002267 0.902330
O O15 0.758529 0.016639 0.007265
O O16 0.271861 0.750000 0.294685
O O17 0.330647 0.006638 0.164053
O O18 0.351687 0.250000 0.056503
O O19 0.419021 0.750000 0.430552
O O20 0.553263 0.972882 0.278668
O O21 0.312207 0.250000 0.864315
#
# Coordination Sequence:
#
# PCOD9164570 Si02
#       8
#     4   4   4   4   4   4   4   4
#     4   9  17  28  44  68  99 132 163 197 239 291
#     4   9  18  33  51  73 102 134 165 200 246 298
#     4  11  22  36  54  73  97 128 167 212 256 296
#     4  12  23  33  50  74  99 130 170 210 248 294
#     4  10  21  36  53  73  96 127 171 211 245 297
#     4  11  20  33  52  71 100 134 163 202 251 296
#     4   9  16  29  48  70 100 135 162 191 240 297
#     4   9  17  31  48  69  99 131 162 197 246 294
#
# _framework density 16.143894
#
# number of rings (size 3 to 8) (size 9 to 14) (size 15 to 20)
#    0.000    2.000    2.500    3.375    0.000    3.000 
#    0.000    1.250    0.000    0.000    0.000    0.875 
#    0.000    0.000    0.000    0.000    0.000    0.000 
#
# Total GULP energy -178503.409988 kJ/mol
# GULP energy per Si atom -5578.231562 kJ/mol
# Density = 1.610715 g / cm^3
# Si number density = 16.143894 Si / 1000 Ang^3
#
#
#
# Elastic Constant Matrix: (Units=GPa)
#
#
# Indices 1 2 3 4 5 6 
#
# 1 138.9490 34.5272 70.0715 0.0000 23.9199 0.0000
# 2 34.5272 34.5554 27.3096 0.0000 7.1665 0.0000
# 3 70.0715 27.3096 66.3823 0.0000 25.3503 0.0000
# 4 0.0000 0.0000 0.0000 23.5813 0.0000 9.2397
# 5 23.9199 7.1665 25.3503 0.0000 30.0400 0.0000
# 6 0.0000 0.0000 0.0000 9.2397 0.0000 20.0268
#
#
#
# Elastic Compliance Matrix: (Units=1/GPa)
#
#
# Indices 1 2 3 4 5 6 
#
# 1 0.015778 -0.003630 -0.015779 0.000000 0.001619 0.000000
# 2 -0.003630 0.044700 -0.017100 0.000000 0.006657 0.000000
# 3 -0.015779 -0.017100 0.047805 0.000000 -0.023698 0.000000
# 4 0.000000 0.000000 0.000000 0.051764 0.000000 -0.023882
# 5 0.001619 0.006657 -0.023698 0.000000 0.050411 0.000000
# 6 0.000000 0.000000 0.000000 -0.023882 0.000000 0.060951
#
#
# Mechanical properties :
#
#
# Convention : Reuss Voigt Hill
#
# Bulk Modulus (GPa) = 28.35723 55.96703 42.16213
# Shear Modulus (GPa) = 14.03778 21.92820 17.98299
#
# Velocity S-wave (km/s) = 2.95200 3.68951 3.34116
# Velocity P-wave (km/s) = 5.40578 7.27274 6.40762
#
# Compressibility (1/GPa) = 0.03526438
#
# Stress axis : x y z
#
# Youngs Moduli (GPa) = 63.38070 22.37157 20.91815
#
# Poissons Ratio (x) = 0.08121 0.33007
# Poissons Ratio (y) = 0.23006 0.35770
# Poissons Ratio (z) = 1.00010 0.38255
#
# Static dielectric constant tensor:
#      x y z
#    x 1.570980 0.000000 0.026920 
#    y 0.000000 1.544320 0.000000 
#    z 0.026920 0.000000 1.530050 
# 
# From -- ./inp_files/43825.got.cif
#   From: 2010.05.17/outbox.cif.g08.bks.cpg/sg11_22_cif.got.tgz:43825.got - 2010.06.03 12:22:45.
