data_PCOD9164580
_publ_section_title
;
Structure prediction by ZEFSAII (Michael W. Deem and Ramdas Pophale) SiO2 
 PCOD9164580
Probable space group: P 21/M
;
_chemical_formula_sum "Si O2"
_cell_formula_units_Z 32
_cell_length_a 22.748265
_cell_length_b 8.207937
_cell_length_c 29.230182
_cell_angle_alpha 90.000000
_cell_angle_beta 18.680735
_cell_angle_gamma 90.000000
_cell_volume 1748.087925
_symmetry_space_group_name_H-M "P 21/M"
_symmetry_group_IT_number 11
_symmetry_cell_setting 'monoclinic'
loop_
_space_group_symop_operation_xyz
x,y,z
-x,1/2+y,-z
-x,-y,-z
x,1/2-y,z
loop_
_atom_site_type_symbol
_atom_site_label
_atom_site_fract_x
_atom_site_fract_y
_atom_site_fract_z
Si Si1 0.076935 0.051463 0.598611
Si Si2 0.550588 0.443708 0.412125
Si Si3 0.626117 0.948874 0.549574
Si Si4 0.699140 0.052888 0.836861
Si Si5 0.370643 0.053528 0.304799
Si Si6 0.046705 0.054445 0.914162
Si Si7 0.666534 0.448336 0.157103
Si Si8 0.203008 0.943589 0.336684
O O1 0.076586 0.250000 0.599695
O O2 0.187514 0.997561 0.562308
O O3 0.202079 0.004691 0.462521
O O4 0.869079 0.997120 0.743469
O O5 0.500000 0.500000 0.500000
O O6 0.535436 0.250000 0.422549
O O7 0.418765 0.507213 0.468346
O O8 0.758150 0.489741 0.246016
O O9 0.629742 0.750000 0.546260
O O10 0.457785 0.995015 0.707385
O O11 0.703772 0.250000 0.833147
O O12 0.739030 0.993182 0.755852
O O13 0.500000 0.000000 0.000000
O O14 0.370132 0.250000 0.304184
O O15 0.555881 0.998472 0.193752
O O16 0.337775 0.992671 0.278231
O O17 0.052570 0.250000 0.908650
O O18 0.874715 0.997311 0.010082
O O19 0.000000 0.000000 0.000000
O O20 0.667499 0.250000 0.155972
O O21 0.197902 0.750000 0.337231
O O22 0.000000 0.000000 0.500000
#
# Coordination Sequence:
#
# PCOD9164580 Si02
#       8
#     4   4   4   4   4   4   4   4
#     4   8  14  29  53  77 100 131 174 220 259 306
#     4  11  22  37  55  80 111 146 184 227 277 327
#     4   8  14  28  53  78 100 132 177 222 261 309
#     4  10  21  36  53  76 105 138 173 214 261 311
#     4   9  16  31  55  80 105 135 176 224 266 310
#     4  11  20  34  56  83 111 142 180 224 272 327
#     4   8  15  29  53  81 106 136 177 221 265 316
#     4  11  21  34  53  79 109 138 173 216 268 321
#
# _framework density 18.305716
#
# number of rings (size 3 to 8) (size 9 to 14) (size 15 to 20)
#    0.000    2.500    2.500    2.625    0.000    1.000 
#    0.000    2.500    0.000    7.500    0.000    0.000 
#    0.000    0.000    0.000    0.000    0.000    0.000 
#
# Total GULP energy -178414.774502 kJ/mol
# GULP energy per Si atom -5575.461703 kJ/mol
# Density = 1.826405 g / cm^3
# Si number density = 18.305716 Si / 1000 Ang^3
#
#
#
# Elastic Constant Matrix: (Units=GPa)
#
#
# Indices 1 2 3 4 5 6 
#
# 1 186.5756 18.2028 97.5962 0.0000 -18.4196 0.0000
# 2 18.2028 14.5594 10.9815 0.0000 -1.1200 0.0000
# 3 97.5962 10.9815 127.7823 0.0000 -13.5306 0.0000
# 4 0.0000 0.0000 0.0000 25.0723 0.0000 0.6998
# 5 -18.4196 -1.1200 -13.5306 0.0000 32.2118 0.0000
# 6 0.0000 0.0000 0.0000 0.6998 0.0000 24.8441
#
#
#
# Elastic Compliance Matrix: (Units=1/GPa)
#
#
# Indices 1 2 3 4 5 6 
#
# 1 0.009726 -0.007019 -0.006554 0.000000 0.002565 0.000000
# 2 -0.007019 0.078512 -0.001593 0.000000 -0.001953 0.000000
# 3 -0.006554 -0.001593 0.013150 0.000000 0.001721 0.000000
# 4 0.000000 0.000000 0.000000 0.039916 0.000000 -0.001124
# 5 0.002565 -0.001953 0.001721 0.000000 0.033166 0.000000
# 6 0.000000 0.000000 0.000000 -0.001124 0.000000 0.040283
#
#
# Mechanical properties :
#
#
# Convention : Reuss Voigt Hill
#
# Bulk Modulus (GPa) = 14.07336 64.71982 39.39659
# Shear Modulus (GPa) = 18.60331 29.90142 24.25236
#
# Velocity S-wave (km/s) = 3.19134 4.04598 3.64380
# Velocity P-wave (km/s) = 4.61348 7.56692 6.26668
#
# Compressibility (1/GPa) = 0.07105623
#
# Stress axis : x y z
#
# Youngs Moduli (GPa) = 102.81837 12.73697 76.04392
#
# Poissons Ratio (x) = 0.08941 0.49836
# Poissons Ratio (y) = 0.72173 0.12112
# Poissons Ratio (z) = 0.67382 0.02029
#
# Static dielectric constant tensor:
#      x y z
#    x 1.658170 0.000000 -0.031920 
#    y 0.000000 1.650580 0.000000 
#    z -0.031920 0.000000 1.597840 
# 
# From -- ./inp_files/72012.got.cif
#   From: 2010.05.17/outbox.cif.g08.bks.cpg/sg11_37_cif.got.tgz:72012.got - 2010.06.03 12:22:45.
