data_PCOD9164839
_publ_section_title
;
Structure prediction by ZEFSAII (Michael W. Deem and Ramdas Pophale) SiO2 
 PCOD9164839
Probable space group: P 21/M
;
_chemical_formula_sum "Si O2"
_cell_formula_units_Z 32
_cell_length_a 22.472367
_cell_length_b 8.789935
_cell_length_c 28.793440
_cell_angle_alpha 90.000000
_cell_angle_beta 161.342145
_cell_angle_gamma 90.000000
_cell_volume 1819.550953
_symmetry_space_group_name_H-M "P 21/M"
_symmetry_group_IT_number 11
_symmetry_cell_setting 'monoclinic'
loop_
_space_group_symop_operation_xyz
x,y,z
-x,1/2+y,-z
-x,-y,-z
x,1/2-y,z
loop_
_atom_site_type_symbol
_atom_site_label
_atom_site_fract_x
_atom_site_fract_y
_atom_site_fract_z
Si Si1 0.703240 0.433146 0.408265
Si Si2 0.297104 0.931461 0.343069
Si Si3 0.294134 0.066600 0.846531
Si Si4 0.703934 0.432110 0.907132
Si Si5 0.979065 0.568737 0.933703
Si Si6 0.994351 0.931996 0.444839
Si Si7 0.017746 0.432284 0.814053
Si Si8 0.008382 0.067765 0.307729
O O1 0.703084 0.250000 0.412304
O O2 0.496966 0.496268 0.249914
O O3 0.828539 0.474906 0.455960
O O4 0.810455 0.504110 0.531493
O O5 0.308035 0.750000 0.346922
O O6 0.161894 0.967030 0.286651
O O7 0.500000 0.000000 0.500000
O O8 0.195473 0.999331 0.222842
O O9 0.296510 0.250000 0.851923
O O10 0.186937 0.024954 0.719479
O O11 0.167473 0.998826 0.793963
O O12 0.500000 0.000000 0.000000
O O13 0.690464 0.250000 0.902284
O O14 0.840207 0.465192 0.964397
O O15 0.805773 0.503070 0.027236
O O16 0.959002 0.750000 0.921543
O O17 0.000000 0.500000 0.000000
O O18 0.994623 0.750000 0.448887
O O19 0.000000 0.000000 0.500000
O O20 0.033050 0.250000 0.820890
O O21 0.998494 0.508343 0.749819
O O22 0.006474 0.250000 0.307835
#
# Coordination Sequence:
#
# PCOD9164839 Si02
#       8
#     4   4   4   4   4   4   4   4
#     4  10  21  38  57  80 111 146 183 225 273 328
#     4  10  21  37  58  82 110 144 183 225 274 328
#     4  10  21  38  57  81 112 145 183 226 273 329
#     4  10  21  37  57  83 111 142 182 228 273 323
#     4  10  21  37  57  81 111 144 182 226 272 323
#     4   9  20  36  55  79 107 139 177 219 264 315
#     4  10  21  38  58  81 110 146 183 224 275 331
#     4  11  22  37  58  83 110 144 185 231 278 325
#
# _framework density 17.586755
#
# number of rings (size 3 to 8) (size 9 to 14) (size 15 to 20)
#    0.000    2.000    0.000    4.125    0.000    8.000 
#    0.000    2.500    0.000    0.000    0.000    0.000 
#    0.000    0.000    0.000    0.000    0.000    0.000 
#
# Total GULP energy -178731.317781 kJ/mol
# GULP energy per Si atom -5585.353681 kJ/mol
# Density = 1.754673 g / cm^3
# Si number density = 17.586755 Si / 1000 Ang^3
#
#
#
# Elastic Constant Matrix: (Units=GPa)
#
#
# Indices 1 2 3 4 5 6 
#
# 1 140.9608 70.4903 105.8359 0.0000 -36.3533 0.0000
# 2 70.4903 90.4913 82.9265 0.0000 -8.8935 0.0000
# 3 105.8359 82.9265 203.7217 0.0000 -4.2318 0.0000
# 4 0.0000 0.0000 0.0000 38.5216 0.0000 -2.8772
# 5 -36.3533 -8.8935 -4.2318 0.0000 22.0771 0.0000
# 6 0.0000 0.0000 0.0000 -2.8772 0.0000 34.9612
#
#
#
# Elastic Compliance Matrix: (Units=1/GPa)
#
#
# Indices 1 2 3 4 5 6 
#
# 1 0.035638 -0.010660 -0.013098 0.000000 0.051879 0.000000
# 2 -0.010660 0.021572 -0.003441 0.000000 -0.009522 0.000000
# 3 -0.013098 -0.003441 0.012687 0.000000 -0.020522 0.000000
# 4 0.000000 0.000000 0.000000 0.026120 0.000000 0.002150
# 5 0.051879 -0.009522 -0.020522 0.000000 0.122953 0.000000
# 6 0.000000 0.000000 0.000000 0.002150 0.000000 0.028780
#
#
# Mechanical properties :
#
#
# Convention : Reuss Voigt Hill
#
# Bulk Modulus (GPa) = 64.51292 105.96435 85.23863
# Shear Modulus (GPa) = 16.26999 30.84005 23.55502
#
# Velocity S-wave (km/s) = 3.04489 4.19214 3.66370
# Velocity P-wave (km/s) = 7.00886 9.15506 8.15289
#
# Compressibility (1/GPa) = 0.01550077
#
# Stress axis : x y z
#
# Youngs Moduli (GPa) = 28.05980 46.35669 78.81819
#
# Poissons Ratio (x) = 0.49415 1.03233
# Poissons Ratio (y) = 0.29911 0.27121
# Poissons Ratio (z) = 0.36752 0.15951
#
# Static dielectric constant tensor:
#      x y z
#    x 1.578140 0.000000 0.005800 
#    y 0.000000 1.585050 0.000000 
#    z 0.005800 0.000000 1.569720 
# 
# From -- ./inp_files/72208.got.cif
#   From: 2010.05.17/outbox.cif.g08.bks.cpg/sg11_37_cif.got.tgz:72208.got - 2010.06.03 12:22:45.
