data_PCOD9164560
_publ_section_title
;
Structure prediction by ZEFSAII (Michael W. Deem and Ramdas Pophale) SiO2 
 PCOD9164560
Probable space group: P 21/M
;
_chemical_formula_sum "Si O2"
_cell_formula_units_Z 28
_cell_length_a 18.248840
_cell_length_b 9.326630
_cell_length_c 18.664489
_cell_angle_alpha 90.000000
_cell_angle_beta 23.957857
_cell_angle_gamma 90.000000
_cell_volume 1289.945121
_symmetry_space_group_name_H-M "P 21/M"
_symmetry_group_IT_number 11
_symmetry_cell_setting 'monoclinic'
loop_
_space_group_symop_operation_xyz
x,y,z
-x,1/2+y,-z
-x,-y,-z
x,1/2-y,z
loop_
_atom_site_type_symbol
_atom_site_label
_atom_site_fract_x
_atom_site_fract_y
_atom_site_fract_z
Si Si1 0.768308 0.585242 0.558235
Si Si2 0.304026 0.088768 0.098035
Si Si3 0.902964 0.917524 0.209891
Si Si4 0.463773 0.417010 0.366478
Si Si5 0.346929 0.423875 0.685174
Si Si6 0.736743 0.411309 0.728314
Si Si7 0.875323 0.083527 0.859919
O O1 0.736357 0.750000 0.609492
O O2 0.603346 0.542669 0.652811
O O3 0.791500 0.487007 0.606099
O O4 0.946237 0.583307 0.349886
O O5 0.232064 0.250000 0.159872
O O6 0.220672 0.001992 0.239043
O O7 0.518400 0.095044 0.919326
O O8 0.265441 0.008191 0.058618
O O9 0.948129 0.750000 0.161169
O O10 0.719877 0.924292 0.421610
O O11 0.837032 0.969162 0.191198
O O12 0.058871 0.976974 0.122091
O O13 0.520099 0.250000 0.316652
O O14 0.610793 0.515092 0.274142
O O15 0.500000 0.500000 0.500000
O O16 0.361619 0.250000 0.669744
O O17 0.807891 0.250000 0.671243
O O18 0.818141 0.250000 0.918019
#
# Coordination Sequence:
#
# PCOD9164560 Si02
#       7
#     4   4   4   4   4   4   4
#     4   9  18  32  50  72  99 127 155 192 236 280
#     4  10  21  36  52  71  94 120 154 195 235 277
#     4   7  12  23  38  58  87 120 151 183 221 267
#     4   8  14  25  39  59  89 121 151 185 226 271
#     4   9  14  21  35  56  85 121 156 188 224 266
#     4  10  21  36  53  71  92 121 157 193 231 280
#     4   9  17  31  50  71  96 126 157 190 232 280
#
# _framework density 21.706351000000002
#
# number of rings (size 3 to 8) (size 9 to 14) (size 15 to 20)
#    0.000    3.143    0.000    3.857    0.000    3.429 
#    0.000    6.429    0.000    0.000    0.000    1.000 
#    0.000    0.000    0.000    0.000    0.000    0.000 
#
# Total GULP energy -156177.210394 kJ/mol
# GULP energy per Si atom -5577.757514 kJ/mol
# Density = 2.165695 g / cm^3
# Si number density = 21.706351 Si / 1000 Ang^3
#
#
#
# Elastic Constant Matrix: (Units=GPa)
#
#
# Indices 1 2 3 4 5 6 
#
# 1 54.0416 27.5371 68.2416 0.0000 -51.7197 0.0000
# 2 27.5371 72.6453 44.1872 0.0000 -17.0406 0.0000
# 3 68.2416 44.1872 34.4563 0.0000 27.1496 0.0000
# 4 0.0000 0.0000 0.0000 6.1468 0.0000 -7.3545
# 5 -51.7197 -17.0406 27.1496 0.0000 15.4610 0.0000
# 6 0.0000 0.0000 0.0000 -7.3545 0.0000 31.6723
#
#
#
# Elastic Compliance Matrix: (Units=1/GPa)
#
#
# Indices 1 2 3 4 5 6 
#
# 1 0.004744 -0.008715 0.008220 0.000000 -0.008172 0.000000
# 2 -0.008715 0.018142 -0.003158 0.000000 -0.003614 0.000000
# 3 0.008220 -0.003158 0.005563 0.000000 0.014249 0.000000
# 4 0.000000 0.000000 0.000000 0.225277 0.000000 0.052311
# 5 -0.008172 -0.003614 0.014249 0.000000 0.008338 0.000000
# 6 0.000000 0.000000 0.000000 0.052311 0.000000 0.043720
#
#
# Mechanical properties :
#
#
# Convention : Reuss Voigt Hill
#
# Bulk Modulus (GPa) = 47.29371 49.00831 48.15101
# Shear Modulus (GPa) = 15.61825 12.06782 13.84304
#
# Velocity S-wave (km/s) = 2.68531 2.36043 2.52809
# Velocity P-wave (km/s) = 5.60801 5.48231 5.54552
#
# Compressibility (1/GPa) = 0.02114446
#
# Stress axis : x y z
#
# Youngs Moduli (GPa) = 210.80107 55.12002 179.74316
#
# Poissons Ratio (x) = 0.48039 -1.47757
# Poissons Ratio (y) = 1.83720 0.56757
# Poissons Ratio (z) = -1.73288 0.17405
#
# Static dielectric constant tensor:
#      x y z
#    x 1.819050 0.000000 -0.019590 
#    y 0.000000 1.743980 0.000000 
#    z -0.019590 0.000000 1.844730 
# 
# From -- ./inp_files/61254.got.cif
#   From: 2010.05.17/outbox.cif.g08.bks.cpg/sg11_31_cif.got.tgz:61254.got - 2010.06.03 12:22:45.
