data_PCOD9164951
_publ_section_title
;
Structure prediction by ZEFSAII (Michael W. Deem and Ramdas Pophale) SiO2 
 PCOD9164951
Probable space group: P 21/M
;
_chemical_formula_sum "Si O2"
_cell_formula_units_Z 32
_cell_length_a 11.791512
_cell_length_b 14.643750
_cell_length_c 8.490693
_cell_angle_alpha 90.000000
_cell_angle_beta 82.610114
_cell_angle_gamma 90.000000
_cell_volume 1453.926913
_symmetry_space_group_name_H-M "P 21/M"
_symmetry_group_IT_number 11
_symmetry_cell_setting 'monoclinic'
loop_
_space_group_symop_operation_xyz
x,y,z
-x,1/2+y,-z
-x,-y,-z
x,1/2-y,z
loop_
_atom_site_type_symbol
_atom_site_label
_atom_site_fract_x
_atom_site_fract_y
_atom_site_fract_z
Si Si1 0.039153 0.894739 0.994198
Si Si2 0.091449 0.143739 0.453686
Si Si3 0.482164 0.917246 0.883414
Si Si4 0.185023 0.152375 0.791429
Si Si5 0.135367 0.646080 0.636932
Si Si6 0.694301 0.544318 0.691502
Si Si7 0.278351 0.645389 0.130789
Si Si8 0.669874 0.499338 0.346202
O O1 0.154212 0.875479 0.074790
O O2 0.925280 0.848518 0.079883
O O3 0.070730 0.861525 0.814971
O O4 0.000000 0.000000 0.000000
O O5 0.093874 0.250000 0.401986
O O6 0.134930 0.141242 0.624208
O O7 0.177476 0.083659 0.335969
O O8 0.959807 0.114219 0.470165
O O9 0.611936 0.891764 0.812991
O O10 0.433617 0.955880 0.728198
O O11 0.381369 0.858394 0.981964
O O12 0.500000 0.000000 0.000000
O O13 0.245229 0.250000 0.793131
O O14 0.270727 0.068291 0.788936
O O15 0.169500 0.750000 0.600308
O O16 0.240793 0.579639 0.628729
O O17 0.696581 0.439602 0.755562
O O18 0.650884 0.546566 0.517655
O O19 0.275786 0.750000 0.194700
#
# Coordination Sequence:
#
# PCOD9164951 Si02
#       8
#     4   4   4   4   4   4   4   4
#     4  12  21  36  57  85 122 163 199 244 303 364
#     4   9  21  39  59  90 124 160 204 248 305 371
#     4  10  22  43  62  85 118 162 209 260 310 362
#     4  10  21  37  59  87 121 158 198 249 305 368
#     4  11  22  36  57  88 127 161 198 247 304 371
#     4  10  23  39  65  87 122 162 211 255 314 367
#     4  11  23  39  60  91 125 160 209 259 310 371
#     4  11  22  39  62  90 122 159 206 256 312 372
#
# _framework density 22.009360000000001
#
# number of rings (size 3 to 8) (size 9 to 14) (size 15 to 20)
#    0.000    1.500    2.500    2.250    1.750    3.000 
#    0.000    2.500    0.000    4.500    0.000    0.000 
#    0.000    0.000    0.000    0.000    0.000    0.000 
#
# Total GULP energy -178656.677953 kJ/mol
# GULP energy per Si atom -5583.021186 kJ/mol
# Density = 2.195927 g / cm^3
# Si number density = 22.009360 Si / 1000 Ang^3
#
#
#
# Elastic Constant Matrix: (Units=GPa)
#
#
# Indices 1 2 3 4 5 6 
#
# 1 67.9493 27.5361 -0.9352 0.0000 -13.6132 0.0000
# 2 27.5361 72.1444 -5.9853 0.0000 0.0279 0.0000
# 3 -0.9352 -5.9853 42.5275 0.0000 -15.3914 0.0000
# 4 0.0000 0.0000 0.0000 20.9266 0.0000 -1.2966
# 5 -13.6132 0.0279 -15.3914 0.0000 31.2701 0.0000
# 6 0.0000 0.0000 0.0000 -1.2966 0.0000 -16.0646
#
#
#
# Elastic Compliance Matrix: (Units=1/GPa)
#
#
# Indices 1 2 3 4 5 6 
#
# 1 0.019735 -0.007282 0.003067 0.000000 0.010108 0.000000
# 2 -0.007282 0.016747 0.001270 0.000000 -0.002560 0.000000
# 3 0.003067 0.001270 0.029498 0.000000 0.015853 0.000000
# 4 0.000000 0.000000 0.000000 0.047548 0.000000 -0.003838
# 5 0.010108 -0.002560 0.015853 0.000000 0.044185 0.000000
# 6 0.000000 0.000000 0.000000 -0.003838 0.000000 -0.061939
#
#
# Mechanical properties :
#
#
# Convention : Reuss Voigt Hill
#
# Bulk Modulus (GPa) = 16.64130 24.87247 20.75688
# Shear Modulus (GPa) = 41.08688 18.02680 29.55684
#
# Velocity S-wave (km/s) = 4.32533 2.86501 3.66856
# Velocity P-wave (km/s) = 5.70281 4.71909 5.23411
#
# Compressibility (1/GPa) = 0.06009148
#
# Stress axis : x y z
#
# Youngs Moduli (GPa) = 50.67130 59.71277 33.90055
#
# Poissons Ratio (x) = 0.43482 -0.10398
# Poissons Ratio (y) = 0.36898 -0.04307
# Poissons Ratio (z) = -0.15542 -0.07586
#
# Static dielectric constant tensor:
#      x y z
#    x 1.811110 0.000000 -0.014820 
#    y 0.000000 1.823580 0.000000 
#    z -0.014820 0.000000 1.833200 
# 
# From -- ./inp_files/18078.got.cif
#   From: 2010.05.17/outbox.cif.g08.bks.cpg/sg11_10_cif.got.tgz:18078.got - 2010.06.03 12:22:45.
