data_PCOD9164022
_publ_section_title
;
Structure prediction by ZEFSAII (Michael W. Deem and Ramdas Pophale) SiO2 
 PCOD9164022
Probable space group: P 21/M
;
_chemical_formula_sum "Si O2"
_cell_formula_units_Z 32
_cell_length_a 25.156829
_cell_length_b 8.432633
_cell_length_c 20.113226
_cell_angle_alpha 90.000000
_cell_angle_beta 159.194904
_cell_angle_gamma 90.000000
_cell_volume 1515.520066
_symmetry_space_group_name_H-M "P 21/M"
_symmetry_group_IT_number 11
_symmetry_cell_setting 'monoclinic'
loop_
_space_group_symop_operation_xyz
x,y,z
-x,1/2+y,-z
-x,-y,-z
x,1/2-y,z
loop_
_atom_site_type_symbol
_atom_site_label
_atom_site_fract_x
_atom_site_fract_y
_atom_site_fract_z
Si Si1 0.651257 0.570726 0.871067
Si Si2 0.411384 0.566946 0.064587
Si Si3 0.730689 0.941492 0.471183
Si Si4 0.414615 0.569335 0.337556
Si Si5 0.833566 0.929772 0.878408
Si Si6 0.965744 0.438517 0.251248
Si Si7 0.807117 0.433544 0.704965
Si Si8 0.091506 0.437594 0.669688
O O1 0.628181 0.750000 0.867454
O O2 0.611620 0.449261 0.882795
O O3 0.562328 0.534611 0.700620
O O4 0.826140 0.539815 0.061394
O O5 0.401671 0.750000 0.032487
O O6 0.581518 0.506967 0.256665
O O7 0.268786 0.475256 0.868922
O O8 0.722964 0.750000 0.467328
O O9 0.881075 0.982039 0.606768
O O10 0.738048 0.009418 0.554587
O O11 0.500000 0.500000 0.500000
O O12 0.451343 0.750000 0.366658
O O13 0.243451 0.551696 0.161903
O O14 0.789292 0.750000 0.844686
O O15 0.780810 0.966264 0.741250
O O16 0.012041 0.941924 0.091218
O O17 0.939479 0.250000 0.211033
O O18 0.965107 0.476098 0.329322
O O19 0.767373 0.250000 0.670795
O O20 0.072415 0.250000 0.655610
O O21 0.000000 0.500000 0.500000
#
# Coordination Sequence:
#
# PCOD9164022 Si02
#       8
#     4   4   4   4   4   4   4   4
#     4  11  22  38  58  83 114 153 198 246 295 355
#     4  10  21  39  61  89 122 158 197 241 291 347
#     4  10  22  37  58  86 120 155 193 241 295 347
#     4  12  25  39  55  76 105 144 190 246 303 356
#     4  10  21  38  55  76 106 142 190 244 298 357
#     4  10  20  38  63  92 121 156 197 240 287 344
#     4  10  21  35  56  80 108 148 191 238 292 350
#     4  11  22  40  66  95 124 159 197 237 283 344
#
# _framework density 21.114864000000001
#
# number of rings (size 3 to 8) (size 9 to 14) (size 15 to 20)
#    0.000    1.500    0.000    7.125    1.750    5.500 
#    0.000    0.625    0.000    0.000    0.000    0.000 
#    0.000    0.000    0.000    0.000    0.000    0.000 
#
# Total GULP energy -178909.365842 kJ/mol
# GULP energy per Si atom -5590.917683 kJ/mol
# Density = 2.106681 g / cm^3
# Si number density = 21.114864 Si / 1000 Ang^3
#
#
#
# Elastic Constant Matrix: (Units=GPa)
#
#
# Indices 1 2 3 4 5 6 
#
# 1 38.3586 -3.2157 16.9150 0.0000 -5.8134 0.0000
# 2 -3.2157 62.8951 6.4204 0.0000 0.3201 0.0000
# 3 16.9150 6.4204 92.4655 0.0000 -10.7714 0.0000
# 4 0.0000 0.0000 0.0000 30.4909 0.0000 -1.4926
# 5 -5.8134 0.3201 -10.7714 0.0000 41.9160 0.0000
# 6 0.0000 0.0000 0.0000 -1.4926 0.0000 21.2002
#
#
#
# Elastic Compliance Matrix: (Units=1/GPa)
#
#
# Indices 1 2 3 4 5 6 
#
# 1 0.028896 0.001986 -0.005112 0.000000 0.002679 0.000000
# 2 0.001986 0.016157 -0.001513 0.000000 -0.000237 0.000000
# 3 -0.005112 -0.001513 0.012137 0.000000 0.002422 0.000000
# 4 0.000000 0.000000 0.000000 0.032910 0.000000 0.002317
# 5 0.002679 -0.000237 0.002422 0.000000 0.024853 0.000000
# 6 0.000000 0.000000 0.000000 0.002317 0.000000 0.047332
#
#
# Mechanical properties :
#
#
# Convention : Reuss Voigt Hill
#
# Bulk Modulus (GPa) = 20.87149 25.99539 23.43344
# Shear Modulus (GPa) = 26.66179 30.29472 28.47826
#
# Velocity S-wave (km/s) = 3.55731 3.79193 3.67649
# Velocity P-wave (km/s) = 5.17482 5.61336 5.39854
#
# Compressibility (1/GPa) = 0.04791226
#
# Stress axis : x y z
#
# Youngs Moduli (GPa) = 34.60634 61.89406 82.39201
#
# Poissons Ratio (x) = -0.12290 0.42118
# Poissons Ratio (y) = -0.06871 0.12463
# Poissons Ratio (z) = 0.17690 0.09362
#
# Static dielectric constant tensor:
#      x y z
#    x 1.751970 0.000000 0.057620 
#    y 0.000000 1.718440 0.000000 
#    z 0.057620 0.000000 1.840080 
# 
# From -- ./inp_files/67184.got.cif
#   From: 2010.05.17/outbox.cif.g08.bks.cpg/sg11_34_cif.got.tgz:67184.got - 2010.06.03 12:22:45.
