data_PCOD9164095
_publ_section_title
;
Structure prediction by ZEFSAII (Michael W. Deem and Ramdas Pophale) SiO2 
 PCOD9164095
Probable space group: P 21/M
;
_chemical_formula_sum "Si O2"
_cell_formula_units_Z 32
_cell_length_a 5.363652
_cell_length_b 12.498920
_cell_length_c 24.394649
_cell_angle_alpha 90.000000
_cell_angle_beta 109.890637
_cell_angle_gamma 90.000000
_cell_volume 1537.851113
_symmetry_space_group_name_H-M "P 21/M"
_symmetry_group_IT_number 11
_symmetry_cell_setting 'monoclinic'
loop_
_space_group_symop_operation_xyz
x,y,z
-x,1/2+y,-z
-x,-y,-z
x,1/2-y,z
loop_
_atom_site_type_symbol
_atom_site_label
_atom_site_fract_x
_atom_site_fract_y
_atom_site_fract_z
Si Si1 0.507951 0.129868 0.280726
Si Si2 0.305805 0.431783 0.153324
Si Si3 0.960758 0.495187 0.702495
Si Si4 0.879033 0.499263 0.576687
Si Si5 0.197171 0.443461 0.920227
Si Si6 0.707795 0.631208 0.187150
Si Si7 0.676806 0.377467 0.456408
Si Si8 0.389899 0.134165 0.040087
O O1 0.532778 0.250000 0.305326
O O2 0.353906 0.134211 0.211182
O O3 0.796471 0.079780 0.288620
O O4 0.312027 0.054631 0.301349
O O5 0.500160 0.533923 0.174404
O O6 0.325090 0.364503 0.099234
O O7 0.028575 0.487365 0.124326
O O8 0.051369 0.412584 0.756771
O O9 0.927611 0.446487 0.639450
O O10 0.805779 0.415227 0.523802
O O11 0.623284 0.576951 0.564826
O O12 0.136434 0.565881 0.575358
O O13 0.253125 0.362094 0.875523
O O14 0.421376 0.532077 0.945993
O O15 0.162848 0.389948 0.977469
O O16 0.626736 0.750000 0.200385
O O17 0.679332 0.250000 0.450975
O O18 0.507385 0.250000 0.033446
#
# Coordination Sequence:
#
# PCOD9164095 Si02
#       8
#     4   4   4   4   4   4   4   4
#     4  11  23  39  61  87 122 163 200 250 307 359
#     4  10  21  39  55  81 113 147 196 252 300 365
#     4  11  23  41  59  92 126 155 208 247 293 362
#     4  10  22  38  61  90 126 161 198 255 294 345
#     4  10  20  39  56  79 114 144 192 247 299 368
#     4  10  22  39  59  81 112 155 196 245 300 354
#     4  10  21  39  63  91 123 163 203 243 301 353
#     4  10  21  34  56  84 109 145 191 245 308 367
#
# _framework density 20.808257999999999
#
# number of rings (size 3 to 8) (size 9 to 14) (size 15 to 20)
#    0.000    1.750    1.250    2.625    0.000    5.500 
#    0.000    0.000    0.000    4.500    0.000    0.000 
#    0.000    0.000    0.000    0.000    0.000    0.000 
#
# Total GULP energy -178188.982195 kJ/mol
# GULP energy per Si atom -5568.405694 kJ/mol
# Density = 2.076090 g / cm^3
# Si number density = 20.808258 Si / 1000 Ang^3
#
#
#
# Elastic Constant Matrix: (Units=GPa)
#
#
# Indices 1 2 3 4 5 6 
#
# 1 67.9315 9.0754 -4.1359 0.0000 -2.6646 0.0000
# 2 9.0754 104.0959 24.2540 0.0000 -6.5300 0.0000
# 3 -4.1359 24.2540 102.1644 0.0000 -9.0287 0.0000
# 4 0.0000 0.0000 0.0000 5.8538 0.0000 -6.6917
# 5 -2.6646 -6.5300 -9.0287 0.0000 26.1508 0.0000
# 6 0.0000 0.0000 0.0000 -6.6917 0.0000 20.3176
#
#
#
# Elastic Compliance Matrix: (Units=1/GPa)
#
#
# Indices 1 2 3 4 5 6 
#
# 1 0.015044 -0.001470 0.001094 0.000000 0.001544 0.000000
# 2 -0.001470 0.010392 -0.002383 0.000000 0.001622 0.000000
# 3 0.001094 -0.002383 0.010681 0.000000 0.003204 0.000000
# 4 0.000000 0.000000 0.000000 0.273983 0.000000 0.090237
# 5 0.001544 0.001622 0.003204 0.000000 0.039908 0.000000
# 6 0.000000 0.000000 0.000000 0.090237 0.000000 0.078938
#
#
# Mechanical properties :
#
#
# Convention : Reuss Voigt Hill
#
# Bulk Modulus (GPa) = 32.67941 36.95321 34.81631
# Shear Modulus (GPa) = 11.24445 26.79766 19.02106
#
# Velocity S-wave (km/s) = 2.32714 3.59254 3.02671
# Velocity P-wave (km/s) = 4.79165 5.91658 5.38358
#
# Compressibility (1/GPa) = 0.03060031
#
# Stress axis : x y z
#
# Youngs Moduli (GPa) = 66.47055 96.23069 93.62086
#
# Poissons Ratio (x) = 0.14144 -0.10246
# Poissons Ratio (y) = 0.09770 0.22311
# Poissons Ratio (z) = -0.07274 0.22933
#
# Static dielectric constant tensor:
#      x y z
#    x 1.814530 0.000000 -0.004610 
#    y 0.000000 1.651490 0.000000 
#    z -0.004610 0.000000 1.894250 
# 
# From -- ./inp_files/67604.got.cif
#   From: 2010.05.17/outbox.cif.g08.bks.cpg/sg11_34_cif.got.tgz:67604.got - 2010.06.03 12:22:45.
