data_PCOD9164124
_publ_section_title
;
Structure prediction by ZEFSAII (Michael W. Deem and Ramdas Pophale) SiO2 
 PCOD9164124
Probable space group: P 21/M
;
_chemical_formula_sum "Si O2"
_cell_formula_units_Z 32
_cell_length_a 22.363390
_cell_length_b 8.507368
_cell_length_c 28.726866
_cell_angle_alpha 90.000000
_cell_angle_beta 162.959654
_cell_angle_gamma 90.000000
_cell_volume 1601.605204
_symmetry_space_group_name_H-M "P 21/M"
_symmetry_group_IT_number 11
_symmetry_cell_setting 'monoclinic'
loop_
_space_group_symop_operation_xyz
x,y,z
-x,1/2+y,-z
-x,-y,-z
x,1/2-y,z
loop_
_atom_site_type_symbol
_atom_site_label
_atom_site_fract_x
_atom_site_fract_y
_atom_site_fract_z
Si Si1 0.018904 0.938234 0.730967
Si Si2 0.609278 0.563198 0.036000
Si Si3 0.433096 0.935717 0.594413
Si Si4 0.099338 0.940216 0.895582
Si Si5 0.741312 0.562830 0.281813
Si Si6 0.370066 0.438631 0.446374
Si Si7 0.474605 0.561882 0.239280
Si Si8 0.857847 0.434495 0.468308
O O1 0.998990 0.750000 0.712457
O O2 0.118906 0.977481 0.855521
O O3 0.799462 0.016506 0.567664
O O4 0.159087 0.008520 0.795507
O O5 0.594354 0.750000 0.021639
O O6 0.483205 0.477197 0.901812
O O7 0.500000 0.500000 0.000000
O O8 0.458570 0.750000 0.611378
O O9 0.463539 0.004942 0.565297
O O10 0.552138 0.002080 0.727787
O O11 0.100220 0.750000 0.899861
O O12 0.867655 0.992335 0.735298
O O13 0.288011 0.996730 0.067479
O O14 0.765543 0.750000 0.308074
O O15 0.779779 0.469300 0.357748
O O16 0.905312 0.515832 0.363671
O O17 0.500000 0.500000 0.500000
O O18 0.367695 0.250000 0.445286
O O19 0.470333 0.750000 0.236577
O O20 0.694654 0.513316 0.381348
O O21 0.857822 0.250000 0.479015
#
# Coordination Sequence:
#
# PCOD9164124 Si02
#       8
#     4   4   4   4   4   4   4   4
#     4  10  20  39  62  84 112 151 197 249 304 361
#     4  12  25  38  54  77 108 146 193 248 304 358
#     4  11  23  39  59  89 125 160 199 243 291 351
#     4   8  18  36  61  89 117 150 191 237 287 346
#     4  10  21  38  55  75 106 144 193 244 299 361
#     4  10  20  40  67  95 124 158 198 239 289 349
#     4  11  21  36  59  86 118 156 196 243 299 351
#     4  10  21  36  56  80 109 146 190 243 299 356
#
# _framework density 19.979953999999999
#
# number of rings (size 3 to 8) (size 9 to 14) (size 15 to 20)
#    0.000    1.750    0.000    5.625    1.750    2.500 
#    0.000    7.500    0.000    0.000    0.000    0.000 
#    0.000    0.000    0.000    0.000    0.000    0.000 
#
# Total GULP energy -178658.567143 kJ/mol
# GULP energy per Si atom -5583.080223 kJ/mol
# Density = 1.993448 g / cm^3
# Si number density = 19.979954 Si / 1000 Ang^3
#
#
#
# Elastic Constant Matrix: (Units=GPa)
#
#
# Indices 1 2 3 4 5 6 
#
# 1 125.2211 18.9360 29.9978 0.0000 5.1073 0.0000
# 2 18.9360 59.6376 4.3014 0.0000 2.0593 0.0000
# 3 29.9978 4.3014 49.4623 0.0000 -8.4645 0.0000
# 4 0.0000 0.0000 0.0000 22.5331 0.0000 2.1034
# 5 5.1073 2.0593 -8.4645 0.0000 35.9610 0.0000
# 6 0.0000 0.0000 0.0000 2.1034 0.0000 34.9859
#
#
#
# Elastic Compliance Matrix: (Units=1/GPa)
#
#
# Indices 1 2 3 4 5 6 
#
# 1 0.010008 -0.002627 -0.006313 0.000000 -0.002757 0.000000
# 2 -0.002627 0.017628 -0.000051 0.000000 -0.000648 0.000000
# 3 -0.006313 -0.000051 0.025220 0.000000 0.006836 0.000000
# 4 0.000000 0.000000 0.000000 0.044630 0.000000 -0.002683
# 5 -0.002757 -0.000648 0.006836 0.000000 0.029846 0.000000
# 6 0.000000 0.000000 0.000000 -0.002683 0.000000 0.028744
#
#
# Mechanical properties :
#
#
# Convention : Reuss Voigt Hill
#
# Bulk Modulus (GPa) = 28.67386 37.86572 33.26979
# Shear Modulus (GPa) = 26.92773 30.76837 28.84805
#
# Velocity S-wave (km/s) = 3.67514 3.92849 3.80392
# Velocity P-wave (km/s) = 5.69134 6.29050 5.99840
#
# Compressibility (1/GPa) = 0.03487497
#
# Stress axis : x y z
#
# Youngs Moduli (GPa) = 99.92095 56.72741 39.65066
#
# Poissons Ratio (x) = 0.14903 0.25031
# Poissons Ratio (y) = 0.26251 0.00201
# Poissons Ratio (z) = 0.63079 0.00287
#
# Static dielectric constant tensor:
#      x y z
#    x 1.702610 0.000000 -0.010580 
#    y 0.000000 1.678890 0.000000 
#    z -0.010580 0.000000 1.689380 
# 
# From -- ./inp_files/72198.got.cif
#   From: 2010.05.17/outbox.cif.g08.bks.cpg/sg11_37_cif.got.tgz:72198.got - 2010.06.03 12:22:45.
