data_PCOD9164098
_publ_section_title
;
Structure prediction by ZEFSAII (Michael W. Deem and Ramdas Pophale) SiO2 
 PCOD9164098
Probable space group: P 21/M
;
_chemical_formula_sum "Si O2"
_cell_formula_units_Z 32
_cell_length_a 21.543821
_cell_length_b 13.217961
_cell_length_c 5.646779
_cell_angle_alpha 90.000000
_cell_angle_beta 107.015922
_cell_angle_gamma 90.000000
_cell_volume 1537.614227
_symmetry_space_group_name_H-M "P 21/M"
_symmetry_group_IT_number 11
_symmetry_cell_setting 'monoclinic'
loop_
_space_group_symop_operation_xyz
x,y,z
-x,1/2+y,-z
-x,-y,-z
x,1/2-y,z
loop_
_atom_site_type_symbol
_atom_site_label
_atom_site_fract_x
_atom_site_fract_y
_atom_site_fract_z
Si Si1 0.267187 0.485051 0.387637
Si Si2 0.170943 0.366635 0.567698
Si Si3 0.683472 0.129412 0.194069
Si Si4 0.183220 0.945602 0.908206
Si Si5 0.573463 0.966686 0.039168
Si Si6 0.949888 0.956148 0.751991
Si Si7 0.615048 0.629531 0.601892
Si Si8 0.062348 0.638742 0.571394
O O1 0.240092 0.403886 0.544214
O O2 0.304349 0.581678 0.533120
O O3 0.314521 0.421263 0.275301
O O4 0.204711 0.530685 0.194276
O O5 0.171619 0.250000 0.639212
O O6 0.161217 0.447030 0.768916
O O7 0.113383 0.384561 0.309456
O O8 0.674003 0.250000 0.175554
O O9 0.751178 0.098954 0.139070
O O10 0.621368 0.062974 0.045174
O O11 0.123076 0.871194 0.814975
O O12 0.594824 0.912850 0.314812
O O13 0.576146 0.902090 0.797061
O O14 0.500000 0.000000 0.000000
O O15 0.996732 0.897044 0.622749
O O16 0.922716 0.059691 0.614782
O O17 0.000000 0.000000 0.000000
O O18 0.617468 0.750000 0.589450
O O19 0.054960 0.750000 0.468600
#
# Coordination Sequence:
#
# PCOD9164098 Si02
#       8
#     4   4   4   4   4   4   4   4
#     4  10  21  39  58  89 121 157 204 261 307 374
#     4  10  21  35  56  84 116 154 199 249 313 375
#     4  10  22  39  61  88 122 164 206 256 317 377
#     4  10  20  39  57  83 118 150 197 255 307 373
#     4  11  24  45  66  99 138 170 219 273 317 386
#     4  10  21  38  54  78 115 149 194 251 303 369
#     4  11  23  42  69  98 132 175 219 266 327 385
#     4  10  21  35  56  82 109 149 196 245 305 369
#
# _framework density 20.811461000000001
#
# number of rings (size 3 to 8) (size 9 to 14) (size 15 to 20)
#    0.000    1.750    1.250    2.625    0.000    4.000 
#    0.000    0.000    0.000    0.000    0.000    0.000 
#    0.000    0.000    0.000    0.000    0.000    0.000 
#
# Total GULP energy -178171.044900 kJ/mol
# GULP energy per Si atom -5567.845153 kJ/mol
# Density = 2.076409 g / cm^3
# Si number density = 20.811461 Si / 1000 Ang^3
#
#
#
# Elastic Constant Matrix: (Units=GPa)
#
#
# Indices 1 2 3 4 5 6 
#
# 1 90.9061 35.3335 1.1040 0.0000 -0.6229 0.0000
# 2 35.3335 171.4105 27.4051 0.0000 2.7050 0.0000
# 3 1.1040 27.4051 51.3986 0.0000 5.1963 0.0000
# 4 0.0000 0.0000 0.0000 14.8518 0.0000 -1.2551
# 5 -0.6229 2.7050 5.1963 0.0000 31.1759 0.0000
# 6 0.0000 0.0000 0.0000 -1.2551 0.0000 17.2322
#
#
#
# Elastic Compliance Matrix: (Units=1/GPa)
#
#
# Indices 1 2 3 4 5 6 
#
# 1 0.012024 -0.002664 0.001134 0.000000 0.000282 0.000000
# 2 -0.002664 0.006968 -0.003653 0.000000 -0.000049 0.000000
# 3 0.001134 -0.003653 0.021711 0.000000 -0.003279 0.000000
# 4 0.000000 0.000000 0.000000 0.067749 0.000000 0.004934
# 5 0.000282 -0.000049 -0.003279 0.000000 0.032633 0.000000
# 6 0.000000 0.000000 0.000000 0.004934 0.000000 0.058390
#
#
# Mechanical properties :
#
#
# Convention : Reuss Voigt Hill
#
# Bulk Modulus (GPa) = 32.96463 49.04449 41.00456
# Shear Modulus (GPa) = 22.73210 29.31016 26.02113
#
# Velocity S-wave (km/s) = 3.30856 3.75689 3.53983
# Velocity P-wave (km/s) = 5.51992 6.51431 6.03762
#
# Compressibility (1/GPa) = 0.03033554
#
# Stress axis : x y z
#
# Youngs Moduli (GPa) = 83.16641 143.51378 46.06020
#
# Poissons Ratio (x) = 0.38236 -0.05222
# Poissons Ratio (y) = 0.22158 0.16826
# Poissons Ratio (z) = -0.09429 0.52426
#
# Static dielectric constant tensor:
#      x y z
#    x 1.794410 0.000000 0.013990 
#    y 0.000000 1.716770 0.000000 
#    z 0.013990 0.000000 1.886130 
# 
# From -- ./inp_files/9432.got.cif
#   From: 2010.05.17/outbox.cif.g08.bks.cpg/sg11_5_cif.got.tgz:9432.got - 2010.06.03 12:22:45.
