data_PCOD9164547
_publ_section_title
;
Structure prediction by ZEFSAII (Michael W. Deem and Ramdas Pophale) SiO2 
 PCOD9164547
Probable space group: P 21/M
;
_chemical_formula_sum "Si O2"
_cell_formula_units_Z 28
_cell_length_a 16.568094
_cell_length_b 19.474510
_cell_length_c 11.175657
_cell_angle_alpha 90.000000
_cell_angle_beta 23.621699
_cell_angle_gamma 90.000000
_cell_volume 1444.864804
_symmetry_space_group_name_H-M "P 21/M"
_symmetry_group_IT_number 11
_symmetry_cell_setting 'monoclinic'
loop_
_space_group_symop_operation_xyz
x,y,z
-x,1/2+y,-z
-x,-y,-z
x,1/2-y,z
loop_
_atom_site_type_symbol
_atom_site_label
_atom_site_fract_x
_atom_site_fract_y
_atom_site_fract_z
Si Si1 0.053793 0.070502 0.292096
Si Si2 0.679637 0.479917 0.667857
Si Si3 0.341541 0.098573 0.701921
Si Si4 0.937002 0.613247 0.250982
Si Si5 0.549157 0.825997 0.671005
Si Si6 0.847973 0.089742 0.807848
Si Si7 0.291022 0.545373 0.642433
O O1 0.833036 0.066816 0.533371
O O2 0.014757 0.097598 0.477744
O O3 0.150753 0.993011 0.168813
O O4 0.188029 0.111695 0.017225
O O5 0.812380 0.546657 0.460419
O O6 0.634134 0.452379 0.596339
O O7 0.500000 0.500000 0.000000
O O8 0.383694 0.160461 0.556342
O O9 0.545577 0.075991 0.489523
O O10 0.268069 0.033354 0.720596
O O11 0.757864 0.664113 0.459586
O O12 0.077642 0.628749 0.174216
O O13 0.087166 0.588415 0.941681
O O14 0.467753 0.750000 0.801533
O O15 0.371480 0.882197 0.932171
#
# Coordination Sequence:
#
# PCOD9164547 Si02
#       7
#     4   4   4   4   4   4   4
#     4  10  21  35  62  94 126 154 186 262 325 373
#     4  11  21  30  54  92 130 150 187 242 316 376
#     4  11  20  37  59  88 121 160 201 244 318 356
#     4  11  21  38  60  88 120 161 199 244 309 365
#     4  12  25  41  62  85 120 168 216 250 287 369
#     4  10  21  40  59  97 127 153 199 252 317 366
#     4  11  20  35  60  89 126 156 188 261 311 368
#
# _framework density 19.378976999999999
#
# number of rings (size 3 to 8) (size 9 to 14) (size 15 to 20)
#    0.000    1.143    5.714    3.000    6.000    0.571 
#    0.000    0.714    0.000    0.000    0.000    0.000 
#    0.000    0.000    0.000    0.000    0.000    0.000 
#
# Total GULP energy -156198.058234 kJ/mol
# GULP energy per Si atom -5578.502080 kJ/mol
# Density = 1.933487 g / cm^3
# Si number density = 19.378977 Si / 1000 Ang^3
#
#
#
# Elastic Constant Matrix: (Units=GPa)
#
#
# Indices 1 2 3 4 5 6 
#
# 1 102.5388 19.1603 35.9128 0.0000 4.6176 0.0000
# 2 19.1603 27.7796 11.4527 0.0000 -3.3134 0.0000
# 3 35.9128 11.4527 121.9990 0.0000 10.4325 0.0000
# 4 0.0000 0.0000 0.0000 10.5815 0.0000 -2.5748
# 5 4.6176 -3.3134 10.4325 0.0000 44.0854 0.0000
# 6 0.0000 0.0000 0.0000 -2.5748 0.0000 5.6053
#
#
#
# Elastic Compliance Matrix: (Units=1/GPa)
#
#
# Indices 1 2 3 4 5 6 
#
# 1 0.012160 -0.007377 -0.002787 0.000000 -0.001169 0.000000
# 2 -0.007377 0.042530 -0.002205 0.000000 0.004491 0.000000
# 3 -0.002787 -0.002205 0.009404 0.000000 -0.002099 0.000000
# 4 0.000000 0.000000 0.000000 0.106396 0.000000 0.048873
# 5 -0.001169 0.004491 -0.002099 0.000000 0.023640 0.000000
# 6 0.000000 0.000000 0.000000 0.048873 0.000000 0.200853
#
#
# Mechanical properties :
#
#
# Convention : Reuss Voigt Hill
#
# Bulk Modulus (GPa) = 25.40937 42.81878 34.11408
# Shear Modulus (GPa) = 11.55163 24.44056 17.99609
#
# Velocity S-wave (km/s) = 2.44415 3.55518 3.05067
# Velocity P-wave (km/s) = 4.59406 6.24466 5.48184
#
# Compressibility (1/GPa) = 0.03935556
#
# Stress axis : x y z
#
# Youngs Moduli (GPa) = 82.23941 23.51254 106.34129
#
# Poissons Ratio (x) = 0.17346 0.29637
# Poissons Ratio (y) = 0.60669 0.23448
# Poissons Ratio (z) = 0.22920 0.05184
#
# Static dielectric constant tensor:
#      x y z
#    x 1.771610 0.000000 -0.014370 
#    y 0.000000 1.691130 0.000000 
#    z -0.014370 0.000000 1.718860 
# 
# From -- ./inp_files/41987.got.cif
#   From: 2010.05.17/outbox.cif.g08.bks.cpg/sg11_21_cif.got.tgz:41987.got - 2010.06.03 12:22:45.
