data_PCOD9164031
_publ_section_title
;
Structure prediction by ZEFSAII (Michael W. Deem and Ramdas Pophale) SiO2 
 PCOD9164031
Probable space group: P 21/M
;
_chemical_formula_sum "Si O2"
_cell_formula_units_Z 28
_cell_length_a 27.761402
_cell_length_b 8.116082
_cell_length_c 8.661087
_cell_angle_alpha 90.000000
_cell_angle_beta 140.178698
_cell_angle_gamma 90.000000
_cell_volume 1249.707439
_symmetry_space_group_name_H-M "P 21/M"
_symmetry_group_IT_number 11
_symmetry_cell_setting 'monoclinic'
loop_
_space_group_symop_operation_xyz
x,y,z
-x,1/2+y,-z
-x,-y,-z
x,1/2-y,z
loop_
_atom_site_type_symbol
_atom_site_label
_atom_site_fract_x
_atom_site_fract_y
_atom_site_fract_z
Si Si1 0.663997 0.449469 0.716015
Si Si2 0.829103 0.434808 0.012692
Si Si3 0.818282 0.561492 0.474547
Si Si4 0.347742 0.557054 0.966418
Si Si5 0.413491 0.550652 0.798017
Si Si6 0.920272 0.563271 0.982576
Si Si7 0.934989 0.570179 0.494843
O O1 0.655324 0.250000 0.699896
O O2 0.625812 0.506399 0.460419
O O3 0.753093 0.481877 0.913754
O O4 0.636706 0.510787 0.819537
O O5 0.817124 0.250000 0.922357
O O6 0.851093 0.557272 0.931792
O O7 0.905613 0.438471 0.301112
O O8 0.800701 0.750000 0.483729
O O9 0.741837 0.462921 0.273991
O O10 0.863006 0.577631 0.427338
O O11 0.881615 0.483312 0.739916
O O12 0.368342 0.750000 0.022492
O O13 0.382633 0.490440 0.890488
O O14 0.405352 0.750000 0.779141
O O15 0.500000 0.500000 0.000000
O O16 0.942720 0.750000 0.001590
O O17 0.991889 0.472714 0.227937
O O18 0.943775 0.750000 0.441675
#
# Coordination Sequence:
#
# PCOD9164031 Si02
#       7
#     4   4   4   4   4   4   4
#     4   9  19  37  61  88 117 152 195 240 287 347
#     4  11  21  37  59  82 109 149 197 244 295 349
#     4  10  22  38  57  83 115 148 192 248 299 347
#     4  10  20  38  64  88 116 158 198 238 291 351
#     4  10  22  40  62  91 124 154 190 234 284 349
#     4  11  23  37  53  78 113 154 196 246 301 351
#     4  11  22  37  55  80 113 150 194 246 299 354
#
# _framework density 22.405242000000001
#
# number of rings (size 3 to 8) (size 9 to 14) (size 15 to 20)
#    0.000    1.714    1.429    3.000    0.000    4.000 
#    0.000    2.143    0.000    0.000    0.000    0.000 
#    0.000    0.000    0.000    0.000    0.000    0.000 
#
# Total GULP energy -156021.165185 kJ/mol
# GULP energy per Si atom -5572.184471 kJ/mol
# Density = 2.235425 g / cm^3
# Si number density = 22.405242 Si / 1000 Ang^3
#
#
#
# Elastic Constant Matrix: (Units=GPa)
#
#
# Indices 1 2 3 4 5 6 
#
# 1 144.1086 10.0689 52.7064 0.0000 -10.0638 0.0000
# 2 10.0689 20.6225 7.2458 0.0000 -5.1527 0.0000
# 3 52.7064 7.2458 122.5778 0.0000 -18.9360 0.0000
# 4 0.0000 0.0000 0.0000 22.3812 0.0000 6.5230
# 5 -10.0638 -5.1527 -18.9360 0.0000 28.4624 0.0000
# 6 0.0000 0.0000 0.0000 6.5230 0.0000 17.7190
#
#
#
# Elastic Compliance Matrix: (Units=1/GPa)
#
#
# Indices 1 2 3 4 5 6 
#
# 1 0.008401 -0.002856 -0.003415 0.000000 0.000181 0.000000
# 2 -0.002856 0.052103 -0.000614 0.000000 0.008014 0.000000
# 3 -0.003415 -0.000614 0.010543 0.000000 0.005695 0.000000
# 4 0.000000 0.000000 0.000000 0.050050 0.000000 -0.018425
# 5 0.000181 0.008014 0.005695 0.000000 0.040438 0.000000
# 6 0.000000 0.000000 0.000000 -0.018425 0.000000 0.063220
#
#
# Mechanical properties :
#
#
# Convention : Reuss Voigt Hill
#
# Bulk Modulus (GPa) = 17.45930 47.48345 32.47138
# Shear Modulus (GPa) = 19.40862 28.19838 23.80350
#
# Velocity S-wave (km/s) = 2.94641 3.55147 3.26300
# Velocity P-wave (km/s) = 4.40279 6.16898 5.35914
#
# Compressibility (1/GPa) = 0.05727605
#
# Stress axis : x y z
#
# Youngs Moduli (GPa) = 119.04009 19.19258 94.85235
#
# Poissons Ratio (x) = 0.05482 0.32395
# Poissons Ratio (y) = 0.34002 0.05821
# Poissons Ratio (z) = 0.40656 0.01178
#
# Static dielectric constant tensor:
#      x y z
#    x 1.891840 0.000000 -0.092750 
#    y 0.000000 1.707030 0.000000 
#    z -0.092750 0.000000 1.840110 
# 
# From -- ./inp_files/28545.got.cif
#   From: 2010.05.17/outbox.cif.g08.bks.cpg/sg11_15_cif.got.tgz:28545.got - 2010.06.03 12:22:45.
