data_PCOD9164436
_publ_section_title
;
Structure prediction by ZEFSAII (Michael W. Deem and Ramdas Pophale) SiO2 
 PCOD9164436
Probable space group: P 21/M
;
_chemical_formula_sum "Si O2"
_cell_formula_units_Z 32
_cell_length_a 7.918829
_cell_length_b 21.118939
_cell_length_c 10.600063
_cell_angle_alpha 90.000000
_cell_angle_beta 121.076268
_cell_angle_gamma 90.000000
_cell_volume 1518.305691
_symmetry_space_group_name_H-M "P 21/M"
_symmetry_group_IT_number 11
_symmetry_cell_setting 'monoclinic'
loop_
_space_group_symop_operation_xyz
x,y,z
-x,1/2+y,-z
-x,-y,-z
x,1/2-y,z
loop_
_atom_site_type_symbol
_atom_site_label
_atom_site_fract_x
_atom_site_fract_y
_atom_site_fract_z
Si Si1 0.681465 0.073240 0.428271
Si Si2 0.069161 0.071380 0.730106
Si Si3 0.068097 0.571345 0.734368
Si Si4 0.066214 0.822496 0.933725
Si Si5 0.415051 0.678331 0.236897
Si Si6 0.594333 0.821393 0.768444
Si Si7 0.334146 0.178937 0.926018
Si Si8 0.677409 0.930322 0.431985
O O1 0.800481 0.075356 0.341242
O O2 0.516648 0.126257 0.354582
O O3 0.846191 0.083542 0.599184
O O4 0.599458 0.002039 0.410709
O O5 0.169682 0.125238 0.850983
O O6 0.196642 0.070764 0.649615
O O7 0.084532 0.000568 0.791009
O O8 0.123899 0.624185 0.855965
O O9 0.842082 0.580601 0.602013
O O10 0.113056 0.750000 0.911015
O O11 0.830971 0.826459 0.856174
O O12 0.189733 0.832711 0.109291
O O13 0.438252 0.750000 0.296640
O O14 0.530369 0.676402 0.146171
O O15 0.515073 0.624058 0.358339
O O16 0.539085 0.750000 0.708519
O O17 0.546708 0.829583 0.898693
O O18 0.247017 0.250000 0.897872
#
# Coordination Sequence:
#
# PCOD9164436 Si02
#       8
#     4   4   4   4   4   4   4   4
#     4   9  17  32  53  74  98 127 158 194 239 289
#     4   8  16  31  51  76 101 123 154 199 242 280
#     4   9  17  32  53  74  98 127 158 194 239 289
#     4  10  21  35  48  67  98 130 161 200 241 281
#     4   9  17  31  51  72  94 124 162 199 236 282
#     4  10  21  35  48  67  98 130 161 200 241 281
#     4   9  17  31  51  72  94 124 162 199 236 282
#     4   8  16  31  51  76 101 123 154 199 242 280
#
# _framework density 21.076125999999999
#
# number of rings (size 3 to 8) (size 9 to 14) (size 15 to 20)
#    0.000    3.000    0.000    2.250    0.000    3.500 
#    0.000   12.500    0.000    3.000    0.000    0.000 
#    0.000    0.000    0.000    0.000    0.000    0.000 
#
# Total GULP energy -178671.389573 kJ/mol
# GULP energy per Si atom -5583.480924 kJ/mol
# Density = 2.102816 g / cm^3
# Si number density = 21.076126 Si / 1000 Ang^3
#
#
#
# Elastic Constant Matrix: (Units=GPa)
#
#
# Indices 1 2 3 4 5 6 
#
# 1 66.4115 44.9723 18.1298 0.0000 8.0058 0.0000
# 2 44.9723 158.2507 88.8772 0.0000 40.0930 0.0000
# 3 18.1298 88.8772 66.6309 0.0000 22.9732 0.0000
# 4 0.0000 0.0000 0.0000 46.3992 0.0000 -20.2152
# 5 8.0058 40.0930 22.9732 0.0000 30.8911 0.0000
# 6 0.0000 0.0000 0.0000 -20.2152 0.0000 125.7697
#
#
#
# Elastic Compliance Matrix: (Units=1/GPa)
#
#
# Indices 1 2 3 4 5 6 
#
# 1 0.019960 -0.011185 0.008427 0.000000 0.003076 0.000000
# 2 -0.011185 0.034191 -0.038008 0.000000 -0.013211 0.000000
# 3 0.008427 -0.038008 0.063419 0.000000 -0.000018 0.000000
# 4 0.000000 0.000000 0.000000 0.023175 0.000000 0.003725
# 5 0.003076 -0.013211 -0.000018 0.000000 0.048734 0.000000
# 6 0.000000 0.000000 0.000000 0.003725 0.000000 0.008550
#
#
# Mechanical properties :
#
#
# Convention : Reuss Voigt Hill
#
# Bulk Modulus (GPa) = 27.74743 66.13909 46.94326
# Shear Modulus (GPa) = 17.14833 49.89957 33.52395
#
# Velocity S-wave (km/s) = 2.85553 4.87106 3.99258
# Velocity P-wave (km/s) = 4.90571 7.94264 6.60119
#
# Compressibility (1/GPa) = 0.03603938
#
# Stress axis : x y z
#
# Youngs Moduli (GPa) = 50.09956 29.24752 15.76809
#
# Poissons Ratio (x) = 0.32713 -0.13288
# Poissons Ratio (y) = 0.56035 0.59932
# Poissons Ratio (z) = -0.42221 1.11164
#
# Static dielectric constant tensor:
#      x y z
#    x 1.817000 0.000000 -0.005890 
#    y 0.000000 1.735990 0.000000 
#    z -0.005890 0.000000 1.710760 
# 
# From -- ./inp_files/32862.got.cif
#   From: 2010.05.17/outbox.cif.g08.bks.cpg/sg11_17_cif.got.tgz:32862.got - 2010.06.03 12:22:45.
