data_PCOD9164768
_publ_section_title
;
Structure prediction by ZEFSAII (Michael W. Deem and Ramdas Pophale) SiO2 
 PCOD9164768
Probable space group: P 21/M
;
_chemical_formula_sum "Si O2"
_cell_formula_units_Z 32
_cell_length_a 21.697357
_cell_length_b 8.497858
_cell_length_c 26.688423
_cell_angle_alpha 90.000000
_cell_angle_beta 159.532876
_cell_angle_gamma 90.000000
_cell_volume 1720.669356
_symmetry_space_group_name_H-M "P 21/M"
_symmetry_group_IT_number 11
_symmetry_cell_setting 'monoclinic'
loop_
_space_group_symop_operation_xyz
x,y,z
-x,1/2+y,-z
-x,-y,-z
x,1/2-y,z
loop_
_atom_site_type_symbol
_atom_site_label
_atom_site_fract_x
_atom_site_fract_y
_atom_site_fract_z
Si Si1 0.289757 0.558970 0.962998
Si Si2 0.596618 0.558595 0.273359
Si Si3 0.303183 0.437355 0.861080
Si Si4 0.993067 0.939571 0.551817
Si Si5 0.304955 0.060310 0.348235
Si Si6 0.338689 0.560496 0.163778
Si Si7 0.804013 0.562361 0.844876
Si Si8 0.031965 0.558789 0.853900
O O1 0.291626 0.750000 0.960704
O O2 0.267957 0.488877 0.891498
O O3 0.128763 0.509989 0.876737
O O4 0.470394 0.512538 0.130224
O O5 0.594677 0.750000 0.271620
O O6 0.799273 0.508851 0.423986
O O7 0.499651 0.508325 0.250792
O O8 0.304118 0.250000 0.857410
O O9 0.154643 0.501509 0.709460
O O10 0.500000 0.500000 0.000000
O O11 0.998306 0.750000 0.555672
O O12 0.000000 0.000000 0.500000
O O13 0.303128 0.250000 0.348894
O O14 0.246898 0.009190 0.249040
O O15 0.163806 0.003755 0.282040
O O16 0.500000 0.000000 0.500000
O O17 0.343180 0.750000 0.169464
O O18 0.321888 0.497003 0.206731
O O19 0.161822 0.515281 0.998530
O O20 0.804754 0.750000 0.846750
O O21 0.000000 0.500000 0.000000
O O22 0.030519 0.750000 0.851498
#
# Coordination Sequence:
#
# PCOD9164768 Si02
#       8
#     4   4   4   4   4   4   4   4
#     4   9  17  35  63  88 110 144 189 236 283 337
#     4   8  17  34  60  87 113 146 185 227 278 340
#     4  12  25  41  60  86 118 154 195 238 285 336
#     4  11  22  39  62  91 123 154 190 232 282 339
#     4  10  21  37  53  76 109 147 188 233 285 337
#     4   9  16  33  58  83 109 142 186 232 276 332
#     4  11  21  34  55  81 110 142 185 236 284 334
#     4   8  15  32  57  80 108 145 185 229 279 337
#
# _framework density 18.597414000000001
#
# number of rings (size 3 to 8) (size 9 to 14) (size 15 to 20)
#    0.000    2.250    1.250    4.125    0.000    2.000 
#    2.250    5.000    0.000    0.000    0.000    0.000 
#    0.000    0.000    0.000    0.000    0.000    0.000 
#
# Total GULP energy -178442.659731 kJ/mol
# GULP energy per Si atom -5576.333117 kJ/mol
# Density = 1.855509 g / cm^3
# Si number density = 18.597414 Si / 1000 Ang^3
#
#
#
# Elastic Constant Matrix: (Units=GPa)
#
#
# Indices 1 2 3 4 5 6 
#
# 1 148.1972 35.0627 93.5287 0.0000 9.5155 0.0000
# 2 35.0627 33.7263 33.6302 0.0000 -1.7366 0.0000
# 3 93.5287 33.6302 168.4526 0.0000 13.0584 0.0000
# 4 0.0000 0.0000 0.0000 24.8140 0.0000 -1.5719
# 5 9.5155 -1.7366 13.0584 0.0000 32.0262 0.0000
# 6 0.0000 0.0000 0.0000 -1.5719 0.0000 31.7822
#
#
#
# Elastic Compliance Matrix: (Units=1/GPa)
#
#
# Indices 1 2 3 4 5 6 
#
# 1 0.011692 -0.007398 -0.004868 0.000000 -0.001890 0.000000
# 2 -0.007398 0.042555 -0.004892 0.000000 0.006500 0.000000
# 3 -0.004868 -0.004892 0.009835 0.000000 -0.002829 0.000000
# 4 0.000000 0.000000 0.000000 0.040426 0.000000 0.001999
# 5 -0.001890 0.006500 -0.002829 0.000000 0.033292 0.000000
# 6 0.000000 0.000000 0.000000 0.001999 0.000000 0.031563
#
#
# Mechanical properties :
#
#
# Convention : Reuss Voigt Hill
#
# Bulk Modulus (GPa) = 33.59633 74.97993 54.28813
# Shear Modulus (GPa) = 23.40814 30.26812 26.83813
#
# Velocity S-wave (km/s) = 3.55163 4.03866 3.80295
# Velocity P-wave (km/s) = 5.90957 7.88369 6.96691
#
# Compressibility (1/GPa) = 0.02976515
#
# Stress axis : x y z
#
# Youngs Moduli (GPa) = 85.53029 23.49927 101.67598
#
# Poissons Ratio (x) = 0.17385 0.49496
# Poissons Ratio (y) = 0.63277 0.49739
# Poissons Ratio (z) = 0.41636 0.11496
#
# Static dielectric constant tensor:
#      x y z
#    x 1.649590 0.000000 0.022290 
#    y 0.000000 1.643570 0.000000 
#    z 0.022290 0.000000 1.619100 
# 
# From -- ./inp_files/72145.got.cif
#   From: 2010.05.17/outbox.cif.g08.bks.cpg/sg11_37_cif.got.tgz:72145.got - 2010.06.03 12:22:45.
