data_PCOD9164931
_publ_section_title
;
Structure prediction by ZEFSAII (Michael W. Deem and Ramdas Pophale) SiO2 
 PCOD9164931
Probable space group: P 21/M
;
_chemical_formula_sum "Si O2"
_cell_formula_units_Z 22
_cell_length_a 11.078055
_cell_length_b 20.052002
_cell_length_c 8.324668
_cell_angle_alpha 90.000000
_cell_angle_beta 40.413308
_cell_angle_gamma 90.000000
_cell_volume 1198.842230
_symmetry_space_group_name_H-M "P 21/M"
_symmetry_group_IT_number 11
_symmetry_cell_setting 'monoclinic'
loop_
_space_group_symop_operation_xyz
x,y,z
-x,1/2+y,-z
-x,-y,-z
x,1/2-y,z
loop_
_atom_site_type_symbol
_atom_site_label
_atom_site_fract_x
_atom_site_fract_y
_atom_site_fract_z
Si Si1 0.271299 0.250000 0.577330
Si Si2 0.983229 0.876732 0.635603
Si Si3 0.998042 0.250000 0.155718
Si Si4 0.018596 0.013337 0.792907
Si Si5 0.295898 0.750000 0.805518
Si Si6 0.741337 0.378622 0.936253
Si Si7 0.699664 0.613870 0.642738
O O1 0.481886 0.250000 0.428231
O O2 0.248681 0.184120 0.492962
O O3 0.133968 0.250000 0.865522
O O4 0.971109 0.814966 0.767834
O O5 0.797047 0.886018 0.717869
O O6 0.019910 0.944333 0.695351
O O7 0.148992 0.864740 0.339822
O O8 0.796468 0.250000 0.275246
O O9 0.201735 0.055733 0.559920
O O10 0.845743 0.058488 0.908723
O O11 0.000000 0.000000 0.000000
O O12 0.239593 0.815472 0.964103
O O13 0.522957 0.391358 0.128363
#
# Coordination Sequence:
#
# PCOD9164931 Si02
#       7
#     2   4   2   4   2   4   4
#     4  10  21  37  59  85 111 146 188 226 276 334
#     4  11  23  36  58  85 110 148 190 227 274 336
#     4  12  22  38  60  82 118 150 178 236 284 316
#     4  11  23  38  56  85 115 144 189 231 278 340
#     4  10  21  37  59  85 111 146 188 226 276 334
#     4  10  21  39  60  82 113 149 186 231 277 327
#     4  10  21  39  60  82 113 149 186 231 277 327
#
# _framework density 18.351037999999999
#
# number of rings (size 3 to 8) (size 9 to 14) (size 15 to 20)
#    0.000    1.455    0.000    7.636    0.000    5.091 
#    0.000    0.000    0.000    0.000    0.000    0.000 
#    0.000    0.000    0.000    0.000    0.000    0.000 
#
# Total GULP energy -122971.824782 kJ/mol
# GULP energy per Si atom -5589.628399 kJ/mol
# Density = 1.830927 g / cm^3
# Si number density = 18.351038 Si / 1000 Ang^3
#
#
#
# Elastic Constant Matrix: (Units=GPa)
#
#
# Indices 1 2 3 4 5 6 
#
# 1 54.5145 -5.3441 25.4527 0.0000 -0.0941 0.0000
# 2 -5.3441 83.1077 1.4884 0.0000 -4.6444 0.0000
# 3 25.4527 1.4884 43.6387 0.0000 -13.3757 0.0000
# 4 0.0000 0.0000 0.0000 32.6036 0.0000 9.7883
# 5 -0.0941 -4.6444 -13.3757 0.0000 30.7817 0.0000
# 6 0.0000 0.0000 0.0000 9.7883 0.0000 46.8640
#
#
#
# Elastic Compliance Matrix: (Units=1/GPa)
#
#
# Indices 1 2 3 4 5 6 
#
# 1 0.026926 0.001635 -0.018066 0.000000 -0.007521 0.000000
# 2 0.001635 0.012235 -0.000927 0.000000 0.001448 0.000000
# 3 -0.018066 -0.000927 0.038560 0.000000 0.016561 0.000000
# 4 0.000000 0.000000 0.000000 0.032723 0.000000 -0.006835
# 5 -0.007521 0.001448 0.016561 0.000000 0.039879 0.000000
# 6 0.000000 0.000000 0.000000 -0.006835 0.000000 0.022766
#
#
# Mechanical properties :
#
#
# Convention : Reuss Voigt Hill
#
# Bulk Modulus (GPa) = 23.25302 24.93944 24.09623
# Shear Modulus (GPa) = 22.50827 32.69411 27.60119
#
# Velocity S-wave (km/s) = 3.50600 4.22547 3.88244
# Velocity P-wave (km/s) = 5.39334 6.11767 5.76689
#
# Compressibility (1/GPa) = 0.04300517
#
# Stress axis : x y z
#
# Youngs Moduli (GPa) = 37.13883 81.73119 25.93347
#
# Poissons Ratio (x) = -0.13360 0.46851
# Poissons Ratio (y) = -0.06071 0.02404
# Poissons Ratio (z) = 0.67095 0.07575
#
# Static dielectric constant tensor:
#      x y z
#    x 1.617780 0.000000 -0.015180 
#    y 0.000000 1.614840 0.000000 
#    z -0.015180 0.000000 1.609990 
# 
# From -- ./inp_files/18515.got.cif
#   From: 2010.05.17/outbox.cif.g08.bks.cpg/sg11_10_cif.got.tgz:18515.got - 2010.06.03 12:22:45.
