data_PCOD9164150
_publ_section_title
;
Structure prediction by ZEFSAII (Michael W. Deem and Ramdas Pophale) SiO2 
 PCOD9164150
Probable space group: P 21/M
;
_chemical_formula_sum "Si O2"
_cell_formula_units_Z 28
_cell_length_a 14.186621
_cell_length_b 18.260796
_cell_length_c 8.129078
_cell_angle_alpha 90.000000
_cell_angle_beta 42.171538
_cell_angle_gamma 90.000000
_cell_volume 1413.808465
_symmetry_space_group_name_H-M "P 21/M"
_symmetry_group_IT_number 11
_symmetry_cell_setting 'monoclinic'
loop_
_space_group_symop_operation_xyz
x,y,z
-x,1/2+y,-z
-x,-y,-z
x,1/2-y,z
loop_
_atom_site_type_symbol
_atom_site_label
_atom_site_fract_x
_atom_site_fract_y
_atom_site_fract_z
Si Si1 0.154066 0.537249 0.302571
Si Si2 0.014082 0.663825 0.649421
Si Si3 0.986077 0.087381 0.011017
Si Si4 0.731532 0.883195 0.841838
Si Si5 0.708441 0.437478 0.224092
Si Si6 0.607369 0.895873 0.361209
Si Si7 0.770341 0.667782 0.451970
O O1 0.138986 0.610149 0.429387
O O2 0.254247 0.469628 0.219798
O O3 0.000000 0.500000 0.500000
O O4 0.206211 0.559703 0.055970
O O5 0.044851 0.750000 0.620268
O O6 0.968505 0.629279 0.882846
O O7 0.883567 0.650309 0.694930
O O8 0.820539 0.099449 0.199743
O O9 0.093049 0.115661 0.734430
O O10 0.000000 0.000000 0.000000
O O11 0.687861 0.845626 0.728706
O O12 0.644824 0.876245 0.123577
O O13 0.559867 0.398198 0.404515
O O14 0.669999 0.522245 0.313105
O O15 0.675932 0.846943 0.414015
O O16 0.823663 0.750000 0.378910
#
# Coordination Sequence:
#
# PCOD9164150 Si02
#       7
#     4   4   4   4   4   4   4
#     4   9  18  36  60  91 119 160 209 259 316 365
#     4  11  21  35  59  91 129 162 204 268 323 375
#     4  12  20  37  65  95 124 162 214 269 314 380
#     4  10  20  39  63  89 123 166 214 261 311 383
#     4  10  21  40  66  93 123 165 212 268 321 372
#     4  10  22  43  63  92 129 161 214 266 317 385
#     4  12  24  39  66  95 125 171 217 263 328 385
#
# _framework density 19.804662
#
# number of rings (size 3 to 8) (size 9 to 14) (size 15 to 20)
#    0.000    1.429    2.857    5.143    0.000    0.571 
#    2.571    5.000    0.000    0.000    0.000    0.000 
#    0.000    0.000    0.000    0.000    0.000    0.000 
#
# Total GULP energy -156202.698983 kJ/mol
# GULP energy per Si atom -5578.667821 kJ/mol
# Density = 1.975959 g / cm^3
# Si number density = 19.804662 Si / 1000 Ang^3
#
#
#
# Elastic Constant Matrix: (Units=GPa)
#
#
# Indices 1 2 3 4 5 6 
#
# 1 63.9216 33.6935 48.9996 0.0000 1.9701 0.0000
# 2 33.6935 109.6127 29.6477 0.0000 14.7106 0.0000
# 3 48.9996 29.6477 106.3623 0.0000 4.5672 0.0000
# 4 0.0000 0.0000 0.0000 8.3764 0.0000 6.9017
# 5 1.9701 14.7106 4.5672 0.0000 31.1054 0.0000
# 6 0.0000 0.0000 0.0000 6.9017 0.0000 21.0892
#
#
#
# Elastic Compliance Matrix: (Units=1/GPa)
#
#
# Indices 1 2 3 4 5 6 
#
# 1 0.026940 -0.005668 -0.010942 0.000000 0.002581 0.000000
# 2 -0.005668 0.011663 -0.000421 0.000000 -0.005095 0.000000
# 3 -0.010942 -0.000421 0.014614 0.000000 -0.001254 0.000000
# 4 0.000000 0.000000 0.000000 0.163458 0.000000 -0.053493
# 5 0.002581 -0.005095 -0.001254 0.000000 0.034579 0.000000
# 6 0.000000 0.000000 0.000000 -0.053493 0.000000 0.064924
#
#
# Mechanical properties :
#
#
# Convention : Reuss Voigt Hill
#
# Bulk Modulus (GPa) = 52.20536 56.06422 54.13479
# Shear Modulus (GPa) = 14.02040 23.28459 18.65250
#
# Velocity S-wave (km/s) = 2.66359 3.43259 3.07224
# Velocity P-wave (km/s) = 5.98974 6.63930 6.32286
#
# Compressibility (1/GPa) = 0.01915512
#
# Stress axis : x y z
#
# Youngs Moduli (GPa) = 37.12015 85.74204 68.42892
#
# Poissons Ratio (x) = 0.48597 0.74873
# Poissons Ratio (y) = 0.21039 0.02882
# Poissons Ratio (z) = 0.40616 0.03611
#
# Static dielectric constant tensor:
#      x y z
#    x 1.757020 0.000000 0.040170 
#    y 0.000000 1.708130 0.000000 
#    z 0.040170 0.000000 1.730280 
# 
# From -- ./inp_files/22705.got.cif
#   From: 2010.05.17/outbox.cif.g08.bks.cpg/sg11_12_cif.got.tgz:22705.got - 2010.06.03 12:22:45.
