data_PCOD9164882
_publ_section_title
;
Structure prediction by ZEFSAII (Michael W. Deem and Ramdas Pophale) SiO2 
 PCOD9164882
Probable space group: P 21/M
;
_chemical_formula_sum "Si O2"
_cell_formula_units_Z 24
_cell_length_a 21.645946
_cell_length_b 8.868890
_cell_length_c 22.647903
_cell_angle_alpha 90.000000
_cell_angle_beta 161.399632
_cell_angle_gamma 90.000000
_cell_volume 1386.811410
_symmetry_space_group_name_H-M "P 21/M"
_symmetry_group_IT_number 11
_symmetry_cell_setting 'monoclinic'
loop_
_space_group_symop_operation_xyz
x,y,z
-x,1/2+y,-z
-x,-y,-z
x,1/2-y,z
loop_
_atom_site_type_symbol
_atom_site_label
_atom_site_fract_x
_atom_site_fract_y
_atom_site_fract_z
Si Si1 0.247426 0.929838 0.514318
Si Si2 0.290907 0.069902 0.797853
Si Si3 0.051492 0.431713 0.223214
Si Si4 0.619101 0.431718 0.792454
Si Si5 0.433620 0.430452 0.501090
Si Si6 0.085948 0.069999 0.487825
O O1 0.246494 0.750000 0.515232
O O2 0.109824 0.989575 0.337004
O O3 0.460302 0.990690 0.690054
O O4 0.176003 0.997189 0.511291
O O5 0.296003 0.250000 0.810660
O O6 0.220254 0.039148 0.666756
O O7 0.124690 0.998364 0.688438
O O8 0.500000 0.000000 0.000000
O O9 0.062604 0.250000 0.241676
O O10 0.216051 0.472460 0.324322
O O11 0.837066 0.470280 0.007640
O O12 0.595285 0.250000 0.775575
O O13 0.568242 0.473638 0.678836
O O14 0.500000 0.500000 0.500000
O O15 0.440615 0.250000 0.502010
O O16 0.070666 0.250000 0.467085
#
# Coordination Sequence:
#
# PCOD9164882 Si02
#       6
#     4   4   4   4   4   4
#     4  11  22  35  54  81 110 137 171 220 270 314
#     4  10  21  37  58  83 110 141 178 220 264 311
#     4   9  19  37  57  75 102 141 181 218 259 313
#     4   9  19  37  57  75 101 140 181 217 258 313
#     4   9  18  32  51  77 106 137 173 214 262 314
#     4  10  21  38  58  79 107 144 181 216 259 313
#
# _framework density 17.305886000000001
#
# number of rings (size 3 to 8) (size 9 to 14) (size 15 to 20)
#    0.000    2.333    0.000    3.500    0.000    7.333 
#    0.000    1.667    0.000    0.000    0.000    0.000 
#    0.000    0.000    0.000    0.000    0.000    0.000 
#
# Total GULP energy -133957.746253 kJ/mol
# GULP energy per Si atom -5581.572761 kJ/mol
# Density = 1.726650 g / cm^3
# Si number density = 17.305886 Si / 1000 Ang^3
#
#
#
# Elastic Constant Matrix: (Units=GPa)
#
#
# Indices 1 2 3 4 5 6 
#
# 1 185.2673 74.6083 92.7198 0.0000 6.0877 0.0000
# 2 74.6083 65.0862 70.0441 0.0000 4.9221 0.0000
# 3 92.7198 70.0441 172.5709 0.0000 19.2892 0.0000
# 4 0.0000 0.0000 0.0000 19.2216 0.0000 2.2026
# 5 6.0877 4.9221 19.2892 0.0000 7.6788 0.0000
# 6 0.0000 0.0000 0.0000 2.2026 0.0000 37.4517
#
#
#
# Elastic Compliance Matrix: (Units=1/GPa)
#
#
# Indices 1 2 3 4 5 6 
#
# 1 0.010224 -0.010106 -0.001681 0.000000 0.002596 0.000000
# 2 -0.010106 0.038460 -0.011568 0.000000 0.012420 0.000000
# 3 -0.001681 -0.011568 0.014482 0.000000 -0.027630 0.000000
# 4 0.000000 0.000000 0.000000 0.052378 0.000000 -0.003080
# 5 0.002596 0.012420 -0.027630 0.000000 0.189616 0.000000
# 6 0.000000 0.000000 0.000000 -0.003080 0.000000 0.026882
#
#
# Mechanical properties :
#
#
# Convention : Reuss Voigt Hill
#
# Bulk Modulus (GPa) = 60.77866 99.74096 80.25981
# Shear Modulus (GPa) = 13.01280 25.24058 19.12669
#
# Velocity S-wave (km/s) = 2.74511 3.82317 3.32808
# Velocity P-wave (km/s) = 6.72636 8.78909 7.82598
#
# Compressibility (1/GPa) = 0.01645314
#
# Stress axis : x y z
#
# Youngs Moduli (GPa) = 97.81341 26.00125 69.05248
#
# Poissons Ratio (x) = 0.26278 0.11608
# Poissons Ratio (y) = 0.98855 0.79883
# Poissons Ratio (z) = 0.16443 0.30079
#
# Static dielectric constant tensor:
#      x y z
#    x 1.555900 0.000000 -0.002710 
#    y 0.000000 1.576970 0.000000 
#    z -0.002710 0.000000 1.573650 
# 
# From -- ./inp_files/66479.got.cif
#   From: 2010.05.17/outbox.cif.g08.bks.cpg/sg11_34_cif.got.tgz:66479.got - 2010.06.03 12:22:45.
