data_PCOD9164764
_publ_section_title
;
Structure prediction by ZEFSAII (Michael W. Deem and Ramdas Pophale) SiO2 
 PCOD9164764
Probable space group: P 21/M
;
_chemical_formula_sum "Si O2"
_cell_formula_units_Z 28
_cell_length_a 11.105158
_cell_length_b 8.058774
_cell_length_c 14.808395
_cell_angle_alpha 90.000000
_cell_angle_beta 79.543328
_cell_angle_gamma 90.000000
_cell_volume 1303.252517
_symmetry_space_group_name_H-M "P 21/M"
_symmetry_group_IT_number 11
_symmetry_cell_setting 'monoclinic'
loop_
_space_group_symop_operation_xyz
x,y,z
-x,1/2+y,-z
-x,-y,-z
x,1/2-y,z
loop_
_atom_site_type_symbol
_atom_site_label
_atom_site_fract_x
_atom_site_fract_y
_atom_site_fract_z
Si Si1 0.012036 0.441640 0.396482
Si Si2 0.104276 0.551196 0.058196
Si Si3 0.273654 0.553847 0.378389
Si Si4 0.277823 0.950024 0.886672
Si Si5 0.635712 0.551026 0.448252
Si Si6 0.926386 0.447976 0.225838
Si Si7 0.540031 0.949401 0.276329
O O1 0.980545 0.250000 0.401640
O O2 0.155252 0.465986 0.355137
O O3 0.933944 0.520803 0.325644
O O4 0.000000 0.500000 0.500000
O O5 0.105757 0.750000 0.067106
O O6 0.056101 0.476904 0.157889
O O7 0.230136 0.496544 0.991949
O O8 0.000000 0.500000 0.000000
O O9 0.262907 0.750000 0.363903
O O10 0.278904 0.525217 0.486312
O O11 0.402646 0.493394 0.319076
O O12 0.272416 0.750000 0.887617
O O13 0.177982 0.015364 0.826887
O O14 0.407017 0.001417 0.827508
O O15 0.500000 0.500000 0.500000
O O16 0.649709 0.750000 0.449124
O O17 0.631433 0.491930 0.344827
O O18 0.907451 0.250000 0.233303
O O19 0.537308 0.750000 0.283109
#
# Coordination Sequence:
#
# PCOD9164764 Si02
#       7
#     4   4   4   4   4   4   4
#     4  11  24  40  57  79 107 142 184 224 265 318
#     4   9  17  31  52  79 108 139 174 215 265 320
#     4  10  21  37  53  72 103 141 182 225 267 313
#     4   9  18  31  51  81 111 136 167 212 268 321
#     4   9  17  30  47  71  99 133 175 217 263 314
#     4   9  20  37  54  77 108 141 176 219 268 317
#     4   9  19  32  49  76 105 135 173 217 266 317
#
# _framework density 21.484708999999999
#
# number of rings (size 3 to 8) (size 9 to 14) (size 15 to 20)
#    0.000    2.571    0.000    3.429    2.000    7.429 
#    0.000    0.000    0.000    0.857    0.000    0.000 
#    0.000    0.000    0.000    0.000    0.000    0.000 
#
# Total GULP energy -156105.007139 kJ/mol
# GULP energy per Si atom -5575.178826 kJ/mol
# Density = 2.143581 g / cm^3
# Si number density = 21.484709 Si / 1000 Ang^3
#
#
#
# Elastic Constant Matrix: (Units=GPa)
#
#
# Indices 1 2 3 4 5 6 
#
# 1 40.8957 -4.4578 11.4920 0.0000 -8.9385 0.0000
# 2 -4.4578 21.6694 -4.8069 0.0000 3.7816 0.0000
# 3 11.4920 -4.8069 81.4923 0.0000 -19.6805 0.0000
# 4 0.0000 0.0000 0.0000 26.4304 0.0000 -7.4171
# 5 -8.9385 3.7816 -19.6805 0.0000 32.0347 0.0000
# 6 0.0000 0.0000 0.0000 -7.4171 0.0000 18.8603
#
#
#
# Elastic Compliance Matrix: (Units=1/GPa)
#
#
# Indices 1 2 3 4 5 6 
#
# 1 0.026737 0.004033 -0.002167 0.000000 0.005653 0.000000
# 2 0.004033 0.047925 0.001366 0.000000 -0.003693 0.000000
# 3 -0.002167 0.001366 0.014645 0.000000 0.008231 0.000000
# 4 0.000000 0.000000 0.000000 0.042529 0.000000 0.016725
# 5 0.005653 -0.003693 0.008231 0.000000 0.038286 0.000000
# 6 0.000000 0.000000 0.000000 0.016725 0.000000 0.059599
#
#
# Mechanical properties :
#
#
# Convention : Reuss Voigt Hill
#
# Bulk Modulus (GPa) = 10.44156 16.50131 13.47144
# Shear Modulus (GPa) = 19.59400 24.92043 22.25722
#
# Velocity S-wave (km/s) = 3.02321 3.40945 3.22212
# Velocity P-wave (km/s) = 4.13000 4.81625 4.48627
#
# Compressibility (1/GPa) = 0.09577113
#
# Stress axis : x y z
#
# Youngs Moduli (GPa) = 37.40199 20.86584 68.28184
#
# Poissons Ratio (x) = -0.08415 0.14799
# Poissons Ratio (y) = -0.15084 -0.09330
# Poissons Ratio (z) = 0.08106 -0.02851
#
# Static dielectric constant tensor:
#      x y z
#    x 1.809130 0.000000 -0.006910 
#    y 0.000000 1.750300 0.000000 
#    z -0.006910 0.000000 1.862370 
# 
# From -- ./inp_files/48934.got.cif
#   From: 2010.05.17/outbox.cif.g08.bks.cpg/sg11_25_cif.got.tgz:48934.got - 2010.06.03 12:22:45.
