data_PCOD9164068
_publ_section_title
;
Structure prediction by ZEFSAII (Michael W. Deem and Ramdas Pophale) SiO2 
 PCOD9164068
Probable space group: P 21/M
;
_chemical_formula_sum "Si O2"
_cell_formula_units_Z 28
_cell_length_a 21.115213
_cell_length_b 15.256030
_cell_length_c 9.028861
_cell_angle_alpha 90.000000
_cell_angle_beta 148.781754
_cell_angle_gamma 90.000000
_cell_volume 1507.476859
_symmetry_space_group_name_H-M "P 21/M"
_symmetry_group_IT_number 11
_symmetry_cell_setting 'monoclinic'
loop_
_space_group_symop_operation_xyz
x,y,z
-x,1/2+y,-z
-x,-y,-z
x,1/2-y,z
loop_
_atom_site_type_symbol
_atom_site_label
_atom_site_fract_x
_atom_site_fract_y
_atom_site_fract_z
Si Si1 0.310268 0.847946 0.468401
Si Si2 0.457695 0.072769 0.207386
Si Si3 0.854563 0.071369 0.109512
Si Si4 0.189731 0.152054 0.227327
Si Si5 0.042306 0.927231 0.376607
Si Si6 0.750000 0.500000 0.422811
Si Si7 0.354563 0.428631 0.308740
O O1 0.295781 0.750000 0.498049
O O2 0.443091 0.861508 0.661212
O O3 0.298843 0.923204 0.568366
O O4 0.208167 0.866901 0.137620
O O5 0.400631 0.109275 0.245695
O O6 0.534388 0.984479 0.400152
O O7 0.353880 0.043475 0.886169
O O8 0.900631 0.109276 0.356827
O O9 0.965612 0.015520 0.262600
O O10 0.750000 0.000000 0.938203
O O11 0.204219 0.250000 0.314924
O O12 0.291831 0.133098 0.304946
O O13 0.201156 0.076796 0.372992
O O14 0.056908 0.138492 0.888847
O O15 0.146121 0.956526 0.470652
#
# Coordination Sequence:
#
# PCOD9164068 Si02
#       7
#     4   4   4   4   4   4   4
#     4  11  24  39  59  91 125 157 199 249 299 357
#     4  10  20  38  66  85 114 160 201 245 295 353
#     4   9  18  39  64  88 109 152 204 246 294 347
#     4  11  24  39  59  91 125 157 199 249 299 357
#     4  10  20  38  66  85 114 160 201 245 295 353
#     4  12  22  40  62  90 122 164 192 244 306 364
#     4   9  18  39  64  88 109 152 204 246 294 347
#
# _framework density 18.574082000000001
#
# number of rings (size 3 to 8) (size 9 to 14) (size 15 to 20)
#    0.000    1.714    5.714    0.857    0.000    2.286 
#    0.000    0.000    0.000    0.000    0.000    0.000 
#    0.000    0.000    0.000    0.000    0.000    0.000 
#
# Total GULP energy -156235.637699 kJ/mol
# GULP energy per Si atom -5579.844204 kJ/mol
# Density = 1.853181 g / cm^3
# Si number density = 18.574082 Si / 1000 Ang^3
#
#
#
# Elastic Constant Matrix: (Units=GPa)
#
#
# Indices 1 2 3 4 5 6 
#
# 1 74.5098 -1.2662 20.8802 0.0000 -1.8697 0.0000
# 2 -1.2662 54.6681 -10.9790 0.0000 -8.7614 0.0000
# 3 20.8802 -10.9790 66.3621 0.0000 -5.4841 0.0000
# 4 0.0000 0.0000 0.0000 3.2079 0.0000 1.4839
# 5 -1.8697 -8.7614 -5.4841 0.0000 22.5196 0.0000
# 6 0.0000 0.0000 0.0000 1.4839 0.0000 1.5629
#
#
#
# Elastic Compliance Matrix: (Units=1/GPa)
#
#
# Indices 1 2 3 4 5 6 
#
# 1 0.014739 -0.000644 -0.004760 0.000000 -0.000186 0.000000
# 2 -0.000644 0.020598 0.004356 0.000000 0.009021 0.000000
# 3 -0.004760 0.004356 0.017752 0.000000 0.005623 0.000000
# 4 0.000000 0.000000 0.000000 0.555837 0.000000 -0.527717
# 5 -0.000186 0.009021 0.005623 0.000000 0.049269 0.000000
# 6 0.000000 0.000000 0.000000 -0.527717 0.000000 1.140839
#
#
# Mechanical properties :
#
#
# Convention : Reuss Voigt Hill
#
# Bulk Modulus (GPa) = 19.61052 23.64554 21.62803
# Shear Modulus (GPa) = 2.75008 17.91842 10.33425
#
# Velocity S-wave (km/s) = 1.21812 3.10933 2.36133
# Velocity P-wave (km/s) = 3.54392 5.06445 4.37081
#
# Compressibility (1/GPa) = 0.05099303
#
# Stress axis : x y z
#
# Youngs Moduli (GPa) = 67.84618 48.54879 56.33274
#
# Poissons Ratio (x) = 0.03128 0.26812
# Poissons Ratio (y) = 0.04371 -0.24538
# Poissons Ratio (z) = 0.32291 -0.21148
#
# Static dielectric constant tensor:
#      x y z
#    x 1.657690 0.000000 -0.003350 
#    y 0.000000 1.613810 0.000000 
#    z -0.003350 0.000000 1.653970 
# 
# From -- ./inp_files/22130.got.cif
#   From: 2010.05.17/outbox.cif.g08.bks.cpg/sg11_12_cif.got.tgz:22130.got - 2010.06.03 12:22:45.
