data_PCOD9164399
_publ_section_title
;
Structure prediction by ZEFSAII (Michael W. Deem and Ramdas Pophale) SiO2 
 PCOD9164399
Probable space group: P 21/M
;
_chemical_formula_sum "Si O2"
_cell_formula_units_Z 32
_cell_length_a 14.539654
_cell_length_b 19.194493
_cell_length_c 9.679266
_cell_angle_alpha 90.000000
_cell_angle_beta 39.120298
_cell_angle_gamma 90.000000
_cell_volume 1704.388383
_symmetry_space_group_name_H-M "P 21/M"
_symmetry_group_IT_number 11
_symmetry_cell_setting 'monoclinic'
loop_
_space_group_symop_operation_xyz
x,y,z
-x,1/2+y,-z
-x,-y,-z
x,1/2-y,z
loop_
_atom_site_type_symbol
_atom_site_label
_atom_site_fract_x
_atom_site_fract_y
_atom_site_fract_z
Si Si1 0.725548 0.328386 0.601003
Si Si2 0.039530 0.672615 0.925903
Si Si3 0.860445 0.463450 0.089911
Si Si4 0.968887 0.381056 0.484092
Si Si5 0.311733 0.030199 0.954491
Si Si6 0.363321 0.975300 0.403211
Si Si7 0.847248 0.969733 0.565309
Si Si8 0.790294 0.829129 0.005359
O O1 0.659830 0.250000 0.677444
O O2 0.845754 0.329200 0.336515
O O3 0.818701 0.340344 0.633542
O O4 0.635116 0.399207 0.676573
O O5 0.038043 0.750000 0.984244
O O6 0.088805 0.615997 0.976894
O O7 0.883712 0.658075 0.035715
O O8 0.802444 0.494643 0.015834
O O9 0.724243 0.467075 0.353096
O O10 0.000000 0.500000 0.000000
O O11 0.933241 0.456701 0.456077
O O12 0.040707 0.405992 0.543882
O O13 0.091878 0.340281 0.254983
O O14 0.472875 0.999414 0.766689
O O15 0.246128 0.028280 0.184406
O O16 0.323802 0.109953 0.886802
O O17 0.266125 0.028288 0.426382
O O18 0.736675 0.750000 0.067568
#
# Coordination Sequence:
#
# PCOD9164399 Si02
#       8
#     4   4   4   4   4   4   4   4
#     4   8  14  26  47  72  99 129 168 214 261 307
#     4   8  14  28  48  70  95 128 168 214 260 303
#     4  11  21  33  53  79 104 135 179 225 268 306
#     4   8  14  25  46  73  96 124 162 211 251 294
#     4  11  21  33  50  79 109 140 174 216 266 318
#     4  10  21  34  49  74 111 142 171 214 266 319
#     4   9  18  30  51  72 102 132 177 206 259 313
#     4   9  16  28  48  76 107 133 167 218 269 311
#
# _framework density 18.775062999999999
#
# number of rings (size 3 to 8) (size 9 to 14) (size 15 to 20)
#    0.000    2.750    1.250    2.625    5.250    0.500 
#    0.000    0.000    0.000    3.750    0.000    8.750 
#    0.000    0.000    0.000    0.000    0.000    0.000 
#
# Total GULP energy -178165.280113 kJ/mol
# GULP energy per Si atom -5567.665004 kJ/mol
# Density = 1.873233 g / cm^3
# Si number density = 18.775063 Si / 1000 Ang^3
#
#
#
# Elastic Constant Matrix: (Units=GPa)
#
#
# Indices 1 2 3 4 5 6 
#
# 1 71.8412 18.4163 14.7424 0.0000 -4.5192 0.0000
# 2 18.4163 55.8964 -1.8915 0.0000 6.7410 0.0000
# 3 14.7424 -1.8915 44.0168 0.0000 -0.6424 0.0000
# 4 0.0000 0.0000 0.0000 13.3409 0.0000 1.3025
# 5 -4.5192 6.7410 -0.6424 0.0000 22.0742 0.0000
# 6 0.0000 0.0000 0.0000 1.3025 0.0000 19.4852
#
#
#
# Elastic Compliance Matrix: (Units=1/GPa)
#
#
# Indices 1 2 3 4 5 6 
#
# 1 0.017136 -0.006488 -0.005941 0.000000 0.005317 0.000000
# 2 -0.006488 0.021053 0.002966 0.000000 -0.007671 0.000000
# 3 -0.005941 0.002966 0.024815 0.000000 -0.001400 0.000000
# 4 0.000000 0.000000 0.000000 0.075450 0.000000 -0.005043
# 5 0.005317 -0.007671 -0.001400 0.000000 0.048692 0.000000
# 6 0.000000 0.000000 0.000000 -0.005043 0.000000 0.051658
#
#
# Mechanical properties :
#
#
# Convention : Reuss Voigt Hill
#
# Bulk Modulus (GPa) = 22.68647 26.03206 24.35927
# Shear Modulus (GPa) = 18.35373 20.34587 19.34980
#
# Velocity S-wave (km/s) = 3.12999 3.29548 3.21380
# Velocity P-wave (km/s) = 5.01717 5.32687 5.17434
#
# Compressibility (1/GPa) = 0.04407913
#
# Stress axis : x y z
#
# Youngs Moduli (GPa) = 58.35556 47.49825 40.29770
#
# Poissons Ratio (x) = 0.30818 0.23939
# Poissons Ratio (y) = 0.37862 -0.11952
# Poissons Ratio (z) = 0.34667 -0.14087
#
# Static dielectric constant tensor:
#      x y z
#    x 1.695770 0.000000 -0.007380 
#    y 0.000000 1.703330 0.000000 
#    z -0.007380 0.000000 1.635540 
# 
# From -- ./inp_files/19359.got.cif
#   From: 2010.05.17/outbox.cif.g08.bks.cpg/sg11_10_cif.got.tgz:19359.got - 2010.06.03 12:22:45.
