data_PCOD9164692
_publ_section_title
;
Structure prediction by ZEFSAII (Michael W. Deem and Ramdas Pophale) SiO2 
 PCOD9164692
Probable space group: P 21/M
;
_chemical_formula_sum "Si O2"
_cell_formula_units_Z 32
_cell_length_a 13.052946
_cell_length_b 7.952378
_cell_length_c 30.936837
_cell_angle_alpha 90.000000
_cell_angle_beta 155.050102
_cell_angle_gamma 90.000000
_cell_volume 1354.610327
_symmetry_space_group_name_H-M "P 21/M"
_symmetry_group_IT_number 11
_symmetry_cell_setting 'monoclinic'
loop_
_space_group_symop_operation_xyz
x,y,z
-x,1/2+y,-z
-x,-y,-z
x,1/2-y,z
loop_
_atom_site_type_symbol
_atom_site_label
_atom_site_fract_x
_atom_site_fract_y
_atom_site_fract_z
Si Si1 0.855645 0.943594 0.721554
Si Si2 0.855650 0.044650 0.013687
Si Si3 0.956596 0.557840 0.293929
Si Si4 0.545508 0.953729 0.203860
Si Si5 0.788232 0.048106 0.451967
Si Si6 0.396116 0.051010 0.237343
Si Si7 0.321744 0.438968 0.497087
Si Si8 0.271712 0.547801 0.941510
O O1 0.794007 0.750000 0.707767
O O2 0.022131 0.013319 0.823766
O O3 0.016071 0.956006 0.739503
O O4 0.604456 0.033802 0.614992
O O5 0.860355 0.250000 0.013591
O O6 0.714123 0.995310 0.003270
O O7 0.129946 0.981694 0.124612
O O8 0.707297 0.989798 0.914999
O O9 0.893449 0.750000 0.258037
O O10 0.209823 0.553974 0.417023
O O11 0.757613 0.495291 0.252081
O O12 0.552695 0.750000 0.209353
O O13 0.558556 0.022621 0.257014
O O14 0.782528 0.250000 0.454015
O O15 0.538461 0.987055 0.333651
O O16 0.810745 0.973731 0.508146
O O17 0.000000 0.000000 0.500000
O O18 0.365710 0.250000 0.232639
O O19 0.278033 0.250000 0.465696
O O20 0.255936 0.750000 0.935279
O O21 0.500000 0.500000 0.000000
#
# Coordination Sequence:
#
# PCOD9164692 Si02
#       8
#     4   4   4   4   4   4   4   4
#     4  11  23  40  62  89 120 156 197 245 297 353
#     4   9  18  36  58  82 113 151 189 230 284 344
#     4  11  23  40  61  86 118 156 195 242 296 356
#     4  10  21  36  58  85 115 150 190 236 287 341
#     4  11  23  40  61  87 118 156 199 244 296 353
#     4  10  21  37  59  83 113 151 191 235 286 343
#     4  12  25  41  62  88 118 155 197 245 298 357
#     4  10  21  38  61  86 117 155 196 241 293 351
#
# _framework density 23.62303
#
# number of rings (size 3 to 8) (size 9 to 14) (size 15 to 20)
#    0.000    1.500    0.000    5.250    0.000    8.000 
#    0.000    1.250    0.000    0.000    0.000    0.000 
#    0.000    0.000    0.000    0.000    0.000    0.000 
#
# Total GULP energy -179101.482696 kJ/mol
# GULP energy per Si atom -5596.921334 kJ/mol
# Density = 2.356926 g / cm^3
# Si number density = 23.623030 Si / 1000 Ang^3
#
#
#
# Elastic Constant Matrix: (Units=GPa)
#
#
# Indices 1 2 3 4 5 6 
#
# 1 67.0573 -9.1515 -9.3430 0.0000 -5.6451 0.0000
# 2 -9.1515 34.0717 -2.6047 0.0000 1.2989 0.0000
# 3 -9.3430 -2.6047 73.4648 0.0000 -6.9899 0.0000
# 4 0.0000 0.0000 0.0000 16.3955 0.0000 3.8805
# 5 -5.6451 1.2989 -6.9899 0.0000 46.1039 0.0000
# 6 0.0000 0.0000 0.0000 3.8805 0.0000 27.5716
#
#
#
# Elastic Compliance Matrix: (Units=1/GPa)
#
#
# Indices 1 2 3 4 5 6 
#
# 1 0.016035 0.004407 0.002405 0.000000 0.002204 0.000000
# 2 0.004407 0.030662 0.001640 0.000000 -0.000076 0.000000
# 3 0.002405 0.001640 0.014205 0.000000 0.002402 0.000000
# 4 0.000000 0.000000 0.000000 0.063094 0.000000 -0.008880
# 5 0.002204 -0.000076 0.002402 0.000000 0.022326 0.000000
# 6 0.000000 0.000000 0.000000 -0.008880 0.000000 0.037519
#
#
# Mechanical properties :
#
#
# Convention : Reuss Voigt Hill
#
# Bulk Modulus (GPa) = 12.85257 14.71058 13.78158
# Shear Modulus (GPa) = 25.92406 31.06039 28.49222
#
# Velocity S-wave (km/s) = 3.31631 3.63000 3.47669
# Velocity P-wave (km/s) = 4.48513 4.87954 4.68649
#
# Compressibility (1/GPa) = 0.07780542
#
# Stress axis : x y z
#
# Youngs Moduli (GPa) = 62.36494 32.61387 70.40006
#
# Poissons Ratio (x) = -0.14372 -0.16932
# Poissons Ratio (y) = -0.27482 -0.11548
# Poissons Ratio (z) = -0.15000 -0.05350
#
# Static dielectric constant tensor:
#      x y z
#    x 1.859990 0.000000 0.041600 
#    y 0.000000 1.842400 0.000000 
#    z 0.041600 0.000000 1.914880 
# 
# From -- ./inp_files/73161.got.cif
#   From: 2010.05.17/outbox.cif.g08.bks.cpg/sg11_37_cif.got.tgz:73161.got - 2010.06.03 12:22:45.
