data_PCOD9164974
_publ_section_title
;
Structure prediction by ZEFSAII (Michael W. Deem and Ramdas Pophale) SiO2 
 PCOD9164974
Probable space group: P 21/M
;
_chemical_formula_sum "Si O2"
_cell_formula_units_Z 28
_cell_length_a 16.060373
_cell_length_b 7.400900
_cell_length_c 16.060375
_cell_angle_alpha 90.000000
_cell_angle_beta 37.516695
_cell_angle_gamma 90.000000
_cell_volume 1162.539830
_symmetry_space_group_name_H-M "P 21/M"
_symmetry_group_IT_number 11
_symmetry_cell_setting 'monoclinic'
loop_
_space_group_symop_operation_xyz
x,y,z
-x,1/2+y,-z
-x,-y,-z
x,1/2-y,z
loop_
_atom_site_type_symbol
_atom_site_label
_atom_site_fract_x
_atom_site_fract_y
_atom_site_fract_z
Si Si1 0.165913 0.533576 0.231658
Si Si2 0.551790 0.464238 0.051790
Si Si3 0.993689 0.970647 0.218421
Si Si4 0.268342 0.466424 0.334087
Si Si5 0.140648 0.966057 0.938706
Si Si6 0.718421 0.970647 0.493689
Si Si7 0.438706 0.966057 0.640648
O O1 0.168582 0.750000 0.225443
O O2 0.042537 0.474286 0.271752
O O3 0.183107 0.500000 0.316893
O O4 0.296598 0.463206 0.075842
O O5 0.562013 0.250000 0.062013
O O6 0.424158 0.536794 0.203402
O O7 0.500000 0.500000 0.000000
O O8 0.994730 0.750000 0.214408
O O9 0.835034 0.026637 0.335034
O O10 0.098896 0.032246 0.064217
O O11 0.274557 0.250000 0.331418
O O12 0.228248 0.525714 0.457463
O O13 0.156261 0.750000 0.931234
O O14 0.285386 0.034505 0.785386
O O15 0.000000 0.000000 0.000000
O O16 0.714408 0.750000 0.494730
O O17 0.564217 0.032246 0.598896
O O18 0.431233 0.750000 0.656261
O O19 0.500000 0.000000 0.500000
#
# Coordination Sequence:
#
# PCOD9164974 Si02
#       7
#     4   4   4   4   4   4   4
#     4   9  17  29  47  70  99 135 175 217 262 309
#     4   8  14  24  40  62  88 120 158 204 248 294
#     4   9  18  32  51  76 106 140 178 220 266 319
#     4   9  17  29  47  70  99 135 175 217 262 309
#     4  10  21  37  60  86 111 142 180 224 276 331
#     4   9  18  32  51  76 106 140 178 220 266 319
#     4  10  21  37  60  86 111 142 180 224 276 331
#
# _framework density 24.085196
#
# number of rings (size 3 to 8) (size 9 to 14) (size 15 to 20)
#    0.000    2.857    0.000    0.857    2.000    2.286 
#    0.000    1.429    0.000    1.714    0.000    0.000 
#    0.000    0.000    0.000    0.000    0.000    0.000 
#
# Total GULP energy -155905.566673 kJ/mol
# GULP energy per Si atom -5568.055953 kJ/mol
# Density = 2.403038 g / cm^3
# Si number density = 24.085196 Si / 1000 Ang^3
#
#
#
# Elastic Constant Matrix: (Units=GPa)
#
#
# Indices 1 2 3 4 5 6 
#
# 1 148.4798 -3.0578 99.9736 0.0000 -6.6927 0.0000
# 2 -3.0578 83.6686 5.5660 0.0000 -3.6182 0.0000
# 3 99.9736 5.5660 228.7744 0.0000 -26.9946 0.0000
# 4 0.0000 0.0000 0.0000 5.6714 0.0000 2.7869
# 5 -6.6927 -3.6182 -26.9946 0.0000 40.7469 0.0000
# 6 0.0000 0.0000 0.0000 2.7869 0.0000 12.3139
#
#
#
# Elastic Compliance Matrix: (Units=1/GPa)
#
#
# Indices 1 2 3 4 5 6 
#
# 1 0.009635 0.000588 -0.004374 0.000000 -0.001263 0.000000
# 2 0.000588 0.012041 -0.000448 0.000000 0.000869 0.000000
# 3 -0.004374 -0.000448 0.006730 0.000000 0.003700 0.000000
# 4 0.000000 0.000000 0.000000 0.198388 0.000000 -0.044899
# 5 -0.001263 0.000869 0.003700 0.000000 0.026863 0.000000
# 6 0.000000 0.000000 0.000000 -0.044899 0.000000 0.091371
#
#
# Mechanical properties :
#
#
# Convention : Reuss Voigt Hill
#
# Bulk Modulus (GPa) = 50.15013 73.98737 62.06875
# Shear Modulus (GPa) = 13.88350 35.64248 24.76299
#
# Velocity S-wave (km/s) = 2.40351 3.85106 3.20994
# Velocity P-wave (km/s) = 5.34506 7.11055 6.29005
#
# Compressibility (1/GPa) = 0.01994013
#
# Stress axis : x y z
#
# Youngs Moduli (GPa) = 103.78746 83.05099 148.58862
#
# Poissons Ratio (x) = -0.04887 0.64990
# Poissons Ratio (y) = -0.06108 0.06650
# Poissons Ratio (z) = 0.45395 0.03717
#
# Static dielectric constant tensor:
#      x y z
#    x 1.942420 0.000000 -0.046590 
#    y 0.000000 1.932720 0.000000 
#    z -0.046590 0.000000 2.053460 
# 
# From -- ./inp_files/52097.got.cif
#   From: 2010.05.17/outbox.cif.g08.bks.cpg/sg11_27_cif.got.tgz:52097.got - 2010.06.03 12:22:45.
