data_PCOD9164697
_publ_section_title
;
Structure prediction by ZEFSAII (Michael W. Deem and Ramdas Pophale) SiO2 
 PCOD9164697
Probable space group: P 21/M
;
_chemical_formula_sum "Si O2"
_cell_formula_units_Z 32
_cell_length_a 12.527654
_cell_length_b 14.561056
_cell_length_c 15.656694
_cell_angle_alpha 90.000000
_cell_angle_beta 27.744750
_cell_angle_gamma 90.000000
_cell_volume 1329.577192
_symmetry_space_group_name_H-M "P 21/M"
_symmetry_group_IT_number 11
_symmetry_cell_setting 'monoclinic'
loop_
_space_group_symop_operation_xyz
x,y,z
-x,1/2+y,-z
-x,-y,-z
x,1/2-y,z
loop_
_atom_site_type_symbol
_atom_site_label
_atom_site_fract_x
_atom_site_fract_y
_atom_site_fract_z
Si Si1 0.736374 0.853326 0.896345
Si Si2 0.393057 0.139495 0.553562
Si Si3 0.765497 0.140798 0.416129
Si Si4 0.684404 0.141977 0.901635
Si Si5 0.393510 0.112570 0.827843
Si Si6 0.828330 0.857529 0.462188
Si Si7 0.976988 0.892347 0.036062
Si Si8 0.381535 0.605630 0.858980
O O1 0.791813 0.750000 0.826228
O O2 0.982228 0.898181 0.743521
O O3 0.558499 0.897935 0.956673
O O4 0.598271 0.848704 0.083287
O O5 0.420108 0.250000 0.525770
O O6 0.627461 0.102952 0.431142
O O7 0.302870 0.101027 0.527496
O O8 0.194990 0.122400 0.763187
O O9 0.792329 0.250000 0.381209
O O10 0.599961 0.131556 0.615976
O O11 0.667736 0.250000 0.890467
O O12 0.921145 0.103583 0.695633
O O13 0.714858 0.133379 0.981448
O O14 0.158699 0.146417 0.948902
O O15 0.379481 0.003525 0.850794
O O16 0.866727 0.750000 0.414924
O O17 0.642515 0.863044 0.667590
O O18 0.222126 0.857036 0.894889
O O19 0.000000 0.000000 0.000000
#
# Coordination Sequence:
#
# PCOD9164697 Si02
#       8
#     4   4   4   4   4   4   4   4
#     4  10  22  40  63  83 108 153 197 233 281 338
#     4   9  17  33  57  84 115 146 186 240 284 328
#     4   9  19  37  58  84 114 146 188 239 286 329
#     4  10  22  41  60  83 115 150 193 241 280 329
#     4  10  22  38  56  86 118 150 189 233 284 340
#     4  10  21  36  58  87 114 148 191 236 286 335
#     4   9  19  36  54  84 119 151 184 224 286 343
#     4  11  22  37  58  85 118 154 189 228 289 347
#
# _framework density 24.067800999999999
#
# number of rings (size 3 to 8) (size 9 to 14) (size 15 to 20)
#    0.000    2.250    1.250    0.750    1.750    3.500 
#    0.000    6.875    0.000    0.000    0.000    0.000 
#    0.000    0.000    0.000    0.000    0.000    0.000 
#
# Total GULP energy -178774.376360 kJ/mol
# GULP energy per Si atom -5586.699261 kJ/mol
# Density = 2.401302 g / cm^3
# Si number density = 24.067801 Si / 1000 Ang^3
#
#
#
# Elastic Constant Matrix: (Units=GPa)
#
#
# Indices 1 2 3 4 5 6 
#
# 1 90.9459 5.7680 28.9041 0.0000 -36.1489 0.0000
# 2 5.7680 71.5476 -7.1072 0.0000 -10.9495 0.0000
# 3 28.9041 -7.1072 103.0039 0.0000 -39.8756 0.0000
# 4 0.0000 0.0000 0.0000 58.7692 0.0000 13.0721
# 5 -36.1489 -10.9495 -39.8756 0.0000 48.6394 0.0000
# 6 0.0000 0.0000 0.0000 13.0721 0.0000 12.4921
#
#
#
# Elastic Compliance Matrix: (Units=1/GPa)
#
#
# Indices 1 2 3 4 5 6 
#
# 1 0.015631 0.000606 0.000301 0.000000 0.012001 0.000000
# 2 0.000606 0.015313 0.003509 0.000000 0.006775 0.000000
# 3 0.000301 0.003509 0.015028 0.000000 0.013334 0.000000
# 4 0.000000 0.000000 0.000000 0.022178 0.000000 -0.023207
# 5 0.012001 0.006775 0.013334 0.000000 0.041935 0.000000
# 6 0.000000 0.000000 0.000000 -0.023207 0.000000 0.104335
#
#
# Mechanical properties :
#
#
# Convention : Reuss Voigt Hill
#
# Bulk Modulus (GPa) = 18.24615 35.62526 26.93570
# Shear Modulus (GPa) = 22.33578 39.84231 31.08905
#
# Velocity S-wave (km/s) = 3.04967 4.07310 3.59796
# Velocity P-wave (km/s) = 4.47194 6.07901 5.33632
#
# Compressibility (1/GPa) = 0.05480609
#
# Stress axis : x y z
#
# Youngs Moduli (GPa) = 63.97391 65.30316 66.54269
#
# Poissons Ratio (x) = -0.03960 -0.02005
# Poissons Ratio (y) = -0.03879 -0.23351
# Poissons Ratio (z) = -0.01928 -0.22916
#
# Static dielectric constant tensor:
#      x y z
#    x 1.926310 0.000000 -0.061300 
#    y 0.000000 1.917390 0.000000 
#    z -0.061300 0.000000 1.905290 
# 
# From -- ./inp_files/50636.got.cif
#   From: 2010.05.17/outbox.cif.g08.bks.cpg/sg11_26_cif.got.tgz:50636.got - 2010.06.03 12:22:45.
