data_PCOD9164551
_publ_section_title
;
Structure prediction by ZEFSAII (Michael W. Deem and Ramdas Pophale) SiO2 
 PCOD9164551
Probable space group: P 21/M
;
_chemical_formula_sum "Si O2"
_cell_formula_units_Z 20
_cell_length_a 12.312759
_cell_length_b 8.397109
_cell_length_c 21.035364
_cell_angle_alpha 90.000000
_cell_angle_beta 27.976076
_cell_angle_gamma 90.000000
_cell_volume 1020.242164
_symmetry_space_group_name_H-M "P 21/M"
_symmetry_group_IT_number 11
_symmetry_cell_setting 'monoclinic'
loop_
_space_group_symop_operation_xyz
x,y,z
-x,1/2+y,-z
-x,-y,-z
x,1/2-y,z
loop_
_atom_site_type_symbol
_atom_site_label
_atom_site_fract_x
_atom_site_fract_y
_atom_site_fract_z
Si Si1 0.854001 0.564827 0.635177
Si Si2 0.753719 0.750000 0.017610
Si Si3 0.068647 0.250000 0.712296
Si Si4 0.470864 0.750000 0.774623
Si Si5 0.131449 0.001735 0.790099
Si Si6 0.230901 0.750000 0.242704
Si Si7 0.917092 0.750000 0.074782
Si Si8 0.473755 0.250000 0.401616
O O1 0.929897 0.750000 0.613243
O O2 0.588897 0.599573 0.749359
O O3 0.864325 0.419076 0.679572
O O4 0.000000 0.500000 0.500000
O O5 0.902068 0.602056 0.915803
O O6 0.497411 0.750000 0.124448
O O7 0.778632 0.750000 0.081048
O O8 0.822879 0.250000 0.804207
O O9 0.107529 0.103686 0.739185
O O10 0.249659 0.250000 0.560863
O O11 0.565643 0.750000 0.653700
O O12 0.193969 0.750000 0.917717
O O13 0.141717 0.102250 0.849726
O O14 0.362999 0.899194 0.667435
#
# Coordination Sequence:
#
# PCOD9164551 Si02
#       8
#     4   2   2   2   4   2   2   2
#     4  10  21  38  60  94 134 176 216 258 329 392
#     4  11  23  39  66  96 126 159 224 268 342 391
#     4  11  25  45  62  87 135 175 232 255 318 397
#     4  10  21  35  67  94 135 164 210 279 338 384
#     4  10  23  40  66  93 125 171 211 276 328 381
#     4  12  24  42  64  93 135 180 216 276 316 396
#     4  11  20  38  63 100 127 155 211 274 341 392
#     4  11  21  41  66  94 126 173 211 278 323 392
#
# _framework density 19.603189
#
# number of rings (size 3 to 8) (size 9 to 14) (size 15 to 20)
#    0.600    0.800    3.000    3.600    2.800    0.800 
#    3.600    0.000    0.000    0.000    0.000    0.000 
#    0.000    0.000    0.000    0.000    0.000    0.000 
#
# Total GULP energy -111568.303990 kJ/mol
# GULP energy per Si atom -5578.415200 kJ/mol
# Density = 1.955857 g / cm^3
# Si number density = 19.603189 Si / 1000 Ang^3
#
#
#
# Elastic Constant Matrix: (Units=GPa)
#
#
# Indices 1 2 3 4 5 6 
#
# 1 108.9614 40.2307 35.1179 0.0000 11.9883 0.0000
# 2 40.2307 129.1211 27.0903 0.0000 10.3646 0.0000
# 3 35.1179 27.0903 70.3953 0.0000 4.0704 0.0000
# 4 0.0000 0.0000 0.0000 353.9863 0.0000 -55.8939
# 5 11.9883 10.3646 4.0704 0.0000 30.6494 0.0000
# 6 0.0000 0.0000 0.0000 -55.8939 0.0000 58.2499
#
#
#
# Elastic Compliance Matrix: (Units=1/GPa)
#
#
# Indices 1 2 3 4 5 6 
#
# 1 0.012006 -0.002464 -0.004855 0.000000 -0.003218 0.000000
# 2 -0.002464 0.009115 -0.002173 0.000000 -0.001830 0.000000
# 3 -0.004855 -0.002173 0.017445 0.000000 0.000317 0.000000
# 4 0.000000 0.000000 0.000000 0.003329 0.000000 0.003195
# 5 -0.003218 -0.001830 0.000317 0.000000 0.034463 0.000000
# 6 0.000000 0.000000 0.000000 0.003195 0.000000 0.020233
#
#
# Mechanical properties :
#
#
# Convention : Reuss Voigt Hill
#
# Bulk Modulus (GPa) = 51.06492 57.03953 54.05223
# Shear Modulus (GPa) = 40.94902 102.31306 71.63104
#
# Velocity S-wave (km/s) = 4.57540 7.23224 6.05143
# Velocity P-wave (km/s) = 7.34971 9.94488 8.74411
#
# Compressibility (1/GPa) = 0.01958291
#
# Stress axis : x y z
#
# Youngs Moduli (GPa) = 83.29066 109.70800 57.32156
#
# Poissons Ratio (x) = 0.27030 0.27831
# Poissons Ratio (y) = 0.20521 0.12455
# Poissons Ratio (z) = 0.40440 0.23838
#
# Static dielectric constant tensor:
#      x y z
#    x 1.657110 0.000000 -0.022260 
#    y 0.000000 1.735150 0.000000 
#    z -0.022260 0.000000 1.665760 
# 
# From -- ./inp_files/33612.got.cif
#   From: 2010.05.17/outbox.cif.g08.bks.cpg/sg11_17_cif.got.tgz:33612.got - 2010.06.03 12:22:45.
