data_PCOD9164268
_publ_section_title
;
Structure prediction by ZEFSAII (Michael W. Deem and Ramdas Pophale) SiO2 
 PCOD9164268
Probable space group: P 21/M
;
_chemical_formula_sum "Si O2"
_cell_formula_units_Z 30
_cell_length_a 12.052794
_cell_length_b 14.425435
_cell_length_c 8.046667
_cell_angle_alpha 90.000000
_cell_angle_beta 66.979932
_cell_angle_gamma 90.000000
_cell_volume 1287.639125
_symmetry_space_group_name_H-M "P 21/M"
_symmetry_group_IT_number 11
_symmetry_cell_setting 'monoclinic'
loop_
_space_group_symop_operation_xyz
x,y,z
-x,1/2+y,-z
-x,-y,-z
x,1/2-y,z
loop_
_atom_site_type_symbol
_atom_site_label
_atom_site_fract_x
_atom_site_fract_y
_atom_site_fract_z
Si Si1 0.919489 0.462823 0.400157
Si Si2 0.056920 0.347313 0.805044
Si Si3 0.655839 0.750000 0.941660
Si Si4 0.524624 0.105450 0.038717
Si Si5 0.443627 0.357941 0.469418
Si Si6 0.212707 0.907104 0.004723
Si Si7 0.137511 0.115089 0.120677
Si Si8 0.683936 0.448418 0.419944
O O1 0.782377 0.433109 0.505978
O O2 0.000000 0.500000 0.500000
O O3 0.909249 0.555003 0.294084
O O4 0.002670 0.384020 0.271661
O O5 0.088129 0.250000 0.698835
O O6 0.911795 0.351485 0.910642
O O7 0.124011 0.348196 0.941978
O O8 0.553676 0.669787 0.033170
O O9 0.760108 0.670833 0.847471
O O10 0.473753 0.129941 0.254634
O O11 0.667299 0.125175 0.970236
O O12 0.500000 0.000000 0.000000
O O13 0.408069 0.250000 0.518674
O O14 0.564728 0.386049 0.497665
O O15 0.354787 0.443165 0.563274
O O16 0.251744 0.919086 0.789717
O O17 0.177456 0.008782 0.089949
#
# Coordination Sequence:
#
# PCOD9164268 Si02
#       8
#     4   4   2   4   4   4   4   4
#     4  11  24  41  65  94 133 174 207 269 342 385
#     4  11  22  40  66  98 125 170 225 272 313 393
#     4  12  24  38  60 102 126 166 220 264 332 378
#     4  11  23  39  63  94 129 168 213 269 325 387
#     4  10  23  41  64  91 126 173 217 268 319 393
#     4  10  20  40  65  87 126 167 214 259 322 380
#     4  11  21  42  64  93 131 168 216 272 317 390
#     4  10  21  41  64  90 125 169 219 263 325 392
#
# _framework density 23.298454
#
# number of rings (size 3 to 8) (size 9 to 14) (size 15 to 20)
#    0.000    1.333    5.333    0.800    2.800    1.067 
#    3.600    0.000    0.000    0.000    0.000    0.000 
#    0.000    0.000    0.000    0.000    0.000    0.000 
#
# Total GULP energy -167033.684950 kJ/mol
# GULP energy per Si atom -5567.789498 kJ/mol
# Density = 2.324543 g / cm^3
# Si number density = 23.298454 Si / 1000 Ang^3
#
#
#
# Elastic Constant Matrix: (Units=GPa)
#
#
# Indices 1 2 3 4 5 6 
#
# 1 131.6734 16.7270 4.1773 0.0000 -23.2301 0.0000
# 2 16.7270 133.7260 -8.1933 0.0000 -4.1394 0.0000
# 3 4.1773 -8.1933 23.5822 0.0000 -0.0458 0.0000
# 4 0.0000 0.0000 0.0000 -12.1261 0.0000 -31.4259
# 5 -23.2301 -4.1394 -0.0458 0.0000 23.0305 0.0000
# 6 0.0000 0.0000 0.0000 -31.4259 0.0000 -108.6409
#
#
#
# Elastic Compliance Matrix: (Units=1/GPa)
#
#
# Indices 1 2 3 4 5 6 
#
# 1 0.009433 -0.001014 -0.002005 0.000000 0.009328 0.000000
# 2 -0.001014 0.007794 0.002888 0.000000 0.000384 0.000000
# 3 -0.002005 0.002888 0.043761 0.000000 -0.001416 0.000000
# 4 0.000000 0.000000 0.000000 -0.329415 0.000000 0.095288
# 5 0.009328 0.000384 -0.001416 0.000000 0.052896 0.000000
# 6 0.000000 0.000000 0.000000 0.095288 0.000000 -0.036768
#
#
# Mechanical properties :
#
#
# Convention : Reuss Voigt Hill
#
# Bulk Modulus (GPa) = 16.46760 34.93373 25.70067
# Shear Modulus (GPa) = -21.57060 -1.12924 -11.34992
#
# Velocity S-wave (km/s) = -3.04606 -0.69695 -2.20955
# Velocity P-wave (km/s) = 2.29953 3.79195 2.13203
#
# Compressibility (1/GPa) = 0.06072531
#
# Stress axis : x y z
#
# Youngs Moduli (GPa) = 106.01464 128.30968 22.85153
#
# Poissons Ratio (x) = 0.13010 0.04582
# Poissons Ratio (y) = 0.10750 -0.06600
# Poissons Ratio (z) = 0.21256 -0.37058
#
# Static dielectric constant tensor:
#      x y z
#    x 1.937700 0.000000 0.034070 
#    y 0.000000 1.923450 0.000000 
#    z 0.034070 0.000000 1.970070 
# 
# From -- ./inp_files/18017.got.cif
#   From: 2010.05.17/outbox.cif.g08.bks.cpg/sg11_10_cif.got.tgz:18017.got - 2010.06.03 12:22:45.
