data_PCOD9164886
_publ_section_title
;
Structure prediction by ZEFSAII (Michael W. Deem and Ramdas Pophale) SiO2 
 PCOD9164886
Probable space group: P 21/M
;
_chemical_formula_sum "Si O2"
_cell_formula_units_Z 30
_cell_length_a 5.250785
_cell_length_b 9.821489
_cell_length_c 28.173400
_cell_angle_alpha 90.000000
_cell_angle_beta 84.580129
_cell_angle_gamma 90.000000
_cell_volume 1446.421484
_symmetry_space_group_name_H-M "P 21/M"
_symmetry_group_IT_number 11
_symmetry_cell_setting 'monoclinic'
loop_
_space_group_symop_operation_xyz
x,y,z
-x,1/2+y,-z
-x,-y,-z
x,1/2-y,z
loop_
_atom_site_type_symbol
_atom_site_label
_atom_site_fract_x
_atom_site_fract_y
_atom_site_fract_z
Si Si1 0.813332 0.408005 0.291367
Si Si2 0.487690 0.096838 0.574378
Si Si3 0.720546 0.909360 0.644786
Si Si4 0.271000 0.499046 0.042305
Si Si5 0.811903 0.098061 0.475570
Si Si6 0.537891 0.088456 0.862099
Si Si7 0.923792 0.588977 0.198144
Si Si8 0.999124 0.750000 0.000715
O O1 0.830448 0.250000 0.276054
O O2 0.031370 0.429457 0.327167
O O3 0.534199 0.429444 0.318890
O O4 0.863317 0.504604 0.246096
O O5 0.416769 0.250000 0.592209
O O6 0.589978 0.114875 0.518919
O O7 0.692858 0.022015 0.604094
O O8 0.275488 0.980446 0.569946
O O9 0.714609 0.750000 0.628481
O O10 0.402456 0.507327 0.091152
O O11 0.100778 0.631446 0.035773
O O12 0.500000 0.500000 0.000000
O O13 0.103607 0.368252 0.034073
O O14 0.910292 0.250000 0.463949
O O15 0.000000 0.000000 0.500000
O O16 0.519187 0.250000 0.874538
O O17 0.277782 0.050021 0.839654
O O18 0.784727 0.070081 0.824009
O O19 0.885152 0.750000 0.207678
#
# Coordination Sequence:
#
# PCOD9164886 Si02
#       8
#     4   4   4   4   4   4   4   2
#     4  10  22  42  63  88 122 155 195 253 317 370
#     4  10  22  38  56  88 120 157 208 258 303 358
#     4  10  22  39  63  89 120 160 201 246 312 379
#     4  11  23  40  62  88 127 168 210 259 309 364
#     4  10  21  37  58  83 123 164 205 252 306 360
#     4  10  22  39  63  88 122 160 203 251 308 372
#     4  10  22  40  63  89 115 156 202 247 309 377
#     4  10  24  38  62  88 124 166 212 252 308 366
#
# _framework density 20.740843000000002
#
# number of rings (size 3 to 8) (size 9 to 14) (size 15 to 20)
#    0.000    1.867    0.667    2.000    5.600    2.667 
#    2.400    0.000    0.000    0.000    0.000    0.000 
#    0.000    0.000    0.000    0.000    0.000    0.000 
#
# Total GULP energy -167010.334267 kJ/mol
# GULP energy per Si atom -5567.011142 kJ/mol
# Density = 2.069364 g / cm^3
# Si number density = 20.740843 Si / 1000 Ang^3
#
#
#
# Elastic Constant Matrix: (Units=GPa)
#
#
# Indices 1 2 3 4 5 6 
#
# 1 57.8122 13.6920 0.5769 0.0000 9.5826 0.0000
# 2 13.6920 144.1778 33.6751 0.0000 13.6727 0.0000
# 3 0.5769 33.6751 73.0059 0.0000 1.6456 0.0000
# 4 0.0000 0.0000 0.0000 77.5336 0.0000 32.4274
# 5 9.5826 13.6727 1.6456 0.0000 27.5749 0.0000
# 6 0.0000 0.0000 0.0000 32.4274 0.0000 25.3252
#
#
#
# Elastic Compliance Matrix: (Units=1/GPa)
#
#
# Indices 1 2 3 4 5 6 
#
# 1 0.018577 -0.001354 0.000609 0.000000 -0.005820 0.000000
# 2 -0.001354 0.008256 -0.003721 0.000000 -0.003401 0.000000
# 3 0.000609 -0.003721 0.015393 0.000000 0.000715 0.000000
# 4 0.000000 0.000000 0.000000 0.027768 0.000000 -0.035556
# 5 -0.005820 -0.003401 0.000715 0.000000 0.039931 0.000000
# 6 0.000000 0.000000 0.000000 -0.035556 0.000000 0.085013
#
#
# Mechanical properties :
#
#
# Convention : Reuss Voigt Hill
#
# Bulk Modulus (GPa) = 30.03589 41.20930 35.62260
# Shear Modulus (GPa) = 23.25917 41.22354 32.24136
#
# Velocity S-wave (km/s) = 3.35239 4.46304 3.94697
# Velocity P-wave (km/s) = 5.43118 6.81689 6.16310
#
# Compressibility (1/GPa) = 0.03329350
#
# Stress axis : x y z
#
# Youngs Moduli (GPa) = 53.83036 121.12249 64.96494
#
# Poissons Ratio (x) = 0.16406 -0.03958
# Poissons Ratio (y) = 0.07291 0.24173
# Poissons Ratio (z) = -0.03279 0.45068
#
# Static dielectric constant tensor:
#      x y z
#    x 1.808820 0.000000 -0.026170 
#    y 0.000000 1.746680 0.000000 
#    z -0.026170 0.000000 1.729380 
# 
# From -- ./inp_files/72526.got.cif
#   From: 2010.05.17/outbox.cif.g08.bks.cpg/sg11_37_cif.got.tgz:72526.got - 2010.06.03 12:22:45.
