data_PCOD9164073
_publ_section_title
;
Structure prediction by ZEFSAII (Michael W. Deem and Ramdas Pophale) SiO2 
 PCOD9164073
Probable space group: P 21/M
;
_chemical_formula_sum "Si O2"
_cell_formula_units_Z 32
_cell_length_a 16.981329
_cell_length_b 12.237047
_cell_length_c 13.295495
_cell_angle_alpha 90.000000
_cell_angle_beta 147.262657
_cell_angle_gamma 90.000000
_cell_volume 1494.102517
_symmetry_space_group_name_H-M "P 21/M"
_symmetry_group_IT_number 11
_symmetry_cell_setting 'monoclinic'
loop_
_space_group_symop_operation_xyz
x,y,z
-x,1/2+y,-z
-x,-y,-z
x,1/2-y,z
loop_
_atom_site_type_symbol
_atom_site_label
_atom_site_fract_x
_atom_site_fract_y
_atom_site_fract_z
Si Si1 0.617287 0.871049 0.352817
Si Si2 0.568503 0.120647 0.038114
Si Si3 0.058175 0.054874 0.930481
Si Si4 0.540395 0.454318 0.432462
Si Si5 0.932755 0.628042 0.660399
Si Si6 0.817072 0.366439 0.816395
Si Si7 0.723619 0.871181 0.991822
Si Si8 0.862877 0.044855 0.290146
O O1 0.621687 0.750000 0.400700
O O2 0.765083 0.885956 0.446255
O O3 0.605133 0.951425 0.431802
O O4 0.483438 0.878393 0.133396
O O5 0.533049 0.250000 0.035671
O O6 0.743245 0.107085 0.228327
O O7 0.500000 0.000000 0.000000
O O8 0.956314 0.966225 0.766554
O O9 0.176288 0.975060 0.109189
O O10 0.962543 0.121506 0.906058
O O11 0.137458 0.125975 0.932888
O O12 0.500000 0.500000 0.500000
O O13 0.673053 0.372290 0.594735
O O14 0.409989 0.406616 0.223890
O O15 0.942513 0.750000 0.713245
O O16 0.056535 0.614728 0.709701
O O17 0.816027 0.250000 0.870054
O O18 0.695818 0.750000 0.001006
O O19 0.770135 0.951675 0.131774
O O20 0.000000 0.000000 0.500000
#
# Coordination Sequence:
#
# PCOD9164073 Si02
#       8
#     4   4   4   4   4   4   4   4
#     4  10  22  42  66  94 133 175 224 281 341 409
#     4  11  24  45  73 106 142 181 229 286 353 429
#     4  10  21  39  57  88 125 158 214 267 325 395
#     4  12  23  43  61  94 132 176 232 279 336 406
#     4  10  20  38  66  92 122 166 214 269 331 396
#     4  11  22  37  60  85 121 168 217 270 327 392
#     4  11  24  42  64  92 130 172 216 277 344 406
#     4  11  24  43  69  99 138 172 225 282 345 424
#
# _framework density 21.417539999999999
#
# number of rings (size 3 to 8) (size 9 to 14) (size 15 to 20)
#    0.000    1.250    3.750    2.250    0.000    2.500 
#    0.000    0.000    0.000    0.000    0.000    0.000 
#    0.000    0.000    0.000    0.000    0.000    0.000 
#
# Total GULP energy -178273.663036 kJ/mol
# GULP energy per Si atom -5571.051970 kJ/mol
# Density = 2.136879 g / cm^3
# Si number density = 21.417540 Si / 1000 Ang^3
#
#
#
# Elastic Constant Matrix: (Units=GPa)
#
#
# Indices 1 2 3 4 5 6 
#
# 1 48.9397 29.6221 -1.3108 0.0000 9.6178 0.0000
# 2 29.6221 138.4343 34.9631 0.0000 3.2921 0.0000
# 3 -1.3108 34.9631 126.7705 0.0000 4.2650 0.0000
# 4 0.0000 0.0000 0.0000 17.8922 0.0000 9.4920
# 5 9.6178 3.2921 4.2650 0.0000 29.6958 0.0000
# 6 0.0000 0.0000 0.0000 9.4920 0.0000 -15.3239
#
#
#
# Elastic Compliance Matrix: (Units=1/GPa)
#
#
# Indices 1 2 3 4 5 6 
#
# 1 0.025577 -0.005824 0.002138 0.000000 -0.007945 0.000000
# 2 -0.005824 0.009100 -0.002612 0.000000 0.001253 0.000000
# 3 0.002138 -0.002612 0.008686 0.000000 -0.001650 0.000000
# 4 0.000000 0.000000 0.000000 0.042067 0.000000 0.026057
# 5 -0.007945 0.001253 -0.001650 0.000000 0.036346 0.000000
# 6 0.000000 0.000000 0.000000 0.026057 0.000000 -0.049117
#
#
# Mechanical properties :
#
#
# Convention : Reuss Voigt Hill
#
# Bulk Modulus (GPa) = 32.50224 48.96593 40.73409
# Shear Modulus (GPa) = 52.35004 23.17749 37.76377
#
# Velocity S-wave (km/s) = 4.94931 3.29321 4.20362
# Velocity P-wave (km/s) = 6.91877 6.11330 6.52847
#
# Compressibility (1/GPa) = 0.03076711
#
# Stress axis : x y z
#
# Youngs Moduli (GPa) = 39.09742 109.89279 115.12376
#
# Poissons Ratio (x) = 0.64002 -0.24614
# Poissons Ratio (y) = 0.22770 0.30071
# Poissons Ratio (z) = -0.08359 0.28705
#
# Static dielectric constant tensor:
#      x y z
#    x 1.784710 0.000000 0.016400 
#    y 0.000000 1.788650 0.000000 
#    z 0.016400 0.000000 1.805070 
# 
# From -- ./inp_files/53673.got.cif
#   From: 2010.05.17/outbox.cif.g08.bks.cpg/sg11_27_cif.got.tgz:53673.got - 2010.06.03 12:22:45.
