data_PCOD9164185
_publ_section_title
;
Structure prediction by ZEFSAII (Michael W. Deem and Ramdas Pophale) SiO2 
 PCOD9164185
Probable space group: P 21/M
;
_chemical_formula_sum "Si O2"
_cell_formula_units_Z 24
_cell_length_a 11.329963
_cell_length_b 16.365853
_cell_length_c 5.090096
_cell_angle_alpha 90.000000
_cell_angle_beta 89.133308
_cell_angle_gamma 90.000000
_cell_volume 943.720572
_symmetry_space_group_name_H-M "P 21/M"
_symmetry_group_IT_number 11
_symmetry_cell_setting 'monoclinic'
loop_
_space_group_symop_operation_xyz
x,y,z
-x,1/2+y,-z
-x,-y,-z
x,1/2-y,z
loop_
_atom_site_type_symbol
_atom_site_label
_atom_site_fract_x
_atom_site_fract_y
_atom_site_fract_z
Si Si1 0.948380 0.250000 0.871154
Si Si2 0.087162 0.951226 0.812002
Si Si3 0.087432 0.380354 0.559559
Si Si4 0.779741 0.250000 0.384937
Si Si5 0.338476 0.092097 0.532648
Si Si6 0.558900 0.339138 0.249716
Si Si7 0.329179 0.980187 0.035990
O O1 0.852229 0.250000 0.644975
O O2 0.032768 0.328037 0.800286
O O3 0.867231 0.250000 0.132119
O O4 0.014236 0.883137 0.657354
O O5 0.114556 0.023617 0.605218
O O6 0.202339 0.937302 0.983802
O O7 0.000000 0.000000 0.000000
O O8 0.220201 0.353733 0.486591
O O9 0.687153 0.325488 0.380662
O O10 0.456491 0.140995 0.457821
O O11 0.335458 0.054702 0.825173
O O12 0.340152 0.017139 0.323368
O O13 0.536017 0.250000 0.124423
O O14 0.575395 0.412953 0.048097
#
# Coordination Sequence:
#
# PCOD9164185 Si02
#       7
#     2   4   4   2   4   4   4
#     4  12  26  43  66  99 132 168 222 262 346 382
#     4  10  20  39  64  96 129 170 218 262 323 389
#     4  10  24  38  68  96 135 169 212 274 325 395
#     4  10  28  43  64  97 132 176 214 272 322 390
#     4  11  24  44  67 101 128 177 217 271 328 391
#     4  10  25  46  68  96 134 175 222 274 323 386
#     4  11  23  42  70  96 134 169 227 266 326 389
#
# _framework density 25.431255
#
# number of rings (size 3 to 8) (size 9 to 14) (size 15 to 20)
#    0.500    1.000    1.667    2.000    5.833    2.667 
#    0.000    0.000    1.833    0.000    0.000    0.000 
#    0.000    0.000    0.000    0.000    0.000    0.000 
#
# Total GULP energy -134126.206764 kJ/mol
# GULP energy per Si atom -5588.591948 kJ/mol
# Density = 2.537337 g / cm^3
# Si number density = 25.431255 Si / 1000 Ang^3
#
#
#
# Elastic Constant Matrix: (Units=GPa)
#
#
# Indices 1 2 3 4 5 6 
#
# 1 161.7824 33.0335 22.4364 0.0000 -25.4746 0.0000
# 2 33.0335 82.5243 8.9420 0.0000 -2.5217 0.0000
# 3 22.4364 8.9420 79.6080 0.0000 -9.2103 0.0000
# 4 0.0000 0.0000 0.0000 21.3412 0.0000 -3.1246
# 5 -25.4746 -2.5217 -9.2103 0.0000 40.9758 0.0000
# 6 0.0000 0.0000 0.0000 -3.1246 0.0000 34.2627
#
#
#
# Elastic Compliance Matrix: (Units=1/GPa)
#
#
# Indices 1 2 3 4 5 6 
#
# 1 0.007602 -0.002768 -0.001339 0.000000 0.004255 0.000000
# 2 -0.002768 0.013283 -0.000838 0.000000 -0.001092 0.000000
# 3 -0.001339 -0.000838 0.013276 0.000000 0.002100 0.000000
# 4 0.000000 0.000000 0.000000 0.047492 0.000000 0.004331
# 5 0.004255 -0.001092 0.002100 0.000000 0.027455 0.000000
# 6 0.000000 0.000000 0.000000 0.004331 0.000000 0.029581
#
#
# Mechanical properties :
#
#
# Convention : Reuss Voigt Hill
#
# Bulk Modulus (GPa) = 41.20268 50.30428 45.75348
# Shear Modulus (GPa) = 31.91425 36.61614 34.26520
#
# Velocity S-wave (km/s) = 3.54633 3.79860 3.67463
# Velocity P-wave (km/s) = 5.74503 6.25000 6.00283
#
# Compressibility (1/GPa) = 0.02427027
#
# Stress axis : x y z
#
# Youngs Moduli (GPa) = 131.54429 75.28391 75.32311
#
# Poissons Ratio (x) = 0.20837 0.10088
# Poissons Ratio (y) = 0.36410 0.06314
# Poissons Ratio (z) = 0.17618 0.06311
#
# Static dielectric constant tensor:
#      x y z
#    x 2.087830 0.000000 0.007430 
#    y 0.000000 2.186790 0.000000 
#    z 0.007430 0.000000 1.975800 
# 
# From -- ./inp_files/4642.got.cif
#   From: 2010.05.17/outbox.cif.g08.bks.cpg/sg11_3_cif.got.tgz:4642.got - 2010.06.03 12:22:45.
