data_PCOD9164984
_publ_section_title
;
Structure prediction by ZEFSAII (Michael W. Deem and Ramdas Pophale) SiO2 
 PCOD9164984
Probable space group: P 21/M
;
_chemical_formula_sum "Si O2"
_cell_formula_units_Z 32
_cell_length_a 17.152191
_cell_length_b 16.132046
_cell_length_c 10.965270
_cell_angle_alpha 90.000000
_cell_angle_beta 146.672016
_cell_angle_gamma 90.000000
_cell_volume 1667.022735
_symmetry_space_group_name_H-M "P 21/M"
_symmetry_group_IT_number 11
_symmetry_cell_setting 'monoclinic'
loop_
_space_group_symop_operation_xyz
x,y,z
-x,1/2+y,-z
-x,-y,-z
x,1/2-y,z
loop_
_atom_site_type_symbol
_atom_site_label
_atom_site_fract_x
_atom_site_fract_y
_atom_site_fract_z
Si Si1 0.060252 0.658709 0.096598
Si Si2 0.213158 0.349168 0.545720
Si Si3 0.471266 0.849566 0.038990
Si Si4 0.211661 0.543116 0.113662
Si Si5 0.804730 0.346506 0.473975
Si Si6 0.432984 0.844089 0.266541
Si Si7 0.985516 0.502940 0.624884
Si Si8 0.249573 0.119812 0.304340
O O1 0.069944 0.750000 0.054396
O O2 0.094403 0.592754 0.038361
O O3 0.175219 0.650694 0.354228
O O4 0.902352 0.649729 0.946566
O O5 0.186809 0.250000 0.532075
O O6 0.101177 0.413443 0.453698
O O7 0.224230 0.364573 0.414734
O O8 0.371442 0.374059 0.797057
O O9 0.480576 0.750000 0.065076
O O10 0.349517 0.866670 0.782351
O O11 0.434506 0.878716 0.128736
O O12 0.336954 0.601244 0.229265
O O13 0.264321 0.473092 0.275047
O O14 0.131604 0.506818 0.891337
O O15 0.837788 0.250000 0.481621
O O16 0.905785 0.418739 0.558218
O O17 0.376916 0.750000 0.190669
O O18 0.597649 0.841171 0.522691
O O19 0.000000 0.500000 0.500000
#
# Coordination Sequence:
#
# PCOD9164984 Si02
#       8
#     4   4   4   4   4   4   4   4
#     4  11  21  36  63  90 115 157 203 246 302 361
#     4  10  21  39  66  92 115 154 207 257 298 353
#     4   8  17  37  62  87 117 157 206 250 296 354
#     4  12  23  38  57  90 129 155 198 254 306 358
#     4  10  21  39  60  86 121 159 198 246 299 362
#     4  10  21  37  60  88 120 162 205 247 302 360
#     4  12  25  39  58  87 123 159 202 246 304 365
#     4  11  20  38  62  88 119 155 203 250 299 353
#
# _framework density 19.195900000000002
#
# number of rings (size 3 to 8) (size 9 to 14) (size 15 to 20)
#    0.000    1.500    2.500    4.500    0.000    1.500 
#    0.000    2.500    0.000    1.500    0.000    0.000 
#    0.000    0.000    0.000    0.000    0.000    0.000 
#
# Total GULP energy -178396.760396 kJ/mol
# GULP energy per Si atom -5574.898762 kJ/mol
# Density = 1.915221 g / cm^3
# Si number density = 19.195900 Si / 1000 Ang^3
#
#
#
# Elastic Constant Matrix: (Units=GPa)
#
#
# Indices 1 2 3 4 5 6 
#
# 1 49.9958 39.4357 15.0695 0.0000 6.0238 0.0000
# 2 39.4357 88.0705 29.2481 0.0000 1.1901 0.0000
# 3 15.0695 29.2481 94.4913 0.0000 2.5808 0.0000
# 4 0.0000 0.0000 0.0000 21.9216 0.0000 9.8997
# 5 6.0238 1.1901 2.5808 0.0000 23.9487 0.0000
# 6 0.0000 0.0000 0.0000 9.8997 0.0000 -11.4253
#
#
#
# Elastic Compliance Matrix: (Units=1/GPa)
#
#
# Indices 1 2 3 4 5 6 
#
# 1 0.032204 -0.014135 -0.000560 0.000000 -0.007337 0.000000
# 2 -0.014135 0.018861 -0.003666 0.000000 0.003013 0.000000
# 3 -0.000560 -0.003666 0.011833 0.000000 -0.000952 0.000000
# 4 0.000000 0.000000 0.000000 0.032788 0.000000 0.028409
# 5 -0.007337 0.003013 -0.000952 0.000000 0.043554 0.000000
# 6 0.000000 0.000000 0.000000 0.028409 0.000000 -0.062909
#
#
# Mechanical properties :
#
#
# Convention : Reuss Voigt Hill
#
# Bulk Modulus (GPa) = 38.20410 44.45159 41.32785
# Shear Modulus (GPa) = 41.05850 16.80929 28.93390
#
# Velocity S-wave (km/s) = 4.62986 2.96238 3.88660
# Velocity P-wave (km/s) = 6.96608 5.90830 6.45888
#
# Compressibility (1/GPa) = 0.02617520
#
# Stress axis : x y z
#
# Youngs Moduli (GPa) = 31.05213 53.02077 84.50884
#
# Poissons Ratio (x) = 0.74944 0.04735
# Poissons Ratio (y) = 0.43892 0.30981
# Poissons Ratio (z) = 0.01740 0.19437
#
# Static dielectric constant tensor:
#      x y z
#    x 1.642370 0.000000 -0.003870 
#    y 0.000000 4.867930 0.000000 
#    z -0.003870 0.000000 1.731280 
# 
# From -- ./inp_files/41741.got.cif
#   From: 2010.05.17/outbox.cif.g08.bks.cpg/sg11_21_cif.got.tgz:41741.got - 2010.06.03 12:22:45.
