data_PCOD9164480
_publ_section_title
;
Structure prediction by ZEFSAII (Michael W. Deem and Ramdas Pophale) SiO2 
 PCOD9164480
Probable space group: P 21/M
;
_chemical_formula_sum "Si O2"
_cell_formula_units_Z 32
_cell_length_a 19.646204
_cell_length_b 7.423875
_cell_length_c 10.442336
_cell_angle_alpha 90.000000
_cell_angle_beta 92.723169
_cell_angle_gamma 90.000000
_cell_volume 1521.304875
_symmetry_space_group_name_H-M "P 21/M"
_symmetry_group_IT_number 11
_symmetry_cell_setting 'monoclinic'
loop_
_space_group_symop_operation_xyz
x,y,z
-x,1/2+y,-z
-x,-y,-z
x,1/2-y,z
loop_
_atom_site_type_symbol
_atom_site_label
_atom_site_fract_x
_atom_site_fract_y
_atom_site_fract_z
Si Si1 0.942858 0.965364 0.100847
Si Si2 0.055895 0.465383 0.612793
Si Si3 0.559443 0.966968 0.336783
Si Si4 0.264155 0.470142 0.269800
Si Si5 0.695845 0.969442 0.231197
Si Si6 0.796692 0.969618 0.467041
Si Si7 0.409994 0.462510 0.372692
Si Si8 0.208146 0.029477 0.991579
O O1 0.937177 0.750000 0.108843
O O2 0.960684 0.032512 0.245463
O O3 0.867888 0.030788 0.052539
O O4 0.000000 0.000000 0.000000
O O5 0.061874 0.250000 0.622569
O O6 0.129727 0.532382 0.573817
O O7 0.000000 0.500000 0.500000
O O8 0.561908 0.750000 0.340511
O O9 0.617999 0.028152 0.244786
O O10 0.578375 0.034640 0.481962
O O11 0.481100 0.014792 0.305284
O O12 0.263715 0.250000 0.266623
O O13 0.222347 0.526106 0.391722
O O14 0.342183 0.530881 0.298081
O O15 0.231031 0.529371 0.134269
O O16 0.695665 0.750000 0.228290
O O17 0.739064 0.022861 0.360257
O O18 0.736911 0.028023 0.109822
O O19 0.797217 0.750000 0.467232
O O20 0.398476 0.250000 0.388369
O O21 0.207426 0.250000 0.990428
#
# Coordination Sequence:
#
# PCOD9164480 Si02
#       8
#     4   4   4   4   4   4   4   4
#     4  10  21  36  53  76 105 136 169 206 252 307
#     4  10  21  35  53  78 106 133 166 211 256 300
#     4   9  16  26  45  68  91 122 155 189 235 286
#     4   9  16  26  44  70  94 120 160 204 242 279
#     4   9  14  26  46  67  90 120 160 202 238 275
#     4   9  15  27  47  69  94 124 161 205 243 278
#     4   9  16  27  43  67  96 121 150 193 237 280
#     4   9  17  29  47  71  96 123 161 205 242 282
#
# _framework density 21.034575
#
# number of rings (size 3 to 8) (size 9 to 14) (size 15 to 20)
#    0.000    2.750    2.500    0.000    1.750    0.500 
#    0.000    0.625    0.000    3.000    0.000    0.000 
#    0.000    0.000    0.000    0.000    0.000    0.000 
#
# Total GULP energy -178612.966248 kJ/mol
# GULP energy per Si atom -5581.655195 kJ/mol
# Density = 2.098670 g / cm^3
# Si number density = 21.034575 Si / 1000 Ang^3
#
#
#
# Elastic Constant Matrix: (Units=GPa)
#
#
# Indices 1 2 3 4 5 6 
#
# 1 151.4677 -1.3289 92.0898 0.0000 -20.4911 0.0000
# 2 -1.3289 64.4949 3.2185 0.0000 2.8604 0.0000
# 3 92.0898 3.2185 184.2776 0.0000 -13.3918 0.0000
# 4 0.0000 0.0000 0.0000 1.7036 0.0000 -1.1416
# 5 -20.4911 2.8604 -13.3918 0.0000 34.0374 0.0000
# 6 0.0000 0.0000 0.0000 -1.1416 0.0000 17.0009
#
#
#
# Elastic Compliance Matrix: (Units=1/GPa)
#
#
# Indices 1 2 3 4 5 6 
#
# 1 0.010035 0.000257 -0.004717 0.000000 0.004164 0.000000
# 2 0.000257 0.015595 -0.000499 0.000000 -0.001352 0.000000
# 3 -0.004717 -0.000499 0.007813 0.000000 0.000276 0.000000
# 4 0.000000 0.000000 0.000000 0.614652 0.000000 0.041273
# 5 0.004164 -0.001352 0.000276 0.000000 0.032109 0.000000
# 6 0.000000 0.000000 0.000000 0.041273 0.000000 0.061592
#
#
# Mechanical properties :
#
#
# Convention : Reuss Voigt Hill
#
# Bulk Modulus (GPa) = 42.50651 65.35545 53.93098
# Shear Modulus (GPa) = 6.58280 30.96576 18.77428
#
# Velocity S-wave (km/s) = 1.77096 3.84101 2.99079
# Velocity P-wave (km/s) = 4.94303 7.12805 6.13362
#
# Compressibility (1/GPa) = 0.02352581
#
# Stress axis : x y z
#
# Youngs Moduli (GPa) = 99.64646 64.12192 127.99830
#
# Poissons Ratio (x) = -0.01651 0.60376
# Poissons Ratio (y) = -0.02566 0.06391
# Poissons Ratio (z) = 0.47003 0.03202
#
# Static dielectric constant tensor:
#      x y z
#    x 1.746650 0.000000 0.021210 
#    y 0.000000 1.829950 0.000000 
#    z 0.021210 0.000000 1.837070 
# 
# From -- ./inp_files/24451.got.cif
#   From: 2010.05.17/outbox.cif.g08.bks.cpg/sg11_13_cif.got.tgz:24451.got - 2010.06.03 12:22:45.
