data_PCOD9164722
_publ_section_title
;
Structure prediction by ZEFSAII (Michael W. Deem and Ramdas Pophale) SiO2 
 PCOD9164722
Probable space group: P 21/M
;
_chemical_formula_sum "Si O2"
_cell_formula_units_Z 28
_cell_length_a 5.396391
_cell_length_b 14.638286
_cell_length_c 17.043954
_cell_angle_alpha 90.000000
_cell_angle_beta 65.114523
_cell_angle_gamma 90.000000
_cell_volume 1221.359273
_symmetry_space_group_name_H-M "P 21/M"
_symmetry_group_IT_number 11
_symmetry_cell_setting 'monoclinic'
loop_
_space_group_symop_operation_xyz
x,y,z
-x,1/2+y,-z
-x,-y,-z
x,1/2-y,z
loop_
_atom_site_type_symbol
_atom_site_label
_atom_site_fract_x
_atom_site_fract_y
_atom_site_fract_z
Si Si1 0.988851 0.860401 0.110745
Si Si2 0.945562 0.151102 0.306791
Si Si3 0.709611 0.988753 0.579565
Si Si4 0.507011 0.648357 0.855152
Si Si5 0.574152 0.353525 0.488592
Si Si6 0.343171 0.994377 0.762424
Si Si7 0.384941 0.359708 0.983601
O O1 0.981320 0.750000 0.118633
O O2 0.854302 0.886751 0.044224
O O3 0.304773 0.891129 0.077414
O O4 0.798333 0.910330 0.199312
O O5 0.821193 0.250000 0.297528
O O6 0.874792 0.144441 0.407910
O O7 0.824174 0.065475 0.277587
O O8 0.256860 0.157447 0.240631
O O9 0.543469 0.073012 0.561027
O O10 0.601692 0.892789 0.560039
O O11 0.640106 0.001829 0.680444
O O12 0.000000 0.000000 0.500000
O O13 0.374833 0.750000 0.882271
O O14 0.334667 0.566442 0.842514
O O15 0.642147 0.622381 0.920147
O O16 0.509594 0.250000 0.519120
O O17 0.392313 0.250000 0.975923
#
# Coordination Sequence:
#
# PCOD9164722 Si02
#       7
#     4   4   4   4   4   4   4
#     4  10  23  43  61  86 123 166 208 257 303 357
#     4   9  19  36  57  86 119 149 189 244 304 365
#     4  10  21  38  58  86 120 152 196 252 303 362
#     4  10  21  36  59  88 117 153 193 245 304 366
#     4   9  19  37  59  83 116 155 194 241 302 366
#     4  11  23  35  60  85 118 153 201 248 306 363
#     4   9  21  41  63  85 122 165 207 255 306 357
#
# _framework density 22.925276
#
# number of rings (size 3 to 8) (size 9 to 14) (size 15 to 20)
#    0.000    2.286    0.000    1.286    4.000    2.857 
#    0.000    0.000    0.000    0.000    0.000    0.000 
#    0.000    0.000    0.000    0.000    0.000    0.000 
#
# Total GULP energy -156154.172459 kJ/mol
# GULP energy per Si atom -5576.934731 kJ/mol
# Density = 2.287310 g / cm^3
# Si number density = 22.925276 Si / 1000 Ang^3
#
#
#
# Elastic Constant Matrix: (Units=GPa)
#
#
# Indices 1 2 3 4 5 6 
#
# 1 41.3264 12.0538 -3.5209 0.0000 -3.7051 0.0000
# 2 12.0538 106.9822 25.8170 0.0000 5.5488 0.0000
# 3 -3.5209 25.8170 74.5488 0.0000 -8.0980 0.0000
# 4 0.0000 0.0000 0.0000 29.5375 0.0000 2.4524
# 5 -3.7051 5.5488 -8.0980 0.0000 33.8120 0.0000
# 6 0.0000 0.0000 0.0000 2.4524 0.0000 15.9295
#
#
#
# Elastic Compliance Matrix: (Units=1/GPa)
#
#
# Indices 1 2 3 4 5 6 
#
# 1 0.025962 -0.003873 0.003024 0.000000 0.004205 0.000000
# 2 -0.003873 0.011003 -0.004349 0.000000 -0.003272 0.000000
# 3 0.003024 -0.004349 0.015582 0.000000 0.004777 0.000000
# 4 0.000000 0.000000 0.000000 0.034294 0.000000 -0.005280
# 5 0.004205 -0.003272 0.004777 0.000000 0.031717 0.000000
# 6 0.000000 0.000000 0.000000 -0.005280 0.000000 0.063590
#
#
# Mechanical properties :
#
#
# Convention : Reuss Voigt Hill
#
# Bulk Modulus (GPa) = 23.72398 32.39524 28.05961
# Shear Modulus (GPa) = 24.20225 28.42296 26.31260
#
# Velocity S-wave (km/s) = 3.25268 3.52491 3.39153
# Velocity P-wave (km/s) = 4.94747 5.54330 5.25384
#
# Compressibility (1/GPa) = 0.04215143
#
# Stress axis : x y z
#
# Youngs Moduli (GPa) = 38.51794 90.88552 64.17763
#
# Poissons Ratio (x) = 0.35200 -0.19409
# Poissons Ratio (y) = 0.14918 0.27909
# Poissons Ratio (z) = -0.11649 0.39523
#
# Static dielectric constant tensor:
#      x y z
#    x 1.971830 0.000000 -0.047480 
#    y 0.000000 1.925410 0.000000 
#    z -0.047480 0.000000 1.896430 
# 
# From -- ./inp_files/7950.got.cif
#   From: 2010.05.17/outbox.cif.g08.bks.cpg/sg11_4_cif.got.tgz:7950.got - 2010.06.03 12:22:45.
