data_PCOD9164442
_publ_section_title
;
Structure prediction by ZEFSAII (Michael W. Deem and Ramdas Pophale) SiO2 
 PCOD9164442
Probable space group: P 21/M
;
_chemical_formula_sum "Si O2"
_cell_formula_units_Z 32
_cell_length_a 21.011619
_cell_length_b 9.282337
_cell_length_c 28.694714
_cell_angle_alpha 90.000000
_cell_angle_beta 159.306377
_cell_angle_gamma 90.000000
_cell_volume 1977.649480
_symmetry_space_group_name_H-M "P 21/M"
_symmetry_group_IT_number 11
_symmetry_cell_setting 'monoclinic'
loop_
_space_group_symop_operation_xyz
x,y,z
-x,1/2+y,-z
-x,-y,-z
x,1/2-y,z
loop_
_atom_site_type_symbol
_atom_site_label
_atom_site_fract_x
_atom_site_fract_y
_atom_site_fract_z
Si Si1 0.952367 0.416205 0.038932
Si Si2 0.929459 0.420054 0.405746
Si Si3 0.389118 0.424198 0.605780
Si Si4 0.971079 0.077577 0.621325
Si Si5 0.352544 0.077780 0.930876
Si Si6 0.493911 0.581337 0.866882
Si Si7 0.401004 0.923519 0.154787
Si Si8 0.260431 0.915922 0.205956
O O1 0.989598 0.250000 0.075295
O O2 0.138198 0.498563 0.158501
O O3 0.803071 0.472665 0.972850
O O4 0.846916 0.419377 0.917009
O O5 0.978015 0.250000 0.438946
O O6 0.712815 0.431313 0.258129
O O7 0.000000 0.500000 0.500000
O O8 0.005265 0.499738 0.412292
O O9 0.366723 0.250000 0.588268
O O10 0.203056 0.507734 0.474032
O O11 0.473965 0.457922 0.714916
O O12 0.539619 0.466770 0.670653
O O13 0.951020 0.250000 0.601795
O O14 0.153193 0.049682 0.775156
O O15 0.384379 0.250000 0.950279
O O16 0.383078 0.034268 0.005417
O O17 0.500000 0.000000 0.000000
O O18 0.527607 0.750000 0.880101
O O19 0.526979 0.492199 0.842943
O O20 0.397835 0.750000 0.149193
O O21 0.271756 0.750000 0.228112
#
# Coordination Sequence:
#
# PCOD9164442 Si02
#       8
#     4   4   4   4   4   4   4   4
#     4   8  14  25  41  64  95 127 158 191 228 274
#     4  11  22  35  51  71  98 128 159 194 238 291
#     4   9  18  32  48  69 102 135 161 194 237 287
#     4  11  22  34  51  73  95 123 162 203 245 290
#     4  10  21  38  55  71  91 119 161 209 249 289
#     4  10  21  35  50  69  93 123 159 200 243 284
#     4   9  18  31  47  70 100 132 161 192 235 287
#     4   8  14  25  42  65  93 128 163 190 225 277
#
# _framework density 16.180824000000001
#
# number of rings (size 3 to 8) (size 9 to 14) (size 15 to 20)
#    0.000    2.500    1.250    3.000    0.000    5.500 
#    0.000    2.500    0.000    0.000    0.000    0.875 
#    0.000    0.000    0.000    0.000    0.000    0.000 
#
# Total GULP energy -178364.366945 kJ/mol
# GULP energy per Si atom -5573.886467 kJ/mol
# Density = 1.614400 g / cm^3
# Si number density = 16.180824 Si / 1000 Ang^3
#
#
#
# Elastic Constant Matrix: (Units=GPa)
#
#
# Indices 1 2 3 4 5 6 
#
# 1 19.4235 17.2394 26.0114 0.0000 17.5414 0.0000
# 2 17.2394 44.3963 44.9002 0.0000 13.0493 0.0000
# 3 26.0114 44.9002 94.4115 0.0000 18.0647 0.0000
# 4 0.0000 0.0000 0.0000 25.0162 0.0000 7.8546
# 5 17.5414 13.0493 18.0647 0.0000 31.7665 0.0000
# 6 0.0000 0.0000 0.0000 7.8546 0.0000 26.5709
#
#
#
# Elastic Compliance Matrix: (Units=1/GPa)
#
#
# Indices 1 2 3 4 5 6 
#
# 1 0.158556 -0.020513 -0.021082 0.000000 -0.067139 0.000000
# 2 -0.020513 0.047415 -0.017212 0.000000 0.001637 0.000000
# 3 -0.021082 -0.017212 0.023570 0.000000 0.005308 0.000000
# 4 0.000000 0.000000 0.000000 0.044064 0.000000 -0.013026
# 5 -0.067139 0.001637 0.005308 0.000000 0.064863 0.000000
# 6 0.000000 0.000000 0.000000 -0.013026 0.000000 0.041486
#
#
# Mechanical properties :
#
#
# Convention : Reuss Voigt Hill
#
# Bulk Modulus (GPa) = 8.93428 37.17036 23.05232
# Shear Modulus (GPa) = 9.34797 21.34276 15.34536
#
# Velocity S-wave (km/s) = 2.40619 3.63577 3.08290
# Velocity P-wave (km/s) = 3.64049 6.37548 5.19134
#
# Compressibility (1/GPa) = 0.11192841
#
# Stress axis : x y z
#
# Youngs Moduli (GPa) = 6.30693 21.09022 42.42679
#
# Poissons Ratio (x) = 0.43262 0.89443
# Poissons Ratio (y) = 0.12937 0.73023
# Poissons Ratio (z) = 0.13296 0.36299
#
# Static dielectric constant tensor:
#      x y z
#    x 1.526080 0.000000 0.014560 
#    y 0.000000 1.541060 0.000000 
#    z 0.014560 0.000000 1.552870 
# 
# From -- ./inp_files/40697.got.cif
#   From: 2010.05.17/outbox.cif.g08.bks.cpg/sg11_21_cif.got.tgz:40697.got - 2010.06.03 12:22:45.
