data_PCOD9164659
_publ_section_title
;
Structure prediction by ZEFSAII (Michael W. Deem and Ramdas Pophale) SiO2 
 PCOD9164659
Probable space group: P 21/M
;
_chemical_formula_sum "Si O2"
_cell_formula_units_Z 28
_cell_length_a 9.633973
_cell_length_b 8.887490
_cell_length_c 26.031616
_cell_angle_alpha 90.000000
_cell_angle_beta 40.237075
_cell_angle_gamma 90.000000
_cell_volume 1439.745684
_symmetry_space_group_name_H-M "P 21/M"
_symmetry_group_IT_number 11
_symmetry_cell_setting 'monoclinic'
loop_
_space_group_symop_operation_xyz
x,y,z
-x,1/2+y,-z
-x,-y,-z
x,1/2-y,z
loop_
_atom_site_type_symbol
_atom_site_label
_atom_site_fract_x
_atom_site_fract_y
_atom_site_fract_z
Si Si1 0.290937 0.574556 0.182185
Si Si2 0.720023 0.571214 0.418589
Si Si3 0.840734 0.928341 0.266447
Si Si4 0.597121 0.429643 0.240411
Si Si5 0.653126 0.572634 0.999065
Si Si6 0.062212 0.071013 0.927793
Si Si7 0.154996 0.072494 0.324633
O O1 0.262038 0.750000 0.206550
O O2 0.517597 0.560403 0.090288
O O3 0.254365 0.468878 0.240899
O O4 0.096893 0.542886 0.197044
O O5 0.500000 0.500000 0.500000
O O6 0.710863 0.750000 0.426020
O O7 0.758588 0.536431 0.347263
O O8 0.927615 0.510849 0.390599
O O9 0.810967 0.750000 0.265183
O O10 0.715617 0.018920 0.258602
O O11 0.613227 0.250000 0.229631
O O12 0.719692 0.508444 0.158469
O O13 0.344567 0.470755 0.310369
O O14 0.691507 0.750000 0.978442
O O15 0.500000 0.500000 0.000000
O O16 0.872738 0.482555 0.943221
O O17 0.071188 0.250000 0.929470
O O18 0.000000 0.000000 0.000000
O O19 0.116998 0.250000 0.339029
#
# Coordination Sequence:
#
# PCOD9164659 Si02
#       7
#     4   4   4   4   4   4   4
#     4   9  19  35  54  77 105 141 187 233 280 335
#     4  10  21  39  64  91 118 147 183 224 272 332
#     4   9  19  36  58  85 115 148 185 229 281 336
#     4  11  23  38  57  84 115 149 193 239 284 341
#     4  11  22  36  55  80 110 146 190 241 294 345
#     4  12  25  40  57  79 112 154 199 248 299 349
#     4  10  21  36  57  84 112 143 182 226 273 330
#
# _framework density 19.447880000000001
#
# number of rings (size 3 to 8) (size 9 to 14) (size 15 to 20)
#    0.000    1.714    0.000    5.571    0.000    9.714 
#    0.000    0.714    0.000    0.000    0.000    0.000 
#    0.000    0.000    0.000    0.000    0.000    0.000 
#
# Total GULP energy -156491.301942 kJ/mol
# GULP energy per Si atom -5588.975069 kJ/mol
# Density = 1.940362 g / cm^3
# Si number density = 19.447880 Si / 1000 Ang^3
#
#
#
# Elastic Constant Matrix: (Units=GPa)
#
#
# Indices 1 2 3 4 5 6 
#
# 1 91.4334 37.4471 25.8729 0.0000 -23.7948 0.0000
# 2 37.4471 79.5285 41.0231 0.0000 -13.1352 0.0000
# 3 25.8729 41.0231 88.1886 0.0000 -29.3417 0.0000
# 4 0.0000 0.0000 0.0000 31.9485 0.0000 -0.2800
# 5 -23.7948 -13.1352 -29.3417 0.0000 26.7913 0.0000
# 6 0.0000 0.0000 0.0000 -0.2800 0.0000 34.2250
#
#
#
# Elastic Compliance Matrix: (Units=1/GPa)
#
#
# Indices 1 2 3 4 5 6 
#
# 1 0.016885 -0.007228 0.003491 0.000000 0.015276 0.000000
# 2 -0.007228 0.019642 -0.009358 0.000000 -0.007039 0.000000
# 3 0.003491 -0.009358 0.022299 0.000000 0.022934 0.000000
# 4 0.000000 0.000000 0.000000 0.031303 0.000000 0.000256
# 5 0.015276 -0.007039 0.022934 0.000000 0.072560 0.000000
# 6 0.000000 0.000000 0.000000 0.000256 0.000000 0.029220
#
#
# Mechanical properties :
#
#
# Convention : Reuss Voigt Hill
#
# Bulk Modulus (GPa) = 30.64160 51.98184 41.31172
# Shear Modulus (GPa) = 21.83609 28.91345 25.37477
#
# Velocity S-wave (km/s) = 3.35446 3.85998 3.61606
# Velocity P-wave (km/s) = 5.54916 6.83028 6.22277
#
# Compressibility (1/GPa) = 0.03263537
#
# Stress axis : x y z
#
# Youngs Moduli (GPa) = 59.22446 50.91004 44.84515
#
# Poissons Ratio (x) = 0.36800 -0.15657
# Poissons Ratio (y) = 0.42810 0.41968
# Poissons Ratio (z) = -0.20677 0.47644
#
# Static dielectric constant tensor:
#      x y z
#    x 1.727040 0.000000 -0.014920 
#    y 0.000000 1.647580 0.000000 
#    z -0.014920 0.000000 1.673650 
# 
# From -- ./inp_files/28341.got.cif
#   From: 2010.05.17/outbox.cif.g08.bks.cpg/sg11_15_cif.got.tgz:28341.got - 2010.06.03 12:22:45.
