data_PCOD9164452
_publ_section_title
;
Structure prediction by ZEFSAII (Michael W. Deem and Ramdas Pophale) SiO2 
 PCOD9164452
Probable space group: P 21/M
;
_chemical_formula_sum "Si O2"
_cell_formula_units_Z 28
_cell_length_a 25.404827
_cell_length_b 7.429526
_cell_length_c 8.336667
_cell_angle_alpha 90.000000
_cell_angle_beta 44.304168
_cell_angle_gamma 90.000000
_cell_volume 1099.046104
_symmetry_space_group_name_H-M "P 21/M"
_symmetry_group_IT_number 11
_symmetry_cell_setting 'monoclinic'
loop_
_space_group_symop_operation_xyz
x,y,z
-x,1/2+y,-z
-x,-y,-z
x,1/2-y,z
loop_
_atom_site_type_symbol
_atom_site_label
_atom_site_fract_x
_atom_site_fract_y
_atom_site_fract_z
Si Si1 0.183596 0.036991 0.424496
Si Si2 0.109367 0.966729 0.928260
Si Si3 0.963534 0.965092 0.407659
Si Si4 0.473868 0.454085 0.788243
Si Si5 0.748014 0.466616 0.208553
Si Si6 0.607555 0.469214 0.703918
Si Si7 0.330572 0.038620 0.955570
O O1 0.191791 0.250000 0.377208
O O2 0.120248 0.963168 0.440191
O O3 0.267152 0.961291 0.214675
O O4 0.146583 0.013313 0.678368
O O5 0.106460 0.750000 0.943066
O O6 0.167962 0.030916 0.937059
O O7 0.025230 0.033923 0.144883
O O8 0.958046 0.750000 0.400084
O O9 0.000000 0.000000 0.500000
O O10 0.491778 0.250000 0.701509
O O11 0.424265 0.456830 0.060947
O O12 0.415029 0.537992 0.790659
O O13 0.552407 0.533467 0.679785
O O14 0.749571 0.250000 0.203363
O O15 0.691915 0.521386 0.474537
O O16 0.709045 0.522858 0.129405
O O17 0.602653 0.250000 0.722978
O O18 0.341561 0.250000 0.965473
#
# Coordination Sequence:
#
# PCOD9164452 Si02
#       7
#     4   4   4   4   4   4   4
#     4  10  21  36  54  77 103 132 169 209 248 295
#     4  10  21  36  54  77 103 132 169 209 248 295
#     4  10  21  36  54  78 106 134 167 206 248 296
#     4   9  18  33  52  74 100 130 166 207 249 296
#     4  10  21  35  51  74 103 133 167 207 250 297
#     4   9  18  33  52  74 100 130 166 207 249 296
#     4  10  21  35  51  74 103 133 167 207 250 297
#
# _framework density 25.476637
#
# number of rings (size 3 to 8) (size 9 to 14) (size 15 to 20)
#    0.000    2.286    0.000    2.143    0.000    4.000 
#    0.000    0.000    0.000    0.000    0.000    0.000 
#    0.000    0.000    0.000    0.000    0.000    0.000 
#
# Total GULP energy -156555.575713 kJ/mol
# GULP energy per Si atom -5591.270561 kJ/mol
# Density = 2.541865 g / cm^3
# Si number density = 25.476637 Si / 1000 Ang^3
#
#
#
# Elastic Constant Matrix: (Units=GPa)
#
#
# Indices 1 2 3 4 5 6 
#
# 1 111.1808 1.9672 -11.7598 0.0000 -10.3961 0.0000
# 2 1.9672 93.7163 6.1024 0.0000 -15.0659 0.0000
# 3 -11.7598 6.1024 61.9159 0.0000 -3.7291 0.0000
# 4 0.0000 0.0000 0.0000 17.4473 0.0000 10.2952
# 5 -10.3961 -15.0659 -3.7291 0.0000 45.0646 0.0000
# 6 0.0000 0.0000 0.0000 10.2952 0.0000 19.0069
#
#
#
# Elastic Compliance Matrix: (Units=1/GPa)
#
#
# Indices 1 2 3 4 5 6 
#
# 1 0.009417 0.000055 0.001925 0.000000 0.002350 0.000000
# 2 0.000055 0.011326 -0.000881 0.000000 0.003726 0.000000
# 3 0.001925 -0.000881 0.016696 0.000000 0.001531 0.000000
# 4 0.000000 0.000000 0.000000 0.084240 0.000000 -0.045629
# 5 0.002350 0.003726 0.001531 0.000000 0.024105 0.000000
# 6 0.000000 0.000000 0.000000 -0.045629 0.000000 0.077327
#
#
# Mechanical properties :
#
#
# Convention : Reuss Voigt Hill
#
# Bulk Modulus (GPa) = 25.23083 28.82586 27.02834
# Shear Modulus (GPa) = 21.35607 34.33730 27.84668
#
# Velocity S-wave (km/s) = 2.89841 3.67522 3.30968
# Velocity P-wave (km/s) = 4.59631 5.41745 5.02369
#
# Compressibility (1/GPa) = 0.03963406
#
# Stress axis : x y z
#
# Youngs Moduli (GPa) = 106.19432 88.29427 59.89612
#
# Poissons Ratio (x) = -0.00484 -0.11528
# Poissons Ratio (y) = -0.00582 0.05279
# Poissons Ratio (z) = -0.20439 0.07783
#
# Static dielectric constant tensor:
#      x y z
#    x 2.095100 0.000000 -0.055680 
#    y 0.000000 1.969330 0.000000 
#    z -0.055680 0.000000 2.046940 
# 
# From -- ./inp_files/28366.got.cif
#   From: 2010.05.17/outbox.cif.g08.bks.cpg/sg11_15_cif.got.tgz:28366.got - 2010.06.03 12:22:45.
