data_PCOD9164336
_publ_section_title
;
Structure prediction by ZEFSAII (Michael W. Deem and Ramdas Pophale) SiO2 
 PCOD9164336
Probable space group: P 21/M
;
_chemical_formula_sum "Si O2"
_cell_formula_units_Z 26
_cell_length_a 8.125514
_cell_length_b 19.066006
_cell_length_c 7.515099
_cell_angle_alpha 90.000000
_cell_angle_beta 120.521436
_cell_angle_gamma 90.000000
_cell_volume 1002.928361
_symmetry_space_group_name_H-M "P 21/M"
_symmetry_group_IT_number 11
_symmetry_cell_setting 'monoclinic'
loop_
_space_group_symop_operation_xyz
x,y,z
-x,1/2+y,-z
-x,-y,-z
x,1/2-y,z
loop_
_atom_site_type_symbol
_atom_site_label
_atom_site_fract_x
_atom_site_fract_y
_atom_site_fract_z
Si Si1 0.971235 0.133361 0.256557
Si Si2 0.273568 0.990584 0.856838
Si Si3 0.693058 0.250000 0.451782
Si Si4 0.504790 0.250000 0.974789
Si Si5 0.846977 0.250000 0.914766
Si Si6 0.724517 0.632903 0.317092
Si Si7 0.227542 0.014859 0.226339
Si Si8 0.562920 0.396068 0.520292
O O1 0.094249 0.167701 0.482985
O O2 0.113964 0.073387 0.267136
O O3 0.931389 0.183190 0.067040
O O4 0.789260 0.088586 0.224852
O O5 0.207514 0.055744 0.703329
O O6 0.179011 0.004189 0.996561
O O7 0.500000 0.000000 0.000000
O O8 0.625991 0.250000 0.857814
O O9 0.588452 0.322308 0.442132
O O10 0.853692 0.250000 0.702909
O O11 0.366651 0.181952 0.886136
O O12 0.666705 0.250000 0.219892
O O13 0.551505 0.618167 0.359804
O O14 0.439754 0.049428 0.338977
O O15 0.246584 0.939141 0.328253
#
# Coordination Sequence:
#
# PCOD9164336 Si02
#       8
#     4   4   2   2   2   4   4   4
#     4  11  26  45  73 105 153 198 236 315 370 445
#     4  12  22  40  68 109 147 195 246 298 370 440
#     4  12  24  43  76 106 138 192 256 306 365 444
#     4  12  25  47  77 105 142 197 258 299 370 456
#     4  12  25  50  71 105 150 195 248 301 385 438
#     4  11  22  44  71 104 145 193 239 306 371 429
#     4  10  22  41  68 104 144 191 247 302 370 440
#     4  10  20  41  70 102 136 194 240 305 372 436
#
# _framework density 25.924085999999999
#
# number of rings (size 3 to 8) (size 9 to 14) (size 15 to 20)
#    0.000    0.923    3.077    4.154    0.000    1.846 
#    5.538    0.769    0.000    0.000    0.000    0.000 
#    0.000    0.000    0.000    0.000    0.000    0.000 
#
# Total GULP energy -145357.260689 kJ/mol
# GULP energy per Si atom -5590.663873 kJ/mol
# Density = 2.586508 g / cm^3
# Si number density = 25.924086 Si / 1000 Ang^3
#
#
#
# Elastic Constant Matrix: (Units=GPa)
#
#
# Indices 1 2 3 4 5 6 
#
# 1 56.3081 15.4012 15.4781 0.0000 -6.6998 0.0000
# 2 15.4012 150.0971 53.3694 0.0000 -2.6142 0.0000
# 3 15.4781 53.3694 160.3752 0.0000 -4.2089 0.0000
# 4 0.0000 0.0000 0.0000 51.1875 0.0000 -12.7594
# 5 -6.6998 -2.6142 -4.2089 0.0000 43.3845 0.0000
# 6 0.0000 0.0000 0.0000 -12.7594 0.0000 -3.6353
#
#
#
# Elastic Compliance Matrix: (Units=1/GPa)
#
#
# Indices 1 2 3 4 5 6 
#
# 1 0.018821 -0.001433 -0.001269 0.000000 0.002697 0.000000
# 2 -0.001433 0.007668 -0.002413 0.000000 0.000007 0.000000
# 3 -0.001269 -0.002413 0.007170 0.000000 0.000354 0.000000
# 4 0.000000 0.000000 0.000000 0.010420 0.000000 -0.036572
# 5 0.002697 0.000007 0.000354 0.000000 0.023501 0.000000
# 6 0.000000 0.000000 0.000000 -0.036572 0.000000 -0.146719
#
#
# Mechanical properties :
#
#
# Convention : Reuss Voigt Hill
#
# Bulk Modulus (GPa) = 42.68247 59.47532 51.07889
# Shear Modulus (GPa) = -81.83347 37.02280 -22.40533
#
# Velocity S-wave (km/s) = -5.62451 3.78315 -2.94303
# Velocity P-wave (km/s) = 5.06754 6.48652 2.86312
#
# Compressibility (1/GPa) = 0.02342882
#
# Stress axis : x y z
#
# Youngs Moduli (GPa) = 53.13195 130.41995 139.46696
#
# Poissons Ratio (x) = 0.18690 0.17695
# Poissons Ratio (y) = 0.07614 0.33655
# Poissons Ratio (z) = 0.06741 0.31472
#
# Static dielectric constant tensor:
#      x y z
#    x 2.088520 0.000000 0.085140 
#    y 0.000000 2.003110 0.000000 
#    z 0.085140 0.000000 2.176860 
# 
# From -- ./inp_files/14096.got.cif
#   From: 2010.05.17/outbox.cif.g08.bks.cpg/sg11_8_cif.got.tgz:14096.got - 2010.06.03 12:22:45.
