data_PCOD9164017
_publ_section_title
;
Structure prediction by ZEFSAII (Michael W. Deem and Ramdas Pophale) SiO2 
 PCOD9164017
Probable space group: P 21/M
;
_chemical_formula_sum "Si O2"
_cell_formula_units_Z 26
_cell_length_a 8.901390
_cell_length_b 19.728650
_cell_length_c 7.053060
_cell_angle_alpha 90.000000
_cell_angle_beta 51.024537
_cell_angle_gamma 90.000000
_cell_volume 962.910481
_symmetry_space_group_name_H-M "P 21/M"
_symmetry_group_IT_number 11
_symmetry_cell_setting 'monoclinic'
loop_
_space_group_symop_operation_xyz
x,y,z
-x,1/2+y,-z
-x,-y,-z
x,1/2-y,z
loop_
_atom_site_type_symbol
_atom_site_label
_atom_site_fract_x
_atom_site_fract_y
_atom_site_fract_z
Si Si1 0.263312 0.099797 0.345971
Si Si2 0.839805 0.401116 0.635297
Si Si3 0.152464 0.750000 0.513185
Si Si4 0.501652 0.514042 0.254588
Si Si5 0.290999 0.250000 0.186541
Si Si6 0.458460 0.250000 0.665595
Si Si7 0.211423 0.117782 0.823844
Si Si8 0.847913 0.060483 0.071847
O O1 0.307390 0.178828 0.281212
O O2 0.227541 0.088359 0.598450
O O3 0.061422 0.082279 0.408155
O O4 0.430958 0.047200 0.170445
O O5 0.820478 0.320221 0.624820
O O6 0.691999 0.440023 0.618000
O O7 0.823446 0.423328 0.867792
O O8 0.313121 0.750000 0.553155
O O9 0.922538 0.750000 0.739880
O O10 0.668312 0.572121 0.124792
O O11 0.630314 0.463422 0.298270
O O12 0.450241 0.250000 0.899840
O O13 0.333508 0.185762 0.709155
O O14 0.980850 0.121982 0.047053
O O15 0.000000 0.000000 0.000000
#
# Coordination Sequence:
#
# PCOD9164017 Si02
#       8
#     4   4   2   4   2   2   4   4
#     4  10  22  40  62  91 132 163 213 271 324 388
#     4  10  20  38  63  90 127 171 212 272 328 376
#     4  10  22  42  64  96 126 166 218 280 316 392
#     4  11  20  36  63  97 122 171 216 260 319 399
#     4  10  25  43  62 101 123 166 226 271 319 393
#     4  12  23  43  72  89 131 172 222 269 331 387
#     4  10  22  42  62  92 129 176 206 269 333 383
#     4   9  21  36  55  88 129 162 211 261 318 385
#
# _framework density 27.001469
#
# number of rings (size 3 to 8) (size 9 to 14) (size 15 to 20)
#    0.000    1.846    1.538    1.846    2.154    4.308 
#    2.769    5.385    0.000    0.000    0.000    0.000 
#    0.000    0.000    0.000    0.000    0.000    0.000 
#
# Total GULP energy -145032.131723 kJ/mol
# GULP energy per Si atom -5578.158912 kJ/mol
# Density = 2.694001 g / cm^3
# Si number density = 27.001469 Si / 1000 Ang^3
#
#
#
# Elastic Constant Matrix: (Units=GPa)
#
#
# Indices 1 2 3 4 5 6 
#
# 1 248.5038 95.9778 61.7921 0.0000 -48.1067 0.0000
# 2 95.9778 170.4358 20.7055 0.0000 -26.2561 0.0000
# 3 61.7921 20.7055 125.4353 0.0000 -30.8730 0.0000
# 4 0.0000 0.0000 0.0000 39.3215 0.0000 9.1489
# 5 -48.1067 -26.2561 -30.8730 0.0000 67.9592 0.0000
# 6 0.0000 0.0000 0.0000 9.1489 0.0000 89.1689
#
#
#
# Elastic Compliance Matrix: (Units=1/GPa)
#
#
# Indices 1 2 3 4 5 6 
#
# 1 0.006039 -0.002809 -0.001943 0.000000 0.002307 0.000000
# 2 -0.002809 0.007573 0.000410 0.000000 0.001123 0.000000
# 3 -0.001943 0.000410 0.009640 0.000000 0.003162 0.000000
# 4 0.000000 0.000000 0.000000 0.026053 0.000000 -0.002673
# 5 0.002307 0.001123 0.003162 0.000000 0.018218 0.000000
# 6 0.000000 0.000000 0.000000 -0.002673 0.000000 0.011489
#
#
# Mechanical properties :
#
#
# Convention : Reuss Voigt Hill
#
# Bulk Modulus (GPa) = 68.64826 100.14730 84.39778
# Shear Modulus (GPa) = 54.02368 63.68322 58.85345
#
# Velocity S-wave (km/s) = 4.47785 4.86172 4.67372
# Velocity P-wave (km/s) = 7.22592 8.28765 7.77493
#
# Compressibility (1/GPa) = 0.01456701
#
# Stress axis : x y z
#
# Youngs Moduli (GPa) = 165.59491 132.05678 103.73240
#
# Poissons Ratio (x) = 0.37098 0.20160
# Poissons Ratio (y) = 0.46520 -0.04257
# Poissons Ratio (z) = 0.32183 -0.05420
#
# Static dielectric constant tensor:
#      x y z
#    x 2.246920 0.000000 0.373140 
#    y 0.000000 2.177620 0.000000 
#    z 0.373140 0.000000 2.962740 
# 
# From -- ./inp_files/14274.got.cif
#   From: 2010.05.17/outbox.cif.g08.bks.cpg/sg11_8_cif.got.tgz:14274.got - 2010.06.03 12:22:45.
