data_PCOD9164569
_publ_section_title
;
Structure prediction by ZEFSAII (Michael W. Deem and Ramdas Pophale) SiO2 
 PCOD9164569
Probable space group: P 21/M
;
_chemical_formula_sum "Si O2"
_cell_formula_units_Z 24
_cell_length_a 7.096158
_cell_length_b 7.397993
_cell_length_c 18.151912
_cell_angle_alpha 90.000000
_cell_angle_beta 92.940971
_cell_angle_gamma 90.000000
_cell_volume 951.671787
_symmetry_space_group_name_H-M "P 21/M"
_symmetry_group_IT_number 11
_symmetry_cell_setting 'monoclinic'
loop_
_space_group_symop_operation_xyz
x,y,z
-x,1/2+y,-z
-x,-y,-z
x,1/2-y,z
loop_
_atom_site_type_symbol
_atom_site_label
_atom_site_fract_x
_atom_site_fract_y
_atom_site_fract_z
Si Si1 0.648189 0.972518 0.788777
Si Si2 0.867409 0.532865 0.326533
Si Si3 0.401812 0.533772 0.920759
Si Si4 0.688767 0.961352 0.632337
Si Si5 0.223054 0.033991 0.519984
Si Si6 0.063966 0.958867 0.832338
O O1 0.646797 0.750000 0.785450
O O2 0.524071 0.032442 0.854488
O O3 0.597887 0.036898 0.705290
O O4 0.859841 0.037109 0.811857
O O5 0.862911 0.750000 0.325222
O O6 0.748883 0.468371 0.395601
O O7 0.824174 0.465563 0.243551
O O8 0.085035 0.474633 0.346236
O O9 0.391906 0.750000 0.913249
O O10 0.191305 0.463835 0.900145
O O11 0.500000 0.500000 0.000000
O O12 0.643251 0.750000 0.626688
O O13 0.668382 0.040834 0.549718
O O14 0.247856 0.250000 0.521190
O O15 0.000000 0.000000 0.500000
O O16 0.027483 0.750000 0.849268
#
# Coordination Sequence:
#
# PCOD9164569 Si02
#       6
#     4   4   4   4   4   4
#     4   8  15  30  51  71  92 121 156 189 221 267
#     4   9  15  23  39  66  96 123 155 194 230 263
#     4  10  21  36  53  73  94 117 149 189 233 281
#     4   8  13  24  42  63  91 127 160 188 223 268
#     4   8  13  20  34  60  91 122 156 190 223 261
#     4   9  18  33  51  69  92 124 157 186 223 275
#
# _framework density 25.218776999999999
#
# number of rings (size 3 to 8) (size 9 to 14) (size 15 to 20)
#    0.000    3.333    0.000    1.500    0.000    2.000 
#    0.000    3.333    0.000    1.000    0.000    0.000 
#    0.000    0.000    0.000    0.000    0.000    1.833 
#
# Total GULP energy -133999.962796 kJ/mol
# GULP energy per Si atom -5583.331783 kJ/mol
# Density = 2.516138 g / cm^3
# Si number density = 25.218777 Si / 1000 Ang^3
#
#
#
# Elastic Constant Matrix: (Units=GPa)
#
#
# Indices 1 2 3 4 5 6 
#
# 1 71.9350 4.7754 51.1983 0.0000 20.4346 0.0000
# 2 4.7754 107.4292 -13.6909 0.0000 0.6222 0.0000
# 3 51.1983 -13.6909 116.8048 0.0000 28.0434 0.0000
# 4 0.0000 0.0000 0.0000 19.8767 0.0000 0.1043
# 5 20.4346 0.6222 28.0434 0.0000 47.4931 0.0000
# 6 0.0000 0.0000 0.0000 0.1043 0.0000 4.4325
#
#
#
# Elastic Compliance Matrix: (Units=1/GPa)
#
#
# Indices 1 2 3 4 5 6 
#
# 1 0.021313 -0.002020 -0.008603 0.000000 -0.004064 0.000000
# 2 -0.002020 0.009675 0.002145 0.000000 -0.000524 0.000000
# 3 -0.008603 0.002145 0.013635 0.000000 -0.004377 0.000000
# 4 0.000000 0.000000 0.000000 0.050316 0.000000 -0.001184
# 5 -0.004064 -0.000524 -0.004377 0.000000 0.025396 0.000000
# 6 0.000000 0.000000 0.000000 -0.001184 0.000000 0.225634
#
#
# Mechanical properties :
#
#
# Convention : Reuss Voigt Hill
#
# Bulk Modulus (GPa) = 36.14485 42.30384 39.22435
# Shear Modulus (GPa) = 13.43554 31.28621 22.36087
#
# Velocity S-wave (km/s) = 2.31066 3.52602 2.98094
# Velocity P-wave (km/s) = 4.63492 5.77826 5.23788
#
# Compressibility (1/GPa) = 0.02766646
#
# Stress axis : x y z
#
# Youngs Moduli (GPa) = 46.91947 103.36226 73.34239
#
# Poissons Ratio (x) = 0.20882 0.63098
# Poissons Ratio (y) = 0.09479 -0.15735
# Poissons Ratio (z) = 0.40366 -0.22175
#
# Static dielectric constant tensor:
#      x y z
#    x 2.077280 0.000000 0.006420 
#    y 0.000000 1.977880 0.000000 
#    z 0.006420 0.000000 2.012810 
# 
# From -- ./inp_files/25515.got.cif
#   From: 2010.05.17/outbox.cif.g08.bks.cpg/sg11_13_cif.got.tgz:25515.got - 2010.06.03 12:22:45.
