data_PCOD9164578
_publ_section_title
;
Structure prediction by ZEFSAII (Michael W. Deem and Ramdas Pophale) SiO2 
 PCOD9164578
Probable space group: P 21/M
;
_chemical_formula_sum "Si O2"
_cell_formula_units_Z 28
_cell_length_a 28.494028
_cell_length_b 9.998839
_cell_length_c 10.397618
_cell_angle_alpha 90.000000
_cell_angle_beta 30.285451
_cell_angle_gamma 90.000000
_cell_volume 1493.941026
_symmetry_space_group_name_H-M "P 21/M"
_symmetry_group_IT_number 11
_symmetry_cell_setting 'monoclinic'
loop_
_space_group_symop_operation_xyz
x,y,z
-x,1/2+y,-z
-x,-y,-z
x,1/2-y,z
loop_
_atom_site_type_symbol
_atom_site_label
_atom_site_fract_x
_atom_site_fract_y
_atom_site_fract_z
Si Si1 0.584349 0.093615 0.457258
Si Si2 0.183605 0.092700 0.471548
Si Si3 0.124890 0.596836 0.117319
Si Si4 0.627129 0.595121 0.127971
Si Si5 0.212065 0.907925 0.637766
Si Si6 0.096599 0.403033 0.408742
Si Si7 0.583389 0.407277 0.756075
O O1 0.604536 0.250000 0.385522
O O2 0.473034 0.073679 0.701610
O O3 0.607324 0.062973 0.550387
O O4 0.632540 0.001313 0.237558
O O5 0.170980 0.250000 0.532804
O O6 0.119157 0.058932 0.501779
O O7 0.170105 0.998767 0.625515
O O8 0.288437 0.074131 0.169572
O O9 0.153223 0.750000 0.078909
O O10 0.142031 0.500544 0.196853
O O11 0.013981 0.595648 0.353331
O O12 0.173174 0.555700 0.870421
O O13 0.630406 0.750000 0.162215
O O14 0.192241 0.750000 0.664672
O O15 0.323494 0.925484 0.381238
O O16 0.129980 0.250000 0.312908
O O17 0.556837 0.250000 0.823852
O O18 0.500000 0.500000 0.000000
#
# Coordination Sequence:
#
# PCOD9164578 Si02
#       7
#     4   4   4   4   4   4   4
#     4   9  18  32  50  71  97 133 174 218 264 311
#     4  10  21  36  54  79 110 144 180 224 272 321
#     4   9  19  37  58  82 112 143 179 224 272 325
#     4   9  18  32  49  72 102 132 170 217 265 313
#     4  10  22  37  54  80 112 145 184 226 270 324
#     4   9  19  36  58  83 111 143 180 224 272 325
#     4  10  21  36  53  75 105 142 182 223 269 320
#
# _framework density 18.742373000000001
#
# number of rings (size 3 to 8) (size 9 to 14) (size 15 to 20)
#    0.000    2.571    0.000    0.857    2.000    4.571 
#    0.000    2.857    0.000    0.000    0.000    0.000 
#    0.000    0.000    0.000    0.000    0.000    0.000 
#
# Total GULP energy -156293.805830 kJ/mol
# GULP energy per Si atom -5581.921637 kJ/mol
# Density = 1.869971 g / cm^3
# Si number density = 18.742373 Si / 1000 Ang^3
#
#
#
# Elastic Constant Matrix: (Units=GPa)
#
#
# Indices 1 2 3 4 5 6 
#
# 1 96.0666 53.2509 13.5533 0.0000 25.0295 0.0000
# 2 53.2509 64.9938 34.4296 0.0000 28.4641 0.0000
# 3 13.5533 34.4296 42.2752 0.0000 17.1806 0.0000
# 4 0.0000 0.0000 0.0000 26.3065 0.0000 14.3206
# 5 25.0295 28.4641 17.1806 0.0000 26.6798 0.0000
# 6 0.0000 0.0000 0.0000 14.3206 0.0000 29.7098
#
#
#
# Elastic Compliance Matrix: (Units=1/GPa)
#
#
# Indices 1 2 3 4 5 6 
#
# 1 0.023330 -0.024703 0.014659 0.000000 -0.004972 0.000000
# 2 -0.024703 0.064149 -0.035120 0.000000 -0.022649 0.000000
# 3 0.014659 -0.035120 0.051360 0.000000 -0.009357 0.000000
# 4 0.000000 0.000000 0.000000 0.051536 0.000000 -0.024841
# 5 -0.004972 -0.022649 -0.009357 0.000000 0.072335 0.000000
# 6 0.000000 0.000000 0.000000 -0.024841 0.000000 0.045633
#
#
# Mechanical properties :
#
#
# Convention : Reuss Voigt Hill
#
# Bulk Modulus (GPa) = 20.61350 45.08924 32.85137
# Shear Modulus (GPa) = 12.05284 23.34602 17.69943
#
# Velocity S-wave (km/s) = 2.53865 3.53317 3.07637
# Velocity P-wave (km/s) = 4.42891 6.38389 5.49405
#
# Compressibility (1/GPa) = 0.04851191
#
# Stress axis : x y z
#
# Youngs Moduli (GPa) = 42.86383 15.58871 19.47047
#
# Poissons Ratio (x) = 0.38509 -0.28543
# Poissons Ratio (y) = 1.05886 0.68380
# Poissons Ratio (z) = -0.62836 0.54747
#
# Static dielectric constant tensor:
#      x y z
#    x 1.659050 0.000000 -0.031530 
#    y 0.000000 1.629620 0.000000 
#    z -0.031530 0.000000 1.634400 
# 
# From -- ./inp_files/21293.got.cif
#   From: 2010.05.17/outbox.cif.g08.bks.cpg/sg11_11_cif.got.tgz:21293.got - 2010.06.03 12:22:45.
