data_PCOD9164905
_publ_section_title
;
Structure prediction by ZEFSAII (Michael W. Deem and Ramdas Pophale) SiO2 
 PCOD9164905
Probable space group: P 21/M
;
_chemical_formula_sum "Si O2"
_cell_formula_units_Z 32
_cell_length_a 22.908821
_cell_length_b 8.350206
_cell_length_c 14.858495
_cell_angle_alpha 90.000000
_cell_angle_beta 147.974205
_cell_angle_gamma 90.000000
_cell_volume 1507.291340
_symmetry_space_group_name_H-M "P 21/M"
_symmetry_group_IT_number 11
_symmetry_cell_setting 'monoclinic'
loop_
_space_group_symop_operation_xyz
x,y,z
-x,1/2+y,-z
-x,-y,-z
x,1/2-y,z
loop_
_atom_site_type_symbol
_atom_site_label
_atom_site_fract_x
_atom_site_fract_y
_atom_site_fract_z
Si Si1 0.401198 0.058377 0.237460
Si Si2 0.793198 0.056509 0.373745
Si Si3 0.261936 0.940731 0.902147
Si Si4 0.741961 0.941138 0.493721
Si Si5 0.030485 0.057920 0.640126
Si Si6 0.209669 0.438312 0.116807
Si Si7 0.355373 0.559889 0.459420
Si Si8 0.981690 0.559398 0.874163
O O1 0.404209 0.250000 0.252322
O O2 0.305573 0.993328 0.177729
O O3 0.524839 0.000299 0.416131
O O4 0.362707 0.017948 0.086475
O O5 0.789801 0.250000 0.371558
O O6 0.753809 0.006497 0.222308
O O7 0.922127 0.007428 0.553120
O O8 0.726890 0.986273 0.370131
O O9 0.272397 0.750000 0.915904
O O10 0.150927 0.987217 0.811895
O O11 0.735458 0.750000 0.496111
O O12 0.864705 0.998722 0.683270
O O13 0.658970 0.023888 0.454175
O O14 0.038438 0.250000 0.653912
O O15 0.000000 0.000000 0.500000
O O16 0.199318 0.250000 0.085519
O O17 0.259341 0.469311 0.280731
O O18 0.087735 0.508673 0.954607
O O19 0.344970 0.750000 0.429576
O O20 0.977721 0.750000 0.870898
O O21 0.000000 0.500000 0.000000
#
# Coordination Sequence:
#
# PCOD9164905 Si02
#       8
#     4   4   4   4   4   4   4   4
#     4  10  24  42  62  90 120 157 201 249 302 354
#     4   9  20  37  57  84 118 158 200 242 297 355
#     4  10  21  37  58  86 119 157 201 249 298 353
#     4  11  24  39  60  90 122 158 203 248 295 357
#     4   9  17  31  52  79 113 152 191 237 291 348
#     4  11  23  40  63  91 124 157 197 245 300 361
#     4  11  23  42  65  87 118 158 201 248 301 358
#     4  11  23  39  60  90 125 160 198 243 299 356
#
# _framework density 21.230134
#
# number of rings (size 3 to 8) (size 9 to 14) (size 15 to 20)
#    0.000    1.750    1.250    3.375    1.750    6.500 
#    0.000    0.625    0.000    0.000    0.000    0.000 
#    0.000    0.000    0.000    0.000    0.000    0.000 
#
# Total GULP energy -178781.322391 kJ/mol
# GULP energy per Si atom -5586.916325 kJ/mol
# Density = 2.118181 g / cm^3
# Si number density = 21.230134 Si / 1000 Ang^3
#
#
#
# Elastic Constant Matrix: (Units=GPa)
#
#
# Indices 1 2 3 4 5 6 
#
# 1 100.5694 4.3908 4.5691 0.0000 3.6544 0.0000
# 2 4.3908 10.5579 -9.9695 0.0000 9.5930 0.0000
# 3 4.5691 -9.9695 44.3823 0.0000 9.1058 0.0000
# 4 0.0000 0.0000 0.0000 20.1890 0.0000 1.6472
# 5 3.6544 9.5930 9.1058 0.0000 30.7818 0.0000
# 6 0.0000 0.0000 0.0000 1.6472 0.0000 23.0057
#
#
#
# Elastic Compliance Matrix: (Units=1/GPa)
#
#
# Indices 1 2 3 4 5 6 
#
# 1 0.010560 -0.012564 -0.004743 0.000000 0.004065 0.000000
# 2 -0.012564 0.290150 0.090189 0.000000 -0.115612 0.000000
# 3 -0.004743 0.090189 0.052092 0.000000 -0.042954 0.000000
# 4 0.000000 0.000000 0.000000 0.049823 0.000000 -0.003567
# 5 0.004065 -0.115612 -0.042954 0.000000 0.080740 0.000000
# 6 0.000000 0.000000 0.000000 -0.003567 0.000000 0.043723
#
#
# Mechanical properties :
#
#
# Convention : Reuss Voigt Hill
#
# Bulk Modulus (GPa) = 2.00576 17.05449 9.53013
# Shear Modulus (GPa) = 9.13221 25.22990 17.18106
#
# Velocity S-wave (km/s) = 2.07626 3.45106 2.84787
# Velocity P-wave (km/s) = 2.58740 4.89186 3.91312
#
# Compressibility (1/GPa) = 0.49856336
#
# Stress axis : x y z
#
# Youngs Moduli (GPa) = 94.69936 3.44650 19.19697
#
# Poissons Ratio (x) = 0.04330 0.09106
# Poissons Ratio (y) = 1.18984 -1.73136
# Poissons Ratio (z) = 0.44921 -0.31084
#
# Static dielectric constant tensor:
#      x y z
#    x 1.808480 0.000000 -0.005540 
#    y 0.000000 1.731490 0.000000 
#    z -0.005540 0.000000 1.774610 
# 
# From -- ./inp_files/55744.got.cif
#   From: 2010.05.17/outbox.cif.g08.bks.cpg/sg11_28_cif.got.tgz:55744.got - 2010.06.03 12:22:45.
