data_PCOD9164714
_publ_section_title
;
Structure prediction by ZEFSAII (Michael W. Deem and Ramdas Pophale) SiO2 
 PCOD9164714
Probable space group: P 21/M
;
_chemical_formula_sum "Si O2"
_cell_formula_units_Z 32
_cell_length_a 9.497060
_cell_length_b 13.997547
_cell_length_c 11.269933
_cell_angle_alpha 90.000000
_cell_angle_beta 91.148974
_cell_angle_gamma 90.000000
_cell_volume 1497.873445
_symmetry_space_group_name_H-M "P 21/M"
_symmetry_group_IT_number 11
_symmetry_cell_setting 'monoclinic'
loop_
_space_group_symop_operation_xyz
x,y,z
-x,1/2+y,-z
-x,-y,-z
x,1/2-y,z
loop_
_atom_site_type_symbol
_atom_site_label
_atom_site_fract_x
_atom_site_fract_y
_atom_site_fract_z
Si Si1 0.194493 0.461099 0.156729
Si Si2 0.612104 0.139913 0.793588
Si Si3 0.001851 0.860029 0.392816
Si Si4 0.787115 0.136076 0.416396
Si Si5 0.767341 0.637619 0.590597
Si Si6 0.511869 0.134873 0.533364
Si Si7 0.888126 0.491431 0.204455
Si Si8 0.624968 0.932388 0.050574
O O1 0.267573 0.566704 0.158780
O O2 0.210193 0.416980 0.287410
O O3 0.026561 0.463164 0.131486
O O4 0.285099 0.400892 0.062809
O O5 0.662384 0.250000 0.787959
O O6 0.563557 0.103740 0.663066
O O7 0.469208 0.137192 0.870287
O O8 0.019092 0.750000 0.358109
O O9 0.896907 0.865848 0.502658
O O10 0.941902 0.919177 0.283528
O O11 0.143676 0.896874 0.457585
O O12 0.811139 0.250000 0.411146
O O13 0.623053 0.117676 0.430996
O O14 0.850733 0.087468 0.302558
O O15 0.742403 0.750000 0.617538
O O16 0.636955 0.598083 0.512694
O O17 0.499931 0.250000 0.546441
O O18 0.746527 0.516093 0.130521
O O19 0.500000 0.000000 0.000000
#
# Coordination Sequence:
#
# PCOD9164714 Si02
#       8
#     4   4   4   4   4   4   4   4
#     4  11  24  40  64  91 123 165 216 261 315 366
#     4  10  22  43  65  90 126 164 209 265 319 377
#     4  10  21  38  60  93 131 163 205 255 315 389
#     4  10  21  36  58  95 134 163 199 250 319 393
#     4  10  21  37  58  90 128 163 204 257 313 377
#     4   9  19  34  57  89 123 159 202 251 309 375
#     4  12  23  39  66  91 128 170 210 257 321 374
#     4  10  25  45  61  87 119 165 220 271 306 361
#
# _framework density 21.363619
#
# number of rings (size 3 to 8) (size 9 to 14) (size 15 to 20)
#    0.000    1.750    1.250    2.250    5.250    4.000 
#    0.000    2.500    0.000    4.500    0.000    0.000 
#    0.000    0.000    0.000    0.000    0.000    0.000 
#
# Total GULP energy -178715.360906 kJ/mol
# GULP energy per Si atom -5584.855028 kJ/mol
# Density = 2.131499 g / cm^3
# Si number density = 21.363619 Si / 1000 Ang^3
#
#
#
# Elastic Constant Matrix: (Units=GPa)
#
#
# Indices 1 2 3 4 5 6 
#
# 1 82.6637 4.6177 26.1003 0.0000 0.2992 0.0000
# 2 4.6177 55.9750 4.4117 0.0000 -1.4246 0.0000
# 3 26.1003 4.4117 71.0707 0.0000 -14.5411 0.0000
# 4 0.0000 0.0000 0.0000 1.2142 0.0000 -3.7610
# 5 0.2992 -1.4246 -14.5411 0.0000 37.8748 0.0000
# 6 0.0000 0.0000 0.0000 -3.7610 0.0000 18.3258
#
#
#
# Elastic Compliance Matrix: (Units=1/GPa)
#
#
# Indices 1 2 3 4 5 6 
#
# 1 0.013890 -0.000769 -0.005515 0.000000 -0.002256 0.000000
# 2 -0.000769 0.017998 -0.000754 0.000000 0.000393 0.000000
# 3 -0.005515 -0.000754 0.017522 0.000000 0.006742 0.000000
# 4 0.000000 0.000000 0.000000 2.260779 0.000000 0.463974
# 5 -0.002256 0.000393 0.006742 0.000000 0.029024 0.000000
# 6 0.000000 0.000000 0.000000 0.463974 0.000000 0.149788
#
#
# Mechanical properties :
#
#
# Convention : Reuss Voigt Hill
#
# Bulk Modulus (GPa) = 28.30133 31.10766 29.70450
# Shear Modulus (GPa) = 1.98819 23.12160 12.55489
#
# Velocity S-wave (km/s) = 0.96574 3.29338 2.42683
# Velocity P-wave (km/s) = 3.81048 5.39022 4.66767
#
# Compressibility (1/GPa) = 0.03533403
#
# Stress axis : x y z
#
# Youngs Moduli (GPa) = 71.99673 55.56176 57.07096
#
# Poissons Ratio (x) = 0.04270 0.31473
# Poissons Ratio (y) = 0.05534 0.04306
# Poissons Ratio (z) = 0.39704 0.04192
#
# Static dielectric constant tensor:
#      x y z
#    x 1.794100 0.000000 -0.014670 
#    y 0.000000 1.798930 0.000000 
#    z -0.014670 0.000000 1.765940 
# 
# From -- ./inp_files/18081.got.cif
#   From: 2010.05.17/outbox.cif.g08.bks.cpg/sg11_10_cif.got.tgz:18081.got - 2010.06.03 12:22:45.
