data_PCOD9164517
_publ_section_title
;
Structure prediction by ZEFSAII (Michael W. Deem and Ramdas Pophale) SiO2 
 PCOD9164517
Probable space group: P 21/M
;
_chemical_formula_sum "Si O2"
_cell_formula_units_Z 20
_cell_length_a 12.327509
_cell_length_b 19.241155
_cell_length_c 7.156364
_cell_angle_alpha 90.000000
_cell_angle_beta 150.826771
_cell_angle_gamma 90.000000
_cell_volume 827.428572
_symmetry_space_group_name_H-M "P 21/M"
_symmetry_group_IT_number 11
_symmetry_cell_setting 'monoclinic'
loop_
_space_group_symop_operation_xyz
x,y,z
-x,1/2+y,-z
-x,-y,-z
x,1/2-y,z
loop_
_atom_site_type_symbol
_atom_site_label
_atom_site_fract_x
_atom_site_fract_y
_atom_site_fract_z
Si Si1 0.803632 0.668683 0.622836
Si Si2 0.016505 0.461259 0.722879
Si Si3 0.919554 0.828410 0.395822
Si Si4 0.773311 0.430960 0.688499
Si Si5 0.411265 0.669948 0.319556
O O1 0.869904 0.750000 0.746135
O O2 0.590904 0.655639 0.429991
O O3 0.762852 0.660027 0.339594
O O4 0.006017 0.617887 0.973511
O O5 0.095291 0.384794 0.785930
O O6 0.784832 0.456849 0.492363
O O7 0.000000 0.500000 0.500000
O O8 0.179948 0.505101 0.101843
O O9 0.894204 0.750000 0.287786
O O10 0.168774 0.835317 0.857050
O O11 0.589511 0.382839 0.507786
O O12 0.434627 0.750000 0.417390
#
# Coordination Sequence:
#
# PCOD9164517 Si02
#       5
#     4   4   4   4   4
#     4   9  17  33  57  83 111 143 183 225 266 320
#     4  11  20  37  58  79 113 143 183 228 266 328
#     4   9  18  34  56  79 107 145 180 222 276 320
#     4  10  21  35  57  79 110 150 180 222 277 317
#     4   9  17  33  57  83 111 143 183 225 266 320
#
# _framework density 24.17127
#
# number of rings (size 3 to 8) (size 9 to 14) (size 15 to 20)
#    0.000    2.400    4.000    1.800    0.000    1.600 
#    0.000   10.000    0.000    4.800    0.000    0.000 
#    0.000    0.000    0.000    0.000    0.000    0.000 
#
# Total GULP energy -111845.775968 kJ/mol
# GULP energy per Si atom -5592.288798 kJ/mol
# Density = 2.411626 g / cm^3
# Si number density = 24.171270 Si / 1000 Ang^3
#
#
#
# Elastic Constant Matrix: (Units=GPa)
#
#
# Indices 1 2 3 4 5 6 
#
# 1 198.9925 87.1953 34.9040 0.0000 -2.4019 0.0000
# 2 87.1953 114.5381 12.6272 0.0000 -8.9659 0.0000
# 3 34.9040 12.6272 64.6899 0.0000 3.1441 0.0000
# 4 0.0000 0.0000 0.0000 -6.4677 0.0000 4.5431
# 5 -2.4019 -8.9659 3.1441 0.0000 33.3734 0.0000
# 6 0.0000 0.0000 0.0000 4.5431 0.0000 58.0774
#
#
#
# Elastic Compliance Matrix: (Units=1/GPa)
#
#
# Indices 1 2 3 4 5 6 
#
# 1 0.008179 -0.005926 -0.003222 0.000000 -0.000700 0.000000
# 2 -0.005926 0.013442 0.000421 0.000000 0.003145 0.000000
# 3 -0.003222 0.000421 0.017199 0.000000 -0.001739 0.000000
# 4 0.000000 0.000000 0.000000 -0.146560 0.000000 0.011465
# 5 -0.000700 0.003145 -0.001739 0.000000 0.030922 0.000000
# 6 0.000000 0.000000 0.000000 0.011465 0.000000 0.016322
#
#
# Mechanical properties :
#
#
# Convention : Reuss Voigt Hill
#
# Bulk Modulus (GPa) = 46.80520 71.96373 59.38446
# Shear Modulus (GPa) = -139.19534 33.22955 -52.98290
#
# Velocity S-wave (km/s) = -7.59685 3.71179 -4.68694
# Velocity P-wave (km/s) = 7.58574 6.94312 2.16062
#
# Compressibility (1/GPa) = 0.02136515
#
# Stress axis : x y z
#
# Youngs Moduli (GPa) = 122.27016 74.39548 58.14185
#
# Poissons Ratio (x) = 0.44085 0.18734
# Poissons Ratio (y) = 0.72454 -0.02446
# Poissons Ratio (z) = 0.39397 -0.03130
#
# Static dielectric constant tensor:
#      x y z
#    x 1.966010 0.000000 -0.025830 
#    y 0.000000 1.952730 0.000000 
#    z -0.025830 0.000000 1.981380 
# 
# From -- ./inp_files/18738.got.cif
#   From: 2010.05.17/outbox.cif.g08.bks.cpg/sg11_10_cif.got.tgz:18738.got - 2010.06.03 12:22:45.
