data_PCOD9164814
_publ_section_title
;
Structure prediction by ZEFSAII (Michael W. Deem and Ramdas Pophale) SiO2 
 PCOD9164814
Probable space group: P 21/M
;
_chemical_formula_sum "Si O2"
_cell_formula_units_Z 20
_cell_length_a 18.130011
_cell_length_b 8.996725
_cell_length_c 5.795888
_cell_angle_alpha 90.000000
_cell_angle_beta 113.991824
_cell_angle_gamma 90.000000
_cell_volume 863.694685
_symmetry_space_group_name_H-M "P 21/M"
_symmetry_group_IT_number 11
_symmetry_cell_setting 'monoclinic'
loop_
_space_group_symop_operation_xyz
x,y,z
-x,1/2+y,-z
-x,-y,-z
x,1/2-y,z
loop_
_atom_site_type_symbol
_atom_site_label
_atom_site_fract_x
_atom_site_fract_y
_atom_site_fract_z
Si Si1 0.558788 0.921147 0.891191
Si Si2 0.656203 0.088470 0.681566
Si Si3 0.726863 0.911880 0.374987
Si Si4 0.029741 0.071514 0.790096
Si Si5 0.179165 0.587199 0.828589
O O1 0.534619 0.750000 0.809474
O O2 0.650256 0.908662 0.106335
O O3 0.500000 0.000000 0.000000
O O4 0.575832 0.037667 0.708125
O O5 0.646161 0.250000 0.552572
O O6 0.682565 0.958643 0.548244
O O7 0.734412 0.102630 0.941658
O O8 0.764416 0.750000 0.431096
O O9 0.795827 0.027624 0.390765
O O10 0.015959 0.250000 0.775141
O O11 0.124359 0.029939 0.891548
O O12 0.000000 0.000000 0.500000
O O13 0.000000 0.000000 0.000000
O O14 0.140344 0.750000 0.774287
#
# Coordination Sequence:
#
# PCOD9164814 Si02
#       5
#     4   4   4   4   4
#     4  10  21  37  56  81 115 154 199 253 310 373
#     4  10  21  37  60  87 117 157 203 252 311 378
#     4  10  21  37  59  87 118 156 204 255 313 379
#     4  12  27  48  73 104 142 185 232 285 346 412
#     4  10  22  41  64  91 125 164 209 262 320 387
#
# _framework density 23.156333
#
# number of rings (size 3 to 8) (size 9 to 14) (size 15 to 20)
#    0.000    1.600    0.000    4.200    2.800    5.600 
#    0.000    0.000    0.000    0.000    0.000    0.000 
#    0.000    0.000    0.000    0.000    0.000    0.000 
#
# Total GULP energy -111463.112917 kJ/mol
# GULP energy per Si atom -5573.155646 kJ/mol
# Density = 2.310363 g / cm^3
# Si number density = 23.156333 Si / 1000 Ang^3
#
#
#
# Elastic Constant Matrix: (Units=GPa)
#
#
# Indices 1 2 3 4 5 6 
#
# 1 106.7642 22.0373 22.2641 0.0000 -19.7302 0.0000
# 2 22.0373 140.2548 30.4938 0.0000 5.5160 0.0000
# 3 22.2641 30.4938 56.2566 0.0000 -6.9438 0.0000
# 4 0.0000 0.0000 0.0000 29.0253 0.0000 -8.0561
# 5 -19.7302 5.5160 -6.9438 0.0000 30.8648 0.0000
# 6 0.0000 0.0000 0.0000 -8.0561 0.0000 35.4124
#
#
#
# Elastic Compliance Matrix: (Units=1/GPa)
#
#
# Indices 1 2 3 4 5 6 
#
# 1 0.011571 -0.001457 -0.002925 0.000000 0.006999 0.000000
# 2 -0.001457 0.008458 -0.004432 0.000000 -0.003440 0.000000
# 3 -0.002925 -0.004432 0.021809 0.000000 0.003828 0.000000
# 4 0.000000 0.000000 0.000000 0.036775 0.000000 0.008366
# 5 0.006999 -0.003440 0.003828 0.000000 0.038349 0.000000
# 6 0.000000 0.000000 0.000000 0.008366 0.000000 0.030142
#
#
# Mechanical properties :
#
#
# Convention : Reuss Voigt Hill
#
# Bulk Modulus (GPa) = 41.31063 50.31842 45.81453
# Shear Modulus (GPa) = 28.93477 34.29253 31.61365
#
# Velocity S-wave (km/s) = 3.53872 3.85244 3.69891
# Velocity P-wave (km/s) = 5.88008 6.44713 6.17012
#
# Compressibility (1/GPa) = 0.02420685
#
# Stress axis : x y z
#
# Youngs Moduli (GPa) = 86.42538 118.23349 45.85341
#
# Poissons Ratio (x) = 0.17229 0.13414
# Poissons Ratio (y) = 0.12594 0.20324
# Poissons Ratio (z) = 0.25283 0.52407
#
# Static dielectric constant tensor:
#      x y z
#    x 1.827640 0.000000 0.038810 
#    y 0.000000 1.910820 0.000000 
#    z 0.038810 0.000000 2.065240 
# 
# From -- ./inp_files/7473.got.cif
#   From: 2010.05.17/outbox.cif.g08.bks.cpg/sg11_4_cif.got.tgz:7473.got - 2010.06.03 12:22:45.
