data_PCOD9164328
_publ_section_title
;
Structure prediction by ZEFSAII (Michael W. Deem and Ramdas Pophale) SiO2 
 PCOD9164328
Probable space group: P 21/M
;
_chemical_formula_sum "Si O2"
_cell_formula_units_Z 24
_cell_length_a 9.780008
_cell_length_b 13.806841
_cell_length_c 8.005759
_cell_angle_alpha 90.000000
_cell_angle_beta 72.578829
_cell_angle_gamma 90.000000
_cell_volume 1031.438863
_symmetry_space_group_name_H-M "P 21/M"
_symmetry_group_IT_number 11
_symmetry_cell_setting 'monoclinic'
loop_
_space_group_symop_operation_xyz
x,y,z
-x,1/2+y,-z
-x,-y,-z
x,1/2-y,z
loop_
_atom_site_type_symbol
_atom_site_label
_atom_site_fract_x
_atom_site_fract_y
_atom_site_fract_z
Si Si1 0.704573 0.360432 0.626459
Si Si2 0.921324 0.866334 0.033814
Si Si3 0.994729 0.868500 0.364215
Si Si4 0.207970 0.133498 0.260471
Si Si5 0.490874 0.476602 0.197956
Si Si6 0.761015 0.360864 0.218050
O O1 0.668340 0.250000 0.684059
O O2 0.836982 0.394752 0.693429
O O3 0.566585 0.427427 0.690410
O O4 0.766229 0.361595 0.416776
O O5 0.898379 0.750000 0.051561
O O6 0.913882 0.902871 0.226606
O O7 0.915491 0.118122 0.084638
O O8 0.823884 0.901772 0.916651
O O9 0.995407 0.750000 0.363213
O O10 0.088698 0.101467 0.438532
O O11 0.201094 0.250000 0.258542
O O12 0.362225 0.099988 0.265977
O O13 0.638135 0.433216 0.207267
O O14 0.500000 0.500000 0.000000
O O15 0.723587 0.250000 0.180865
#
# Coordination Sequence:
#
# PCOD9164328 Si02
#       6
#     4   4   4   4   4   4
#     4  10  21  41  66  89 122 168 216 262 312 375
#     4   9  17  35  66  96 124 164 211 254 309 378
#     4   9  17  35  65  95 120 161 212 258 314 371
#     4  10  21  41  65  94 130 162 204 263 316 369
#     4  12  26  41  59  93 130 168 213 258 314 377
#     4  10  20  41  68  92 126 167 206 258 318 378
#
# _framework density 23.268466
#
# number of rings (size 3 to 8) (size 9 to 14) (size 15 to 20)
#    0.000    2.000    1.667    2.000    0.000    3.333 
#    6.000    1.667    0.000    0.000    0.000    0.000 
#    0.000    0.000    0.000    0.000    0.000    0.000 
#
# Total GULP energy -134351.232823 kJ/mol
# GULP energy per Si atom -5597.968034 kJ/mol
# Density = 2.321551 g / cm^3
# Si number density = 23.268466 Si / 1000 Ang^3
#
#
#
# Elastic Constant Matrix: (Units=GPa)
#
#
# Indices 1 2 3 4 5 6 
#
# 1 49.5444 18.2976 3.1953 0.0000 8.5823 0.0000
# 2 18.2976 82.6636 19.2910 0.0000 6.4745 0.0000
# 3 3.1953 19.2910 65.4649 0.0000 14.5774 0.0000
# 4 0.0000 0.0000 0.0000 21.6724 0.0000 1.7782
# 5 8.5823 6.4745 14.5774 0.0000 32.3692 0.0000
# 6 0.0000 0.0000 0.0000 1.7782 0.0000 30.5029
#
#
#
# Elastic Compliance Matrix: (Units=1/GPa)
#
#
# Indices 1 2 3 4 5 6 
#
# 1 0.022935 -0.005006 0.001653 0.000000 -0.005824 0.000000
# 2 -0.005006 0.014111 -0.003980 0.000000 0.000297 0.000000
# 3 0.001653 -0.003980 0.018103 0.000000 -0.007795 0.000000
# 4 0.000000 0.000000 0.000000 0.046363 0.000000 -0.002703
# 5 -0.005824 0.000297 -0.007795 0.000000 0.035889 0.000000
# 6 0.000000 0.000000 0.000000 -0.002703 0.000000 0.032941
#
#
# Mechanical properties :
#
#
# Convention : Reuss Voigt Hill
#
# Bulk Modulus (GPa) = 24.70237 31.02674 27.86456
# Shear Modulus (GPa) = 25.18847 27.36818 26.27832
#
# Velocity S-wave (km/s) = 3.29373 3.43329 3.36423
# Velocity P-wave (km/s) = 5.01041 5.39257 5.20500
#
# Compressibility (1/GPa) = 0.04048194
#
# Stress axis : x y z
#
# Youngs Moduli (GPa) = 43.60141 70.86745 55.23885
#
# Poissons Ratio (x) = 0.35478 -0.09129
# Poissons Ratio (y) = 0.21828 0.21985
# Poissons Ratio (z) = -0.07205 0.28205
#
# Static dielectric constant tensor:
#      x y z
#    x 1.811180 0.000000 0.016230 
#    y 0.000000 1.918160 0.000000 
#    z 0.016230 0.000000 1.864700 
# 
# From -- ./inp_files/16959.got.cif
#   From: 2010.05.17/outbox.cif.g08.bks.cpg/sg11_9_cif.got.tgz:16959.got - 2010.06.03 12:22:45.
