data_PCOD9164512
_publ_section_title
;
Structure prediction by ZEFSAII (Michael W. Deem and Ramdas Pophale) SiO2 
 PCOD9164512
Probable space group: P 21/M
;
_chemical_formula_sum "Si O2"
_cell_formula_units_Z 20
_cell_length_a 13.843545
_cell_length_b 14.241970
_cell_length_c 5.002458
_cell_angle_alpha 90.000000
_cell_angle_beta 89.162516
_cell_angle_gamma 90.000000
_cell_volume 986.176022
_symmetry_space_group_name_H-M "P 21/M"
_symmetry_group_IT_number 11
_symmetry_cell_setting 'monoclinic'
loop_
_space_group_symop_operation_xyz
x,y,z
-x,1/2+y,-z
-x,-y,-z
x,1/2-y,z
loop_
_atom_site_type_symbol
_atom_site_label
_atom_site_fract_x
_atom_site_fract_y
_atom_site_fract_z
Si Si1 0.593604 0.546762 0.373889
Si Si2 0.209262 0.489354 0.803670
Si Si3 0.061394 0.640820 0.012730
Si Si4 0.660035 0.858332 0.886758
Si Si5 0.930690 0.640086 0.523096
O O1 0.500000 0.500000 0.500000
O O2 0.687311 0.479921 0.326323
O O3 0.631319 0.622645 0.585688
O O4 0.579853 0.597180 0.089589
O O5 0.147506 0.572051 0.932592
O O6 0.147431 0.431364 0.590272
O O7 0.245249 0.415194 0.025944
O O8 0.087149 0.750000 0.967669
O O9 0.972818 0.619339 0.813665
O O10 0.021053 0.631239 0.313474
O O11 0.673660 0.750000 0.939286
O O12 0.898105 0.750000 0.515191
#
# Coordination Sequence:
#
# PCOD9164512 Si02
#       5
#     4   4   4   4   4
#     4  10  23  40  62  86 123 151 192 245 299 356
#     4  10  23  35  65  84 122 153 200 238 299 344
#     4  10  22  37  54  82 123 161 199 239 284 350
#     4  10  22  38  63  91 119 152 194 249 296 345
#     4  10  21  35  55  85 118 155 200 242 287 343
#
# _framework density 20.280353000000002
#
# number of rings (size 3 to 8) (size 9 to 14) (size 15 to 20)
#    1.200    0.800    0.000    3.000    5.600    0.000 
#    0.000    2.000    0.000    0.000    0.000    0.000 
#    0.000    0.000    0.000    0.000    0.000    0.000 
#
# Total GULP energy -111658.203117 kJ/mol
# GULP energy per Si atom -5582.910156 kJ/mol
# Density = 2.023419 g / cm^3
# Si number density = 20.280353 Si / 1000 Ang^3
#
#
#
# Elastic Constant Matrix: (Units=GPa)
#
#
# Indices 1 2 3 4 5 6 
#
# 1 83.4845 39.0359 -8.4245 0.0000 -31.5560 0.0000
# 2 39.0359 67.9403 -7.5109 0.0000 -14.4043 0.0000
# 3 -8.4245 -7.5109 63.9899 0.0000 -8.7741 0.0000
# 4 0.0000 0.0000 0.0000 22.4795 0.0000 4.2713
# 5 -31.5560 -14.4043 -8.7741 0.0000 30.0528 0.0000
# 6 0.0000 0.0000 0.0000 4.2713 0.0000 14.5032
#
#
#
# Elastic Compliance Matrix: (Units=1/GPa)
#
#
# Indices 1 2 3 4 5 6 
#
# 1 0.026242 -0.009170 0.005786 0.000000 0.024849 0.000000
# 2 -0.009170 0.020211 0.001222 0.000000 0.000415 0.000000
# 3 0.005786 0.001222 0.018173 0.000000 0.011967 0.000000
# 4 0.000000 0.000000 0.000000 0.047122 0.000000 -0.013878
# 5 0.024849 0.000415 0.011967 0.000000 0.063060 0.000000
# 6 0.000000 0.000000 0.000000 -0.013878 0.000000 0.073037
#
#
# Mechanical properties :
#
#
# Convention : Reuss Voigt Hill
#
# Bulk Modulus (GPa) = 16.58320 29.06842 22.82581
# Shear Modulus (GPa) = 18.36410 26.22803 22.29607
#
# Velocity S-wave (km/s) = 3.01244 3.60011 3.31931
# Velocity P-wave (km/s) = 4.50493 5.62543 5.09607
#
# Compressibility (1/GPa) = 0.06030200
#
# Stress axis : x y z
#
# Youngs Moduli (GPa) = 38.10622 49.47901 55.02535
#
# Poissons Ratio (x) = 0.45372 -0.31837
# Poissons Ratio (y) = 0.34943 -0.06724
# Poissons Ratio (z) = -0.22048 -0.06046
#
# Static dielectric constant tensor:
#      x y z
#    x 1.737160 0.000000 -0.035980 
#    y 0.000000 1.703300 0.000000 
#    z -0.035980 0.000000 1.749410 
# 
# From -- ./inp_files/4250.got.cif
#   From: 2010.05.17/outbox.cif.g08.bks.cpg/sg11_3_cif.got.tgz:4250.got - 2010.06.03 12:22:45.
