data_PCOD9164699
_publ_section_title
;
Structure prediction by ZEFSAII (Michael W. Deem and Ramdas Pophale) SiO2 
 PCOD9164699
Probable space group: P 21/M
;
_chemical_formula_sum "Si O2"
_cell_formula_units_Z 28
_cell_length_a 9.085119
_cell_length_b 14.879240
_cell_length_c 21.441928
_cell_angle_alpha 90.000000
_cell_angle_beta 31.019701
_cell_angle_gamma 90.000000
_cell_volume 1493.698588
_symmetry_space_group_name_H-M "P 21/M"
_symmetry_group_IT_number 11
_symmetry_cell_setting 'monoclinic'
loop_
_space_group_symop_operation_xyz
x,y,z
-x,1/2+y,-z
-x,-y,-z
x,1/2-y,z
loop_
_atom_site_type_symbol
_atom_site_label
_atom_site_fract_x
_atom_site_fract_y
_atom_site_fract_z
Si Si1 0.749534 0.007958 0.857164
Si Si2 0.273341 0.475042 0.755949
Si Si3 0.153657 0.910981 0.417726
Si Si4 0.606668 0.143955 0.802711
Si Si5 0.027319 0.146877 0.950686
Si Si6 0.621437 0.849077 0.667554
Si Si7 0.358471 0.352844 0.201712
O O1 0.696946 0.093957 0.832351
O O2 0.058549 0.015016 0.776954
O O3 0.734156 0.922461 0.816804
O O4 0.500000 0.000000 0.000000
O O5 0.550349 0.409302 0.650845
O O6 0.091903 0.428815 0.876561
O O7 0.406175 0.571623 0.726660
O O8 0.254625 0.902549 0.309255
O O9 0.893608 0.844271 0.523426
O O10 0.000000 0.000000 0.500000
O O11 0.675027 0.250000 0.777603
O O12 0.264087 0.134955 0.918011
O O13 0.069188 0.250000 0.911434
O O14 0.699854 0.138736 0.087792
O O15 0.484115 0.750000 0.720863
O O16 0.753626 0.869595 0.687981
O O17 0.295727 0.250000 0.206223
#
# Coordination Sequence:
#
# PCOD9164699 Si02
#       7
#     4   4   4   4   4   4   4
#     4  12  24  36  55  85 125 161 187 233 303 364
#     4  10  21  36  58  87 117 151 194 238 294 353
#     4   9  18  39  64  86 110 145 197 251 286 338
#     4  10  22  38  59  85 117 156 203 248 293 351
#     4   9  18  35  58  82 109 150 200 250 293 340
#     4  10  21  38  63  87 111 150 197 246 297 346
#     4  10  21  37  57  83 116 153 198 246 295 355
#
# _framework density 18.745414
#
# number of rings (size 3 to 8) (size 9 to 14) (size 15 to 20)
#    0.000    2.000    1.429    3.000    2.000    3.429 
#    0.000    6.429    0.000    3.429    0.000    0.000 
#    0.000    0.000    0.000    0.000    0.000    0.000 
#
# Total GULP energy -155997.888223 kJ/mol
# GULP energy per Si atom -5571.353151 kJ/mol
# Density = 1.870275 g / cm^3
# Si number density = 18.745414 Si / 1000 Ang^3
#
#
#
# Elastic Constant Matrix: (Units=GPa)
#
#
# Indices 1 2 3 4 5 6 
#
# 1 125.8942 48.2226 28.3717 0.0000 -3.7200 0.0000
# 2 48.2226 97.0401 9.8939 0.0000 0.1970 0.0000
# 3 28.3717 9.8939 63.0941 0.0000 1.7275 0.0000
# 4 0.0000 0.0000 0.0000 21.9792 0.0000 6.6066
# 5 -3.7200 0.1970 1.7275 0.0000 18.4554 0.0000
# 6 0.0000 0.0000 0.0000 6.6066 0.0000 12.2233
#
#
#
# Elastic Compliance Matrix: (Units=1/GPa)
#
#
# Indices 1 2 3 4 5 6 
#
# 1 0.010871 -0.004981 -0.004179 0.000000 0.002636 0.000000
# 2 -0.004981 0.012755 0.000272 0.000000 -0.001166 0.000000
# 3 -0.004179 0.000272 0.017755 0.000000 -0.002507 0.000000
# 4 0.000000 0.000000 0.000000 0.054323 0.000000 -0.029361
# 5 0.002636 -0.001166 -0.002507 0.000000 0.054963 0.000000
# 6 0.000000 0.000000 0.000000 -0.029361 0.000000 0.097680
#
#
# Mechanical properties :
#
#
# Convention : Reuss Voigt Hill
#
# Bulk Modulus (GPa) = 42.36795 51.00054 46.68425
# Shear Modulus (GPa) = 18.24866 23.83426 21.04146
#
# Velocity S-wave (km/s) = 3.12348 3.56964 3.35399
# Velocity P-wave (km/s) = 5.97152 6.65250 6.32119
#
# Compressibility (1/GPa) = 0.02360275
#
# Stress axis : x y z
#
# Youngs Moduli (GPa) = 91.98765 78.39990 56.32295
#
# Poissons Ratio (x) = 0.39054 0.23540
# Poissons Ratio (y) = 0.45823 -0.01531
# Poissons Ratio (z) = 0.38445 -0.02131
#
# Static dielectric constant tensor:
#      x y z
#    x 1.616010 0.000000 0.004020 
#    y 0.000000 1.739350 0.000000 
#    z 0.004020 0.000000 1.680360 
# 
# From -- ./inp_files/22275.got.cif
#   From: 2010.05.17/outbox.cif.g08.bks.cpg/sg11_12_cif.got.tgz:22275.got - 2010.06.03 12:22:45.
