data_PCOD9164249
_publ_section_title
;
Structure prediction by ZEFSAII (Michael W. Deem and Ramdas Pophale) SiO2 
 PCOD9164249
Probable space group: P 21/M
;
_chemical_formula_sum "Si O2"
_cell_formula_units_Z 24
_cell_length_a 11.151932
_cell_length_b 9.706694
_cell_length_c 10.978840
_cell_angle_alpha 90.000000
_cell_angle_beta 53.608847
_cell_angle_gamma 90.000000
_cell_volume 956.678294
_symmetry_space_group_name_H-M "P 21/M"
_symmetry_group_IT_number 11
_symmetry_cell_setting 'monoclinic'
loop_
_space_group_symop_operation_xyz
x,y,z
-x,1/2+y,-z
-x,-y,-z
x,1/2-y,z
loop_
_atom_site_type_symbol
_atom_site_label
_atom_site_fract_x
_atom_site_fract_y
_atom_site_fract_z
Si Si1 0.985198 0.250000 0.943956
Si Si2 0.877415 0.975006 0.314559
Si Si3 0.850368 0.406667 0.708208
Si Si4 0.739222 0.750000 0.083281
Si Si5 0.369386 0.476350 0.365179
Si Si6 0.749392 0.250000 0.267681
Si Si7 0.498611 0.250000 0.587740
Si Si8 0.614502 0.028595 0.040319
O O1 0.040874 0.381003 0.834143
O O2 0.085095 0.250000 0.006335
O O3 0.815774 0.250000 0.091923
O O4 0.004575 0.992880 0.340982
O O5 0.733232 0.909454 0.469001
O O6 0.817679 0.113391 0.289074
O O7 0.893124 0.250000 0.648102
O O8 0.747602 0.475722 0.668140
O O9 0.747847 0.397435 0.890921
O O10 0.669717 0.750000 0.262054
O O11 0.681197 0.885241 0.050575
O O12 0.434644 0.614323 0.387795
O O13 0.510451 0.411335 0.210436
O O14 0.574252 0.250000 0.409368
O O15 0.500000 0.000000 0.000000
#
# Coordination Sequence:
#
# PCOD9164249 Si02
#       8
#     2   4   4   2   4   2   2   4
#     4  12  24  41  59  89 128 162 208 264 304 355
#     4  11  23  41  61  90 123 165 208 257 304 372
#     4  11  20  36  59  92 127 160 200 255 315 369
#     4  10  20  40  63  87 128 165 198 249 313 364
#     4   9  18  37  59  86 121 157 203 252 312 366
#     4  10  22  40  64  81 114 167 212 245 307 360
#     4   8  16  35  62  83 108 158 200 244 302 371
#     4   9  20  35  63  93 121 161 201 249 308 372
#
# _framework density 25.086803
#
# number of rings (size 3 to 8) (size 9 to 14) (size 15 to 20)
#    0.000    2.000    1.667    2.000    3.500    0.000 
#    1.500   10.000    0.000    0.000    0.000    0.000 
#    0.000    0.000    0.000    0.000    0.000    0.000 
#
# Total GULP energy -134139.563313 kJ/mol
# GULP energy per Si atom -5589.148471 kJ/mol
# Density = 2.502970 g / cm^3
# Si number density = 25.086803 Si / 1000 Ang^3
#
#
#
# Elastic Constant Matrix: (Units=GPa)
#
#
# Indices 1 2 3 4 5 6 
#
# 1 68.0551 0.0174 12.9081 0.0000 -3.4392 0.0000
# 2 0.0174 82.4564 28.1937 0.0000 10.5114 0.0000
# 3 12.9081 28.1937 204.5596 0.0000 -16.7568 0.0000
# 4 0.0000 0.0000 0.0000 5.1260 0.0000 -62.0699
# 5 -3.4392 10.5114 -16.7568 0.0000 46.8055 0.0000
# 6 0.0000 0.0000 0.0000 -62.0699 0.0000 -133.1391
#
#
#
# Elastic Compliance Matrix: (Units=1/GPa)
#
#
# Indices 1 2 3 4 5 6 
#
# 1 0.014903 0.000217 -0.000911 0.000000 0.000720 0.000000
# 2 0.000217 0.013345 -0.002161 0.000000 -0.003755 0.000000
# 3 -0.000911 -0.002161 0.005438 0.000000 0.002365 0.000000
# 4 0.000000 0.000000 0.000000 0.029357 0.000000 -0.013686
# 5 0.000720 -0.003755 0.002365 0.000000 0.023108 0.000000
# 6 0.000000 0.000000 0.000000 -0.013686 0.000000 -0.001130
#
#
# Mechanical properties :
#
#
# Convention : Reuss Voigt Hill
#
# Bulk Modulus (GPa) = 35.74579 48.58995 42.16787
# Shear Modulus (GPa) = 49.97212 4.68859 27.33036
#
# Velocity S-wave (km/s) = 4.46799 1.36858 3.30423
# Velocity P-wave (km/s) = 6.39508 4.68061 5.60380
#
# Compressibility (1/GPa) = 0.02797532
#
# Stress axis : x y z
#
# Youngs Moduli (GPa) = 67.09984 74.93491 183.90607
#
# Poissons Ratio (x) = -0.01623 0.16759
# Poissons Ratio (y) = -0.01454 0.39733
# Poissons Ratio (z) = 0.06115 0.16190
#
# Static dielectric constant tensor:
#      x y z
#    x 1.953040 0.000000 0.008620 
#    y 0.000000 1.809310 0.000000 
#    z 0.008620 0.000000 2.034000 
# 
# From -- ./inp_files/34698.got.cif
#   From: 2010.05.17/outbox.cif.g08.bks.cpg/sg11_18_cif.got.tgz:34698.got - 2010.06.03 12:22:45.
