data_PCOD9164287
_publ_section_title
;
Structure prediction by ZEFSAII (Michael W. Deem and Ramdas Pophale) SiO2 
 PCOD9164287
Probable space group: P 21/M
;
_chemical_formula_sum "Si O2"
_cell_formula_units_Z 20
_cell_length_a 7.690654
_cell_length_b 21.909375
_cell_length_c 6.823385
_cell_angle_alpha 90.000000
_cell_angle_beta 39.765924
_cell_angle_gamma 90.000000
_cell_volume 735.423236
_symmetry_space_group_name_H-M "P 21/M"
_symmetry_group_IT_number 11
_symmetry_cell_setting 'monoclinic'
loop_
_space_group_symop_operation_xyz
x,y,z
-x,1/2+y,-z
-x,-y,-z
x,1/2-y,z
loop_
_atom_site_type_symbol
_atom_site_label
_atom_site_fract_x
_atom_site_fract_y
_atom_site_fract_z
Si Si1 0.369782 0.181575 0.738578
Si Si2 0.812762 0.382311 0.122780
Si Si3 0.333076 0.531842 0.418622
Si Si4 0.410235 0.820697 0.027362
Si Si5 0.216072 0.420880 0.281479
O O1 0.261744 0.250000 0.822136
O O2 0.570893 0.178316 0.752477
O O3 0.580306 0.165364 0.388468
O O4 0.107566 0.137954 0.945933
O O5 0.712942 0.444798 0.317884
O O6 0.785803 0.368742 0.914729
O O7 0.285240 0.461076 0.412700
O O8 0.079946 0.563872 0.532915
O O9 0.591845 0.553272 0.065219
O O10 0.371831 0.750000 0.005580
O O11 0.708824 0.851128 0.740485
#
# Coordination Sequence:
#
# PCOD9164287 Si02
#       5
#     4   4   4   4   4
#     4  11  24  42  61  90 133 170 207 263 313 370
#     4  12  23  42  66  95 125 169 213 260 318 375
#     4  10  20  40  67  89 124 164 209 264 312 372
#     4  11  24  41  66  97 130 170 214 257 316 386
#     4  10  21  41  64  92 122 165 212 257 317 371
#
# _framework density 27.195222999999999
#
# number of rings (size 3 to 8) (size 9 to 14) (size 15 to 20)
#    0.000    1.200    4.000    1.800    0.000    4.000 
#    0.000    5.000    0.000    9.600    0.000    0.000 
#    0.000    0.000    0.000    0.000    0.000    0.000 
#
# Total GULP energy -111752.586341 kJ/mol
# GULP energy per Si atom -5587.629317 kJ/mol
# Density = 2.713333 g / cm^3
# Si number density = 27.195223 Si / 1000 Ang^3
#
#
#
# Elastic Constant Matrix: (Units=GPa)
#
#
# Indices 1 2 3 4 5 6 
#
# 1 122.4410 -12.3716 33.6016 0.0000 -0.1875 0.0000
# 2 -12.3716 58.1027 -2.0926 0.0000 6.3339 0.0000
# 3 33.6016 -2.0926 116.6763 0.0000 -10.2939 0.0000
# 4 0.0000 0.0000 0.0000 30.0057 0.0000 -1.3517
# 5 -0.1875 6.3339 -10.2939 0.0000 31.8873 0.0000
# 6 0.0000 0.0000 0.0000 -1.3517 0.0000 39.0419
#
#
#
# Elastic Compliance Matrix: (Units=1/GPa)
#
#
# Indices 1 2 3 4 5 6 
#
# 1 0.009104 0.001973 -0.002693 0.000000 -0.001208 0.000000
# 2 0.001973 0.018019 -0.000576 0.000000 -0.003754 0.000000
# 3 -0.002693 -0.000576 0.009619 0.000000 0.003204 0.000000
# 4 0.000000 0.000000 0.000000 0.033379 0.000000 0.001156
# 5 -0.001208 -0.003754 0.003204 0.000000 0.033133 0.000000
# 6 0.000000 0.000000 0.000000 0.001156 0.000000 0.025654
#
#
# Mechanical properties :
#
#
# Convention : Reuss Voigt Hill
#
# Bulk Modulus (GPa) = 29.28292 37.27723 33.28007
# Shear Modulus (GPa) = 34.99368 38.72581 36.85975
#
# Velocity S-wave (km/s) = 3.59103 3.77768 3.68554
# Velocity P-wave (km/s) = 5.29009 5.72406 5.51135
#
# Compressibility (1/GPa) = 0.03414960
#
# Stress axis : x y z
#
# Youngs Moduli (GPa) = 109.84493 55.49556 103.96546
#
# Poissons Ratio (x) = -0.10950 0.27997
# Poissons Ratio (y) = -0.21673 0.05991
# Poissons Ratio (z) = 0.29581 0.03198
#
# Static dielectric constant tensor:
#      x y z
#    x 2.205690 0.000000 0.088810 
#    y 0.000000 2.123600 0.000000 
#    z 0.088810 0.000000 2.134540 
# 
# From -- ./inp_files/15121.got.cif
#   From: 2010.05.17/outbox.cif.g08.bks.cpg/sg11_8_cif.got.tgz:15121.got - 2010.06.03 12:22:45.
