data_PCOD9164339
_publ_section_title
;
Structure prediction by ZEFSAII (Michael W. Deem and Ramdas Pophale) SiO2 
 PCOD9164339
Probable space group: P 21/M
;
_chemical_formula_sum "Si O2"
_cell_formula_units_Z 26
_cell_length_a 20.225270
_cell_length_b 13.941625
_cell_length_c 5.035779
_cell_angle_alpha 90.000000
_cell_angle_beta 113.417776
_cell_angle_gamma 90.000000
_cell_volume 1302.994665
_symmetry_space_group_name_H-M "P 21/M"
_symmetry_group_IT_number 11
_symmetry_cell_setting 'monoclinic'
loop_
_space_group_symop_operation_xyz
x,y,z
-x,1/2+y,-z
-x,-y,-z
x,1/2-y,z
loop_
_atom_site_type_symbol
_atom_site_label
_atom_site_fract_x
_atom_site_fract_y
_atom_site_fract_z
Si Si1 0.846956 0.938858 0.305532
Si Si2 0.314280 0.032880 0.038117
Si Si3 0.937818 0.750000 0.326137
Si Si4 0.300848 0.590279 0.519333
Si Si5 0.138879 0.572650 0.175315
Si Si6 0.523780 0.935597 0.787448
Si Si7 0.966995 0.250000 0.021813
Si Si8 0.422241 0.750000 0.623581
O O1 0.892108 0.844741 0.316208
O O2 0.866466 0.988144 0.615531
O O3 0.761184 0.916514 0.152158
O O4 0.862031 0.020551 0.109810
O O5 0.312363 0.000629 0.341815
O O6 0.390227 0.080245 0.091176
O O7 0.312115 0.939044 0.843371
O O8 0.965498 0.750000 0.069305
O O9 0.005938 0.750000 0.632714
O O10 0.217994 0.618531 0.344756
O O11 0.358737 0.667698 0.531612
O O12 0.079538 0.654543 0.104118
O O13 0.483146 0.835205 0.722086
O O14 0.500000 0.000000 0.500000
O O15 0.500000 0.000000 0.000000
#
# Coordination Sequence:
#
# PCOD9164339 Si02
#       8
#     4   4   2   4   4   4   2   2
#     4  10  23  41  67  87 127 166 219 245 315 367
#     4  10  20  42  59  85 124 161 201 269 291 368
#     4  12  26  41  62  98 123 174 205 258 292 393
#     4  10  21  37  63  88 117 159 212 247 314 365
#     4  10  22  42  64  95 122 166 200 269 314 376
#     4  12  24  40  59  92 130 159 209 259 314 371
#     4  12  25  40  64  94 139 150 213 258 318 370
#     4  12  23  37  66  88 124 168 200 260 314 373
#
# _framework density 19.954034
#
# number of rings (size 3 to 8) (size 9 to 14) (size 15 to 20)
#    0.000    1.231    3.077    2.308    0.000    6.769 
#    0.000    4.615    0.000    5.538    0.000    0.000 
#    0.000    0.000    0.000    0.000    0.000    0.000 
#
# Total GULP energy -144739.826723 kJ/mol
# GULP energy per Si atom -5566.916412 kJ/mol
# Density = 1.990862 g / cm^3
# Si number density = 19.954034 Si / 1000 Ang^3
#
#
#
# Elastic Constant Matrix: (Units=GPa)
#
#
# Indices 1 2 3 4 5 6 
#
# 1 84.0794 35.0492 6.3904 0.0000 15.4609 0.0000
# 2 35.0492 95.6365 7.6606 0.0000 22.7467 0.0000
# 3 6.3904 7.6606 52.3272 0.0000 -12.8578 0.0000
# 4 0.0000 0.0000 0.0000 10.3560 0.0000 18.7892
# 5 15.4609 22.7467 -12.8578 0.0000 40.6312 0.0000
# 6 0.0000 0.0000 0.0000 18.7892 0.0000 45.9428
#
#
#
# Elastic Compliance Matrix: (Units=1/GPa)
#
#
# Indices 1 2 3 4 5 6 
#
# 1 0.014524 -0.004250 -0.002087 0.000000 -0.003808 0.000000
# 2 -0.004250 0.014011 -0.003320 0.000000 -0.007277 0.000000
# 3 -0.002087 -0.003320 0.022232 0.000000 0.009688 0.000000
# 4 0.000000 0.000000 0.000000 0.374284 0.000000 -0.153071
# 5 -0.003808 -0.007277 0.009688 0.000000 0.033200 0.000000
# 6 0.000000 0.000000 0.000000 -0.153071 0.000000 0.084367
#
#
# Mechanical properties :
#
#
# Convention : Reuss Voigt Hill
#
# Bulk Modulus (GPa) = 31.79455 36.69373 34.24414
# Shear Modulus (GPa) = 8.73489 31.58218 20.15853
#
# Velocity S-wave (km/s) = 2.09452 3.98269 3.18189
# Velocity P-wave (km/s) = 4.67096 6.29112 5.54058
#
# Compressibility (1/GPa) = 0.03145193
#
# Stress axis : x y z
#
# Youngs Moduli (GPa) = 68.85165 71.37473 44.98002
#
# Poissons Ratio (x) = 0.30334 0.09388
# Poissons Ratio (y) = 0.29261 0.14934
# Poissons Ratio (z) = 0.14371 0.23698
#
# Static dielectric constant tensor:
#      x y z
#    x 1.616640 0.000000 0.085250 
#    y 0.000000 1.668460 0.000000 
#    z 0.085250 0.000000 1.643380 
# 
# From -- ./inp_files/8925.got.cif
#   From: 2010.05.17/outbox.cif.g08.bks.cpg/sg11_5_cif.got.tgz:8925.got - 2010.06.03 12:22:45.
