data_PCOD9164242
_publ_section_title
;
Structure prediction by ZEFSAII (Michael W. Deem and Ramdas Pophale) SiO2 
 PCOD9164242
Probable space group: P 21/M
;
_chemical_formula_sum "Si O2"
_cell_formula_units_Z 26
_cell_length_a 12.681475
_cell_length_b 7.546127
_cell_length_c 14.511028
_cell_angle_alpha 90.000000
_cell_angle_beta 65.156916
_cell_angle_gamma 90.000000
_cell_volume 1260.144702
_symmetry_space_group_name_H-M "P 21/M"
_symmetry_group_IT_number 11
_symmetry_cell_setting 'monoclinic'
loop_
_space_group_symop_operation_xyz
x,y,z
-x,1/2+y,-z
-x,-y,-z
x,1/2-y,z
loop_
_atom_site_type_symbol
_atom_site_label
_atom_site_fract_x
_atom_site_fract_y
_atom_site_fract_z
Si Si1 0.680357 0.750000 0.614866
Si Si2 0.896863 0.460849 0.109509
Si Si3 0.678932 0.034872 0.070870
Si Si4 0.023424 0.454793 0.717659
Si Si5 0.875043 0.051322 0.503660
Si Si6 0.760732 0.465419 0.838087
Si Si7 0.570260 0.044877 0.757037
O O1 0.779890 0.593612 0.563912
O O2 0.582359 0.593298 0.670555
O O3 0.889827 0.250000 0.123423
O O4 0.777199 0.522967 0.107291
O O5 0.927138 0.538292 0.197536
O O6 0.000000 0.500000 0.000000
O O7 0.677222 0.250000 0.070363
O O8 0.552804 0.970254 0.146383
O O9 0.717424 0.976408 0.954512
O O10 0.017215 0.250000 0.690212
O O11 0.103366 0.549560 0.614090
O O12 0.891393 0.526385 0.769038
O O13 0.844450 0.250000 0.546517
O O14 0.000000 0.000000 0.500000
O O15 0.763692 0.250000 0.839007
O O16 0.669932 0.517436 0.792923
O O17 0.588484 0.250000 0.726015
#
# Coordination Sequence:
#
# PCOD9164242 Si02
#       7
#     2   4   4   4   4   4   4
#     4  12  24  44  64  90 128 172 216 278 328 382
#     4  11  22  38  61  94 132 174 218 269 327 392
#     4  10  20  40  61  88 132 178 219 268 318 390
#     4  11  21  40  64  95 134 169 213 271 335 393
#     4  12  24  42  66  99 134 170 218 272 338 394
#     4   9  19  35  60  90 134 173 212 261 319 392
#     4  11  23  40  64  94 128 177 226 266 325 389
#
# _framework density 20.632550999999999
#
# number of rings (size 3 to 8) (size 9 to 14) (size 15 to 20)
#    0.000    1.231    3.846    2.769    0.000    2.462 
#    2.769    0.000    0.000    0.923    0.000    0.000 
#    0.000    0.000    0.000    0.000    0.000    0.000 
#
# Total GULP energy -144899.097304 kJ/mol
# GULP energy per Si atom -5573.042204 kJ/mol
# Density = 2.058559 g / cm^3
# Si number density = 20.632551 Si / 1000 Ang^3
#
#
#
# Elastic Constant Matrix: (Units=GPa)
#
#
# Indices 1 2 3 4 5 6 
#
# 1 73.2571 6.3861 31.1595 0.0000 -2.8123 0.0000
# 2 6.3861 127.7111 17.1991 0.0000 -11.4739 0.0000
# 3 31.1595 17.1991 79.8520 0.0000 -12.8279 0.0000
# 4 0.0000 0.0000 0.0000 12.2554 0.0000 5.4143
# 5 -2.8123 -11.4739 -12.8279 0.0000 34.8716 0.0000
# 6 0.0000 0.0000 0.0000 5.4143 0.0000 -6.6316
#
#
#
# Elastic Compliance Matrix: (Units=1/GPa)
#
#
# Indices 1 2 3 4 5 6 
#
# 1 0.016407 -0.000035 -0.006572 0.000000 -0.001106 0.000000
# 2 -0.000035 0.008217 -0.001406 0.000000 0.002184 0.000000
# 3 -0.006572 -0.001406 0.016188 0.000000 0.004962 0.000000
# 4 0.000000 0.000000 0.000000 0.059967 0.000000 0.048960
# 5 -0.001106 0.002184 0.004962 0.000000 0.031131 0.000000
# 6 0.000000 0.000000 0.000000 0.048960 0.000000 -0.110820
#
#
# Mechanical properties :
#
#
# Convention : Reuss Voigt Hill
#
# Bulk Modulus (GPa) = 40.34431 43.36775 41.85603
# Shear Modulus (GPa) = 110.18750 23.17077 66.67914
#
# Velocity S-wave (km/s) = 7.31578 3.35479 5.69101
# Velocity P-wave (km/s) = 9.53714 6.00590 7.96956
#
# Compressibility (1/GPa) = 0.02478664
#
# Stress axis : x y z
#
# Youngs Moduli (GPa) = 60.95102 121.69290 61.77525
#
# Poissons Ratio (x) = 0.00422 0.40601
# Poissons Ratio (y) = 0.00211 0.08683
# Poissons Ratio (z) = 0.40059 0.17105
#
# Static dielectric constant tensor:
#      x y z
#    x 1.708910 0.000000 0.023070 
#    y 0.000000 1.767200 0.000000 
#    z 0.023070 0.000000 1.745150 
# 
# From -- ./inp_files/48882.got.cif
#   From: 2010.05.17/outbox.cif.g08.bks.cpg/sg11_25_cif.got.tgz:48882.got - 2010.06.03 12:22:45.
