data_PCOD9164971
_publ_section_title
;
Structure prediction by ZEFSAII (Michael W. Deem and Ramdas Pophale) SiO2 
 PCOD9164971
Probable space group: P 21/M
;
_chemical_formula_sum "Si O2"
_cell_formula_units_Z 28
_cell_length_a 14.863250
_cell_length_b 15.027206
_cell_length_c 9.041875
_cell_angle_alpha 90.000000
_cell_angle_beta 49.097873
_cell_angle_gamma 90.000000
_cell_volume 1526.420416
_symmetry_space_group_name_H-M "P 21/M"
_symmetry_group_IT_number 11
_symmetry_cell_setting 'monoclinic'
loop_
_space_group_symop_operation_xyz
x,y,z
-x,1/2+y,-z
-x,-y,-z
x,1/2-y,z
loop_
_atom_site_type_symbol
_atom_site_label
_atom_site_fract_x
_atom_site_fract_y
_atom_site_fract_z
Si Si1 0.825681 0.854130 0.210704
Si Si2 0.360068 0.505290 0.104539
Si Si3 0.249954 0.973891 0.537638
Si Si4 0.895523 0.355092 0.104378
Si Si5 0.465657 0.598698 0.485152
Si Si6 0.304133 0.850292 0.917699
Si Si7 0.305263 0.349877 0.940092
O O1 0.792761 0.750000 0.274217
O O2 0.796955 0.872321 0.068967
O O3 0.757785 0.928127 0.379949
O O4 0.966487 0.863906 0.084084
O O5 0.276183 0.516269 0.337218
O O6 0.500000 0.500000 0.000000
O O7 0.337133 0.585636 0.015566
O O8 0.323351 0.417981 0.052599
O O9 0.138676 0.917717 0.720730
O O10 0.360611 0.917367 0.481976
O O11 0.872123 0.250000 0.161488
O O12 0.809395 0.380244 0.059459
O O13 0.500000 0.500000 0.500000
O O14 0.412315 0.647547 0.684088
O O15 0.575994 0.644309 0.288186
O O16 0.282116 0.750000 0.992454
O O17 0.287263 0.250000 0.013789
#
# Coordination Sequence:
#
# PCOD9164971 Si02
#       7
#     4   4   4   4   4   4   4
#     4  10  21  39  63  88 112 146 194 245 288 336
#     4  12  24  39  52  83 128 155 182 231 283 350
#     4  11  21  35  61  83 117 154 189 232 291 337
#     4   9  20  40  64  88 111 143 199 250 282 328
#     4  11  17  36  58  81 112 144 193 245 275 330
#     4  10  21  37  60  83 110 152 195 238 284 329
#     4  11  22  37  59  83 114 154 192 234 291 341
#
# _framework density 18.34357
#
# number of rings (size 3 to 8) (size 9 to 14) (size 15 to 20)
#    0.000    1.429    4.286    1.714    0.000    2.286 
#    0.000    2.857    0.000    5.143    0.000    0.000 
#    0.000    0.000    0.000    0.000    0.000    0.000 
#
# Total GULP energy -156248.413852 kJ/mol
# GULP energy per Si atom -5580.300495 kJ/mol
# Density = 1.830182 g / cm^3
# Si number density = 18.343570 Si / 1000 Ang^3
#
#
#
# Elastic Constant Matrix: (Units=GPa)
#
#
# Indices 1 2 3 4 5 6 
#
# 1 87.0618 44.9403 39.0449 0.0000 12.4816 0.0000
# 2 44.9403 99.8024 42.2926 0.0000 25.0085 0.0000
# 3 39.0449 42.2926 69.2087 0.0000 27.5926 0.0000
# 4 0.0000 0.0000 0.0000 13.0847 0.0000 -2.5362
# 5 12.4816 25.0085 27.5926 0.0000 33.1320 0.0000
# 6 0.0000 0.0000 0.0000 -2.5362 0.0000 23.4478
#
#
#
# Elastic Compliance Matrix: (Units=1/GPa)
#
#
# Indices 1 2 3 4 5 6 
#
# 1 0.017346 -0.005431 -0.008229 0.000000 0.004417 0.000000
# 2 -0.005431 0.015793 -0.003967 0.000000 -0.006571 0.000000
# 3 -0.008229 -0.003967 0.028573 0.000000 -0.017701 0.000000
# 4 0.000000 0.000000 0.000000 0.078062 0.000000 0.008443
# 5 0.004417 -0.006571 -0.017701 0.000000 0.048220 0.000000
# 6 0.000000 0.000000 0.000000 0.008443 0.000000 0.043561
#
#
# Mechanical properties :
#
#
# Convention : Reuss Voigt Hill
#
# Bulk Modulus (GPa) = 37.79455 56.51429 47.15442
# Shear Modulus (GPa) = 18.14035 22.58590 20.36313
#
# Velocity S-wave (km/s) = 3.14812 3.51275 3.33543
# Velocity P-wave (km/s) = 5.81916 6.87955 6.37146
#
# Compressibility (1/GPa) = 0.02645884
#
# Stress axis : x y z
#
# Youngs Moduli (GPa) = 57.64861 63.31908 34.99809
#
# Poissons Ratio (x) = 0.34388 0.28798
# Poissons Ratio (y) = 0.31309 0.13885
# Poissons Ratio (z) = 0.47437 0.25121
#
# Static dielectric constant tensor:
#      x y z
#    x 1.646210 0.000000 -0.025520 
#    y 0.000000 1.650970 0.000000 
#    z -0.025520 0.000000 1.617040 
# 
# From -- ./inp_files/18168.got.cif
#   From: 2010.05.17/outbox.cif.g08.bks.cpg/sg11_10_cif.got.tgz:18168.got - 2010.06.03 12:22:45.
