data_PCOD9164127
_publ_section_title
;
Structure prediction by ZEFSAII (Michael W. Deem and Ramdas Pophale) SiO2 
 PCOD9164127
Probable space group: P 21/M
;
_chemical_formula_sum "Si O2"
_cell_formula_units_Z 32
_cell_length_a 5.689541
_cell_length_b 14.448998
_cell_length_c 16.883014
_cell_angle_alpha 90.000000
_cell_angle_beta 95.775551
_cell_angle_gamma 90.000000
_cell_volume 1380.876176
_symmetry_space_group_name_H-M "P 21/M"
_symmetry_group_IT_number 11
_symmetry_cell_setting 'monoclinic'
loop_
_space_group_symop_operation_xyz
x,y,z
-x,1/2+y,-z
-x,-y,-z
x,1/2-y,z
loop_
_atom_site_type_symbol
_atom_site_label
_atom_site_fract_x
_atom_site_fract_y
_atom_site_fract_z
Si Si1 0.568932 0.642929 0.562912
Si Si2 0.956996 0.361975 0.509910
Si Si3 0.457071 0.852930 0.874523
Si Si4 0.177319 0.011845 0.933857
Si Si5 0.630261 0.857617 0.169058
Si Si6 0.764768 0.996071 0.803763
Si Si7 0.277563 0.850795 0.697445
Si Si8 0.051925 0.448539 0.682573
O O1 0.572768 0.750000 0.537236
O O2 0.312381 0.606787 0.522138
O O3 0.524014 0.644819 0.656407
O O4 0.821392 0.606841 0.539282
O O5 0.950791 0.250000 0.510265
O O6 0.019858 0.398167 0.598901
O O7 0.497301 0.750000 0.907085
O O8 0.286064 0.845267 0.792432
O O9 0.366651 0.928819 0.934354
O O10 0.672172 0.899367 0.834306
O O11 0.271591 0.113597 0.915071
O O12 0.019639 0.999323 0.850695
O O13 0.000000 0.000000 0.000000
O O14 0.576195 0.750000 0.170985
O O15 0.406789 0.925341 0.168410
O O16 0.796287 0.885114 0.250455
O O17 0.802173 0.025902 0.714923
O O18 0.171301 0.750000 0.667516
O O19 0.168807 0.950628 0.677681
#
# Coordination Sequence:
#
# PCOD9164127 Si02
#       8
#     4   4   4   4   4   4   4   4
#     4   9  21  39  57  88 128 169 216 272 334 387
#     4  10  22  39  59  89 128 171 219 273 330 392
#     4  10  21  39  62  92 122 161 210 255 306 374
#     4  10  22  42  63  91 129 161 198 253 311 377
#     4  10  22  40  60  91 125 161 207 257 313 377
#     4  10  21  39  60  92 120 162 202 259 304 377
#     4  10  20  39  62  86 122 162 208 264 317 377
#     4  11  22  38  62  89 123 162 214 260 321 379
#
# _framework density 23.173694999999999
#
# number of rings (size 3 to 8) (size 9 to 14) (size 15 to 20)
#    0.000    2.000    3.750    0.375    1.750    8.000 
#    0.000    3.750    0.000    0.000    0.000    0.000 
#    0.000    0.000    0.000    0.000    0.000    0.000 
#
# Total GULP energy -178173.022313 kJ/mol
# GULP energy per Si atom -5567.906947 kJ/mol
# Density = 2.312095 g / cm^3
# Si number density = 23.173695 Si / 1000 Ang^3
#
#
#
# Elastic Constant Matrix: (Units=GPa)
#
#
# Indices 1 2 3 4 5 6 
#
# 1 65.5214 1.7479 6.7398 0.0000 -14.4815 0.0000
# 2 1.7479 91.9884 1.8799 0.0000 9.7184 0.0000
# 3 6.7398 1.8799 74.7241 0.0000 -20.7165 0.0000
# 4 0.0000 0.0000 0.0000 23.8190 0.0000 2.9443
# 5 -14.4815 9.7184 -20.7165 0.0000 43.5924 0.0000
# 6 0.0000 0.0000 0.0000 2.9443 0.0000 9.2454
#
#
#
# Elastic Compliance Matrix: (Units=1/GPa)
#
#
# Indices 1 2 3 4 5 6 
#
# 1 0.016548 -0.000926 0.000129 0.000000 0.005765 0.000000
# 2 -0.000926 0.011266 -0.001130 0.000000 -0.003357 0.000000
# 3 0.000129 -0.001130 0.015527 0.000000 0.007674 0.000000
# 4 0.000000 0.000000 0.000000 0.043704 0.000000 -0.013918
# 5 0.005765 -0.003357 0.007674 0.000000 0.029250 0.000000
# 6 0.000000 0.000000 0.000000 -0.013918 0.000000 0.112594
#
#
# Mechanical properties :
#
#
# Convention : Reuss Voigt Hill
#
# Bulk Modulus (GPa) = 25.32560 28.10768 26.71664
# Shear Modulus (GPa) = 20.33300 30.12246 25.22773
#
# Velocity S-wave (km/s) = 2.96534 3.60926 3.30303
# Velocity P-wave (km/s) = 4.76200 5.43364 5.10887
#
# Compressibility (1/GPa) = 0.03948573
#
# Stress axis : x y z
#
# Youngs Moduli (GPa) = 60.43106 88.76063 64.40472
#
# Poissons Ratio (x) = 0.08220 -0.00831
# Poissons Ratio (y) = 0.05597 0.07281
# Poissons Ratio (z) = -0.00780 0.10034
#
# Static dielectric constant tensor:
#      x y z
#    x 1.978860 0.000000 0.007430 
#    y 0.000000 1.932600 0.000000 
#    z 0.007430 0.000000 1.959430 
# 
# From -- ./inp_files/57066.got.cif
#   From: 2010.05.17/outbox.cif.g08.bks.cpg/sg11_29_cif.got.tgz:57066.got - 2010.06.03 12:22:45.
