data_PCOD9164874
_publ_section_title
;
Structure prediction by ZEFSAII (Michael W. Deem and Ramdas Pophale) SiO2 
 PCOD9164874
Probable space group: P 21/M
;
_chemical_formula_sum "Si O2"
_cell_formula_units_Z 24
_cell_length_a 10.258610
_cell_length_b 8.564801
_cell_length_c 14.664893
_cell_angle_alpha 90.000000
_cell_angle_beta 79.412091
_cell_angle_gamma 90.000000
_cell_volume 1266.562981
_symmetry_space_group_name_H-M "P 21/M"
_symmetry_group_IT_number 11
_symmetry_cell_setting 'monoclinic'
loop_
_space_group_symop_operation_xyz
x,y,z
-x,1/2+y,-z
-x,-y,-z
x,1/2-y,z
loop_
_atom_site_type_symbol
_atom_site_label
_atom_site_fract_x
_atom_site_fract_y
_atom_site_fract_z
Si Si1 0.434845 0.437089 0.271657
Si Si2 0.851653 0.438346 0.025322
Si Si3 0.808191 0.436467 0.588187
Si Si4 0.077852 0.561293 0.623085
Si Si5 0.736749 0.059693 0.235213
Si Si6 0.620337 0.437778 0.922526
O O1 0.434216 0.250000 0.269476
O O2 0.328870 0.494820 0.358597
O O3 0.585550 0.490172 0.271622
O O4 0.393763 0.498676 0.177395
O O5 0.855088 0.250000 0.025570
O O6 0.784496 0.489898 0.128969
O O7 0.757165 0.486867 0.954003
O O8 0.000000 0.500000 0.000000
O O9 0.801645 0.250000 0.592164
O O10 0.846398 0.483898 0.480064
O O11 0.930320 0.493639 0.635015
O O12 0.068528 0.750000 0.625809
O O13 0.161452 0.508684 0.699704
O O14 0.737055 0.250000 0.235980
O O15 0.615301 0.250000 0.921858
O O16 0.500000 0.500000 0.000000
#
# Coordination Sequence:
#
# PCOD9164874 Si02
#       6
#     4   4   4   4   4   4
#     4  11  22  38  60  84 113 153 193 232 282 337
#     4  10  22  39  57  83 116 148 189 232 277 332
#     4  10  21  37  57  87 118 145 187 238 284 339
#     4   9  19  38  62  83 112 152 189 232 286 339
#     4   9  19  38  59  82 111 148 192 234 277 335
#     4  11  22  39  60  85 117 151 188 232 280 335
#
# _framework density 18.948919
#
# number of rings (size 3 to 8) (size 9 to 14) (size 15 to 20)
#    0.000    2.000    1.667    1.500    2.333    2.667 
#    0.000    1.667    0.000    0.000    0.000    0.000 
#    0.000    0.000    0.000    0.000    0.000    0.000 
#
# Total GULP energy -134047.548847 kJ/mol
# GULP energy per Si atom -5585.314535 kJ/mol
# Density = 1.890579 g / cm^3
# Si number density = 18.948919 Si / 1000 Ang^3
#
#
#
# Elastic Constant Matrix: (Units=GPa)
#
#
# Indices 1 2 3 4 5 6 
#
# 1 108.3084 13.0429 11.9982 0.0000 -3.4110 0.0000
# 2 13.0429 21.7816 4.6776 0.0000 -1.6724 0.0000
# 3 11.9982 4.6776 26.5239 0.0000 0.9233 0.0000
# 4 0.0000 0.0000 0.0000 27.8355 0.0000 -5.2809
# 5 -3.4110 -1.6724 0.9233 0.0000 43.0012 0.0000
# 6 0.0000 0.0000 0.0000 -5.2809 0.0000 31.8059
#
#
#
# Elastic Compliance Matrix: (Units=1/GPa)
#
#
# Indices 1 2 3 4 5 6 
#
# 1 0.010310 -0.005315 -0.003751 0.000000 0.000692 0.000000
# 2 -0.005315 0.050637 -0.006585 0.000000 0.001689 0.000000
# 3 -0.003751 -0.006585 0.040609 0.000000 -0.001426 0.000000
# 4 0.000000 0.000000 0.000000 0.037094 0.000000 0.006159
# 5 0.000692 0.001689 -0.001426 0.000000 0.023406 0.000000
# 6 0.000000 0.000000 0.000000 0.006159 0.000000 0.032463
#
#
# Mechanical properties :
#
#
# Convention : Reuss Voigt Hill
#
# Bulk Modulus (GPa) = 14.23372 24.00569 19.11970
# Shear Modulus (GPa) = 20.06106 28.98821 24.52463
#
# Velocity S-wave (km/s) = 3.25728 3.91552 3.60147
# Velocity P-wave (km/s) = 4.65558 5.75655 5.23509
#
# Compressibility (1/GPa) = 0.07025571
#
# Stress axis : x y z
#
# Youngs Moduli (GPa) = 96.99097 19.74843 24.62492
#
# Poissons Ratio (x) = 0.10497 0.09236
# Poissons Ratio (y) = 0.51553 0.16214
# Poissons Ratio (z) = 0.36377 0.13003
#
# Static dielectric constant tensor:
#      x y z
#    x 1.638320 0.000000 0.006530 
#    y 0.000000 1.652910 0.000000 
#    z 0.006530 0.000000 1.640400 
# 
# From -- ./inp_files/20631.got.cif
#   From: 2010.05.17/outbox.cif.g08.bks.cpg/sg11_11_cif.got.tgz:20631.got - 2010.06.03 12:22:45.
