data_PCOD9164899
_publ_section_title
;
Structure prediction by ZEFSAII (Michael W. Deem and Ramdas Pophale) SiO2 
 PCOD9164899
Probable space group: P 21/M
;
_chemical_formula_sum "Si O2"
_cell_formula_units_Z 28
_cell_length_a 22.035484
_cell_length_b 8.692476
_cell_length_c 15.096389
_cell_angle_alpha 90.000000
_cell_angle_beta 28.547171
_cell_angle_gamma 90.000000
_cell_volume 1381.846979
_symmetry_space_group_name_H-M "P 21/M"
_symmetry_group_IT_number 11
_symmetry_cell_setting 'monoclinic'
loop_
_space_group_symop_operation_xyz
x,y,z
-x,1/2+y,-z
-x,-y,-z
x,1/2-y,z
loop_
_atom_site_type_symbol
_atom_site_label
_atom_site_fract_x
_atom_site_fract_y
_atom_site_fract_z
Si Si1 0.510889 0.926952 0.389816
Si Si2 0.158223 0.569635 0.730830
Si Si3 0.409141 0.564823 0.038871
Si Si4 0.599304 0.928960 0.638337
Si Si5 0.858315 0.432491 0.694587
Si Si6 0.100093 0.571607 0.998137
Si Si7 0.199246 0.422587 0.045710
O O1 0.460905 0.750000 0.451081
O O2 0.500000 0.000000 0.500000
O O3 0.446735 0.038253 0.401396
O O4 0.656155 0.920844 0.172121
O O5 0.123645 0.750000 0.770960
O O6 0.275608 0.532716 0.516916
O O7 0.042258 0.463345 0.850586
O O8 0.182518 0.534910 0.804256
O O9 0.404713 0.750000 0.054258
O O10 0.487458 0.528310 0.848917
O O11 0.500000 0.500000 0.000000
O O12 0.261967 0.511762 0.212722
O O13 0.630684 0.750000 0.611513
O O14 0.866080 0.250000 0.671849
O O15 0.819624 0.470323 0.845320
O O16 0.000000 0.500000 0.500000
O O17 0.119898 0.750000 0.993684
O O18 0.125132 0.475329 0.053523
O O19 0.161184 0.250000 0.121069
#
# Coordination Sequence:
#
# PCOD9164899 Si02
#       7
#     4   4   4   4   4   4   4
#     4  11  23  37  59  91 126 165 207 252 309 374
#     4  10  21  37  58  87 123 165 211 258 312 377
#     4  10  24  44  68  95 126 166 213 269 331 394
#     4  11  22  39  61  88 123 161 205 256 315 380
#     4  11  24  45  69  96 129 168 215 273 336 399
#     4  10  21  37  58  85 122 167 210 257 313 375
#     4  11  23  39  61  90 122 161 208 259 315 379
#
# _framework density 20.262734999999999
#
# number of rings (size 3 to 8) (size 9 to 14) (size 15 to 20)
#    0.000    1.429    1.429    3.429    0.000    9.143 
#    0.000    2.857    0.000    0.000    0.000    0.000 
#    0.000    0.000    0.000    0.000    0.000    0.000 
#
# Total GULP energy -156269.231588 kJ/mol
# GULP energy per Si atom -5581.043985 kJ/mol
# Density = 2.021662 g / cm^3
# Si number density = 20.262735 Si / 1000 Ang^3
#
#
#
# Elastic Constant Matrix: (Units=GPa)
#
#
# Indices 1 2 3 4 5 6 
#
# 1 81.5693 9.2119 36.4007 0.0000 -9.9405 0.0000
# 2 9.2119 33.1831 26.7133 0.0000 1.0819 0.0000
# 3 36.4007 26.7133 112.5903 0.0000 -6.9000 0.0000
# 4 0.0000 0.0000 0.0000 33.9222 0.0000 0.4706
# 5 -9.9405 1.0819 -6.9000 0.0000 19.6385 0.0000
# 6 0.0000 0.0000 0.0000 0.4706 0.0000 34.9170
#
#
#
# Elastic Compliance Matrix: (Units=1/GPa)
#
#
# Indices 1 2 3 4 5 6 
#
# 1 0.015014 -0.000946 -0.004252 0.000000 0.006158 0.000000
# 2 -0.000946 0.037852 -0.009027 0.000000 -0.005736 0.000000
# 3 -0.004252 -0.009027 0.012567 0.000000 0.002760 0.000000
# 4 0.000000 0.000000 0.000000 0.029485 0.000000 -0.000397
# 5 0.006158 -0.005736 0.002760 0.000000 0.055323 0.000000
# 6 0.000000 0.000000 0.000000 -0.000397 0.000000 0.028645
#
#
# Mechanical properties :
#
#
# Convention : Reuss Voigt Hill
#
# Bulk Modulus (GPa) = 27.03833 41.33272 34.18553
# Shear Modulus (GPa) = 22.76205 28.02999 25.39602
#
# Velocity S-wave (km/s) = 3.35527 3.72335 3.54409
# Velocity P-wave (km/s) = 5.32760 6.23916 5.80131
#
# Compressibility (1/GPa) = 0.03698453
#
# Stress axis : x y z
#
# Youngs Moduli (GPa) = 66.60265 26.41873 79.57088
#
# Poissons Ratio (x) = 0.02498 0.33837
# Poissons Ratio (y) = 0.06298 0.71825
# Poissons Ratio (z) = 0.28322 0.23847
#
# Static dielectric constant tensor:
#      x y z
#    x 1.734020 0.000000 -0.059150 
#    y 0.000000 1.668840 0.000000 
#    z -0.059150 0.000000 1.769390 
# 
# From -- ./inp_files/54473.got.cif
#   From: 2010.05.17/outbox.cif.g08.bks.cpg/sg11_28_cif.got.tgz:54473.got - 2010.06.03 12:22:45.
