data_PCOD9164062
_publ_section_title
;
Structure prediction by ZEFSAII (Michael W. Deem and Ramdas Pophale) SiO2 
 PCOD9164062
Probable space group: P 21/M
;
_chemical_formula_sum "Si O2"
_cell_formula_units_Z 22
_cell_length_a 11.408778
_cell_length_b 7.898594
_cell_length_c 9.441182
_cell_angle_alpha 90.000000
_cell_angle_beta 97.304243
_cell_angle_gamma 90.000000
_cell_volume 843.872095
_symmetry_space_group_name_H-M "P 21/M"
_symmetry_group_IT_number 11
_symmetry_cell_setting 'monoclinic'
loop_
_space_group_symop_operation_xyz
x,y,z
-x,1/2+y,-z
-x,-y,-z
x,1/2-y,z
loop_
_atom_site_type_symbol
_atom_site_label
_atom_site_fract_x
_atom_site_fract_y
_atom_site_fract_z
Si Si1 0.163230 0.948190 0.747359
Si Si2 0.321539 0.059982 0.534234
Si Si3 0.538652 0.250000 0.593898
Si Si4 0.581732 0.436230 0.886315
Si Si5 0.906930 0.057292 0.653586
Si Si6 0.832585 0.937985 0.930522
O O1 0.186169 0.750000 0.742771
O O2 0.268146 0.044246 0.682671
O O3 0.038800 0.989790 0.652703
O O4 0.151507 0.005381 0.906671
O O5 0.387623 0.250000 0.524271
O O6 0.394671 0.900971 0.493039
O O7 0.200731 0.053804 0.423306
O O8 0.524775 0.398284 0.725778
O O9 0.630963 0.250000 0.937187
O O10 0.500000 0.500000 0.000000
O O11 0.692235 0.557763 0.884105
O O12 0.894018 0.250000 0.600158
O O13 0.887783 0.055595 0.820008
O O14 0.881375 0.750000 0.916535
#
# Coordination Sequence:
#
# PCOD9164062 Si02
#       6
#     4   4   2   4   4   4
#     4  12  24  40  66 101 134 173 217 266 327 394
#     4  10  21  42  67  93 132 173 218 264 320 382
#     4   8  22  38  66  86 132 160 214 270 318 370
#     4  10  20  38  65  97 127 167 217 268 331 375
#     4  12  25  43  65  95 134 177 218 266 328 397
#     4  12  25  42  66  96 136 172 215 276 332 392
#
# _framework density 26.0703
#
# number of rings (size 3 to 8) (size 9 to 14) (size 15 to 20)
#    1.091    0.000    0.000    8.182    2.545    0.000 
#    0.000    3.636    0.000    0.000    0.000    0.000 
#    0.000    0.000    0.000    0.000    0.000    0.000 
#
# Total GULP energy -123040.894672 kJ/mol
# GULP energy per Si atom -5592.767940 kJ/mol
# Density = 2.601096 g / cm^3
# Si number density = 26.070300 Si / 1000 Ang^3
#
#
#
# Elastic Constant Matrix: (Units=GPa)
#
#
# Indices 1 2 3 4 5 6 
#
# 1 167.5858 55.7712 21.0965 0.0000 -1.1235 0.0000
# 2 55.7712 197.1462 26.1410 0.0000 6.0383 0.0000
# 3 21.0965 26.1410 119.3951 0.0000 -3.3612 0.0000
# 4 0.0000 0.0000 0.0000 12.4573 0.0000 -7.7568
# 5 -1.1235 6.0383 -3.3612 0.0000 44.0523 0.0000
# 6 0.0000 0.0000 0.0000 -7.7568 0.0000 45.9368
#
#
#
# Elastic Compliance Matrix: (Units=1/GPa)
#
#
# Indices 1 2 3 4 5 6 
#
# 1 0.006664 -0.001793 -0.000775 0.000000 0.000357 0.000000
# 2 -0.001793 0.005735 -0.000964 0.000000 -0.000905 0.000000
# 3 -0.000775 -0.000964 0.008746 0.000000 0.000780 0.000000
# 4 0.000000 0.000000 0.000000 0.089706 0.000000 0.015148
# 5 0.000357 -0.000905 0.000780 0.000000 0.022893 0.000000
# 6 0.000000 0.000000 0.000000 0.015148 0.000000 0.024327
#
#
# Mechanical properties :
#
#
# Convention : Reuss Voigt Hill
#
# Bulk Modulus (GPa) = 71.02396 76.68275 73.85335
# Shear Modulus (GPa) = 29.44144 45.89716 37.66930
#
# Velocity S-wave (km/s) = 3.36417 4.20040 3.80532
# Velocity P-wave (km/s) = 6.51096 7.28026 6.90633
#
# Compressibility (1/GPa) = 0.01407976
#
# Stress axis : x y z
#
# Youngs Moduli (GPa) = 150.06392 174.35878 114.34403
#
# Poissons Ratio (x) = 0.31268 0.08859
# Poissons Ratio (y) = 0.26912 0.11027
# Poissons Ratio (z) = 0.11627 0.16814
#
# Static dielectric constant tensor:
#      x y z
#    x 2.077610 0.000000 0.082460 
#    y 0.000000 1.951210 0.000000 
#    z 0.082460 0.000000 2.063070 
# 
# From -- ./inp_files/20322.got.cif
#   From: 2010.05.17/outbox.cif.g08.bks.cpg/sg11_11_cif.got.tgz:20322.got - 2010.06.03 12:22:45.
