data_PCOD9164116
_publ_section_title
;
Structure prediction by ZEFSAII (Michael W. Deem and Ramdas Pophale) SiO2 
 PCOD9164116
Probable space group: P 21/M
;
_chemical_formula_sum "Si O2"
_cell_formula_units_Z 28
_cell_length_a 14.983305
_cell_length_b 7.785559
_cell_length_c 12.908687
_cell_angle_alpha 90.000000
_cell_angle_beta 58.906775
_cell_angle_gamma 90.000000
_cell_volume 1289.495156
_symmetry_space_group_name_H-M "P 21/M"
_symmetry_group_IT_number 11
_symmetry_cell_setting 'monoclinic'
loop_
_space_group_symop_operation_xyz
x,y,z
-x,1/2+y,-z
-x,-y,-z
x,1/2-y,z
loop_
_atom_site_type_symbol
_atom_site_label
_atom_site_fract_x
_atom_site_fract_y
_atom_site_fract_z
Si Si1 0.928689 0.955818 0.444740
Si Si2 0.219833 0.956863 0.769324
Si Si3 0.229483 0.043098 0.993847
Si Si4 0.001369 0.548400 0.824704
Si Si5 0.606467 0.045343 0.493391
Si Si6 0.379415 0.042706 0.086793
Si Si7 0.700597 0.953368 0.644616
O O1 0.925784 0.750000 0.433307
O O2 0.811884 0.022064 0.538133
O O3 0.974268 0.031855 0.311723
O O4 0.000000 0.000000 0.500000
O O5 0.215994 0.750000 0.762322
O O6 0.102303 0.025068 0.823245
O O7 0.296881 0.021738 0.633670
O O8 0.260985 0.000462 0.858141
O O9 0.226287 0.250000 0.005538
O O10 0.308654 0.979114 0.033974
O O11 0.111996 0.974454 0.081976
O O12 0.996393 0.750000 0.854343
O O13 0.614498 0.250000 0.493585
O O14 0.500000 0.000000 0.500000
O O15 0.617449 0.978905 0.603353
O O16 0.371592 0.250000 0.092923
O O17 0.336358 0.976657 0.222795
O O18 0.500000 0.000000 0.000000
O O19 0.716205 0.750000 0.649443
#
# Coordination Sequence:
#
# PCOD9164116 Si02
#       7
#     4   4   4   4   4   4   4
#     4  11  22  36  60  90 122 160 200 247 300 361
#     4  10  22  39  61  90 124 158 197 249 301 354
#     4  10  22  39  62  88 121 161 201 246 298 361
#     4  10  20  39  61  87 123 158 196 248 304 358
#     4  11  24  41  63  92 124 159 201 251 304 360
#     4  10  23  42  61  86 117 155 200 247 298 351
#     4  10  22  42  64  88 121 158 201 251 303 357
#
# _framework density 21.713923999999999
#
# number of rings (size 3 to 8) (size 9 to 14) (size 15 to 20)
#    0.000    1.714    1.429    2.143    2.000    6.286 
#    0.000    1.429    0.000    0.000    0.000    0.000 
#    0.000    0.000    0.000    0.000    0.000    0.000 
#
# Total GULP energy -156538.649845 kJ/mol
# GULP energy per Si atom -5590.666066 kJ/mol
# Density = 2.166450 g / cm^3
# Si number density = 21.713924 Si / 1000 Ang^3
#
#
#
# Elastic Constant Matrix: (Units=GPa)
#
#
# Indices 1 2 3 4 5 6 
#
# 1 126.6618 -6.3859 32.9683 0.0000 20.2149 0.0000
# 2 -6.3859 30.1348 -6.5051 0.0000 -8.7550 0.0000
# 3 32.9683 -6.5051 97.0140 0.0000 23.9901 0.0000
# 4 0.0000 0.0000 0.0000 27.1822 0.0000 3.6680
# 5 20.2149 -8.7550 23.9901 0.0000 40.2244 0.0000
# 6 0.0000 0.0000 0.0000 3.6680 0.0000 23.7597
#
#
#
# Elastic Compliance Matrix: (Units=1/GPa)
#
#
# Indices 1 2 3 4 5 6 
#
# 1 0.008999 0.000530 -0.002267 0.000000 -0.003055 0.000000
# 2 0.000530 0.035480 0.000417 0.000000 0.007208 0.000000
# 3 -0.002267 0.000417 0.012671 0.000000 -0.006327 0.000000
# 4 0.000000 0.000000 0.000000 0.037572 0.000000 -0.005800
# 5 -0.003055 0.007208 -0.006327 0.000000 0.031738 0.000000
# 6 0.000000 0.000000 0.000000 -0.005800 0.000000 0.042983
#
#
# Mechanical properties :
#
#
# Convention : Reuss Voigt Hill
#
# Bulk Modulus (GPa) = 18.34542 32.66281 25.50412
# Shear Modulus (GPa) = 26.28055 33.81548 30.04802
#
# Velocity S-wave (km/s) = 3.48272 3.95057 3.72400
# Velocity P-wave (km/s) = 4.96382 5.99035 5.50108
#
# Compressibility (1/GPa) = 0.05450951
#
# Stress axis : x y z
#
# Youngs Moduli (GPa) = 111.11736 28.18450 78.92206
#
# Poissons Ratio (x) = -0.01494 0.17894
# Poissons Ratio (y) = -0.05890 -0.03288
# Poissons Ratio (z) = 0.25193 -0.01174
#
# Static dielectric constant tensor:
#      x y z
#    x 1.774360 0.000000 -0.012880 
#    y 0.000000 1.808770 0.000000 
#    z -0.012880 0.000000 1.766320 
# 
# From -- ./inp_files/37873.got.cif
#   From: 2010.05.17/outbox.cif.g08.bks.cpg/sg11_19_cif.got.tgz:37873.got - 2010.06.03 12:22:45.
