data_PCOD9164806
_publ_section_title
;
Structure prediction by ZEFSAII (Michael W. Deem and Ramdas Pophale) SiO2 
 PCOD9164806
Probable space group: P 21/M
;
_chemical_formula_sum "Si O2"
_cell_formula_units_Z 32
_cell_length_a 11.970951
_cell_length_b 7.723266
_cell_length_c 29.255161
_cell_angle_alpha 90.000000
_cell_angle_beta 31.439166
_cell_angle_gamma 90.000000
_cell_volume 1410.794875
_symmetry_space_group_name_H-M "P 21/M"
_symmetry_group_IT_number 11
_symmetry_cell_setting 'monoclinic'
loop_
_space_group_symop_operation_xyz
x,y,z
-x,1/2+y,-z
-x,-y,-z
x,1/2-y,z
loop_
_atom_site_type_symbol
_atom_site_label
_atom_site_fract_x
_atom_site_fract_y
_atom_site_fract_z
Si Si1 0.955863 0.541043 0.283939
Si Si2 0.338187 0.545728 0.859908
Si Si3 0.661167 0.056742 0.904513
Si Si4 0.849580 0.041005 0.169496
Si Si5 0.590774 0.041953 0.348153
Si Si6 0.288477 0.956715 0.975444
Si Si7 0.104168 0.041708 0.512308
Si Si8 0.836930 0.460270 0.693312
O O1 0.975830 0.750000 0.277537
O O2 0.719198 0.498837 0.349534
O O3 0.120833 0.467548 0.187834
O O4 0.036262 0.481586 0.305453
O O5 0.292461 0.750000 0.873941
O O6 0.259508 0.472483 0.839139
O O7 0.232095 0.480542 0.944033
O O8 0.592248 0.521426 0.777130
O O9 0.720680 0.250000 0.896543
O O10 0.506879 0.047426 0.914302
O O11 0.500000 0.000000 0.000000
O O12 0.834760 0.250000 0.175575
O O13 0.728622 0.975552 0.256679
O O14 0.098603 0.995644 0.076972
O O15 0.581596 0.250000 0.347476
O O16 0.347975 0.976429 0.430862
O O17 0.325353 0.750000 0.961958
O O18 0.112450 0.250000 0.513095
O O19 0.959522 0.979721 0.604957
O O20 0.000000 0.000000 0.500000
O O21 0.832771 0.250000 0.695013
#
# Coordination Sequence:
#
# PCOD9164806 Si02
#       8
#     4   4   4   4   4   4   4   4
#     4  10  22  39  58  83 116 153 195 241 290 345
#     4  10  21  37  58  85 117 153 196 245 294 353
#     4  11  22  37  57  81 115 157 200 247 293 345
#     4  10  21  37  56  80 115 157 196 241 297 350
#     4  10  22  39  59  85 117 152 192 239 291 346
#     4  11  22  35  54  84 116 150 197 245 293 352
#     4  10  22  41  65  92 121 152 191 237 291 353
#     4  10  21  39  62  87 117 155 195 241 296 352
#
# _framework density 22.682247
#
# number of rings (size 3 to 8) (size 9 to 14) (size 15 to 20)
#    0.000    1.750    1.250    2.625    0.000    7.500 
#    0.000    0.000    0.000    0.000    0.000    0.000 
#    0.000    0.000    0.000    0.000    0.000    0.000 
#
# Total GULP energy -178827.631744 kJ/mol
# GULP energy per Si atom -5588.363492 kJ/mol
# Density = 2.263062 g / cm^3
# Si number density = 22.682247 Si / 1000 Ang^3
#
#
#
# Elastic Constant Matrix: (Units=GPa)
#
#
# Indices 1 2 3 4 5 6 
#
# 1 95.5413 -12.6344 19.7240 0.0000 -7.2725 0.0000
# 2 -12.6344 37.6698 -6.7933 0.0000 8.7972 0.0000
# 3 19.7240 -6.7933 99.4457 0.0000 1.6890 0.0000
# 4 0.0000 0.0000 0.0000 15.9302 0.0000 -1.4112
# 5 -7.2725 8.7972 1.6890 0.0000 42.6534 0.0000
# 6 0.0000 0.0000 0.0000 -1.4112 0.0000 24.9171
#
#
#
# Elastic Compliance Matrix: (Units=1/GPa)
#
#
# Indices 1 2 3 4 5 6 
#
# 1 0.011414 0.003132 -0.002073 0.000000 0.001382 0.000000
# 2 0.003132 0.029154 0.001464 0.000000 -0.005537 0.000000
# 3 -0.002073 0.001464 0.010585 0.000000 -0.001075 0.000000
# 4 0.000000 0.000000 0.000000 0.063090 0.000000 0.003573
# 5 0.001382 -0.005537 -0.001075 0.000000 0.024865 0.000000
# 6 0.000000 0.000000 0.000000 0.003573 0.000000 0.040335
#
#
# Mechanical properties :
#
#
# Convention : Reuss Voigt Hill
#
# Bulk Modulus (GPa) = 17.79406 25.91659 21.85532
# Shear Modulus (GPa) = 25.88906 32.19085 29.03996
#
# Velocity S-wave (km/s) = 3.38210 3.77133 3.58200
# Velocity P-wave (km/s) = 4.80764 5.51494 5.17339
#
# Compressibility (1/GPa) = 0.05619854
#
# Stress axis : x y z
#
# Youngs Moduli (GPa) = 87.61119 34.30063 94.47087
#
# Poissons Ratio (x) = -0.10741 0.19588
# Poissons Ratio (y) = -0.27436 -0.13835
# Poissons Ratio (z) = 0.18165 -0.05023
#
# Static dielectric constant tensor:
#      x y z
#    x 1.863670 0.000000 0.025090 
#    y 0.000000 1.832990 0.000000 
#    z 0.025090 0.000000 1.838230 
# 
# From -- ./inp_files/38207.got.cif
#   From: 2010.05.17/outbox.cif.g08.bks.cpg/sg11_20_cif.got.tgz:38207.got - 2010.06.03 12:22:45.
