data_PCOD9164584
_publ_section_title
;
Structure prediction by ZEFSAII (Michael W. Deem and Ramdas Pophale) SiO2 
 PCOD9164584
Probable space group: P 21/M
;
_chemical_formula_sum "Si O2"
_cell_formula_units_Z 20
_cell_length_a 17.396349
_cell_length_b 11.280119
_cell_length_c 5.060521
_cell_angle_alpha 90.000000
_cell_angle_beta 94.273635
_cell_angle_gamma 90.000000
_cell_volume 990.279525
_symmetry_space_group_name_H-M "P 21/M"
_symmetry_group_IT_number 11
_symmetry_cell_setting 'monoclinic'
loop_
_space_group_symop_operation_xyz
x,y,z
-x,1/2+y,-z
-x,-y,-z
x,1/2-y,z
loop_
_atom_site_type_symbol
_atom_site_label
_atom_site_fract_x
_atom_site_fract_y
_atom_site_fract_z
Si Si1 0.442901 0.390004 0.426438
Si Si2 0.661416 0.886355 0.099062
Si Si3 0.823849 0.506786 0.026738
Si Si4 0.124283 0.879524 0.469069
Si Si5 0.024300 0.379331 0.859700
O O1 0.500000 0.500000 0.500000
O O2 0.470878 0.250000 0.455940
O O3 0.373467 0.401315 0.619297
O O4 0.407370 0.406108 0.126806
O O5 0.685853 0.750000 0.072943
O O6 0.735679 0.963653 0.054673
O O7 0.849495 0.401572 0.228086
O O8 0.883942 0.607789 0.139601
O O9 0.840716 0.474038 0.727490
O O10 0.150642 0.750000 0.387944
O O11 0.031546 0.881759 0.409533
O O12 0.008248 0.250000 0.981010
O O13 0.000000 0.500000 0.000000
#
# Coordination Sequence:
#
# PCOD9164584 Si02
#       5
#     4   4   4   4   4
#     4  10  21  40  63  87 116 148 183 225 278 340
#     4  10  21  37  59  86 115 145 183 236 285 326
#     4  11  20  36  57  82 111 149 192 237 281 336
#     4  10  21  36  53  77 114 156 195 239 286 328
#     4   9  19  35  56  82 112 152 199 241 283 332
#
# _framework density 20.19632
#
# number of rings (size 3 to 8) (size 9 to 14) (size 15 to 20)
#    0.000    2.000    0.000    3.600    0.000    0.800 
#    0.000   19.000    0.000    0.000    0.000    0.000 
#    0.000    0.000    0.000    0.000    0.000    0.000 
#
# Total GULP energy -111440.989176 kJ/mol
# GULP energy per Si atom -5572.049459 kJ/mol
# Density = 2.015035 g / cm^3
# Si number density = 20.196320 Si / 1000 Ang^3
#
#
#
# Elastic Constant Matrix: (Units=GPa)
#
#
# Indices 1 2 3 4 5 6 
#
# 1 55.8326 37.0044 -13.1276 0.0000 4.3581 0.0000
# 2 37.0044 112.8605 0.5398 0.0000 6.9591 0.0000
# 3 -13.1276 0.5398 47.9141 0.0000 -4.7300 0.0000
# 4 0.0000 0.0000 0.0000 24.7375 0.0000 -4.7590
# 5 4.3581 6.9591 -4.7300 0.0000 20.3186 0.0000
# 6 0.0000 0.0000 0.0000 -4.7590 0.0000 12.5116
#
#
#
# Elastic Compliance Matrix: (Units=1/GPa)
#
#
# Indices 1 2 3 4 5 6 
#
# 1 0.025015 -0.008175 0.006850 0.000000 -0.000971 0.000000
# 2 -0.008175 0.011731 -0.002657 0.000000 -0.002883 0.000000
# 3 0.006850 -0.002657 0.023257 0.000000 0.004855 0.000000
# 4 0.000000 0.000000 0.000000 0.043616 0.000000 0.016590
# 5 -0.000971 -0.002883 0.004855 0.000000 0.051542 0.000000
# 6 0.000000 0.000000 0.000000 0.016590 0.000000 0.086236
#
#
# Mechanical properties :
#
#
# Convention : Reuss Voigt Hill
#
# Bulk Modulus (GPa) = 19.21589 29.49339 24.35464
# Shear Modulus (GPa) = 18.74722 24.32626 21.53674
#
# Velocity S-wave (km/s) = 3.05002 3.47434 3.26907
# Velocity P-wave (km/s) = 4.68388 5.54344 5.13169
#
# Compressibility (1/GPa) = 0.05204027
#
# Stress axis : x y z
#
# Youngs Moduli (GPa) = 39.97589 85.24205 42.99854
#
# Poissons Ratio (x) = 0.69683 -0.29454
# Poissons Ratio (y) = 0.32679 0.11423
# Poissons Ratio (z) = -0.27383 0.22645
#
# Static dielectric constant tensor:
#      x y z
#    x 1.717510 0.000000 0.000710 
#    y 0.000000 1.765660 0.000000 
#    z 0.000710 0.000000 1.707400 
# 
# From -- ./inp_files/6079.got.cif
#   From: 2010.05.17/outbox.cif.g08.bks.cpg/sg11_4_cif.got.tgz:6079.got - 2010.06.03 12:22:45.
