data_PCOD9164459
_publ_section_title
;
Structure prediction by ZEFSAII (Michael W. Deem and Ramdas Pophale) SiO2 
 PCOD9164459
Probable space group: P 21/M
;
_chemical_formula_sum "Si O2"
_cell_formula_units_Z 24
_cell_length_a 12.088690
_cell_length_b 8.853104
_cell_length_c 12.746965
_cell_angle_alpha 90.000000
_cell_angle_beta 90.407856
_cell_angle_gamma 90.000000
_cell_volume 1364.176603
_symmetry_space_group_name_H-M "P 21/M"
_symmetry_group_IT_number 11
_symmetry_cell_setting 'monoclinic'
loop_
_space_group_symop_operation_xyz
x,y,z
-x,1/2+y,-z
-x,-y,-z
x,1/2-y,z
loop_
_atom_site_type_symbol
_atom_site_label
_atom_site_fract_x
_atom_site_fract_y
_atom_site_fract_z
Si Si1 0.621388 0.931490 0.505953
Si Si2 0.230705 0.431309 0.694882
Si Si3 0.383255 0.930096 0.871369
Si Si4 0.995740 0.431461 0.383058
Si Si5 0.379481 0.570239 0.118032
Si Si6 0.233896 0.431805 0.291510
O O1 0.612803 0.750000 0.506717
O O2 0.693856 0.973763 0.405122
O O3 0.686687 0.977209 0.611244
O O4 0.500000 0.000000 0.500000
O O5 0.221219 0.250000 0.697312
O O6 0.293264 0.491328 0.797602
O O7 0.111123 0.504152 0.676456
O O8 0.380724 0.750000 0.856088
O O9 0.505819 0.991828 0.846662
O O10 0.363683 0.962872 0.994449
O O11 0.989812 0.250000 0.391001
O O12 0.108934 0.470526 0.323124
O O13 0.000000 0.500000 0.500000
O O14 0.391006 0.750000 0.130081
O O15 0.280224 0.509002 0.187873
O O16 0.240327 0.250000 0.280416
#
# Coordination Sequence:
#
# PCOD9164459 Si02
#       6
#     4   4   4   4   4   4
#     4  10  21  35  51  79 114 144 179 228 280 335
#     4  11  22  38  58  84 115 148 193 238 283 340
#     4  10  21  38  59  85 117 152 190 234 287 342
#     4  11  22  39  60  83 113 154 195 235 285 339
#     4  10  21  37  59  87 116 149 192 237 284 340
#     4  10  21  38  57  80 114 150 190 234 282 339
#
# _framework density 17.593029999999999
#
# number of rings (size 3 to 8) (size 9 to 14) (size 15 to 20)
#    0.000    1.667    1.667    3.000    0.000    8.000 
#    0.000    0.833    0.000    0.000    0.000    0.000 
#    0.000    0.000    0.000    0.000    0.000    0.000 
#
# Total GULP energy -134108.454465 kJ/mol
# GULP energy per Si atom -5587.852269 kJ/mol
# Density = 1.755299 g / cm^3
# Si number density = 17.593030 Si / 1000 Ang^3
#
#
#
# Elastic Constant Matrix: (Units=GPa)
#
#
# Indices 1 2 3 4 5 6 
#
# 1 149.0632 53.7472 66.3866 0.0000 -18.5653 0.0000
# 2 53.7472 48.5714 44.3546 0.0000 -7.5123 0.0000
# 3 66.3866 44.3546 83.9493 0.0000 -11.4616 0.0000
# 4 0.0000 0.0000 0.0000 30.8519 0.0000 0.5294
# 5 -18.5653 -7.5123 -11.4616 0.0000 26.0176 0.0000
# 6 0.0000 0.0000 0.0000 0.5294 0.0000 35.5451
#
#
#
# Elastic Compliance Matrix: (Units=1/GPa)
#
#
# Indices 1 2 3 4 5 6 
#
# 1 0.012533 -0.009059 -0.004534 0.000000 0.004330 0.000000
# 2 -0.009059 0.046468 -0.017490 0.000000 -0.000752 0.000000
# 3 -0.004534 -0.017490 0.025118 0.000000 0.002780 0.000000
# 4 0.000000 0.000000 0.000000 0.032421 0.000000 -0.000483
# 5 0.004330 -0.000752 0.002780 0.000000 0.042533 0.000000
# 6 0.000000 0.000000 0.000000 -0.000483 0.000000 0.028140
#
#
# Mechanical properties :
#
#
# Convention : Reuss Voigt Hill
#
# Bulk Modulus (GPa) = 45.55163 67.84010 56.69587
# Shear Modulus (GPa) = 19.47812 26.28928 22.88370
#
# Velocity S-wave (km/s) = 3.33100 3.86981 3.61047
# Velocity P-wave (km/s) = 6.38296 7.65583 7.04819
#
# Compressibility (1/GPa) = 0.02195311
#
# Stress axis : x y z
#
# Youngs Moduli (GPa) = 79.78630 21.52011 39.81241
#
# Poissons Ratio (x) = 0.19495 0.18050
# Poissons Ratio (y) = 0.72279 0.69633
# Poissons Ratio (z) = 0.36173 0.37639
#
# Static dielectric constant tensor:
#      x y z
#    x 1.568120 0.000000 -0.004360 
#    y 0.000000 1.587380 0.000000 
#    z -0.004360 0.000000 1.588000 
# 
# From -- ./inp_files/33771.got.cif
#   From: 2010.05.17/outbox.cif.g08.bks.cpg/sg11_17_cif.got.tgz:33771.got - 2010.06.03 12:22:45.
