data_PCOD9164698
_publ_section_title
;
Structure prediction by ZEFSAII (Michael W. Deem and Ramdas Pophale) SiO2 
 PCOD9164698
Probable space group: P 21/M
;
_chemical_formula_sum "Si O2"
_cell_formula_units_Z 28
_cell_length_a 9.939673
_cell_length_b 8.846818
_cell_length_c 27.665395
_cell_angle_alpha 90.000000
_cell_angle_beta 38.338442
_cell_angle_gamma 90.000000
_cell_volume 1509.043114
_symmetry_space_group_name_H-M "P 21/M"
_symmetry_group_IT_number 11
_symmetry_cell_setting 'monoclinic'
loop_
_space_group_symop_operation_xyz
x,y,z
-x,1/2+y,-z
-x,-y,-z
x,1/2-y,z
loop_
_atom_site_type_symbol
_atom_site_label
_atom_site_fract_x
_atom_site_fract_y
_atom_site_fract_z
Si Si1 0.491206 0.568897 0.270083
Si Si2 0.594378 0.931073 0.022900
Si Si3 0.682992 0.931201 0.481897
Si Si4 0.116197 0.568245 0.303585
Si Si5 0.038221 0.568414 0.855399
Si Si6 0.194411 0.430698 0.180376
Si Si7 0.241154 0.432010 0.431679
O O1 0.486043 0.750000 0.275885
O O2 0.340992 0.526992 0.266621
O O3 0.736109 0.511185 0.197634
O O4 0.379119 0.497214 0.348824
O O5 0.572983 0.750000 0.028535
O O6 0.436334 0.000027 0.107436
O O7 0.849564 0.967311 0.947623
O O8 0.500000 0.000000 0.000000
O O9 0.670875 0.750000 0.483045
O O10 0.658213 0.974723 0.544755
O O11 0.919172 0.974551 0.394687
O O12 0.500000 0.000000 0.500000
O O13 0.111941 0.750000 0.298585
O O14 0.092720 0.490729 0.258402
O O15 0.068012 0.750000 0.846576
O O16 0.943486 0.526036 0.828804
O O17 0.208772 0.250000 0.176348
O O18 0.230227 0.250000 0.431615
O O19 0.000000 0.500000 0.500000
#
# Coordination Sequence:
#
# PCOD9164698 Si02
#       7
#     4   4   4   4   4   4   4
#     4  11  23  39  59  84 114 151 193 233 282 338
#     4   9  17  33  57  84 116 150 186 232 283 334
#     4  10  23  41  59  83 115 147 187 237 283 334
#     4  10  22  41  57  79 116 151 187 234 284 334
#     4   9  20  37  57  86 117 145 185 235 280 331
#     4  10  21  36  58  87 116 149 190 234 284 338
#     4  11  22  40  62  84 113 149 190 235 281 336
#
# _framework density 18.554805000000002
#
# number of rings (size 3 to 8) (size 9 to 14) (size 15 to 20)
#    0.000    2.000    1.429    2.571    2.000    6.286 
#    0.000    0.714    0.000    0.000    0.000    0.000 
#    0.000    0.000    0.000    0.000    0.000    0.000 
#
# Total GULP energy -156275.083181 kJ/mol
# GULP energy per Si atom -5581.252971 kJ/mol
# Density = 1.851257 g / cm^3
# Si number density = 18.554805 Si / 1000 Ang^3
#
#
#
# Elastic Constant Matrix: (Units=GPa)
#
#
# Indices 1 2 3 4 5 6 
#
# 1 70.8548 15.8711 -1.9983 0.0000 -16.4149 0.0000
# 2 15.8711 28.3323 8.7582 0.0000 -9.7606 0.0000
# 3 -1.9983 8.7582 33.2276 0.0000 -17.4945 0.0000
# 4 0.0000 0.0000 0.0000 37.8953 0.0000 -2.1797
# 5 -16.4149 -9.7606 -17.4945 0.0000 35.1228 0.0000
# 6 0.0000 0.0000 0.0000 -2.1797 0.0000 30.3723
#
#
#
# Elastic Compliance Matrix: (Units=1/GPa)
#
#
# Indices 1 2 3 4 5 6 
#
# 1 0.019129 -0.009891 0.009512 0.000000 0.010929 0.000000
# 2 -0.009891 0.045113 -0.011276 0.000000 0.002298 0.000000
# 3 0.009512 -0.011276 0.046534 0.000000 0.024490 0.000000
# 4 0.000000 0.000000 0.000000 0.026498 0.000000 0.001902
# 5 0.010929 0.002298 0.024490 0.000000 0.046416 0.000000
# 6 0.000000 0.000000 0.000000 0.001902 0.000000 0.033061
#
#
# Mechanical properties :
#
#
# Convention : Reuss Voigt Hill
#
# Bulk Modulus (GPa) = 11.43306 19.74188 15.58747
# Shear Modulus (GPa) = 18.57238 27.99700 23.28469
#
# Velocity S-wave (km/s) = 3.16721 3.88865 3.54632
# Velocity P-wave (km/s) = 4.42155 5.55202 5.01872
#
# Compressibility (1/GPa) = 0.08746563
#
# Stress axis : x y z
#
# Youngs Moduli (GPa) = 52.27658 22.16636 21.48983
#
# Poissons Ratio (x) = 0.21924 -0.20440
# Poissons Ratio (y) = 0.51706 0.24232
# Poissons Ratio (z) = -0.49724 0.24995
#
# Static dielectric constant tensor:
#      x y z
#    x 1.620440 0.000000 -0.020630 
#    y 0.000000 1.619810 0.000000 
#    z -0.020630 0.000000 1.628260 
# 
# From -- ./inp_files/28145.got.cif
#   From: 2010.05.17/outbox.cif.g08.bks.cpg/sg11_15_cif.got.tgz:28145.got - 2010.06.03 12:22:45.
