data_PCOD9164707
_publ_section_title
;
Structure prediction by ZEFSAII (Michael W. Deem and Ramdas Pophale) SiO2 
 PCOD9164707
Probable space group: P 21/M
;
_chemical_formula_sum "Si O2"
_cell_formula_units_Z 28
_cell_length_a 15.961597
_cell_length_b 8.822684
_cell_length_c 21.589243
_cell_angle_alpha 90.000000
_cell_angle_beta 151.864970
_cell_angle_gamma 90.000000
_cell_volume 1433.650390
_symmetry_space_group_name_H-M "P 21/M"
_symmetry_group_IT_number 11
_symmetry_cell_setting 'monoclinic'
loop_
_space_group_symop_operation_xyz
x,y,z
-x,1/2+y,-z
-x,-y,-z
x,1/2-y,z
loop_
_atom_site_type_symbol
_atom_site_label
_atom_site_fract_x
_atom_site_fract_y
_atom_site_fract_z
Si Si1 0.603666 0.075257 0.481990
Si Si2 0.062284 0.931577 0.605399
Si Si3 0.216867 0.074685 0.291086
Si Si4 0.306601 0.429204 0.583855
Si Si5 0.928835 0.929434 0.018188
Si Si6 0.456322 0.567307 0.904277
Si Si7 0.404009 0.930346 0.127474
O O1 0.654213 0.250000 0.522808
O O2 0.404639 0.057971 0.378154
O O3 0.737051 0.973051 0.609077
O O4 0.606497 0.025478 0.413346
O O5 0.067352 0.750000 0.601845
O O6 0.255158 0.980373 0.754477
O O7 0.900808 0.967477 0.546416
O O8 0.000000 0.000000 0.500000
O O9 0.159711 0.250000 0.250024
O O10 0.075767 0.968439 0.165820
O O11 0.325786 0.250000 0.582882
O O12 0.409748 0.456882 0.715242
O O13 0.906070 0.750000 0.995225
O O14 0.748514 0.002809 0.927419
O O15 0.000000 0.000000 0.000000
O O16 0.464886 0.750000 0.911880
O O17 0.582145 0.506515 0.930950
O O18 0.500000 0.500000 0.000000
O O19 0.377951 0.750000 0.103861
#
# Coordination Sequence:
#
# PCOD9164707 Si02
#       7
#     4   4   4   4   4   4   4
#     4  10  21  36  58  88 119 156 201 252 306 363
#     4  10  21  39  63  90 119 157 202 253 308 364
#     4  10  21  39  60  83 118 160 203 252 307 364
#     4  10  21  37  60  89 120 156 203 254 308 370
#     4  12  25  41  62  90 125 163 208 256 310 375
#     4  11  24  42  65  93 130 172 216 268 325 386
#     4  11  23  41  65  91 124 165 209 261 320 382
#
# _framework density 19.530563000000001
#
# number of rings (size 3 to 8) (size 9 to 14) (size 15 to 20)
#    0.000    1.429    1.429    3.857    0.000    7.429 
#    0.000    4.286    0.000    0.000    0.000    0.000 
#    0.000    0.000    0.000    0.000    0.000    0.000 
#
# Total GULP energy -156438.888144 kJ/mol
# GULP energy per Si atom -5587.103148 kJ/mol
# Density = 1.948611 g / cm^3
# Si number density = 19.530563 Si / 1000 Ang^3
#
#
#
# Elastic Constant Matrix: (Units=GPa)
#
#
# Indices 1 2 3 4 5 6 
#
# 1 112.6752 50.2636 41.8288 0.0000 -1.2250 0.0000
# 2 50.2636 64.5143 40.0782 0.0000 8.1658 0.0000
# 3 41.8288 40.0782 83.8554 0.0000 -8.8617 0.0000
# 4 0.0000 0.0000 0.0000 30.6830 0.0000 -6.1145
# 5 -1.2250 8.1658 -8.8617 0.0000 18.3914 0.0000
# 6 0.0000 0.0000 0.0000 -6.1145 0.0000 34.5844
#
#
#
# Elastic Compliance Matrix: (Units=1/GPa)
#
#
# Indices 1 2 3 4 5 6 
#
# 1 0.014332 -0.010981 -0.001354 0.000000 0.005178 0.000000
# 2 -0.010981 0.035774 -0.014094 0.000000 -0.023406 0.000000
# 3 -0.001354 -0.014094 0.021061 0.000000 0.016316 0.000000
# 4 0.000000 0.000000 0.000000 0.033782 0.000000 0.005973
# 5 0.005178 -0.023406 0.016316 0.000000 0.072972 0.000000
# 6 0.000000 0.000000 0.000000 0.005973 0.000000 0.029971
#
#
# Mechanical properties :
#
#
# Convention : Reuss Voigt Hill
#
# Bulk Modulus (GPa) = 54.61530 58.37624 56.49577
# Shear Modulus (GPa) = 18.73695 25.32339 22.03017
#
# Velocity S-wave (km/s) = 3.10072 3.60474 3.36219
# Velocity P-wave (km/s) = 6.39093 6.87606 6.63793
#
# Compressibility (1/GPa) = 0.01830989
#
# Stress axis : x y z
#
# Youngs Moduli (GPa) = 69.77178 27.95332 47.48102
#
# Poissons Ratio (x) = 0.30695 0.06429
# Poissons Ratio (y) = 0.76615 0.66920
# Poissons Ratio (z) = 0.09447 0.39398
#
# Static dielectric constant tensor:
#      x y z
#    x 1.688820 0.000000 0.044880 
#    y 0.000000 1.648300 0.000000 
#    z 0.044880 0.000000 1.733350 
# 
# From -- ./inp_files/65462.got.cif
#   From: 2010.05.17/outbox.cif.g08.bks.cpg/sg11_33_cif.got.tgz:65462.got - 2010.06.03 12:22:45.
