data_PCOD9164258
_publ_section_title
;
Structure prediction by ZEFSAII (Michael W. Deem and Ramdas Pophale) SiO2 
 PCOD9164258
Probable space group: P 21/M
;
_chemical_formula_sum "Si O2"
_cell_formula_units_Z 32
_cell_length_a 22.716769
_cell_length_b 8.156552
_cell_length_c 15.208215
_cell_angle_alpha 90.000000
_cell_angle_beta 32.337268
_cell_angle_gamma 90.000000
_cell_volume 1507.320709
_symmetry_space_group_name_H-M "P 21/M"
_symmetry_group_IT_number 11
_symmetry_cell_setting 'monoclinic'
loop_
_space_group_symop_operation_xyz
x,y,z
-x,1/2+y,-z
-x,-y,-z
x,1/2-y,z
loop_
_atom_site_type_symbol
_atom_site_label
_atom_site_fract_x
_atom_site_fract_y
_atom_site_fract_z
Si Si1 0.266344 0.555352 0.462745
Si Si2 0.303646 0.943081 0.048369
Si Si3 0.207267 0.554988 0.879368
Si Si4 0.055093 0.947117 0.340339
Si Si5 0.625135 0.942321 0.853838
Si Si6 0.403049 0.059031 0.754199
Si Si7 0.977205 0.550509 0.249238
Si Si8 0.644845 0.451230 0.463547
O O1 0.282319 0.750000 0.434316
O O2 0.308464 0.476505 0.319313
O O3 0.332213 0.496837 0.465672
O O4 0.137776 0.517765 0.639420
O O5 0.311587 0.750000 0.018013
O O6 0.181136 0.003724 0.180367
O O7 0.325355 0.968920 0.123551
O O8 0.386361 0.036502 0.879816
O O9 0.194269 0.750000 0.886914
O O10 0.301386 0.525707 0.833681
O O11 0.259150 0.492009 0.723070
O O12 0.087532 0.492931 0.059711
O O13 0.057708 0.750000 0.335096
O O14 0.992272 0.001132 0.332119
O O15 0.000000 0.000000 0.500000
O O16 0.627397 0.750000 0.869489
O O17 0.500000 0.000000 0.000000
O O18 0.398227 0.250000 0.737322
O O19 0.525304 0.994383 0.579908
O O20 0.973201 0.750000 0.251423
O O21 0.643621 0.250000 0.464581
#
# Coordination Sequence:
#
# PCOD9164258 Si02
#       8
#     4   4   4   4   4   4   4   4
#     4  11  23  41  62  89 124 164 209 256 306 369
#     4  11  22  39  61  88 119 161 203 244 303 367
#     4  10  20  40  64  86 119 163 203 254 315 371
#     4  10  21  36  55  82 113 151 195 241 296 358
#     4  12  25  42  63  91 124 164 207 254 305 362
#     4  11  21  36  60  93 126 157 200 257 312 374
#     4  10  21  39  60  85 120 161 205 254 308 367
#     4   9  21  39  61  87 119 159 204 254 314 368
#
# _framework density 21.229721999999999
#
# number of rings (size 3 to 8) (size 9 to 14) (size 15 to 20)
#    0.000    1.500    1.250    4.125    0.000    5.500 
#    0.000    3.750    0.000    0.000    0.000    0.000 
#    0.000    0.000    0.000    0.000    0.000    0.000 
#
# Total GULP energy -178894.205722 kJ/mol
# GULP energy per Si atom -5590.443929 kJ/mol
# Density = 2.118140 g / cm^3
# Si number density = 21.229722 Si / 1000 Ang^3
#
#
#
# Elastic Constant Matrix: (Units=GPa)
#
#
# Indices 1 2 3 4 5 6 
#
# 1 57.8719 -15.6227 -6.7525 0.0000 -7.6262 0.0000
# 2 -15.6227 19.1254 -9.4572 0.0000 -4.1260 0.0000
# 3 -6.7525 -9.4572 84.7079 0.0000 -7.7920 0.0000
# 4 0.0000 0.0000 0.0000 23.8206 0.0000 -0.5424
# 5 -7.6262 -4.1260 -7.7920 0.0000 39.6135 0.0000
# 6 0.0000 0.0000 0.0000 -0.5424 0.0000 16.8319
#
#
#
# Elastic Compliance Matrix: (Units=1/GPa)
#
#
# Indices 1 2 3 4 5 6 
#
# 1 0.026219 0.026231 0.005840 0.000000 0.008928 0.000000
# 2 0.026231 0.083622 0.012927 0.000000 0.016302 0.000000
# 3 0.005840 0.012927 0.014198 0.000000 0.005263 0.000000
# 4 0.000000 0.000000 0.000000 0.042011 0.000000 0.001354
# 5 0.008928 0.016302 0.005263 0.000000 0.029696 0.000000
# 6 0.000000 0.000000 0.000000 0.001354 0.000000 0.059455
#
#
# Mechanical properties :
#
#
# Convention : Reuss Voigt Hill
#
# Bulk Modulus (GPa) = 4.67218 10.89337 7.78278
# Shear Modulus (GPa) = 21.13709 28.95571 25.04640
#
# Velocity S-wave (km/s) = 3.15879 3.69714 3.43852
# Velocity P-wave (km/s) = 3.93821 4.83399 4.40891
#
# Compressibility (1/GPa) = 0.21403263
#
# Stress axis : x y z
#
# Youngs Moduli (GPa) = 38.14095 11.95857 70.43174
#
# Poissons Ratio (x) = -0.31368 -0.41131
# Poissons Ratio (y) = -1.00046 -0.91044
# Poissons Ratio (z) = -0.22274 -0.15458
#
# Static dielectric constant tensor:
#      x y z
#    x 1.750620 0.000000 -0.000060 
#    y 0.000000 1.740370 0.000000 
#    z -0.000060 0.000000 1.778660 
# 
# From -- ./inp_files/55514.got.cif
#   From: 2010.05.17/outbox.cif.g08.bks.cpg/sg11_28_cif.got.tgz:55514.got - 2010.06.03 12:22:45.
