data_PCOD9164646
_publ_section_title
;
Structure prediction by ZEFSAII (Michael W. Deem and Ramdas Pophale) SiO2 
 PCOD9164646
Probable space group: P 21/M
;
_chemical_formula_sum "Si O2"
_cell_formula_units_Z 32
_cell_length_a 18.000745
_cell_length_b 15.128338
_cell_length_c 11.347457
_cell_angle_alpha 90.000000
_cell_angle_beta 32.496793
_cell_angle_gamma 90.000000
_cell_volume 1660.193118
_symmetry_space_group_name_H-M "P 21/M"
_symmetry_group_IT_number 11
_symmetry_cell_setting 'monoclinic'
loop_
_space_group_symop_operation_xyz
x,y,z
-x,1/2+y,-z
-x,-y,-z
x,1/2-y,z
loop_
_atom_site_type_symbol
_atom_site_label
_atom_site_fract_x
_atom_site_fract_y
_atom_site_fract_z
Si Si1 0.755881 0.147665 0.995789
Si Si2 0.126656 0.646979 0.408457
Si Si3 0.830802 0.850794 0.206058
Si Si4 0.665752 0.005300 0.789264
Si Si5 0.373073 0.031817 0.904600
Si Si6 0.126655 0.645992 0.899793
Si Si7 0.692152 0.010884 0.488237
Si Si8 0.854522 0.853140 0.901733
O O1 0.704735 0.250000 0.059912
O O2 0.868212 0.139855 0.740074
O O3 0.649444 0.070169 0.104785
O O4 0.816884 0.131300 0.043714
O O5 0.133795 0.750000 0.430340
O O6 0.261582 0.598542 0.278759
O O7 0.985809 0.610875 0.653490
O O8 0.785322 0.750000 0.287254
O O9 0.713573 0.922211 0.384920
O O10 0.883578 0.857539 0.001518
O O11 0.963174 0.871348 0.110023
O O12 0.719750 0.983535 0.587070
O O13 0.689938 0.953618 0.879374
O O14 0.500000 0.000000 0.000000
O O15 0.536387 0.047561 0.687745
O O16 0.283392 0.092866 0.940388
O O17 0.146526 0.750000 0.844364
O O18 0.205250 0.583562 0.702688
O O19 0.834330 0.750000 0.897089
#
# Coordination Sequence:
#
# PCOD9164646 Si02
#       8
#     4   4   4   4   4   4   4   4
#     4   9  19  35  56  83 111 140 179 223 269 323
#     4   9  18  35  59  81 107 146 183 222 274 321
#     4  10  22  38  56  81 110 140 180 226 269 324
#     4   9  20  37  55  81 110 138 184 228 265 322
#     4  10  22  38  55  80 111 143 182 229 271 315
#     4  10  21  36  56  84 112 139 179 226 270 323
#     4  11  22  37  57  78 108 150 183 215 274 330
#     4  10  21  37  57  83 111 142 184 227 268 319
#
# _framework density 19.274865999999999
#
# number of rings (size 3 to 8) (size 9 to 14) (size 15 to 20)
#    0.000    2.250    0.000    1.875    0.000    8.500 
#    0.000    8.125    0.000    0.000    0.000    0.875 
#    0.000    0.000    0.000    0.000    0.000    0.000 
#
# Total GULP energy -178322.023203 kJ/mol
# GULP energy per Si atom -5572.563225 kJ/mol
# Density = 1.923100 g / cm^3
# Si number density = 19.274866 Si / 1000 Ang^3
#
#
#
# Elastic Constant Matrix: (Units=GPa)
#
#
# Indices 1 2 3 4 5 6 
#
# 1 58.5444 13.8111 15.1440 0.0000 2.6949 0.0000
# 2 13.8111 46.5569 38.8469 0.0000 0.3880 0.0000
# 3 15.1440 38.8469 74.0670 0.0000 5.5083 0.0000
# 4 0.0000 0.0000 0.0000 -7.8375 0.0000 8.0918
# 5 2.6949 0.3880 5.5083 0.0000 25.8186 0.0000
# 6 0.0000 0.0000 0.0000 8.0918 0.0000 20.6137
#
#
#
# Elastic Compliance Matrix: (Units=1/GPa)
#
#
# Indices 1 2 3 4 5 6 
#
# 1 0.018535 -0.004304 -0.001416 0.000000 -0.001568 0.000000
# 2 -0.004304 0.039556 -0.020176 0.000000 0.004159 0.000000
# 3 -0.001416 -0.020176 0.024731 0.000000 -0.004825 0.000000
# 4 0.000000 0.000000 0.000000 -0.090794 0.000000 0.035641
# 5 -0.001568 0.004159 -0.004825 0.000000 0.039862 0.000000
# 6 0.000000 0.000000 0.000000 0.035641 0.000000 0.034521
#
#
# Mechanical properties :
#
#
# Convention : Reuss Voigt Hill
#
# Bulk Modulus (GPa) = 32.22561 34.97469 33.60015
# Shear Modulus (GPa) = 38.89678 15.14337 27.02007
#
# Velocity S-wave (km/s) = 4.49709 2.80599 3.74816
# Velocity P-wave (km/s) = 6.61214 5.35563 6.01678
#
# Compressibility (1/GPa) = 0.03103122
#
# Stress axis : x y z
#
# Youngs Moduli (GPa) = 53.95258 25.28078 40.43438
#
# Poissons Ratio (x) = 0.10881 0.05724
# Poissons Ratio (y) = 0.23221 0.81579
# Poissons Ratio (z) = 0.07638 0.51006
#
# Static dielectric constant tensor:
#      x y z
#    x 1.675040 0.000000 0.028100 
#    y 0.000000 1.673680 0.000000 
#    z 0.028100 0.000000 1.672000 
# 
# From -- ./inp_files/41643.got.cif
#   From: 2010.05.17/outbox.cif.g08.bks.cpg/sg11_21_cif.got.tgz:41643.got - 2010.06.03 12:22:45.
