data_PCOD9164918
_publ_section_title
;
Structure prediction by ZEFSAII (Michael W. Deem and Ramdas Pophale) SiO2 
 PCOD9164918
Probable space group: P 21/M
;
_chemical_formula_sum "Si O2"
_cell_formula_units_Z 28
_cell_length_a 27.968312
_cell_length_b 10.069286
_cell_length_c 5.166194
_cell_angle_alpha 90.000000
_cell_angle_beta 119.059786
_cell_angle_gamma 90.000000
_cell_volume 1271.754831
_symmetry_space_group_name_H-M "P 21/M"
_symmetry_group_IT_number 11
_symmetry_cell_setting 'monoclinic'
loop_
_space_group_symop_operation_xyz
x,y,z
-x,1/2+y,-z
-x,-y,-z
x,1/2-y,z
loop_
_atom_site_type_symbol
_atom_site_label
_atom_site_fract_x
_atom_site_fract_y
_atom_site_fract_z
Si Si1 0.991047 0.887548 0.187120
Si Si2 0.527682 0.900251 0.772246
Si Si3 0.737986 0.599324 0.402081
Si Si4 0.094481 0.963628 0.775982
Si Si5 0.163561 0.596710 0.459397
Si Si6 0.337537 0.097556 0.296736
Si Si7 0.585113 0.098777 0.239210
O O1 0.992355 0.750000 0.044156
O O2 0.934171 0.904654 0.188279
O O3 0.040732 0.891567 0.521095
O O4 0.000000 0.000000 0.000000
O O5 0.540397 0.750000 0.715907
O O6 0.478304 0.884079 0.847611
O O7 0.500000 0.000000 0.500000
O O8 0.579703 0.980892 0.014210
O O9 0.760846 0.750000 0.456273
O O10 0.784291 0.490498 0.479459
O O11 0.706949 0.581355 0.591450
O O12 0.694012 0.589611 0.056065
O O13 0.134892 0.966398 0.637860
O O14 0.123912 0.903774 0.104621
O O15 0.176875 0.750000 0.556766
O O16 0.360024 0.250000 0.384816
O O17 0.379911 0.976634 0.449891
O O18 0.604616 0.250000 0.227975
#
# Coordination Sequence:
#
# PCOD9164918 Si02
#       7
#     4   4   4   4   4   4   4
#     4  11  24  43  67  97 134 173 215 261 315 380
#     4  10  21  37  58  89 127 167 210 260 318 380
#     4  10  24  44  65  92 127 162 211 267 321 383
#     4  11  25  42  64  97 132 170 209 259 316 381
#     4  12  24  42  68  94 124 167 214 265 322 375
#     4  10  22  42  65  91 124 168 210 261 326 382
#     4  10  22  38  59  90 125 163 213 264 314 378
#
# _framework density 22.016821
#
# number of rings (size 3 to 8) (size 9 to 14) (size 15 to 20)
#    0.000    1.429    1.429    3.000    2.000    6.857 
#    0.000    0.000    0.000    0.000    0.000    0.000 
#    0.000    0.000    0.000    0.000    0.000    0.000 
#
# Total GULP energy -156226.990276 kJ/mol
# GULP energy per Si atom -5579.535367 kJ/mol
# Density = 2.196671 g / cm^3
# Si number density = 22.016821 Si / 1000 Ang^3
#
#
#
# Elastic Constant Matrix: (Units=GPa)
#
#
# Indices 1 2 3 4 5 6 
#
# 1 120.0377 43.2250 17.8112 0.0000 -11.4311 0.0000
# 2 43.2250 186.2241 40.4052 0.0000 11.5093 0.0000
# 3 17.8112 40.4052 76.9735 0.0000 -12.6624 0.0000
# 4 0.0000 0.0000 0.0000 333.7469 0.0000 256.1119
# 5 -11.4311 11.5093 -12.6624 0.0000 33.2172 0.0000
# 6 0.0000 0.0000 0.0000 256.1119 0.0000 230.2092
#
#
#
# Elastic Compliance Matrix: (Units=1/GPa)
#
#
# Indices 1 2 3 4 5 6 
#
# 1 0.009631 -0.002422 -0.000292 0.000000 0.004042 0.000000
# 2 -0.002422 0.007085 -0.003947 0.000000 -0.004793 0.000000
# 3 -0.000292 -0.003947 0.016366 0.000000 0.007505 0.000000
# 4 0.000000 0.000000 0.000000 0.020484 0.000000 -0.022789
# 5 0.004042 -0.004793 0.007505 0.000000 0.036018 0.000000
# 6 0.000000 0.000000 0.000000 -0.022789 0.000000 0.029697
#
#
# Mechanical properties :
#
#
# Convention : Reuss Voigt Hill
#
# Bulk Modulus (GPa) = 50.60955 65.12425 57.86690
# Shear Modulus (GPa) = 35.92236 138.22091 87.07164
#
# Velocity S-wave (km/s) = 4.04367 7.93196 6.29552
# Velocity P-wave (km/s) = 6.69615 10.65512 8.89859
#
# Compressibility (1/GPa) = 0.01975912
#
# Stress axis : x y z
#
# Youngs Moduli (GPa) = 103.82992 141.15138 61.10377
#
# Poissons Ratio (x) = 0.34185 0.01786
# Poissons Ratio (y) = 0.25147 0.24117
# Poissons Ratio (z) = 0.03035 0.55711
#
# Static dielectric constant tensor:
#      x y z
#    x 1.832700 0.000000 -0.022430 
#    y 0.000000 2.026630 0.000000 
#    z -0.022430 0.000000 1.829240 
# 
# From -- ./inp_files/9708.got.cif
#   From: 2010.05.17/outbox.cif.g08.bks.cpg/sg11_5_cif.got.tgz:9708.got - 2010.06.03 12:22:45.
