data_PCOD9164170
_publ_section_title
;
Structure prediction by ZEFSAII (Michael W. Deem and Ramdas Pophale) SiO2 
 PCOD9164170
Probable space group: P 21/M
;
_chemical_formula_sum "Si O2"
_cell_formula_units_Z 32
_cell_length_a 28.930447
_cell_length_b 12.262657
_cell_length_c 9.072976
_cell_angle_alpha 90.000000
_cell_angle_beta 32.224928
_cell_angle_gamma 90.000000
_cell_volume 1716.389214
_symmetry_space_group_name_H-M "P 21/M"
_symmetry_group_IT_number 11
_symmetry_cell_setting 'monoclinic'
loop_
_space_group_symop_operation_xyz
x,y,z
-x,1/2+y,-z
-x,-y,-z
x,1/2-y,z
loop_
_atom_site_type_symbol
_atom_site_label
_atom_site_fract_x
_atom_site_fract_y
_atom_site_fract_z
Si Si1 0.897497 0.121927 0.286158
Si Si2 0.424455 0.942843 0.511044
Si Si3 0.442009 0.873960 0.782288
Si Si4 0.466577 0.125402 0.043990
Si Si5 0.007538 0.020392 0.728895
Si Si6 0.105327 0.377190 0.190155
Si Si7 0.274311 0.620071 0.416535
Si Si8 0.293287 0.463822 0.632771
O O1 0.901060 0.250000 0.308144
O O2 0.800325 0.091960 0.498737
O O3 0.931650 0.054965 0.333215
O O4 0.956139 0.094791 0.984674
O O5 0.473992 0.053489 0.421240
O O6 0.342658 0.974161 0.632129
O O7 0.404818 0.886154 0.718132
O O8 0.494361 0.875751 0.225968
O O9 0.464946 0.750000 0.745834
O O10 0.367850 0.906878 0.096899
O O11 0.492061 0.250000 0.031574
O O12 0.365523 0.111861 0.357180
O O13 0.500000 0.000000 0.000000
O O14 0.062533 0.086266 0.459963
O O15 0.940528 0.946925 0.815580
O O16 0.089475 0.250000 0.207575
O O17 0.207867 0.401226 0.913892
O O18 0.270080 0.750000 0.453559
O O19 0.264049 0.554105 0.593486
#
# Coordination Sequence:
#
# PCOD9164170 Si02
#       8
#     4   4   4   4   4   4   4   4
#     4  10  20  39  64  90 118 153 197 245 302 359
#     4  10  22  37  60  84 119 154 200 250 296 357
#     4  10  21  38  58  84 116 156 198 246 302 355
#     4  10  21  37  59  85 117 156 200 245 293 354
#     4  10  22  39  64  87 119 155 198 244 298 366
#     4  11  23  40  60  88 123 158 197 247 302 361
#     4  10  21  37  60  88 120 154 195 249 302 358
#     4  11  22  39  58  89 120 157 201 246 300 356
#
# _framework density 18.643789000000002
#
# number of rings (size 3 to 8) (size 9 to 14) (size 15 to 20)
#    0.000    1.750    2.500    1.500    1.750    5.000 
#    0.000    0.625    0.000    0.000    0.000    0.000 
#    0.000    0.000    0.000    0.000    0.000    0.000 
#
# Total GULP energy -178386.865272 kJ/mol
# GULP energy per Si atom -5574.589540 kJ/mol
# Density = 1.860136 g / cm^3
# Si number density = 18.643789 Si / 1000 Ang^3
#
#
#
# Elastic Constant Matrix: (Units=GPa)
#
#
# Indices 1 2 3 4 5 6 
#
# 1 69.1470 16.8331 2.2021 0.0000 -1.5251 0.0000
# 2 16.8331 54.7209 21.6119 0.0000 -7.2848 0.0000
# 3 2.2021 21.6119 56.4948 0.0000 -5.0675 0.0000
# 4 0.0000 0.0000 0.0000 12.1511 0.0000 -0.2895
# 5 -1.5251 -7.2848 -5.0675 0.0000 30.9371 0.0000
# 6 0.0000 0.0000 0.0000 -0.2895 0.0000 16.6496
#
#
#
# Elastic Compliance Matrix: (Units=1/GPa)
#
#
# Indices 1 2 3 4 5 6 
#
# 1 0.015736 -0.005448 0.001446 0.000000 -0.000270 0.000000
# 2 -0.005448 0.023857 -0.008560 0.000000 0.003947 0.000000
# 3 0.001446 -0.008560 0.021054 0.000000 0.001504 0.000000
# 4 0.000000 0.000000 0.000000 0.082331 0.000000 0.001431
# 5 -0.000270 0.003947 0.001504 0.000000 0.033486 0.000000
# 6 0.000000 0.000000 0.000000 0.001431 0.000000 0.060086
#
#
# Mechanical properties :
#
#
# Convention : Reuss Voigt Hill
#
# Bulk Modulus (GPa) = 28.15006 29.07299 28.61152
# Shear Modulus (GPa) = 18.28058 21.26193 19.77125
#
# Velocity S-wave (km/s) = 3.13472 3.38069 3.26002
# Velocity P-wave (km/s) = 5.31353 5.55576 5.43600
#
# Compressibility (1/GPa) = 0.03552390
#
# Stress axis : x y z
#
# Youngs Moduli (GPa) = 63.54787 41.91716 47.49729
#
# Poissons Ratio (x) = 0.22836 -0.06870
# Poissons Ratio (y) = 0.34621 0.40657
# Poissons Ratio (z) = -0.09192 0.35880
#
# Static dielectric constant tensor:
#      x y z
#    x 1.663030 0.000000 0.006760 
#    y 0.000000 1.649470 0.000000 
#    z 0.006760 0.000000 1.639070 
# 
# From -- ./inp_files/29264.got.cif
#   From: 2010.05.17/outbox.cif.g08.bks.cpg/sg11_15_cif.got.tgz:29264.got - 2010.06.03 12:22:45.
