data_PCOD9164077
_publ_section_title
;
Structure prediction by ZEFSAII (Michael W. Deem and Ramdas Pophale) SiO2 
 PCOD9164077
Probable space group: P 21/M
;
_chemical_formula_sum "Si O2"
_cell_formula_units_Z 32
_cell_length_a 18.031251
_cell_length_b 15.246296
_cell_length_c 11.784188
_cell_angle_alpha 90.000000
_cell_angle_beta 26.700521
_cell_angle_gamma 90.000000
_cell_volume 1455.635044
_symmetry_space_group_name_H-M "P 21/M"
_symmetry_group_IT_number 11
_symmetry_cell_setting 'monoclinic'
loop_
_space_group_symop_operation_xyz
x,y,z
-x,1/2+y,-z
-x,-y,-z
x,1/2-y,z
loop_
_atom_site_type_symbol
_atom_site_label
_atom_site_fract_x
_atom_site_fract_y
_atom_site_fract_z
Si Si1 0.410317 0.350451 0.485051
Si Si2 0.304971 0.848678 0.074570
Si Si3 0.345172 0.476748 0.134958
Si Si4 0.110370 0.022711 0.957987
Si Si5 0.975431 0.596566 0.481801
Si Si6 0.449722 0.350128 0.790991
Si Si7 0.287522 0.848955 0.752422
Si Si8 0.894013 0.652969 0.843487
O O1 0.346262 0.250000 0.577093
O O2 0.267878 0.420611 0.699056
O O3 0.558847 0.357423 0.372156
O O4 0.515735 0.361542 0.225704
O O5 0.295448 0.750000 0.130935
O O6 0.149206 0.864540 0.202395
O O7 0.281459 0.925578 0.195478
O O8 0.183840 0.415687 0.381681
O O9 0.500000 0.500000 0.000000
O O10 0.415530 0.425399 0.928599
O O11 0.167085 0.929836 0.930152
O O12 0.039671 0.080678 0.159586
O O13 0.000000 0.000000 0.000000
O O14 0.937338 0.648639 0.650541
O O15 0.000000 0.500000 0.500000
O O16 0.435156 0.250000 0.856806
O O17 0.625186 0.358005 0.490398
O O18 0.304839 0.358336 0.894509
O O19 0.220108 0.750000 0.854716
O O20 0.934712 0.750000 0.830003
#
# Coordination Sequence:
#
# PCOD9164077 Si02
#       8
#     4   4   4   4   4   4   4   4
#     4  10  21  40  67  91 120 166 218 264 318 389
#     4  10  21  39  62  89 122 169 219 261 311 380
#     4  10  21  37  59  94 129 164 203 265 329 388
#     4  12  25  38  61  96 134 166 203 266 341 398
#     4   9  20  38  63  90 122 162 218 268 309 371
#     4   9  18  36  64  91 118 158 211 260 310 375
#     4  10  21  38  61  91 120 159 213 264 313 381
#     4  10  20  38  66  94 123 167 217 263 315 382
#
# _framework density 21.983530999999999
#
# number of rings (size 3 to 8) (size 9 to 14) (size 15 to 20)
#    0.000    2.000    1.250    1.875    5.250    2.000 
#    9.000    0.000    0.000    3.000    0.000    0.000 
#    0.000    0.000    0.000    0.000    0.000    0.000 
#
# Total GULP energy -178355.691399 kJ/mol
# GULP energy per Si atom -5573.615356 kJ/mol
# Density = 2.193350 g / cm^3
# Si number density = 21.983531 Si / 1000 Ang^3
#
#
#
# Elastic Constant Matrix: (Units=GPa)
#
#
# Indices 1 2 3 4 5 6 
#
# 1 80.1948 51.3017 17.8153 0.0000 -23.1587 0.0000
# 2 51.3017 157.6914 25.2736 0.0000 -11.6671 0.0000
# 3 17.8153 25.2736 57.3365 0.0000 -4.9613 0.0000
# 4 0.0000 0.0000 0.0000 11.4405 0.0000 12.3910
# 5 -23.1587 -11.6671 -4.9613 0.0000 18.5904 0.0000
# 6 0.0000 0.0000 0.0000 12.3910 0.0000 10.5561
#
#
#
# Elastic Compliance Matrix: (Units=1/GPa)
#
#
# Indices 1 2 3 4 5 6 
#
# 1 0.024026 -0.005457 -0.002832 0.000000 0.025749 0.000000
# 2 -0.005457 0.008302 -0.002151 0.000000 -0.002162 0.000000
# 3 -0.002832 -0.002151 0.019292 0.000000 0.000271 0.000000
# 4 0.000000 0.000000 0.000000 -0.322119 0.000000 0.378112
# 5 0.025749 -0.002162 0.000271 0.000000 0.084583 0.000000
# 6 0.000000 0.000000 0.000000 0.378112 0.000000 -0.349106
#
#
# Mechanical properties :
#
#
# Convention : Reuss Voigt Hill
#
# Bulk Modulus (GPa) = 32.53064 53.77821 43.15442
# Shear Modulus (GPa) = -9.92267 21.50620 5.79176
#
# Velocity S-wave (km/s) = -2.12685 3.13115 1.62490
# Velocity P-wave (km/s) = 2.96623 6.13092 4.81595
#
# Compressibility (1/GPa) = 0.03074025
#
# Stress axis : x y z
#
# Youngs Moduli (GPa) = 41.62232 120.45796 51.83434
#
# Poissons Ratio (x) = 0.65738 0.14677
# Poissons Ratio (y) = 0.22715 0.11148
# Poissons Ratio (z) = 0.11785 0.25907
#
# Static dielectric constant tensor:
#      x y z
#    x 1.862160 0.000000 0.012770 
#    y 0.000000 1.697150 0.000000 
#    z 0.012770 0.000000 1.957010 
# 
# From -- ./inp_files/41669.got.cif
#   From: 2010.05.17/outbox.cif.g08.bks.cpg/sg11_21_cif.got.tgz:41669.got - 2010.06.03 12:22:45.
