data_PCOD9164183
_publ_section_title
;
Structure prediction by ZEFSAII (Michael W. Deem and Ramdas Pophale) SiO2 
 PCOD9164183
Probable space group: P 21/M
;
_chemical_formula_sum "Si O2"
_cell_formula_units_Z 20
_cell_length_a 5.210945
_cell_length_b 13.459319
_cell_length_c 11.681352
_cell_angle_alpha 90.000000
_cell_angle_beta 93.017376
_cell_angle_gamma 90.000000
_cell_volume 818.144793
_symmetry_space_group_name_H-M "P 21/M"
_symmetry_group_IT_number 11
_symmetry_cell_setting 'monoclinic'
loop_
_space_group_symop_operation_xyz
x,y,z
-x,1/2+y,-z
-x,-y,-z
x,1/2-y,z
loop_
_atom_site_type_symbol
_atom_site_label
_atom_site_fract_x
_atom_site_fract_y
_atom_site_fract_z
Si Si1 0.496821 0.385635 0.030302
Si Si2 0.530867 0.860747 0.390755
Si Si3 0.177863 0.045186 0.405851
Si Si4 0.864323 0.856458 0.176704
Si Si5 0.988679 0.582827 0.837545
O O1 0.771658 0.366460 0.093154
O O2 0.271834 0.373239 0.117646
O O3 0.500000 0.500000 0.000000
O O4 0.388014 0.346139 0.908739
O O5 0.417339 0.750000 0.381290
O O6 0.760880 0.865554 0.303654
O O7 0.636073 0.880928 0.520875
O O8 0.343324 0.952695 0.360561
O O9 0.019594 0.093408 0.299343
O O10 0.000000 0.000000 0.500000
O O11 0.006442 0.750000 0.166974
O O12 0.993253 0.961405 0.143746
#
# Coordination Sequence:
#
# PCOD9164183 Si02
#       5
#     4   4   4   4   4
#     4  10  21  38  61  88 122 164 202 254 314 381
#     4  10  23  41  63  95 129 166 219 278 327 385
#     4  11  22  39  67  91 127 175 220 262 331 396
#     4  10  20  39  64  94 125 160 212 272 326 377
#     4  11  22  40  64  91 123 168 214 257 315 389
#
# _framework density 24.445550000000001
#
# number of rings (size 3 to 8) (size 9 to 14) (size 15 to 20)
#    0.000    1.600    2.000    4.800    2.800    1.600 
#    0.000   13.000    0.000    0.000    0.000    0.000 
#    0.000    0.000    0.000    0.000    0.000    0.000 
#
# Total GULP energy -111753.874244 kJ/mol
# GULP energy per Si atom -5587.693712 kJ/mol
# Density = 2.438991 g / cm^3
# Si number density = 24.445550 Si / 1000 Ang^3
#
#
#
# Elastic Constant Matrix: (Units=GPa)
#
#
# Indices 1 2 3 4 5 6 
#
# 1 94.7468 1.5814 34.9844 0.0000 13.5110 0.0000
# 2 1.5814 124.1165 2.6611 0.0000 3.2955 0.0000
# 3 34.9844 2.6611 118.4468 0.0000 30.4594 0.0000
# 4 0.0000 0.0000 0.0000 -137.7446 0.0000 -1.4112
# 5 13.5110 3.2955 30.4594 0.0000 54.6869 0.0000
# 6 0.0000 0.0000 0.0000 -1.4112 0.0000 4.9130
#
#
#
# Elastic Compliance Matrix: (Units=1/GPa)
#
#
# Indices 1 2 3 4 5 6 
#
# 1 0.011908 -0.000052 -0.003222 0.000000 -0.001144 0.000000
# 2 -0.000052 0.008071 -0.000052 0.000000 -0.000445 0.000000
# 3 -0.003222 -0.000052 0.010726 0.000000 -0.005175 0.000000
# 4 0.000000 0.000000 0.000000 -0.007239 0.000000 -0.002079
# 5 -0.001144 -0.000445 -0.005175 0.000000 0.021478 0.000000
# 6 0.000000 0.000000 0.000000 -0.002079 0.000000 0.202945
#
#
# Mechanical properties :
#
#
# Convention : Reuss Voigt Hill
#
# Bulk Modulus (GPa) = 41.57339 46.19599 43.88469
# Shear Modulus (GPa) = 19.04337 4.24328 11.64332
#
# Velocity S-wave (km/s) = 2.79411 1.31893 2.18479
# Velocity P-wave (km/s) = 5.23954 4.61064 4.93512
#
# Compressibility (1/GPa) = 0.02405385
#
# Stress axis : x y z
#
# Youngs Moduli (GPa) = 83.97650 123.90769 93.23013
#
# Poissons Ratio (x) = 0.00648 0.30036
# Poissons Ratio (y) = 0.00439 0.00480
# Poissons Ratio (z) = 0.27055 0.00638
#
# Static dielectric constant tensor:
#      x y z
#    x 1.988310 0.000000 0.021770 
#    y 0.000000 1.959670 0.000000 
#    z 0.021770 0.000000 1.923350 
# 
# From -- ./inp_files/29604.got.cif
#   From: 2010.05.17/outbox.cif.g08.bks.cpg/sg11_15_cif.got.tgz:29604.got - 2010.06.03 12:22:45.
