data_PCOD9164292
_publ_section_title
;
Structure prediction by ZEFSAII (Michael W. Deem and Ramdas Pophale) SiO2 
 PCOD9164292
Probable space group: P 21/M
;
_chemical_formula_sum "Si O2"
_cell_formula_units_Z 30
_cell_length_a 28.820899
_cell_length_b 7.676508
_cell_length_c 9.816274
_cell_angle_alpha 90.000000
_cell_angle_beta 32.892000
_cell_angle_gamma 90.000000
_cell_volume 1179.406421
_symmetry_space_group_name_H-M "P 21/M"
_symmetry_group_IT_number 11
_symmetry_cell_setting 'monoclinic'
loop_
_space_group_symop_operation_xyz
x,y,z
-x,1/2+y,-z
-x,-y,-z
x,1/2-y,z
loop_
_atom_site_type_symbol
_atom_site_label
_atom_site_fract_x
_atom_site_fract_y
_atom_site_fract_z
Si Si1 0.331481 0.448368 0.443905
Si Si2 0.556775 0.958168 0.066795
Si Si3 0.842285 0.443422 0.228234
Si Si4 0.375663 0.950481 0.613172
Si Si5 0.295309 0.959344 0.084097
Si Si6 0.853648 0.250000 0.922862
Si Si7 0.080664 0.052464 0.394416
Si Si8 0.898294 0.041560 0.366195
O O1 0.350349 0.250000 0.434509
O O2 0.244885 0.451331 0.571174
O O3 0.320535 0.551249 0.610923
O O4 0.407148 0.526739 0.165828
O O5 0.547534 0.750000 0.070497
O O6 0.467125 0.028153 0.343891
O O7 0.631424 0.989713 0.990501
O O8 0.815483 0.250000 0.347396
O O9 0.907521 0.509107 0.183003
O O10 0.867026 0.399724 0.012282
O O11 0.393388 0.750000 0.607384
O O12 0.327316 0.030692 0.859522
O O13 0.291777 0.750000 0.087817
O O14 0.200817 0.012895 0.361086
O O15 0.852101 0.403243 0.808900
O O16 0.105944 0.250000 0.300310
O O17 0.056773 0.041703 0.613390
O O18 0.000000 0.000000 0.500000
O O19 0.911864 0.250000 0.345074
#
# Coordination Sequence:
#
# PCOD9164292 Si02
#       8
#     4   4   4   4   4   2   4   4
#     4  11  22  35  56  85 121 163 217 274 334 398
#     4  10  21  37  53  79 119 162 210 272 333 398
#     4   9  21  40  65  92 132 172 213 274 337 387
#     4  10  22  36  53  79 116 162 215 272 336 396
#     4  10  21  35  60  85 112 159 211 267 331 392
#     4  10  24  44  74 106 144 180 224 278 330 404
#     4  12  25  46  78 107 144 185 223 273 332 399
#     4  10  20  40  67  97 132 176 224 274 336 406
#
# _framework density 25.436526000000001
#
# number of rings (size 3 to 8) (size 9 to 14) (size 15 to 20)
#    0.400    1.333    2.667    1.200    1.867    3.200 
#    0.000    0.667    0.000    0.000    0.000    0.000 
#    0.000    0.000    0.000    0.000    0.000    0.000 
#
# Total GULP energy -167144.770598 kJ/mol
# GULP energy per Si atom -5571.492353 kJ/mol
# Density = 2.537863 g / cm^3
# Si number density = 25.436526 Si / 1000 Ang^3
#
#
#
# Elastic Constant Matrix: (Units=GPa)
#
#
# Indices 1 2 3 4 5 6 
#
# 1 114.2896 -3.2570 17.5253 0.0000 13.2460 0.0000
# 2 -3.2570 104.1841 13.5505 0.0000 4.2864 0.0000
# 3 17.5253 13.5505 102.3155 0.0000 31.7040 0.0000
# 4 0.0000 0.0000 0.0000 0.8795 0.0000 9.4219
# 5 13.2460 4.2864 31.7040 0.0000 52.6309 0.0000
# 6 0.0000 0.0000 0.0000 9.4219 0.0000 28.4805
#
#
#
# Elastic Compliance Matrix: (Units=1/GPa)
#
#
# Indices 1 2 3 4 5 6 
#
# 1 0.009128 0.000499 -0.001113 0.000000 -0.001668 0.000000
# 2 0.000499 0.009794 -0.001348 0.000000 -0.000111 0.000000
# 3 -0.001113 -0.001348 0.012322 0.000000 -0.007033 0.000000
# 4 0.000000 0.000000 0.000000 -0.446937 0.000000 0.147856
# 5 -0.001668 -0.000111 -0.007033 0.000000 0.023665 0.000000
# 6 0.000000 0.000000 0.000000 0.147856 0.000000 -0.013802
#
#
# Mechanical properties :
#
#
# Convention : Reuss Voigt Hill
#
# Bulk Modulus (GPa) = 36.60409 41.82521 39.21465
# Shear Modulus (GPa) = -12.72916 35.92953 11.60019
#
# Velocity S-wave (km/s) = -2.23945 3.76242 2.13784
# Velocity P-wave (km/s) = 2.78114 5.94585 4.64154
#
# Compressibility (1/GPa) = 0.02731935
#
# Stress axis : x y z
#
# Youngs Moduli (GPa) = 109.55520 102.10447 81.15542
#
# Poissons Ratio (x) = -0.05092 0.09031
# Poissons Ratio (y) = -0.05463 0.10940
# Poissons Ratio (z) = 0.12191 0.13765
#
# Static dielectric constant tensor:
#      x y z
#    x 2.077200 0.000000 -0.077120 
#    y 0.000000 2.032540 0.000000 
#    z -0.077120 0.000000 2.150760 
# 
# From -- ./inp_files/28058.got.cif
#   From: 2010.05.17/outbox.cif.g08.bks.cpg/sg11_15_cif.got.tgz:28058.got - 2010.06.03 12:22:45.
