data_PCOD9164321
_publ_section_title
;
Structure prediction by ZEFSAII (Michael W. Deem and Ramdas Pophale) SiO2 
 PCOD9164321
Probable space group: P 21/M
;
_chemical_formula_sum "Si O2"
_cell_formula_units_Z 32
_cell_length_a 23.610929
_cell_length_b 8.944561
_cell_length_c 14.822983
_cell_angle_alpha 90.000000
_cell_angle_beta 30.572061
_cell_angle_gamma 90.000000
_cell_volume 1592.218056
_symmetry_space_group_name_H-M "P 21/M"
_symmetry_group_IT_number 11
_symmetry_cell_setting 'monoclinic'
loop_
_space_group_symop_operation_xyz
x,y,z
-x,1/2+y,-z
-x,-y,-z
x,1/2-y,z
loop_
_atom_site_type_symbol
_atom_site_label
_atom_site_fract_x
_atom_site_fract_y
_atom_site_fract_z
Si Si1 0.781163 0.430844 0.428253
Si Si2 0.975829 0.430616 0.293447
Si Si3 0.097398 0.073582 0.422548
Si Si4 0.438944 0.069916 0.770552
Si Si5 0.686478 0.080810 0.911813
Si Si6 0.390869 0.917465 0.182997
Si Si7 0.674673 0.570044 0.399641
Si Si8 0.232844 0.430560 0.924303
O O1 0.773475 0.250000 0.429225
O O2 0.902309 0.463728 0.305161
O O3 0.687428 0.478804 0.630585
O O4 0.750889 0.509549 0.376534
O O5 0.972803 0.250000 0.309698
O O6 0.914541 0.507137 0.461215
O O7 0.105192 0.480313 0.114594
O O8 0.088538 0.250000 0.437488
O O9 0.208913 0.025517 0.218105
O O10 0.000000 0.000000 0.500000
O O11 0.444162 0.250000 0.768357
O O12 0.330673 0.023667 0.859427
O O13 0.553261 0.005319 0.574559
O O14 0.418180 0.995587 0.896559
O O15 0.701723 0.250000 0.924983
O O16 0.676583 0.090426 0.817791
O O17 0.422857 0.750000 0.167213
O O18 0.500000 0.000000 0.000000
O O19 0.664026 0.750000 0.419759
O O20 0.728105 0.530423 0.230044
O O21 0.229473 0.250000 0.934535
#
# Coordination Sequence:
#
# PCOD9164321 Si02
#       8
#     4   4   4   4   4   4   4   4
#     4  10  21  39  61  87 121 162 204 252 309 371
#     4  10  20  41  66  88 121 163 205 256 313 370
#     4  12  24  38  59  89 124 163 204 249 298 360
#     4  11  22  39  62  92 124 160 205 257 314 377
#     4  11  22  39  60  88 121 159 199 244 300 361
#     4  10  21  36  55  82 116 156 196 238 292 354
#     4  11  23  40  61  89 121 161 208 259 312 370
#     4   9  21  40  64  89 118 157 205 258 319 373
#
# _framework density 20.097749
#
# number of rings (size 3 to 8) (size 9 to 14) (size 15 to 20)
#    0.000    1.500    1.250    4.125    0.000    5.500 
#    0.000    3.750    0.000    0.000    0.000    0.000 
#    0.000    0.000    0.000    0.000    0.000    0.000 
#
# Total GULP energy -178686.018789 kJ/mol
# GULP energy per Si atom -5583.938087 kJ/mol
# Density = 2.005201 g / cm^3
# Si number density = 20.097749 Si / 1000 Ang^3
#
#
#
# Elastic Constant Matrix: (Units=GPa)
#
#
# Indices 1 2 3 4 5 6 
#
# 1 82.8406 32.8565 13.7863 0.0000 -2.1257 0.0000
# 2 32.8565 69.8934 35.8943 0.0000 -4.3672 0.0000
# 3 13.7863 35.8943 92.4423 0.0000 -7.1823 0.0000
# 4 0.0000 0.0000 0.0000 25.6117 0.0000 1.7070
# 5 -2.1257 -4.3672 -7.1823 0.0000 37.0324 0.0000
# 6 0.0000 0.0000 0.0000 1.7070 0.0000 25.7549
#
#
#
# Elastic Compliance Matrix: (Units=1/GPa)
#
#
# Indices 1 2 3 4 5 6 
#
# 1 0.014867 -0.007304 0.000628 0.000000 0.000114 0.000000
# 2 -0.007304 0.021482 -0.007196 0.000000 0.000718 0.000000
# 3 0.000628 -0.007196 0.013661 0.000000 0.001837 0.000000
# 4 0.000000 0.000000 0.000000 0.039218 0.000000 -0.002599
# 5 0.000114 0.000718 0.001837 0.000000 0.027451 0.000000
# 6 0.000000 0.000000 0.000000 -0.002599 0.000000 0.039000
#
#
# Mechanical properties :
#
#
# Convention : Reuss Voigt Hill
#
# Bulk Modulus (GPa) = 44.91435 45.58340 45.24887
# Shear Modulus (GPa) = 26.19944 28.52241 27.36092
#
# Velocity S-wave (km/s) = 3.61446 3.77129 3.69371
# Velocity P-wave (km/s) = 6.30996 6.45706 6.38393
#
# Compressibility (1/GPa) = 0.02226460
#
# Stress axis : x y z
#
# Youngs Moduli (GPa) = 67.26403 46.55162 73.20239
#
# Poissons Ratio (x) = 0.34002 -0.04596
# Poissons Ratio (y) = 0.49130 0.52676
# Poissons Ratio (z) = -0.04223 0.33498
#
# Static dielectric constant tensor:
#      x y z
#    x 1.763810 0.000000 -0.001660 
#    y 0.000000 1.697650 0.000000 
#    z -0.001660 0.000000 1.737680 
# 
# From -- ./inp_files/55647.got.cif
#   From: 2010.05.17/outbox.cif.g08.bks.cpg/sg11_28_cif.got.tgz:55647.got - 2010.06.03 12:22:45.
