data_PCOD9164023
_publ_section_title
;
Structure prediction by ZEFSAII (Michael W. Deem and Ramdas Pophale) SiO2 
 PCOD9164023
Probable space group: P 21/M
;
_chemical_formula_sum "Si O2"
_cell_formula_units_Z 28
_cell_length_a 22.263813
_cell_length_b 8.786803
_cell_length_c 14.878801
_cell_angle_alpha 90.000000
_cell_angle_beta 149.900714
_cell_angle_gamma 90.000000
_cell_volume 1459.719029
_symmetry_space_group_name_H-M "P 21/M"
_symmetry_group_IT_number 11
_symmetry_cell_setting 'monoclinic'
loop_
_space_group_symop_operation_xyz
x,y,z
-x,1/2+y,-z
-x,-y,-z
x,1/2-y,z
loop_
_atom_site_type_symbol
_atom_site_label
_atom_site_fract_x
_atom_site_fract_y
_atom_site_fract_z
Si Si1 0.132752 0.429909 0.323218
Si Si2 0.113112 0.430881 0.936535
Si Si3 0.505314 0.068938 0.407028
Si Si4 0.611429 0.069117 0.034823
Si Si5 0.282748 0.568653 0.012969
Si Si6 0.217692 0.569668 0.252989
Si Si7 0.353293 0.929728 0.711881
O O1 0.114677 0.250000 0.301411
O O2 0.143744 0.487841 0.235184
O O3 0.255266 0.476927 0.530756
O O4 0.022288 0.512269 0.228365
O O5 0.119376 0.250000 0.950725
O O6 0.175679 0.487716 0.926688
O O7 0.184633 0.503877 0.113014
O O8 0.481446 0.250000 0.379241
O O9 0.640534 0.046698 0.547063
O O10 0.500000 0.000000 0.500000
O O11 0.405916 0.987107 0.218545
O O12 0.584030 0.250000 0.993807
O O13 0.703722 0.033078 0.074977
O O14 0.488126 0.978322 0.861750
O O15 0.657620 0.040132 0.195255
O O16 0.271525 0.750000 0.009884
O O17 0.193690 0.750000 0.223196
O O18 0.336696 0.750000 0.673466
#
# Coordination Sequence:
#
# PCOD9164023 Si02
#       7
#     4   4   4   4   4   4   4
#     4  12  25  41  61  85 116 155 199 244 293 347
#     4  12  25  41  60  83 116 156 199 244 292 348
#     4  11  22  35  56  84 118 154 192 237 287 341
#     4   9  20  38  63  92 122 155 190 237 295 350
#     4  11  22  38  59  86 121 157 196 239 292 351
#     4  11  23  40  61  87 118 155 198 243 292 345
#     4  10  20  38  63  92 122 151 193 243 291 346
#
# _framework density 19.181774000000001
#
# number of rings (size 3 to 8) (size 9 to 14) (size 15 to 20)
#    0.000    1.143    1.429    5.571    0.000    5.714 
#    0.000    0.714    0.000    0.000    0.000    0.000 
#    0.000    0.000    0.000    0.000    0.000    0.000 
#
# Total GULP energy -156645.533738 kJ/mol
# GULP energy per Si atom -5594.483348 kJ/mol
# Density = 1.913812 g / cm^3
# Si number density = 19.181774 Si / 1000 Ang^3
#
#
#
# Elastic Constant Matrix: (Units=GPa)
#
#
# Indices 1 2 3 4 5 6 
#
# 1 114.0293 18.5609 10.4289 0.0000 2.7460 0.0000
# 2 18.5609 47.0498 8.5757 0.0000 3.2158 0.0000
# 3 10.4289 8.5757 22.4802 0.0000 7.8232 0.0000
# 4 0.0000 0.0000 0.0000 30.2018 0.0000 5.1494
# 5 2.7460 3.2158 7.8232 0.0000 15.2667 0.0000
# 6 0.0000 0.0000 0.0000 5.1494 0.0000 31.5778
#
#
#
# Elastic Compliance Matrix: (Units=1/GPa)
#
#
# Indices 1 2 3 4 5 6 
#
# 1 0.009591 -0.003199 -0.003485 0.000000 0.000734 0.000000
# 2 -0.003199 0.023911 -0.007406 0.000000 -0.000666 0.000000
# 3 -0.003485 -0.007406 0.058618 0.000000 -0.027851 0.000000
# 4 0.000000 0.000000 0.000000 0.034058 0.000000 -0.005554
# 5 0.000734 -0.000666 -0.027851 0.000000 0.079782 0.000000
# 6 0.000000 0.000000 0.000000 -0.005554 0.000000 0.032573
#
#
# Mechanical properties :
#
#
# Convention : Reuss Voigt Hill
#
# Bulk Modulus (GPa) = 15.63927 28.74336 22.19132
# Shear Modulus (GPa) = 17.35951 25.14218 21.25084
#
# Velocity S-wave (km/s) = 3.01159 3.62433 3.33207
# Velocity P-wave (km/s) = 4.50153 5.70365 5.13787
#
# Compressibility (1/GPa) = 0.06394161
#
# Stress axis : x y z
#
# Youngs Moduli (GPa) = 104.26028 41.82114 17.05968
#
# Poissons Ratio (x) = 0.13378 0.05945
# Poissons Ratio (y) = 0.33350 0.12634
# Poissons Ratio (z) = 0.36334 0.30972
#
# Static dielectric constant tensor:
#      x y z
#    x 1.673750 0.000000 -0.000660 
#    y 0.000000 1.636290 0.000000 
#    z -0.000660 0.000000 1.644920 
# 
# From -- ./inp_files/54593.got.cif
#   From: 2010.05.17/outbox.cif.g08.bks.cpg/sg11_28_cif.got.tgz:54593.got - 2010.06.03 12:22:45.
