data_PCOD9164720
_publ_section_title
;
Structure prediction by ZEFSAII (Michael W. Deem and Ramdas Pophale) SiO2 
 PCOD9164720
Probable space group: P 21/M
;
_chemical_formula_sum "Si O2"
_cell_formula_units_Z 32
_cell_length_a 20.998417
_cell_length_b 14.928938
_cell_length_c 8.228009
_cell_angle_alpha 90.000000
_cell_angle_beta 145.665191
_cell_angle_gamma 90.000000
_cell_volume 1454.825010
_symmetry_space_group_name_H-M "P 21/M"
_symmetry_group_IT_number 11
_symmetry_cell_setting 'monoclinic'
loop_
_space_group_symop_operation_xyz
x,y,z
-x,1/2+y,-z
-x,-y,-z
x,1/2-y,z
loop_
_atom_site_type_symbol
_atom_site_label
_atom_site_fract_x
_atom_site_fract_y
_atom_site_fract_z
Si Si1 0.737613 0.647441 0.666687
Si Si2 0.102323 0.971234 0.410812
Si Si3 0.770897 0.508768 0.019592
Si Si4 0.615884 0.350878 0.753609
Si Si5 0.056435 0.146848 0.130886
Si Si6 0.534946 0.895768 0.020558
Si Si7 0.654085 0.421594 0.188918
Si Si8 0.630279 0.654588 0.893188
O O1 0.739379 0.750000 0.731686
O O2 0.781719 0.573132 0.887351
O O3 0.818258 0.646476 0.679866
O O4 0.612470 0.623122 0.341387
O O5 0.217632 0.954825 0.547788
O O6 0.052792 0.068906 0.259030
O O7 0.022020 0.892008 0.178758
O O8 0.127650 0.969326 0.657207
O O9 0.685248 0.427226 0.805858
O O10 0.712580 0.573833 0.030004
O O11 0.646721 0.250000 0.771129
O O12 0.482371 0.361277 0.448685
O O13 0.640935 0.366920 0.996118
O O14 0.028671 0.250000 0.117537
O O15 0.567553 0.994211 0.017440
O O16 0.404361 0.872472 0.781770
O O17 0.585761 0.840376 0.980778
O O18 0.683557 0.750000 0.964686
#
# Coordination Sequence:
#
# PCOD9164720 Si02
#       8
#     4   4   4   4   4   4   4   4
#     4  11  23  39  62  92 123 158 200 250 305 358
#     4  10  21  41  62  89 116 156 202 246 304 356
#     4  11  22  37  60  85 119 158 198 252 298 356
#     4  10  22  37  54  81 120 168 210 240 287 356
#     4  10  22  41  66  89 117 152 200 254 302 358
#     4  11  21  35  59  91 124 159 191 244 299 358
#     4  10  21  36  59  87 120 158 196 240 298 359
#     4  11  21  34  54  85 121 162 202 241 294 354
#
# _framework density 21.995771999999999
#
# number of rings (size 3 to 8) (size 9 to 14) (size 15 to 20)
#    0.000    1.500    3.750    1.875    3.500    6.500 
#    0.000    0.000    0.000    3.000    0.000    0.000 
#    0.000    0.000    0.000    0.000    0.000    0.000 
#
# Total GULP energy -178433.611979 kJ/mol
# GULP energy per Si atom -5576.050374 kJ/mol
# Density = 2.194571 g / cm^3
# Si number density = 21.995772 Si / 1000 Ang^3
#
#
#
# Elastic Constant Matrix: (Units=GPa)
#
#
# Indices 1 2 3 4 5 6 
#
# 1 27.8850 -7.8548 -7.4260 0.0000 -2.5446 0.0000
# 2 -7.8548 76.1437 20.1300 0.0000 13.9928 0.0000
# 3 -7.4260 20.1300 44.8698 0.0000 -0.1391 0.0000
# 4 0.0000 0.0000 0.0000 33.9210 0.0000 -9.9633
# 5 -2.5446 13.9928 -0.1391 0.0000 24.1703 0.0000
# 6 0.0000 0.0000 0.0000 -9.9633 0.0000 20.2546
#
#
#
# Elastic Compliance Matrix: (Units=1/GPa)
#
#
# Indices 1 2 3 4 5 6 
#
# 1 0.038128 0.001960 0.005440 0.000000 0.002910 0.000000
# 2 0.001960 0.017067 -0.007363 0.000000 -0.009717 0.000000
# 3 0.005440 -0.007363 0.026506 0.000000 0.004988 0.000000
# 4 0.000000 0.000000 0.000000 0.034459 0.000000 0.016950
# 5 0.002910 -0.009717 0.004988 0.000000 0.047333 0.000000
# 6 0.000000 0.000000 0.000000 0.016950 0.000000 0.057709
#
#
# Mechanical properties :
#
#
# Convention : Reuss Voigt Hill
#
# Bulk Modulus (GPa) = 12.22855 17.62187 14.92521
# Shear Modulus (GPa) = 20.12991 25.27247 22.70119
#
# Velocity S-wave (km/s) = 3.02846 3.39332 3.21607
# Velocity P-wave (km/s) = 4.21905 4.83547 4.53773
#
# Compressibility (1/GPa) = 0.08177587
#
# Stress axis : x y z
#
# Youngs Moduli (GPa) = 26.22741 58.59140 37.72783
#
# Poissons Ratio (x) = -0.11485 -0.20524
# Poissons Ratio (y) = -0.05141 0.27778
# Poissons Ratio (z) = -0.14267 0.43139
#
# Static dielectric constant tensor:
#      x y z
#    x 1.904920 0.000000 0.012730 
#    y 0.000000 1.923070 0.000000 
#    z 0.012730 0.000000 1.863020 
# 
# From -- ./inp_files/27798.got.cif
#   From: 2010.05.17/outbox.cif.g08.bks.cpg/sg11_14_cif.got.tgz:27798.got - 2010.06.03 12:22:45.
