data_PCOD9164724
_publ_section_title
;
Structure prediction by ZEFSAII (Michael W. Deem and Ramdas Pophale) SiO2 
 PCOD9164724
Probable space group: P 21/M
;
_chemical_formula_sum "Si O2"
_cell_formula_units_Z 32
_cell_length_a 16.096783
_cell_length_b 14.399220
_cell_length_c 22.076726
_cell_angle_alpha 90.000000
_cell_angle_beta 18.856565
_cell_angle_gamma 90.000000
_cell_volume 1653.804725
_symmetry_space_group_name_H-M "P 21/M"
_symmetry_group_IT_number 11
_symmetry_cell_setting 'monoclinic'
loop_
_space_group_symop_operation_xyz
x,y,z
-x,1/2+y,-z
-x,-y,-z
x,1/2-y,z
loop_
_atom_site_type_symbol
_atom_site_label
_atom_site_fract_x
_atom_site_fract_y
_atom_site_fract_z
Si Si1 0.472570 0.470347 0.450253
Si Si2 0.449098 0.356870 0.685753
Si Si3 0.107202 0.649021 0.532311
Si Si4 0.047276 0.638369 0.203821
Si Si5 0.214990 0.966150 0.208673
Si Si6 0.005252 0.397685 0.523080
Si Si7 0.837625 0.360970 0.114610
Si Si8 0.407188 0.639206 0.844029
O O1 0.500000 0.500000 0.500000
O O2 0.432609 0.564161 0.438749
O O3 0.238111 0.398703 0.609284
O O4 0.715566 0.418018 0.253562
O O5 0.481199 0.250000 0.641238
O O6 0.602174 0.362179 0.643677
O O7 0.143996 0.373769 0.899915
O O8 0.013621 0.750000 0.620956
O O9 0.952623 0.559377 0.663000
O O10 0.078105 0.654917 0.479927
O O11 0.056296 0.750000 0.201403
O O12 0.131038 0.591445 0.208354
O O13 0.231986 0.606685 0.021074
O O14 0.179960 0.899974 0.291356
O O15 0.500000 0.000000 0.000000
O O16 0.293339 0.378197 0.348370
O O17 0.000000 0.500000 0.500000
O O18 0.790053 0.250000 0.154198
O O19 0.696774 0.394077 0.149498
O O20 0.373709 0.750000 0.864970
#
# Coordination Sequence:
#
# PCOD9164724 Si02
#       8
#     4   4   4   4   4   4   4   4
#     4  12  24  40  61  97 129 164 203 265 324 384
#     4  10  22  42  64  88 125 173 216 257 308 379
#     4  10  21  41  64  88 127 175 218 255 305 380
#     4  11  23  40  63  94 131 167 208 265 330 379
#     4  11  23  41  62  97 133 163 207 265 324 383
#     4  10  21  36  59  89 119 162 209 256 304 366
#     4  10  22  41  66  95 124 162 214 262 312 378
#     4  10  21  39  65  92 122 162 211 262 310 372
#
# _framework density 19.349322000000001
#
# number of rings (size 3 to 8) (size 9 to 14) (size 15 to 20)
#    0.000    1.500    1.250    4.125    1.750    5.500 
#    2.250    0.000    0.000    0.000    0.000    0.000 
#    0.000    0.000    0.000    0.000    0.000    0.000 
#
# Total GULP energy -178530.407116 kJ/mol
# GULP energy per Si atom -5579.075222 kJ/mol
# Density = 1.930528 g / cm^3
# Si number density = 19.349322 Si / 1000 Ang^3
#
#
#
# Elastic Constant Matrix: (Units=GPa)
#
#
# Indices 1 2 3 4 5 6 
#
# 1 149.2184 52.9601 64.7278 0.0000 -2.4587 0.0000
# 2 52.9601 88.1225 30.0117 0.0000 7.4087 0.0000
# 3 64.7278 30.0117 86.5419 0.0000 5.8024 0.0000
# 4 0.0000 0.0000 0.0000 35.7527 0.0000 -1.2021
# 5 -2.4587 7.4087 5.8024 0.0000 34.3946 0.0000
# 6 0.0000 0.0000 0.0000 -1.2021 0.0000 25.6293
#
#
#
# Elastic Compliance Matrix: (Units=1/GPa)
#
#
# Indices 1 2 3 4 5 6 
#
# 1 0.011566 -0.004754 -0.007207 0.000000 0.003067 0.000000
# 2 -0.004754 0.014965 -0.001411 0.000000 -0.003325 0.000000
# 3 -0.007207 -0.001411 0.017649 0.000000 -0.003189 0.000000
# 4 0.000000 0.000000 0.000000 0.028014 0.000000 0.001314
# 5 0.003067 -0.003325 -0.003189 0.000000 0.030548 0.000000
# 6 0.000000 0.000000 0.000000 0.001314 0.000000 0.039079
#
#
# Mechanical properties :
#
#
# Convention : Reuss Voigt Hill
#
# Bulk Modulus (GPa) = 57.35672 68.80910 63.08291
# Shear Modulus (GPa) = 28.67334 30.90087 29.78710
#
# Velocity S-wave (km/s) = 3.85369 4.00058 3.92783
# Velocity P-wave (km/s) = 7.03622 7.54839 7.29680
#
# Compressibility (1/GPa) = 0.01743475
#
# Stress axis : x y z
#
# Youngs Moduli (GPa) = 86.46122 66.82224 56.66059
#
# Poissons Ratio (x) = 0.31768 0.40838
# Poissons Ratio (y) = 0.41104 0.07995
# Poissons Ratio (z) = 0.62317 0.09429
#
# Static dielectric constant tensor:
#      x y z
#    x 1.685210 0.000000 0.003570 
#    y 0.000000 1.705060 0.000000 
#    z 0.003570 0.000000 1.639930 
# 
# From -- ./inp_files/65765.got.cif
#   From: 2010.05.17/outbox.cif.g08.bks.cpg/sg11_33_cif.got.tgz:65765.got - 2010.06.03 12:22:45.
