data_PCOD9164995
_publ_section_title
;
Structure prediction by ZEFSAII (Michael W. Deem and Ramdas Pophale) SiO2 
 PCOD9164995
Probable space group: P 21/M
;
_chemical_formula_sum "Si O2"
_cell_formula_units_Z 28
_cell_length_a 14.974249
_cell_length_b 8.729612
_cell_length_c 12.916750
_cell_angle_alpha 90.000000
_cell_angle_beta 58.763697
_cell_angle_gamma 90.000000
_cell_volume 1443.702062
_symmetry_space_group_name_H-M "P 21/M"
_symmetry_group_IT_number 11
_symmetry_cell_setting 'monoclinic'
loop_
_space_group_symop_operation_xyz
x,y,z
-x,1/2+y,-z
-x,-y,-z
x,1/2-y,z
loop_
_atom_site_type_symbol
_atom_site_label
_atom_site_fract_x
_atom_site_fract_y
_atom_site_fract_z
Si Si1 0.997171 0.932687 0.686681
Si Si2 0.779412 0.564607 0.724811
Si Si3 0.081120 0.067019 0.033140
Si Si4 0.775684 0.934394 0.494276
Si Si5 0.606292 0.066637 0.981537
Si Si6 0.614927 0.565922 0.412736
Si Si7 0.692029 0.066638 0.149579
O O1 0.010658 0.750000 0.666231
O O2 0.899622 0.981467 0.673811
O O3 0.960810 0.962283 0.826163
O O4 0.106912 0.011386 0.598672
O O5 0.774872 0.750000 0.735759
O O6 0.746869 0.518075 0.628547
O O7 0.703243 0.495931 0.856503
O O8 0.091878 0.250000 0.013845
O O9 0.191811 0.987680 0.948218
O O10 0.000000 0.000000 0.000000
O O11 0.775070 0.750000 0.493215
O O12 0.694738 0.987126 0.455128
O O13 0.605071 0.250000 0.975831
O O14 0.621449 0.024482 0.092879
O O15 0.500000 0.000000 0.000000
O O16 0.500000 0.500000 0.500000
O O17 0.611227 0.750000 0.417604
O O18 0.655904 0.510666 0.277096
O O19 0.689628 0.250000 0.163425
#
# Coordination Sequence:
#
# PCOD9164995 Si02
#       7
#     4   4   4   4   4   4   4
#     4  10  21  37  60  90 124 161 203 250 304 368
#     4  10  21  41  64  91 127 163 202 253 311 372
#     4  11  22  37  60  91 126 166 209 256 311 370
#     4  10  23  40  62  90 124 164 205 253 308 366
#     4  11  25  42  65  95 125 162 208 260 316 376
#     4  11  25  44  65  92 125 165 211 261 315 370
#     4  11  24  43  65  92 125 163 209 260 312 373
#
# _framework density 19.394583999999998
#
# number of rings (size 3 to 8) (size 9 to 14) (size 15 to 20)
#    0.000    1.429    1.429    3.000    2.000    7.429 
#    0.000    0.000    0.000    0.000    0.000    0.000 
#    0.000    0.000    0.000    0.000    0.000    0.000 
#
# Total GULP energy -156557.215175 kJ/mol
# GULP energy per Si atom -5591.329113 kJ/mol
# Density = 1.935044 g / cm^3
# Si number density = 19.394584 Si / 1000 Ang^3
#
#
#
# Elastic Constant Matrix: (Units=GPa)
#
#
# Indices 1 2 3 4 5 6 
#
# 1 147.4217 29.8460 46.2724 0.0000 28.7783 0.0000
# 2 29.8460 28.2112 26.6964 0.0000 15.5062 0.0000
# 3 46.2724 26.6964 88.2787 0.0000 26.6369 0.0000
# 4 0.0000 0.0000 0.0000 34.6657 0.0000 -6.4678
# 5 28.7783 15.5062 26.6369 0.0000 35.2482 0.0000
# 6 0.0000 0.0000 0.0000 -6.4678 0.0000 33.6062
#
#
#
# Elastic Compliance Matrix: (Units=1/GPa)
#
#
# Indices 1 2 3 4 5 6 
#
# 1 0.009310 -0.006068 -0.002017 0.000000 -0.003408 0.000000
# 2 -0.006068 0.059211 -0.010830 0.000000 -0.012909 0.000000
# 3 -0.002017 -0.010830 0.017780 0.000000 -0.007025 0.000000
# 4 0.000000 0.000000 0.000000 0.029921 0.000000 0.005759
# 5 -0.003408 -0.012909 -0.007025 0.000000 0.042140 0.000000
# 6 0.000000 0.000000 0.000000 0.005759 0.000000 0.030865
#
#
# Mechanical properties :
#
#
# Convention : Reuss Voigt Hill
#
# Bulk Modulus (GPa) = 20.63103 52.17127 36.40115
# Shear Modulus (GPa) = 20.55809 31.44381 26.00095
#
# Velocity S-wave (km/s) = 3.25928 4.03087 3.66543
# Velocity P-wave (km/s) = 4.98242 6.97296 6.05998
#
# Compressibility (1/GPa) = 0.04847067
#
# Stress axis : x y z
#
# Youngs Moduli (GPa) = 107.41183 16.88885 56.24379
#
# Poissons Ratio (x) = 0.10248 0.11343
# Poissons Ratio (y) = 0.65178 0.60913
# Poissons Ratio (z) = 0.21661 0.18291
#
# Static dielectric constant tensor:
#      x y z
#    x 1.660180 0.000000 0.028450 
#    y 0.000000 1.656270 0.000000 
#    z 0.028450 0.000000 1.650010 
# 
# From -- ./inp_files/37934.got.cif
#   From: 2010.05.17/outbox.cif.g08.bks.cpg/sg11_19_cif.got.tgz:37934.got - 2010.06.03 12:22:45.
