data_PCOD9164319
_publ_section_title
;
Structure prediction by ZEFSAII (Michael W. Deem and Ramdas Pophale) SiO2 
 PCOD9164319
Probable space group: P 21/M
;
_chemical_formula_sum "Si O2"
_cell_formula_units_Z 32
_cell_length_a 15.153249
_cell_length_b 17.887532
_cell_length_c 11.864084
_cell_angle_alpha 90.000000
_cell_angle_beta 28.323263
_cell_angle_gamma 90.000000
_cell_volume 1525.727143
_symmetry_space_group_name_H-M "P 21/M"
_symmetry_group_IT_number 11
_symmetry_cell_setting 'monoclinic'
loop_
_space_group_symop_operation_xyz
x,y,z
-x,1/2+y,-z
-x,-y,-z
x,1/2-y,z
loop_
_atom_site_type_symbol
_atom_site_label
_atom_site_fract_x
_atom_site_fract_y
_atom_site_fract_z
Si Si1 0.781450 0.441028 0.666626
Si Si2 0.473941 0.837408 0.204001
Si Si3 0.819791 0.517526 0.130393
Si Si4 0.511126 0.073254 0.598304
Si Si5 0.875839 0.664684 0.648511
Si Si6 0.390523 0.940040 0.907617
Si Si7 0.000778 0.448781 0.733407
Si Si8 0.264829 0.334797 0.454179
O O1 0.655850 0.389501 0.727403
O O2 0.863863 0.511444 0.507219
O O3 0.958787 0.392136 0.508472
O O4 0.661000 0.468241 0.909031
O O5 0.435784 0.750000 0.225320
O O6 0.447788 0.859508 0.363812
O O7 0.690030 0.850860 0.929084
O O8 0.667554 0.582821 0.282894
O O9 0.680266 0.451624 0.328724
O O10 0.000000 0.500000 0.000000
O O11 0.915253 0.515644 0.900953
O O12 0.468752 0.003523 0.734409
O O13 0.937882 0.750000 0.602542
O O14 0.808847 0.664233 0.592929
O O15 0.536949 0.873783 0.757061
O O16 0.189457 0.910635 0.093168
O O17 0.118788 0.391286 0.675159
O O18 0.264775 0.250000 0.493497
#
# Coordination Sequence:
#
# PCOD9164319 Si02
#       8
#     4   4   4   4   4   4   4   4
#     4  12  22  36  59  90 126 159 202 246 297 362
#     4  11  23  39  59  89 127 166 201 242 303 368
#     4  10  20  41  66  87 114 149 197 254 311 349
#     4  10  23  39  62  91 117 153 205 257 298 357
#     4  10  21  35  52  80 123 165 197 234 286 356
#     4  11  22  37  58  88 121 159 200 246 300 356
#     4  11  24  38  61  91 116 153 201 258 304 353
#     4  11  23  37  54  82 120 162 198 234 294 364
#
# _framework density 20.973606
#
# number of rings (size 3 to 8) (size 9 to 14) (size 15 to 20)
#    0.000    1.250    2.500    4.500    1.750    2.000 
#    0.000    0.625    0.000    9.750    0.000    0.000 
#    0.000    0.000    0.000    0.000    0.000    0.000 
#
# Total GULP energy -178389.205587 kJ/mol
# GULP energy per Si atom -5574.662675 kJ/mol
# Density = 2.092587 g / cm^3
# Si number density = 20.973606 Si / 1000 Ang^3
#
#
#
# Elastic Constant Matrix: (Units=GPa)
#
#
# Indices 1 2 3 4 5 6 
#
# 1 76.2286 11.4524 12.4447 0.0000 -28.1445 0.0000
# 2 11.4524 106.9180 29.8098 0.0000 -20.4246 0.0000
# 3 12.4447 29.8098 82.7831 0.0000 -14.8375 0.0000
# 4 0.0000 0.0000 0.0000 19.9541 0.0000 -1.7261
# 5 -28.1445 -20.4246 -14.8375 0.0000 43.0033 0.0000
# 6 0.0000 0.0000 0.0000 -1.7261 0.0000 22.4710
#
#
#
# Elastic Compliance Matrix: (Units=1/GPa)
#
#
# Indices 1 2 3 4 5 6 
#
# 1 0.017352 0.000521 -0.000763 0.000000 0.011340 0.000000
# 2 0.000521 0.011060 -0.003260 0.000000 0.004469 0.000000
# 3 -0.000763 -0.003260 0.013858 0.000000 0.002734 0.000000
# 4 0.000000 0.000000 0.000000 0.050450 0.000000 0.003875
# 5 0.011340 0.004469 0.002734 0.000000 0.033741 0.000000
# 6 0.000000 0.000000 0.000000 0.003875 0.000000 0.044799
#
#
# Mechanical properties :
#
#
# Convention : Reuss Voigt Hill
#
# Bulk Modulus (GPa) = 28.35719 41.48260 34.91989
# Shear Modulus (GPa) = 26.31284 31.23387 28.77335
#
# Velocity S-wave (km/s) = 3.54583 3.86320 3.70791
# Velocity P-wave (km/s) = 5.50579 6.30242 5.91752
#
# Compressibility (1/GPa) = 0.03526443
#
# Stress axis : x y z
#
# Youngs Moduli (GPa) = 57.63105 90.41789 72.15871
#
# Poissons Ratio (x) = -0.04707 0.05508
# Poissons Ratio (y) = -0.03000 0.23523
# Poissons Ratio (z) = 0.04399 0.29475
#
# Static dielectric constant tensor:
#      x y z
#    x 1.068650 0.000000 0.065350 
#    y 0.000000 1.808080 0.000000 
#    z 0.065350 0.000000 1.767040 
# 
# From -- ./inp_files/39980.got.cif
#   From: 2010.05.17/outbox.cif.g08.bks.cpg/sg11_20_cif.got.tgz:39980.got - 2010.06.03 12:22:45.
