data_PCOD9164601
_publ_section_title
;
Structure prediction by ZEFSAII (Michael W. Deem and Ramdas Pophale) SiO2 
 PCOD9164601
Probable space group: P 21/M
;
_chemical_formula_sum "Si O2"
_cell_formula_units_Z 32
_cell_length_a 5.202354
_cell_length_b 14.671705
_cell_length_c 18.599767
_cell_angle_alpha 90.000000
_cell_angle_beta 88.370119
_cell_angle_gamma 90.000000
_cell_volume 1419.097541
_symmetry_space_group_name_H-M "P 21/M"
_symmetry_group_IT_number 11
_symmetry_cell_setting 'monoclinic'
loop_
_space_group_symop_operation_xyz
x,y,z
-x,1/2+y,-z
-x,-y,-z
x,1/2-y,z
loop_
_atom_site_type_symbol
_atom_site_label
_atom_site_fract_x
_atom_site_fract_y
_atom_site_fract_z
Si Si1 0.102332 0.360023 0.256785
Si Si2 0.575038 0.496497 0.824631
Si Si3 0.679626 0.854241 0.273697
Si Si4 0.409089 0.648802 0.675558
Si Si5 0.255045 0.475632 0.953515
Si Si6 0.750956 0.600924 0.437335
Si Si7 0.034499 0.650085 0.132465
Si Si8 0.763917 0.113195 0.478592
O O1 0.085237 0.250000 0.246330
O O2 0.254449 0.415635 0.195180
O O3 0.296295 0.382456 0.322405
O O4 0.817944 0.397123 0.276534
O O5 0.503775 0.434354 0.755641
O O6 0.329919 0.521864 0.875940
O O7 0.749145 0.426608 0.868932
O O8 0.570154 0.750000 0.275447
O O9 0.774694 0.878528 0.352827
O O10 0.903840 0.852429 0.212166
O O11 0.426152 0.750000 0.706702
O O12 0.304178 0.655644 0.596835
O O13 0.184738 0.374825 0.924066
O O14 0.500000 0.500000 0.000000
O O15 0.000000 0.500000 0.000000
O O16 0.470129 0.630370 0.465453
O O17 0.769233 0.493591 0.455907
O O18 0.975389 0.641965 0.484760
O O19 0.142042 0.750000 0.118592
#
# Coordination Sequence:
#
# PCOD9164601 Si02
#       8
#     4   4   4   4   4   4   4   4
#     4  10  23  39  63  95 125 162 218 278 331 392
#     4  11  23  40  74  94 138 176 213 268 326 387
#     4  10  23  39  60  96 130 173 227 273 330 389
#     4  10  21  38  59  84 117 160 214 271 330 397
#     4  11  23  45  70 100 134 173 218 258 313 383
#     4  10  22  36  54  81 120 160 210 277 324 392
#     4  10  23  43  70 104 138 178 224 269 315 389
#     4  10  21  36  54  81 114 163 216 264 338 396
#
# _framework density 22.549544000000001
#
# number of rings (size 3 to 8) (size 9 to 14) (size 15 to 20)
#    0.000    1.750    1.250    1.875    7.000    2.500 
#    0.000    1.250    0.000    0.750    0.000    0.000 
#    0.000    0.000    0.000    0.000    0.000    0.000 
#
# Total GULP energy -178398.213376 kJ/mol
# GULP energy per Si atom -5574.944168 kJ/mol
# Density = 2.249822 g / cm^3
# Si number density = 22.549544 Si / 1000 Ang^3
#
#
#
# Elastic Constant Matrix: (Units=GPa)
#
#
# Indices 1 2 3 4 5 6 
#
# 1 69.7936 28.4900 12.7431 0.0000 10.4461 0.0000
# 2 28.4900 79.1385 31.3880 0.0000 1.5907 0.0000
# 3 12.7431 31.3880 111.5996 0.0000 5.3227 0.0000
# 4 0.0000 0.0000 0.0000 12.3104 0.0000 5.5791
# 5 10.4461 1.5907 5.3227 0.0000 38.8458 0.0000
# 6 0.0000 0.0000 0.0000 5.5791 0.0000 15.7865
#
#
#
# Elastic Compliance Matrix: (Units=1/GPa)
#
#
# Indices 1 2 3 4 5 6 
#
# 1 0.017536 -0.006206 -0.000044 0.000000 -0.004455 0.000000
# 2 -0.006206 0.016419 -0.003983 0.000000 0.001542 0.000000
# 3 -0.000044 -0.003983 0.010144 0.000000 -0.001215 0.000000
# 4 0.000000 0.000000 0.000000 0.096724 0.000000 -0.034183
# 5 -0.004455 0.001542 -0.001215 0.000000 0.027044 0.000000
# 6 0.000000 0.000000 0.000000 -0.034183 0.000000 0.075426
#
#
# Mechanical properties :
#
#
# Convention : Reuss Voigt Hill
#
# Bulk Modulus (GPa) = 42.31446 45.08598 43.70022
# Shear Modulus (GPa) = 18.40696 25.91592 22.16144
#
# Velocity S-wave (km/s) = 2.86018 3.39379 3.13835
# Velocity P-wave (km/s) = 5.45099 5.94934 5.70561
#
# Compressibility (1/GPa) = 0.02363258
#
# Stress axis : x y z
#
# Youngs Moduli (GPa) = 57.02499 60.90551 98.58216
#
# Poissons Ratio (x) = 0.37797 0.00438
# Poissons Ratio (y) = 0.35389 0.39264
# Poissons Ratio (z) = 0.00253 0.24258
#
# Static dielectric constant tensor:
#      x y z
#    x 1.906700 0.000000 0.008690 
#    y 0.000000 1.890190 0.000000 
#    z 0.008690 0.000000 1.860450 
# 
# From -- ./inp_files/57055.got.cif
#   From: 2010.05.17/outbox.cif.g08.bks.cpg/sg11_29_cif.got.tgz:57055.got - 2010.06.03 12:22:45.
