data_PCOD9164651
_publ_section_title
;
Structure prediction by ZEFSAII (Michael W. Deem and Ramdas Pophale) SiO2 
 PCOD9164651
Probable space group: P 21/M
;
_chemical_formula_sum "Si O2"
_cell_formula_units_Z 32
_cell_length_a 24.573496
_cell_length_b 9.115311
_cell_length_c 14.934345
_cell_angle_alpha 90.000000
_cell_angle_beta 27.507902
_cell_angle_gamma 90.000000
_cell_volume 1545.059672
_symmetry_space_group_name_H-M "P 21/M"
_symmetry_group_IT_number 11
_symmetry_cell_setting 'monoclinic'
loop_
_space_group_symop_operation_xyz
x,y,z
-x,1/2+y,-z
-x,-y,-z
x,1/2-y,z
loop_
_atom_site_type_symbol
_atom_site_label
_atom_site_fract_x
_atom_site_fract_y
_atom_site_fract_z
Si Si1 0.621427 0.076051 0.431703
Si Si2 0.963324 0.922085 0.145824
Si Si3 0.831541 0.917527 0.829150
Si Si4 0.963317 0.422408 0.325578
Si Si5 0.771886 0.577710 0.718050
Si Si6 0.303596 0.079418 0.508669
Si Si7 0.475428 0.572601 0.939738
Si Si8 0.626117 0.077170 0.220675
O O1 0.616683 0.250000 0.445696
O O2 0.657352 0.037673 0.277906
O O3 0.700969 0.011416 0.393429
O O4 0.491616 0.008524 0.633388
O O5 0.995728 0.750000 0.097036
O O6 0.820980 0.933466 0.358584
O O7 0.009383 0.001443 0.167822
O O8 0.000000 0.000000 0.000000
O O9 0.787803 0.750000 0.907808
O O10 0.846837 0.932504 0.700567
O O11 0.943372 0.936678 0.729697
O O12 0.732854 0.030823 0.003236
O O13 0.942851 0.250000 0.339133
O O14 0.845220 0.501210 0.532583
O O15 0.752153 0.750000 0.727125
O O16 0.647633 0.496361 0.913305
O O17 0.320466 0.250000 0.507850
O O18 0.415003 0.035814 0.285337
O O19 0.467693 0.750000 0.957157
O O20 0.500000 0.500000 0.000000
O O21 0.602513 0.250000 0.250630
#
# Coordination Sequence:
#
# PCOD9164651 Si02
#       8
#     4   4   4   4   4   4   4   4
#     4  10  21  36  57  86 119 157 202 252 307 368
#     4  11  25  45  67  94 128 168 214 266 320 379
#     4  10  23  40  62  91 126 166 211 259 316 376
#     4  11  24  43  66  94 126 167 215 266 321 378
#     4  11  23  41  64  94 131 170 211 262 319 381
#     4  10  23  41  62  88 120 158 203 254 310 369
#     4  11  23  40  64  94 126 164 209 260 319 381
#     4  10  21  36  56  86 121 160 204 251 307 368
#
# _framework density 20.711175000000001
#
# number of rings (size 3 to 8) (size 9 to 14) (size 15 to 20)
#    0.000    1.500    0.000    4.125    1.750    8.500 
#    0.000    0.000    0.000    0.000    0.000    0.000 
#    0.000    0.000    0.000    0.000    0.000    0.000 
#
# Total GULP energy -178929.578858 kJ/mol
# GULP energy per Si atom -5591.549339 kJ/mol
# Density = 2.066404 g / cm^3
# Si number density = 20.711175 Si / 1000 Ang^3
#
#
#
# Elastic Constant Matrix: (Units=GPa)
#
#
# Indices 1 2 3 4 5 6 
#
# 1 89.5715 54.8313 13.3488 0.0000 4.9127 0.0000
# 2 54.8313 78.3005 28.8222 0.0000 12.7150 0.0000
# 3 13.3488 28.8222 60.2648 0.0000 17.4717 0.0000
# 4 0.0000 0.0000 0.0000 30.0162 0.0000 5.0376
# 5 4.9127 12.7150 17.4717 0.0000 19.3077 0.0000
# 6 0.0000 0.0000 0.0000 5.0376 0.0000 32.7261
#
#
#
# Elastic Compliance Matrix: (Units=1/GPa)
#
#
# Indices 1 2 3 4 5 6 
#
# 1 0.020049 -0.015272 0.001934 0.000000 0.003206 0.000000
# 2 -0.015272 0.027461 -0.007638 0.000000 -0.007286 0.000000
# 3 0.001934 -0.007638 0.025083 0.000000 -0.018160 0.000000
# 4 0.000000 0.000000 0.000000 0.034199 0.000000 -0.005264
# 5 0.003206 -0.007286 -0.018160 0.000000 0.072208 0.000000
# 6 0.000000 0.000000 0.000000 -0.005264 0.000000 0.031367
#
#
# Mechanical properties :
#
#
# Convention : Reuss Voigt Hill
#
# Bulk Modulus (GPa) = 32.63774 46.90461 39.77117
# Shear Modulus (GPa) = 19.04518 25.15228 22.09873
#
# Velocity S-wave (km/s) = 3.03572 3.48865 3.27003
# Velocity P-wave (km/s) = 5.29907 6.23889 5.78809
#
# Compressibility (1/GPa) = 0.03063938
#
# Stress axis : x y z
#
# Youngs Moduli (GPa) = 49.87742 36.41565 39.86775
#
# Poissons Ratio (x) = 0.55615 -0.07709
# Poissons Ratio (y) = 0.76174 0.30451
# Poissons Ratio (z) = -0.09644 0.27815
#
# Static dielectric constant tensor:
#      x y z
#    x 1.764080 0.000000 -0.011400 
#    y 0.000000 1.704030 0.000000 
#    z -0.011400 0.000000 1.727930 
# 
# From -- ./inp_files/55552.got.cif
#   From: 2010.05.17/outbox.cif.g08.bks.cpg/sg11_28_cif.got.tgz:55552.got - 2010.06.03 12:22:45.
