data_PCOD9164030
_publ_section_title
;
Structure prediction by ZEFSAII (Michael W. Deem and Ramdas Pophale) SiO2 
 PCOD9164030
Probable space group: P 21/M
;
_chemical_formula_sum "Si O2"
_cell_formula_units_Z 24
_cell_length_a 14.176679
_cell_length_b 17.233417
_cell_length_c 9.204781
_cell_angle_alpha 90.000000
_cell_angle_beta 29.750845
_cell_angle_gamma 90.000000
_cell_volume 1115.942386
_symmetry_space_group_name_H-M "P 21/M"
_symmetry_group_IT_number 11
_symmetry_cell_setting 'monoclinic'
loop_
_space_group_symop_operation_xyz
x,y,z
-x,1/2+y,-z
-x,-y,-z
x,1/2-y,z
loop_
_atom_site_type_symbol
_atom_site_label
_atom_site_fract_x
_atom_site_fract_y
_atom_site_fract_z
Si Si1 0.941289 0.396072 0.857545
Si Si2 0.720596 0.003369 0.562670
Si Si3 0.513116 0.073040 0.375368
Si Si4 0.165741 0.438055 0.314143
Si Si5 0.850305 0.164142 0.292352
Si Si6 0.752383 0.662783 0.066493
O O1 0.057742 0.473309 0.752619
O O2 0.075100 0.372736 0.543230
O O3 0.734890 0.409918 0.066206
O O4 0.910656 0.346911 0.043376
O O5 0.594986 0.950587 0.625811
O O6 0.692626 0.984252 0.769723
O O7 0.281715 0.907521 0.483119
O O8 0.402749 0.141384 0.605245
O O9 0.500000 0.000000 0.500000
O O10 0.000000 0.500000 0.500000
O O11 0.248893 0.399377 0.061126
O O12 0.766194 0.250000 0.423929
O O13 0.040748 0.159119 0.134518
O O14 0.722167 0.750000 0.053095
#
# Coordination Sequence:
#
# PCOD9164030 Si02
#       6
#     4   4   4   4   4   4
#     4  10  22  38  66  90 124 159 215 253 311 375
#     4  10  21  40  63  92 126 161 215 258 304 383
#     4  12  21  38  69  95 119 168 212 262 308 374
#     4  10  20  38  64  86 128 168 204 255 316 379
#     4  11  20  36  61  90 125 164 206 264 318 362
#     4  11  23  40  64  96 129 166 210 265 323 372
#
# _framework density 21.506488000000001
#
# number of rings (size 3 to 8) (size 9 to 14) (size 15 to 20)
#    1.000    0.333    5.000    2.500    0.000    1.333 
#    0.000    5.833    0.000    0.000    0.000    0.000 
#    0.000    0.000    0.000    0.000    0.000    0.000 
#
# Total GULP energy -133970.915281 kJ/mol
# GULP energy per Si atom -5582.121470 kJ/mol
# Density = 2.145754 g / cm^3
# Si number density = 21.506488 Si / 1000 Ang^3
#
#
#
# Elastic Constant Matrix: (Units=GPa)
#
#
# Indices 1 2 3 4 5 6 
#
# 1 154.2024 41.6425 49.6890 0.0000 3.7213 0.0000
# 2 41.6425 108.1806 30.8641 0.0000 6.3791 0.0000
# 3 49.6890 30.8641 78.5018 0.0000 3.0887 0.0000
# 4 0.0000 0.0000 0.0000 15.0544 0.0000 -0.9652
# 5 3.7213 6.3791 3.0887 0.0000 36.8959 0.0000
# 6 0.0000 0.0000 0.0000 -0.9652 0.0000 15.0893
#
#
#
# Elastic Compliance Matrix: (Units=1/GPa)
#
#
# Indices 1 2 3 4 5 6 
#
# 1 0.008500 -0.001949 -0.004608 0.000000 -0.000135 0.000000
# 2 -0.001949 0.010938 -0.003010 0.000000 -0.001443 0.000000
# 3 -0.004608 -0.003010 0.016856 0.000000 -0.000426 0.000000
# 4 0.000000 0.000000 0.000000 0.066699 0.000000 0.004267
# 5 -0.000135 -0.001443 -0.000426 0.000000 0.027402 0.000000
# 6 0.000000 0.000000 0.000000 0.004267 0.000000 0.066545
#
#
# Mechanical properties :
#
#
# Convention : Reuss Voigt Hill
#
# Bulk Modulus (GPa) = 58.28051 65.03067 61.65559
# Shear Modulus (GPa) = 22.54352 27.98721 25.26537
#
# Velocity S-wave (km/s) = 3.24113 3.61132 3.43122
# Velocity P-wave (km/s) = 6.41595 6.90595 6.66546
#
# Compressibility (1/GPa) = 0.01715839
#
# Stress axis : x y z
#
# Youngs Moduli (GPa) = 117.65356 91.42553 59.32737
#
# Poissons Ratio (x) = 0.17820 0.27340
# Poissons Ratio (y) = 0.22932 0.17857
# Poissons Ratio (z) = 0.54219 0.27518
#
# Static dielectric constant tensor:
#      x y z
#    x 1.810980 0.000000 -0.031570 
#    y 0.000000 1.789480 0.000000 
#    z -0.031570 0.000000 1.896520 
# 
# From -- ./inp_files/19065.got.cif
#   From: 2010.05.17/outbox.cif.g08.bks.cpg/sg11_10_cif.got.tgz:19065.got - 2010.06.03 12:22:45.
