data_PCOD9164458
_publ_section_title
;
Structure prediction by ZEFSAII (Michael W. Deem and Ramdas Pophale) SiO2 
 PCOD9164458
Probable space group: P 21/M
;
_chemical_formula_sum "Si O2"
_cell_formula_units_Z 32
_cell_length_a 25.158958
_cell_length_b 9.391513
_cell_length_c 25.160954
_cell_angle_alpha 90.000000
_cell_angle_beta 17.330982
_cell_angle_gamma 90.000000
_cell_volume 1770.976730
_symmetry_space_group_name_H-M "P 21/M"
_symmetry_group_IT_number 11
_symmetry_cell_setting 'monoclinic'
loop_
_space_group_symop_operation_xyz
x,y,z
-x,1/2+y,-z
-x,-y,-z
x,1/2-y,z
loop_
_atom_site_type_symbol
_atom_site_label
_atom_site_fract_x
_atom_site_fract_y
_atom_site_fract_z
Si Si1 0.511850 0.411183 0.934716
Si Si2 0.126421 0.920034 0.126868
Si Si3 0.929401 0.920977 0.929986
Si Si4 0.266331 0.580134 0.679106
Si Si5 0.678249 0.580139 0.266985
Si Si6 0.461540 0.581030 0.879321
Si Si7 0.120964 0.418975 0.538182
Si Si8 0.065372 0.588814 0.488064
O O1 0.444336 0.250000 0.005606
O O2 0.426285 0.493246 0.966677
O O3 0.721152 0.403486 0.721247
O O4 0.500000 0.500000 0.000000
O O5 0.121629 0.750000 0.122147
O O6 0.973588 0.954277 0.316127
O O7 0.098548 0.002032 0.098903
O O8 0.315739 0.954241 0.973986
O O9 0.925694 0.750000 0.926032
O O10 0.117025 0.959134 0.778806
O O11 0.777448 0.959096 0.118090
O O12 0.252869 0.750000 0.701009
O O13 0.466879 0.548777 0.467744
O O14 0.242582 0.499995 0.757546
O O15 0.700244 0.750000 0.253426
O O16 0.446243 0.750000 0.905679
O O17 0.665556 0.554850 0.665859
O O18 0.094571 0.250000 0.553526
O O19 0.033513 0.506742 0.573527
O O20 0.994479 0.750000 0.555584
O O21 0.000000 0.500000 0.500000
#
# Coordination Sequence:
#
# PCOD9164458 Si02
#       8
#     4   4   4   4   4   4   4   4
#     4  10  21  35  53  79 107 135 169 211 263 322
#     4  10  22  37  55  78 103 138 182 222 264 316
#     4  10  21  35  51  76 108 140 176 218 264 312
#     4   9  18  33  53  78 108 141 176 216 263 311
#     4   9  18  33  53  78 108 141 176 216 263 311
#     4   9  19  37  56  74 102 136 171 217 267 312
#     4   9  19  37  56  74 102 136 171 217 267 312
#     4  10  21  35  53  79 107 135 169 211 263 322
#
# _framework density 18.069126000000001
#
# number of rings (size 3 to 8) (size 9 to 14) (size 15 to 20)
#    0.000    2.500    0.000    1.125    1.750    4.500 
#    0.000    0.000    0.000    0.000    0.000    0.000 
#    0.000    0.000    0.000    0.000    0.000    0.000 
#
# Total GULP energy -178586.122090 kJ/mol
# GULP energy per Si atom -5580.816315 kJ/mol
# Density = 1.802800 g / cm^3
# Si number density = 18.069126 Si / 1000 Ang^3
#
#
#
# Elastic Constant Matrix: (Units=GPa)
#
#
# Indices 1 2 3 4 5 6 
#
# 1 203.7117 95.2709 85.2176 0.0000 19.5632 0.0000
# 2 95.2709 73.5192 52.7856 0.0000 8.5089 0.0000
# 3 85.2176 52.7856 84.4245 0.0000 4.6849 0.0000
# 4 0.0000 0.0000 0.0000 13.9724 0.0000 5.2860
# 5 19.5632 8.5089 4.6849 0.0000 12.7717 0.0000
# 6 0.0000 0.0000 0.0000 5.2860 0.0000 42.7628
#
#
#
# Elastic Compliance Matrix: (Units=1/GPa)
#
#
# Indices 1 2 3 4 5 6 
#
# 1 0.014881 -0.013843 -0.005729 0.000000 -0.011470 0.000000
# 2 -0.013843 0.039174 -0.010462 0.000000 -0.001058 0.000000
# 3 -0.005729 -0.010462 0.023779 0.000000 0.007023 0.000000
# 4 0.000000 0.000000 0.000000 0.075081 0.000000 -0.009281
# 5 -0.011470 -0.001058 0.007023 0.000000 0.093996 0.000000
# 6 0.000000 0.000000 0.000000 -0.009281 0.000000 0.024532
#
#
# Mechanical properties :
#
#
# Convention : Reuss Voigt Hill
#
# Bulk Modulus (GPa) = 56.28438 92.02263 74.15351
# Shear Modulus (GPa) = 14.81774 22.46013 18.63894
#
# Velocity S-wave (km/s) = 2.86677 3.52946 3.21524
# Velocity P-wave (km/s) = 6.49422 8.22485 7.41023
#
# Compressibility (1/GPa) = 0.01776692
#
# Stress axis : x y z
#
# Youngs Moduli (GPa) = 67.19973 25.52717 42.05337
#
# Poissons Ratio (x) = 0.35337 0.24093
# Poissons Ratio (y) = 0.93023 0.43995
# Poissons Ratio (z) = 0.38500 0.26706
#
# Static dielectric constant tensor:
#      x y z
#    x 1.569480 0.000000 -0.012910 
#    y 0.000000 1.615500 0.000000 
#    z -0.012910 0.000000 1.640960 
# 
# From -- ./inp_files/69983.got.cif
#   From: 2010.05.17/outbox.cif.g08.bks.cpg/sg11_35_cif.got.tgz:69983.got - 2010.06.03 12:22:45.
