data_PCOD9164872
_publ_section_title
;
Structure prediction by ZEFSAII (Michael W. Deem and Ramdas Pophale) SiO2 
 PCOD9164872
Probable space group: P 21/M
;
_chemical_formula_sum "Si O2"
_cell_formula_units_Z 28
_cell_length_a 14.168293
_cell_length_b 7.856772
_cell_length_c 19.176204
_cell_angle_alpha 90.000000
_cell_angle_beta 145.114717
_cell_angle_gamma 90.000000
_cell_volume 1220.874829
_symmetry_space_group_name_H-M "P 21/M"
_symmetry_group_IT_number 11
_symmetry_cell_setting 'monoclinic'
loop_
_space_group_symop_operation_xyz
x,y,z
-x,1/2+y,-z
-x,-y,-z
x,1/2-y,z
loop_
_atom_site_type_symbol
_atom_site_label
_atom_site_fract_x
_atom_site_fract_y
_atom_site_fract_z
Si Si1 0.322480 0.941155 0.915940
Si Si2 0.397590 0.544467 0.715134
Si Si3 0.074366 0.061378 0.118647
Si Si4 0.246831 0.057346 0.013213
Si Si5 0.204109 0.454239 0.471353
Si Si6 0.693751 0.543748 0.619856
Si Si7 0.117875 0.554392 0.650917
O O1 0.328817 0.750000 0.948584
O O2 0.213145 0.939146 0.781369
O O3 0.500000 0.000000 0.000000
O O4 0.260945 0.060875 0.939014
O O5 0.396076 0.750000 0.720448
O O6 0.578437 0.492150 0.851101
O O7 0.363573 0.491646 0.615258
O O8 0.247708 0.478743 0.673995
O O9 0.138059 0.250000 0.143316
O O10 0.212716 0.978160 0.253428
O O11 0.000000 0.000000 0.000000
O O12 0.909007 0.056404 0.064104
O O13 0.218644 0.250000 0.022471
O O14 0.178620 0.250000 0.451882
O O15 0.223872 0.515668 0.403750
O O16 0.054699 0.526637 0.428866
O O17 0.500000 0.500000 0.500000
O O18 0.709252 0.750000 0.629626
O O19 0.083892 0.750000 0.606946
#
# Coordination Sequence:
#
# PCOD9164872 Si02
#       7
#     4   4   4   4   4   4   4
#     4  11  20  35  58  85 120 164 209 258 316 379
#     4  10  21  37  57  86 125 167 205 253 313 369
#     4  11  25  46  71 100 131 167 211 267 331 389
#     4  11  23  40  61  91 129 167 213 264 320 385
#     4  10  21  38  61  87 117 158 209 255 307 378
#     4  10  24  45  68  95 127 166 212 264 324 387
#     4   9  18  36  58  82 121 163 200 252 314 370
#
# _framework density 22.934374999999999
#
# number of rings (size 3 to 8) (size 9 to 14) (size 15 to 20)
#    0.000    1.714    1.429    2.571    2.000    5.143 
#    0.000    2.857    0.000    0.000    0.000    0.000 
#    0.000    0.000    0.000    0.000    0.000    0.000 
#
# Total GULP energy -156222.444336 kJ/mol
# GULP energy per Si atom -5579.373012 kJ/mol
# Density = 2.288218 g / cm^3
# Si number density = 22.934375 Si / 1000 Ang^3
#
#
#
# Elastic Constant Matrix: (Units=GPa)
#
#
# Indices 1 2 3 4 5 6 
#
# 1 63.5537 -0.6284 51.6859 0.0000 -9.6099 0.0000
# 2 -0.6284 37.1289 12.2637 0.0000 -4.4153 0.0000
# 3 51.6859 12.2637 152.5686 0.0000 -22.1003 0.0000
# 4 0.0000 0.0000 0.0000 17.2999 0.0000 -5.4083
# 5 -9.6099 -4.4153 -22.1003 0.0000 38.6384 0.0000
# 6 0.0000 0.0000 0.0000 -5.4083 0.0000 22.8593
#
#
#
# Elastic Compliance Matrix: (Units=1/GPa)
#
#
# Indices 1 2 3 4 5 6 
#
# 1 0.022105 0.003039 -0.007508 0.000000 0.001551 0.000000
# 2 0.003039 0.028237 -0.002968 0.000000 0.002285 0.000000
# 3 -0.007508 -0.002968 0.009832 0.000000 0.003417 0.000000
# 4 0.000000 0.000000 0.000000 0.062420 0.000000 0.014768
# 5 0.001551 0.002285 0.003417 0.000000 0.028482 0.000000
# 6 0.000000 0.000000 0.000000 0.014768 0.000000 0.047240
#
#
# Mechanical properties :
#
#
# Convention : Reuss Voigt Hill
#
# Bulk Modulus (GPa) = 22.07612 42.21040 32.14326
# Shear Modulus (GPa) = 21.90186 28.42154 25.16170
#
# Velocity S-wave (km/s) = 3.09363 3.52412 3.31587
# Velocity P-wave (km/s) = 4.73364 5.91643 5.35777
#
# Compressibility (1/GPa) = 0.04529782
#
# Stress axis : x y z
#
# Youngs Moduli (GPa) = 45.23765 35.41493 101.71321
#
# Poissons Ratio (x) = -0.10761 0.76370
# Poissons Ratio (y) = -0.13745 0.30190
# Poissons Ratio (z) = 0.33966 0.10512
#
# Static dielectric constant tensor:
#      x y z
#    x 1.846180 0.000000 0.025800 
#    y 0.000000 1.873580 0.000000 
#    z 0.025800 0.000000 1.837010 
# 
# From -- ./inp_files/65468.got.cif
#   From: 2010.05.17/outbox.cif.g08.bks.cpg/sg11_33_cif.got.tgz:65468.got - 2010.06.03 12:22:45.
