data_PCOD9164562
_publ_section_title
;
Structure prediction by ZEFSAII (Michael W. Deem and Ramdas Pophale) SiO2 
 PCOD9164562
Probable space group: P 21/M
;
_chemical_formula_sum "Si O2"
_cell_formula_units_Z 32
_cell_length_a 10.782429
_cell_length_b 9.150837
_cell_length_c 20.013578
_cell_angle_alpha 90.000000
_cell_angle_beta 134.580051
_cell_angle_gamma 90.000000
_cell_volume 1406.523872
_symmetry_space_group_name_H-M "P 21/M"
_symmetry_group_IT_number 11
_symmetry_cell_setting 'monoclinic'
loop_
_space_group_symop_operation_xyz
x,y,z
-x,1/2+y,-z
-x,-y,-z
x,1/2-y,z
loop_
_atom_site_type_symbol
_atom_site_label
_atom_site_fract_x
_atom_site_fract_y
_atom_site_fract_z
Si Si1 0.871771 0.422740 0.399014
Si Si2 0.797939 0.578700 0.238633
Si Si3 0.382453 0.582823 0.098588
Si Si4 0.108166 0.577924 0.098113
Si Si5 0.606559 0.917437 0.380470
Si Si6 0.685260 0.921698 0.558623
Si Si7 0.685432 0.575321 0.054776
Si Si8 0.796405 0.422345 0.725088
O O1 0.895202 0.250000 0.408674
O O2 0.886787 0.484156 0.329593
O O3 0.682073 0.469700 0.356099
O O4 0.000000 0.500000 0.500000
O O5 0.844068 0.750000 0.263655
O O6 0.589307 0.564264 0.173619
O O7 0.809746 0.537602 0.164459
O O8 0.345654 0.750000 0.063542
O O9 0.304531 0.566077 0.142804
O O10 0.284580 0.478378 0.009065
O O11 0.065008 0.750000 0.084175
O O12 0.101426 0.521671 0.171164
O O13 0.000000 0.500000 0.000000
O O14 0.630841 0.750000 0.365264
O O15 0.715405 0.935036 0.490945
O O16 0.406420 0.932770 0.327663
O O17 0.670640 0.750000 0.567879
O O18 0.500000 0.000000 0.500000
O O19 0.810038 0.996455 0.659893
O O20 0.669608 0.750000 0.049930
O O21 0.500000 0.500000 0.000000
O O22 0.833531 0.250000 0.729986
#
# Coordination Sequence:
#
# PCOD9164562 Si02
#       8
#     4   4   4   4   4   4   4   4
#     4  12  25  38  54  76 104 138 175 216 260 310
#     4   9  18  35  57  79 105 136 170 211 260 312
#     4   9  18  34  56  79 106 140 175 214 260 309
#     4  10  21  36  52  74 106 144 181 216 260 308
#     4   9  18  35  57  79 105 136 170 211 260 312
#     4   9  17  30  52  81 109 135 167 211 260 308
#     4   9  17  30  52  81 109 135 167 211 260 308
#     4   9  18  34  56  79 106 140 175 214 260 309
#
# _framework density 22.751124000000001
#
# number of rings (size 3 to 8) (size 9 to 14) (size 15 to 20)
#    0.000    2.500    0.000    4.125    0.000    8.000 
#    0.000    2.500    0.000    3.000    0.000    0.000 
#    0.000    0.000    0.000    0.000    0.000    0.000 
#
# Total GULP energy -178796.667627 kJ/mol
# GULP energy per Si atom -5587.395863 kJ/mol
# Density = 2.269934 g / cm^3
# Si number density = 22.751124 Si / 1000 Ang^3
#
#
#
# Elastic Constant Matrix: (Units=GPa)
#
#
# Indices 1 2 3 4 5 6 
#
# 1 77.5068 26.1851 25.7261 0.0000 -18.6036 0.0000
# 2 26.1851 97.1889 76.4713 0.0000 -25.7762 0.0000
# 3 25.7261 76.4713 162.9249 0.0000 -30.9631 0.0000
# 4 0.0000 0.0000 0.0000 41.6709 0.0000 -10.3548
# 5 -18.6036 -25.7762 -30.9631 0.0000 44.7738 0.0000
# 6 0.0000 0.0000 0.0000 -10.3548 0.0000 22.4241
#
#
#
# Elastic Compliance Matrix: (Units=1/GPa)
#
#
# Indices 1 2 3 4 5 6 
#
# 1 0.014962 -0.002615 -0.000276 0.000000 0.004520 0.000000
# 2 -0.002615 0.017685 -0.007091 0.000000 0.004191 0.000000
# 3 -0.000276 -0.007091 0.010030 0.000000 0.002739 0.000000
# 4 0.000000 0.000000 0.000000 0.027108 0.000000 0.012518
# 5 0.004520 0.004191 0.002739 0.000000 0.028520 0.000000
# 6 0.000000 0.000000 0.000000 0.012518 0.000000 0.050375
#
#
# Mechanical properties :
#
#
# Convention : Reuss Voigt Hill
#
# Bulk Modulus (GPa) = 44.02845 66.04285 55.03565
# Shear Modulus (GPa) = 28.37418 35.72295 32.04857
#
# Velocity S-wave (km/s) = 3.53534 3.96683 3.75728
# Velocity P-wave (km/s) = 6.00492 7.07618 6.56245
#
# Compressibility (1/GPa) = 0.02271259
#
# Stress axis : x y z
#
# Youngs Moduli (GPa) = 66.83498 56.54525 99.69679
#
# Poissons Ratio (x) = 0.14787 0.02752
# Poissons Ratio (y) = 0.17478 0.70699
# Poissons Ratio (z) = 0.01845 0.40098
#
# Static dielectric constant tensor:
#      x y z
#    x 1.950240 0.000000 0.037030 
#    y 0.000000 1.754490 0.000000 
#    z 0.037030 0.000000 1.885600 
# 
# From -- ./inp_files/65256.got.cif
#   From: 2010.05.17/outbox.cif.g08.bks.cpg/sg11_33_cif.got.tgz:65256.got - 2010.06.03 12:22:45.
