data_PCOD9164004
_publ_section_title
;
Structure prediction by ZEFSAII (Michael W. Deem and Ramdas Pophale) SiO2 
 PCOD9164004
Probable space group: P 21/M
;
_chemical_formula_sum "Si O2"
_cell_formula_units_Z 28
_cell_length_a 9.785678
_cell_length_b 8.942175
_cell_length_c 25.381702
_cell_angle_alpha 90.000000
_cell_angle_beta 135.717990
_cell_angle_gamma 90.000000
_cell_volume 1550.703558
_symmetry_space_group_name_H-M "P 21/M"
_symmetry_group_IT_number 11
_symmetry_cell_setting 'monoclinic'
loop_
_space_group_symop_operation_xyz
x,y,z
-x,1/2+y,-z
-x,-y,-z
x,1/2-y,z
loop_
_atom_site_type_symbol
_atom_site_label
_atom_site_fract_x
_atom_site_fract_y
_atom_site_fract_z
Si Si1 0.579104 0.080526 0.171329
Si Si2 0.367678 0.585520 0.688762
Si Si3 0.194236 0.426284 0.199705
Si Si4 0.820208 0.427937 0.919242
Si Si5 0.714284 0.431861 0.570612
Si Si6 0.018307 0.431634 0.262808
Si Si7 0.001157 0.077036 0.556309
O O1 0.548930 0.250000 0.142245
O O2 0.597584 0.092053 0.239482
O O3 0.791836 0.025164 0.211103
O O4 0.384124 0.983192 0.110854
O O5 0.290638 0.750000 0.650964
O O6 0.577788 0.560738 0.720960
O O7 0.216536 0.455737 0.637111
O O8 0.160144 0.250000 0.178545
O O9 0.168515 0.516496 0.138532
O O10 0.070776 0.469106 0.216879
O O11 0.829455 0.250000 0.923284
O O12 0.000000 0.500000 0.000000
O O13 0.500000 0.500000 0.500000
O O14 0.704568 0.250000 0.570910
O O15 0.829448 0.494301 0.653913
O O16 0.847835 0.478446 0.557418
O O17 0.031306 0.250000 0.272648
O O18 0.962364 0.250000 0.538795
O O19 0.000000 0.000000 0.500000
#
# Coordination Sequence:
#
# PCOD9164004 Si02
#       7
#     4   4   4   4   4   4   4
#     4   9  18  35  60  87 114 149 188 227 281 341
#     4   9  17  33  55  79 110 144 184 232 279 334
#     4   9  20  37  59  88 118 149 188 230 282 342
#     4  11  22  38  62  89 120 154 191 235 281 334
#     4  11  25  41  57  81 114 153 197 246 296 347
#     4  10  20  38  63  87 117 154 190 236 290 347
#     4  11  24  38  54  77 108 144 190 242 291 342
#
# _framework density 18.056319999999999
#
# number of rings (size 3 to 8) (size 9 to 14) (size 15 to 20)
#    0.000    2.000    1.429    3.000    2.000    5.143 
#    0.000    0.714    0.000    0.000    0.000    0.000 
#    0.000    0.000    0.000    0.000    0.000    0.000 
#
# Total GULP energy -156084.091901 kJ/mol
# GULP energy per Si atom -5574.431854 kJ/mol
# Density = 1.801522 g / cm^3
# Si number density = 18.056320 Si / 1000 Ang^3
#
#
#
# Elastic Constant Matrix: (Units=GPa)
#
#
# Indices 1 2 3 4 5 6 
#
# 1 132.4413 44.2649 57.6081 0.0000 19.0017 0.0000
# 2 44.2649 70.2934 50.7006 0.0000 5.0594 0.0000
# 3 57.6081 50.7006 98.6867 0.0000 15.9216 0.0000
# 4 0.0000 0.0000 0.0000 32.9748 0.0000 0.3953
# 5 19.0017 5.0594 15.9216 0.0000 22.3545 0.0000
# 6 0.0000 0.0000 0.0000 0.3953 0.0000 24.1033
#
#
#
# Elastic Compliance Matrix: (Units=1/GPa)
#
#
# Indices 1 2 3 4 5 6 
#
# 1 0.011357 -0.004205 -0.003463 0.000000 -0.006235 0.000000
# 2 -0.004205 0.024412 -0.011041 0.000000 0.005913 0.000000
# 3 -0.003463 -0.011041 0.019150 0.000000 -0.008196 0.000000
# 4 0.000000 0.000000 0.000000 0.030332 0.000000 -0.000497
# 5 -0.006235 0.005913 -0.008196 0.000000 0.054533 0.000000
# 6 0.000000 0.000000 0.000000 -0.000497 0.000000 0.041496
#
#
# Mechanical properties :
#
#
# Convention : Reuss Voigt Hill
#
# Bulk Modulus (GPa) = 57.14361 67.39651 62.27006
# Shear Modulus (GPa) = 22.26858 25.80972 24.03915
#
# Velocity S-wave (km/s) = 3.51562 3.78484 3.65272
# Velocity P-wave (km/s) = 6.94231 7.51710 7.23541
#
# Compressibility (1/GPa) = 0.01749977
#
# Stress axis : x y z
#
# Youngs Moduli (GPa) = 88.05230 40.96345 52.22053
#
# Poissons Ratio (x) = 0.17224 0.18086
# Poissons Ratio (y) = 0.37024 0.57657
# Poissons Ratio (z) = 0.30496 0.45228
#
# Static dielectric constant tensor:
#      x y z
#    x 1.614320 0.000000 0.043820 
#    y 0.000000 1.594910 0.000000 
#    z 0.043820 0.000000 1.564970 
# 
# From -- ./inp_files/70910.got.cif
#   From: 2010.05.17/outbox.cif.g08.bks.cpg/sg11_36_cif.got.tgz:70910.got - 2010.06.03 12:22:45.
