data_PCOD9164843
_publ_section_title
;
Structure prediction by ZEFSAII (Michael W. Deem and Ramdas Pophale) SiO2 
 PCOD9164843
Probable space group: P 21/M
;
_chemical_formula_sum "Si O2"
_cell_formula_units_Z 24
_cell_length_a 9.384465
_cell_length_b 14.663847
_cell_length_c 9.384438
_cell_angle_alpha 90.000000
_cell_angle_beta 90.355856
_cell_angle_gamma 90.000000
_cell_volume 1291.389743
_symmetry_space_group_name_H-M "P 21/M"
_symmetry_group_IT_number 11
_symmetry_cell_setting 'monoclinic'
loop_
_space_group_symop_operation_xyz
x,y,z
-x,1/2+y,-z
-x,-y,-z
x,1/2-y,z
loop_
_atom_site_type_symbol
_atom_site_label
_atom_site_fract_x
_atom_site_fract_y
_atom_site_fract_z
Si Si1 0.429108 0.250000 0.314436
Si Si2 0.784056 0.050967 0.080107
Si Si3 0.583835 0.750000 0.160151
Si Si4 0.660149 0.250000 0.083832
Si Si5 0.580108 0.949034 0.284055
Si Si6 0.185565 0.250000 0.070894
Si Si7 0.090412 0.441415 0.177215
Si Si8 0.677214 0.941416 0.590413
O O1 0.580442 0.250000 0.236540
O O2 0.313238 0.250000 0.186762
O O3 0.398082 0.342237 0.398854
O O4 0.748623 0.157437 0.071003
O O5 0.924723 0.033835 0.176742
O O6 0.650099 0.000000 0.150098
O O7 0.824855 0.009331 0.927427
O O8 0.571007 0.842563 0.248624
O O9 0.460974 0.750000 0.039028
O O10 0.736540 0.750000 0.080441
O O11 0.676740 0.966167 0.424724
O O12 0.427427 0.990669 0.324851
O O13 0.101146 0.342237 0.101919
O O14 0.172506 0.438170 0.327495
#
# Coordination Sequence:
#
# PCOD9164843 Si02
#       8
#     2   4   2   2   4   2   4   4
#     4   9  17  32  56  80 104 140 180 221 271 321
#     4  11  22  36  57  84 110 145 186 226 273 327
#     4  11  21  34  57  84 110 140 181 233 276 319
#     4  11  21  34  57  84 110 140 181 233 276 319
#     4  11  22  36  57  84 110 145 186 226 273 327
#     4   9  17  32  56  80 104 140 180 221 271 321
#     4  10  21  37  57  82 113 146 182 225 274 327
#     4  10  21  37  57  82 113 146 182 225 274 327
#
# _framework density 18.584630000000001
#
# number of rings (size 3 to 8) (size 9 to 14) (size 15 to 20)
#    0.000    1.667    3.333    2.000    0.000    2.000 
#    0.000    0.000    0.000    0.000    0.000    0.000 
#    0.000    0.000    0.000    0.000    0.000    0.000 
#
# Total GULP energy -133972.147470 kJ/mol
# GULP energy per Si atom -5582.172811 kJ/mol
# Density = 1.854233 g / cm^3
# Si number density = 18.584630 Si / 1000 Ang^3
#
#
#
# Elastic Constant Matrix: (Units=GPa)
#
#
# Indices 1 2 3 4 5 6 
#
# 1 42.7017 -1.7884 21.1728 0.0000 12.6330 0.0000
# 2 -1.7884 100.0185 1.3550 0.0000 -8.9147 0.0000
# 3 21.1728 1.3550 36.1294 0.0000 6.0022 0.0000
# 4 0.0000 0.0000 0.0000 9.7691 0.0000 8.7032
# 5 12.6330 -8.9147 6.0022 0.0000 27.3364 0.0000
# 6 0.0000 0.0000 0.0000 8.7032 0.0000 12.8395
#
#
#
# Elastic Compliance Matrix: (Units=1/GPa)
#
#
# Indices 1 2 3 4 5 6 
#
# 1 0.036852 -0.000221 -0.019456 0.000000 -0.012831 0.000000
# 2 -0.000221 0.010332 -0.000866 0.000000 0.003662 0.000000
# 3 -0.019456 -0.000866 0.039092 0.000000 0.000126 0.000000
# 4 0.000000 0.000000 0.000000 0.258422 0.000000 -0.175171
# 5 -0.012831 0.003662 0.000126 0.000000 0.043677 0.000000
# 6 0.000000 0.000000 0.000000 -0.175171 0.000000 0.196624
#
#
# Mechanical properties :
#
#
# Convention : Reuss Voigt Hill
#
# Bulk Modulus (GPa) = 22.12948 24.48094 23.30521
# Shear Modulus (GPa) = 7.79849 20.52967 14.16408
#
# Velocity S-wave (km/s) = 2.05069 3.32725 2.76368
# Velocity P-wave (km/s) = 4.18812 5.28791 4.76982
#
# Compressibility (1/GPa) = 0.04518859
#
# Stress axis : x y z
#
# Youngs Moduli (GPa) = 27.13560 96.78374 25.58075
#
# Poissons Ratio (x) = 0.02139 0.49771
# Poissons Ratio (y) = 0.00600 0.02216
# Poissons Ratio (z) = 0.52796 0.08384
#
# Static dielectric constant tensor:
#      x y z
#    x 1.629890 0.000000 0.007230 
#    y 0.000000 1.639660 0.000000 
#    z 0.007230 0.000000 1.627340 
# 
# From -- ./inp_files/12515.got.cif
#   From: 2010.05.17/outbox.cif.g08.bks.cpg/sg11_7_cif.got.tgz:12515.got - 2010.06.03 12:22:45.
