data_PCOD9164516
_publ_section_title
;
Structure prediction by ZEFSAII (Michael W. Deem and Ramdas Pophale) SiO2 
 PCOD9164516
Probable space group: P 21/M
;
_chemical_formula_sum "Si O2"
_cell_formula_units_Z 32
_cell_length_a 19.513630
_cell_length_b 12.838822
_cell_length_c 19.852016
_cell_angle_alpha 90.000000
_cell_angle_beta 19.480833
_cell_angle_gamma 90.000000
_cell_volume 1658.641896
_symmetry_space_group_name_H-M "P 21/M"
_symmetry_group_IT_number 11
_symmetry_cell_setting 'monoclinic'
loop_
_space_group_symop_operation_xyz
x,y,z
-x,1/2+y,-z
-x,-y,-z
x,1/2-y,z
loop_
_atom_site_type_symbol
_atom_site_label
_atom_site_fract_x
_atom_site_fract_y
_atom_site_fract_z
Si Si1 0.540194 0.130078 0.818125
Si Si2 0.455101 0.866506 0.471181
Si Si3 0.831084 0.952557 0.206566
Si Si4 0.290673 0.056796 0.171905
Si Si5 0.133387 0.445461 0.456730
Si Si6 0.122455 0.866289 0.048312
Si Si7 0.803235 0.864292 0.456862
Si Si8 0.469974 0.036967 0.738119
O O1 0.609400 0.250000 0.750939
O O2 0.456498 0.092695 0.822996
O O3 0.726475 0.050400 0.663950
O O4 0.363212 0.119899 0.039211
O O5 0.380708 0.750000 0.552887
O O6 0.661793 0.888335 0.321963
O O7 0.502726 0.884112 0.348477
O O8 0.290271 0.952240 0.646414
O O9 0.945873 0.885533 0.156764
O O10 0.000000 0.000000 0.000000
O O11 0.204389 0.107293 0.320921
O O12 0.104611 0.978917 0.325884
O O13 0.500000 0.000000 0.000000
O O14 0.170957 0.377014 0.487419
O O15 0.209789 0.750000 0.957493
O O16 0.017260 0.870403 0.219065
O O17 0.281748 0.960119 0.896638
O O18 0.714309 0.750000 0.523848
O O19 0.663466 0.958949 0.562190
#
# Coordination Sequence:
#
# PCOD9164516 Si02
#       8
#     4   4   4   4   4   4   4   4
#     4  10  21  35  56  84 117 158 198 238 292 353
#     4  11  24  41  64  90 122 160 200 245 302 358
#     4  11  23  44  61  89 123 154 199 251 297 361
#     4   9  18  36  58  83 114 151 192 241 295 344
#     4   9  19  36  58  82 118 153 190 245 294 348
#     4  11  22  38  62  88 117 157 200 248 306 357
#     4  10  21  37  58  85 115 154 198 244 297 351
#     4  11  21  40  60  84 122 154 200 248 292 350
#
# _framework density 19.292891999999998
#
# number of rings (size 3 to 8) (size 9 to 14) (size 15 to 20)
#    0.000    1.750    2.500    1.875    0.000    2.000 
#    0.000    5.000    0.000    0.750    0.000    0.000 
#    0.000    0.000    0.000    0.000    0.000    0.000 
#
# Total GULP energy -178532.929207 kJ/mol
# GULP energy per Si atom -5579.154038 kJ/mol
# Density = 1.924898 g / cm^3
# Si number density = 19.292892 Si / 1000 Ang^3
#
#
#
# Elastic Constant Matrix: (Units=GPa)
#
#
# Indices 1 2 3 4 5 6 
#
# 1 85.0066 15.1750 21.2776 0.0000 9.6521 0.0000
# 2 15.1750 73.7134 8.3990 0.0000 6.0723 0.0000
# 3 21.2776 8.3990 68.3507 0.0000 -0.0727 0.0000
# 4 0.0000 0.0000 0.0000 14.3552 0.0000 8.6009
# 5 9.6521 6.0723 -0.0727 0.0000 31.4371 0.0000
# 6 0.0000 0.0000 0.0000 8.6009 0.0000 -5.6221
#
#
#
# Elastic Compliance Matrix: (Units=1/GPa)
#
#
# Indices 1 2 3 4 5 6 
#
# 1 0.013549 -0.002025 -0.003973 0.000000 -0.003778 0.000000
# 2 -0.002025 0.014288 -0.001127 0.000000 -0.002141 0.000000
# 3 -0.003973 -0.001127 0.016007 0.000000 0.001475 0.000000
# 4 0.000000 0.000000 0.000000 0.036346 0.000000 0.055604
# 5 -0.003778 -0.002141 0.001475 0.000000 0.033386 0.000000
# 6 0.000000 0.000000 0.000000 0.055604 0.000000 -0.092804
#
#
# Mechanical properties :
#
#
# Convention : Reuss Voigt Hill
#
# Bulk Modulus (GPa) = 33.79239 35.19710 34.49475
# Shear Modulus (GPa) = 111.38939 20.18198 65.78568
#
# Velocity S-wave (km/s) = 7.60666 3.23783 5.84572
# Velocity P-wave (km/s) = 9.73149 5.67990 7.96753
#
# Compressibility (1/GPa) = 0.02959246
#
# Stress axis : x y z
#
# Youngs Moduli (GPa) = 73.80767 69.98981 62.47149
#
# Poissons Ratio (x) = 0.14175 0.24819
# Poissons Ratio (y) = 0.14948 0.07044
# Poissons Ratio (z) = 0.29323 0.07891
#
# Static dielectric constant tensor:
#      x y z
#    x 1.684040 0.000000 0.012290 
#    y 0.000000 1.431570 0.000000 
#    z 0.012290 0.000000 1.660910 
# 
# From -- ./inp_files/66544.got.cif
#   From: 2010.05.17/outbox.cif.g08.bks.cpg/sg11_34_cif.got.tgz:66544.got - 2010.06.03 12:22:45.
