data_PCOD9164894
_publ_section_title
;
Structure prediction by ZEFSAII (Michael W. Deem and Ramdas Pophale) SiO2 
 PCOD9164894
Probable space group: P 21/M
;
_chemical_formula_sum "Si O2"
_cell_formula_units_Z 32
_cell_length_a 9.991155
_cell_length_b 11.365391
_cell_length_c 31.754223
_cell_angle_alpha 90.000000
_cell_angle_beta 27.666001
_cell_angle_gamma 90.000000
_cell_volume 1674.232455
_symmetry_space_group_name_H-M "P 21/M"
_symmetry_group_IT_number 11
_symmetry_cell_setting 'monoclinic'
loop_
_space_group_symop_operation_xyz
x,y,z
-x,1/2+y,-z
-x,-y,-z
x,1/2-y,z
loop_
_atom_site_type_symbol
_atom_site_label
_atom_site_fract_x
_atom_site_fract_y
_atom_site_fract_z
Si Si1 0.597037 0.382140 0.654092
Si Si2 0.233885 0.884732 0.980356
Si Si3 0.205625 0.386279 0.519796
Si Si4 0.666251 0.041437 0.141578
Si Si5 0.900393 0.384605 0.691466
Si Si6 0.322232 0.619318 0.769615
Si Si7 0.715108 0.960517 0.340572
Si Si8 0.845868 0.887371 0.837478
O O1 0.530184 0.250000 0.690647
O O2 0.482949 0.499974 0.709516
O O3 0.453736 0.388543 0.648182
O O4 0.942808 0.392046 0.559692
O O5 0.178842 0.750000 0.007621
O O6 0.311800 0.893058 0.909054
O O7 0.516879 0.929237 0.926298
O O8 0.948958 0.960008 0.066465
O O9 0.290951 0.250000 0.500529
O O10 0.475546 0.460586 0.430067
O O11 0.068827 0.424933 0.602519
O O12 0.666429 0.118580 0.183447
O O13 0.377116 0.963873 0.222710
O O14 0.809724 0.250000 0.709413
O O15 0.112822 0.390503 0.671955
O O16 0.428118 0.750000 0.724898
O O17 0.002228 0.606870 0.839086
O O18 0.948489 0.040779 0.251102
O O19 0.841210 0.750000 0.825908
#
# Coordination Sequence:
#
# PCOD9164894 Si02
#       8
#     4   4   4   4   4   4   4   4
#     4  10  21  38  61  88 122 158 198 244 294 351
#     4  10  21  37  59  86 113 151 196 241 296 357
#     4  10  21  37  58  84 116 156 199 244 297 351
#     4  11  21  37  60  84 116 152 196 242 295 347
#     4  11  22  37  56  83 119 156 196 247 296 347
#     4  10  21  38  62  89 121 155 198 246 294 350
#     4  11  20  36  58  84 117 157 199 240 290 347
#     4   9  19  36  57  84 117 151 193 244 296 346
#
# _framework density 19.113236000000001
#
# number of rings (size 3 to 8) (size 9 to 14) (size 15 to 20)
#    0.000    1.750    2.500    2.250    0.000    1.500 
#    0.000    1.250    0.000    0.000    0.000    0.000 
#    0.000    0.000    0.000    0.000    0.000    0.000 
#
# Total GULP energy -178453.437152 kJ/mol
# GULP energy per Si atom -5576.669911 kJ/mol
# Density = 1.906973 g / cm^3
# Si number density = 19.113236 Si / 1000 Ang^3
#
#
#
# Elastic Constant Matrix: (Units=GPa)
#
#
# Indices 1 2 3 4 5 6 
#
# 1 92.7579 15.6919 19.0152 0.0000 -12.1038 0.0000
# 2 15.6919 86.6666 35.4770 0.0000 -3.2360 0.0000
# 3 19.0152 35.4770 61.3936 0.0000 -11.9929 0.0000
# 4 0.0000 0.0000 0.0000 22.6593 0.0000 -2.8392
# 5 -12.1038 -3.2360 -11.9929 0.0000 23.8238 0.0000
# 6 0.0000 0.0000 0.0000 -2.8392 0.0000 25.1856
#
#
#
# Elastic Compliance Matrix: (Units=1/GPa)
#
#
# Indices 1 2 3 4 5 6 
#
# 1 0.012046 -0.001130 -0.002121 0.000000 0.004899 0.000000
# 2 -0.001130 0.015366 -0.009132 0.000000 -0.003084 0.000000
# 3 -0.002121 -0.009132 0.024144 0.000000 0.009836 0.000000
# 4 0.000000 0.000000 0.000000 0.044764 0.000000 0.005046
# 5 0.004899 -0.003084 0.009836 0.000000 0.048996 0.000000
# 6 0.000000 0.000000 0.000000 0.005046 0.000000 0.040274
#
#
# Mechanical properties :
#
#
# Convention : Reuss Voigt Hill
#
# Bulk Modulus (GPa) = 37.32750 42.35405 39.84078
# Shear Modulus (GPa) = 22.80129 25.70935 24.25532
#
# Velocity S-wave (km/s) = 3.45767 3.67155 3.56621
# Velocity P-wave (km/s) = 5.95925 6.33888 6.15199
#
# Compressibility (1/GPa) = 0.02678990
#
# Stress axis : x y z
#
# Youngs Moduli (GPa) = 83.01552 65.07849 41.41873
#
# Poissons Ratio (x) = 0.07353 0.08785
# Poissons Ratio (y) = 0.09380 0.37823
# Poissons Ratio (z) = 0.17608 0.59429
#
# Static dielectric constant tensor:
#      x y z
#    x 1.682510 0.000000 0.006510 
#    y 0.000000 1.668280 0.000000 
#    z 0.006510 0.000000 1.629270 
# 
# From -- ./inp_files/29251.got.cif
#   From: 2010.05.17/outbox.cif.g08.bks.cpg/sg11_15_cif.got.tgz:29251.got - 2010.06.03 12:22:45.
