data_PCOD9164355
_publ_section_title
;
Structure prediction by ZEFSAII (Michael W. Deem and Ramdas Pophale) SiO2 
 PCOD9164355
Probable space group: P 21/M
;
_chemical_formula_sum "Si O2"
_cell_formula_units_Z 18
_cell_length_a 8.940606
_cell_length_b 17.680073
_cell_length_c 5.018601
_cell_angle_alpha 90.000000
_cell_angle_beta 71.888065
_cell_angle_gamma 90.000000
_cell_volume 753.986221
_symmetry_space_group_name_H-M "P 21/M"
_symmetry_group_IT_number 11
_symmetry_cell_setting 'monoclinic'
loop_
_space_group_symop_operation_xyz
x,y,z
-x,1/2+y,-z
-x,-y,-z
x,1/2-y,z
loop_
_atom_site_type_symbol
_atom_site_label
_atom_site_fract_x
_atom_site_fract_y
_atom_site_fract_z
Si Si1 0.653609 0.386063 0.303263
Si Si2 0.822836 0.830872 0.579525
Si Si3 0.110785 0.015344 0.691743
Si Si4 0.477249 0.160269 0.899852
Si Si5 0.889457 0.250000 0.312009
O O1 0.739472 0.461384 0.354393
O O2 0.591013 0.385725 0.037002
O O3 0.774959 0.316711 0.260758
O O4 0.511365 0.366937 0.583886
O O5 0.777901 0.750000 0.471594
O O6 0.694976 0.847366 0.878002
O O7 0.990030 0.814159 0.624589
O O8 0.838648 0.898122 0.366734
O O9 0.000000 0.000000 0.500000
O O10 0.000000 0.000000 0.000000
O O11 0.519148 0.250000 0.889789
#
# Coordination Sequence:
#
# PCOD9164355 Si02
#       5
#     4   4   4   4   2
#     4  12  24  41  71  97 131 175 219 269 323 390
#     4   9  23  45  68  97 133 176 216 270 328 390
#     4  12  25  44  66 101 132 167 221 277 322 381
#     4  11  23  44  65  98 135 173 218 267 324 390
#     4  10  20  42  70 100 126 178 218 260 334 382
#
# _framework density 23.873117000000001
#
# number of rings (size 3 to 8) (size 9 to 14) (size 15 to 20)
#    0.667    0.444    4.444    1.333    0.000    3.556 
#    2.000    2.222    0.000    0.000    0.000    0.000 
#    0.000    0.000    0.000    0.000    0.000    0.000 
#
# Total GULP energy -100315.310975 kJ/mol
# GULP energy per Si atom -5573.072832 kJ/mol
# Density = 2.381878 g / cm^3
# Si number density = 23.873117 Si / 1000 Ang^3
#
#
#
# Elastic Constant Matrix: (Units=GPa)
#
#
# Indices 1 2 3 4 5 6 
#
# 1 74.6981 22.5761 5.4365 0.0000 9.8481 0.0000
# 2 22.5761 105.4703 30.0085 0.0000 -18.9453 0.0000
# 3 5.4365 30.0085 92.5804 0.0000 8.3441 0.0000
# 4 0.0000 0.0000 0.0000 24.1618 0.0000 -14.3728
# 5 9.8481 -18.9453 8.3441 0.0000 22.8681 0.0000
# 6 0.0000 0.0000 0.0000 -14.3728 0.0000 18.8907
#
#
#
# Elastic Compliance Matrix: (Units=1/GPa)
#
#
# Indices 1 2 3 4 5 6 
#
# 1 0.017133 -0.006889 0.002488 0.000000 -0.013993 0.000000
# 2 -0.006889 0.016184 -0.006532 0.000000 0.018757 0.000000
# 3 0.002488 -0.006532 0.013811 0.000000 -0.011522 0.000000
# 4 0.000000 0.000000 0.000000 0.075606 0.000000 0.057524
# 5 -0.013993 0.018757 -0.011522 0.000000 0.069499 0.000000
# 6 0.000000 0.000000 0.000000 0.057524 0.000000 0.096703
#
#
# Mechanical properties :
#
#
# Convention : Reuss Voigt Hill
#
# Bulk Modulus (GPa) = 39.58429 43.19900 41.39165
# Shear Modulus (GPa) = 15.66311 27.49931 21.58121
#
# Velocity S-wave (km/s) = 2.56422 3.39764 3.00991
# Velocity P-wave (km/s) = 5.03826 5.79020 5.42727
#
# Compressibility (1/GPa) = 0.02526254
#
# Stress axis : x y z
#
# Youngs Moduli (GPa) = 58.36695 61.79088 72.40640
#
# Poissons Ratio (x) = 0.42566 -0.18015
# Poissons Ratio (y) = 0.40208 0.47294
# Poissons Ratio (z) = -0.14522 0.40360
#
# Static dielectric constant tensor:
#      x y z
#    x 1.935580 0.000000 -0.041390 
#    y 0.000000 1.925090 0.000000 
#    z -0.041390 0.000000 1.893300 
# 
# From -- ./inp_files/1844.got.cif
#   From: 2010.05.17/outbox.cif.g08.bks.cpg/sg11_1_cif.got.tgz:1844.got - 2010.06.03 12:22:45.
