data_PCOD9164804
_publ_section_title
;
Structure prediction by ZEFSAII (Michael W. Deem and Ramdas Pophale) SiO2 
 PCOD9164804
Probable space group: P 21/M
;
_chemical_formula_sum "Si O2"
_cell_formula_units_Z 24
_cell_length_a 5.567508
_cell_length_b 9.560453
_cell_length_c 21.177827
_cell_angle_alpha 90.000000
_cell_angle_beta 103.753862
_cell_angle_gamma 90.000000
_cell_volume 1094.928478
_symmetry_space_group_name_H-M "P 21/M"
_symmetry_group_IT_number 11
_symmetry_cell_setting 'monoclinic'
loop_
_space_group_symop_operation_xyz
x,y,z
-x,1/2+y,-z
-x,-y,-z
x,1/2-y,z
loop_
_atom_site_type_symbol
_atom_site_label
_atom_site_fract_x
_atom_site_fract_y
_atom_site_fract_z
Si Si1 0.630234 0.594790 0.624716
Si Si2 0.713613 0.906253 0.314314
Si Si3 0.117694 0.591429 0.451288
Si Si4 0.143836 0.916443 0.143704
Si Si5 0.570727 0.584640 0.066684
Si Si6 0.021866 0.592516 0.755856
O O1 0.545308 0.750000 0.603646
O O2 0.458107 0.516884 0.662704
O O3 0.663702 0.497768 0.566380
O O4 0.881812 0.608652 0.680390
O O5 0.608114 0.750000 0.300245
O O6 0.932265 0.893621 0.379884
O O7 0.785546 0.971118 0.251220
O O8 0.176042 0.750000 0.474642
O O9 0.000000 0.500000 0.500000
O O10 0.158892 0.750000 0.161168
O O11 0.860583 0.941201 0.101392
O O12 0.364344 0.946585 0.107869
O O13 0.154599 0.022620 0.203240
O O14 0.549406 0.750000 0.053137
O O15 0.500000 0.500000 0.000000
O O16 0.106558 0.750000 0.779236
#
# Coordination Sequence:
#
# PCOD9164804 Si02
#       6
#     4   4   4   4   4   4
#     4  10  21  37  57  82 113 148 189 241 296 352
#     4  10  21  37  58  82 111 149 190 237 296 357
#     4  10  21  37  56  80 109 146 191 238 293 355
#     4  10  22  39  60  90 123 162 206 252 305 367
#     4  10  22  40  62  89 123 161 206 253 305 360
#     4  10  22  38  57  85 117 150 194 245 296 353
#
# _framework density 21.919241
#
# number of rings (size 3 to 8) (size 9 to 14) (size 15 to 20)
#    0.000    2.000    0.000    2.500    2.333    6.000 
#    0.000    0.000    0.000    0.000    0.000    0.000 
#    0.000    0.000    0.000    0.000    0.000    0.000 
#
# Total GULP energy -133859.845912 kJ/mol
# GULP energy per Si atom -5577.493580 kJ/mol
# Density = 2.186935 g / cm^3
# Si number density = 21.919241 Si / 1000 Ang^3
#
#
#
# Elastic Constant Matrix: (Units=GPa)
#
#
# Indices 1 2 3 4 5 6 
#
# 1 79.0133 32.2539 38.2980 0.0000 -13.5789 0.0000
# 2 32.2539 161.3421 52.2572 0.0000 -21.3260 0.0000
# 3 38.2980 52.2572 108.8825 0.0000 -13.0398 0.0000
# 4 0.0000 0.0000 0.0000 33.1488 0.0000 -10.4288
# 5 -13.5789 -21.3260 -13.0398 0.0000 46.7519 0.0000
# 6 0.0000 0.0000 0.0000 -10.4288 0.0000 16.8700
#
#
#
# Elastic Compliance Matrix: (Units=1/GPa)
#
#
# Indices 1 2 3 4 5 6 
#
# 1 0.015910 -0.001318 -0.004637 0.000000 0.002726 0.000000
# 2 -0.001318 0.007729 -0.002969 0.000000 0.002315 0.000000
# 3 -0.004637 -0.002969 0.012328 0.000000 0.000738 0.000000
# 4 0.000000 0.000000 0.000000 0.037450 0.000000 0.023151
# 5 0.002726 0.002315 0.000738 0.000000 0.023443 0.000000
# 6 0.000000 0.000000 0.000000 0.023151 0.000000 0.073589
#
#
# Mechanical properties :
#
#
# Convention : Reuss Voigt Hill
#
# Bulk Modulus (GPa) = 55.18818 66.09511 60.64165
# Shear Modulus (GPa) = 25.72841 34.44940 30.08890
#
# Velocity S-wave (km/s) = 3.42977 3.96871 3.70904
# Velocity P-wave (km/s) = 6.39664 7.15683 6.78739
#
# Compressibility (1/GPa) = 0.01811982
#
# Stress axis : x y z
#
# Youngs Moduli (GPa) = 62.85201 129.38276 81.11434
#
# Poissons Ratio (x) = 0.17058 0.37613
# Poissons Ratio (y) = 0.08286 0.24079
# Poissons Ratio (z) = 0.29144 0.38408
#
# Static dielectric constant tensor:
#      x y z
#    x 1.924840 0.000000 0.058500 
#    y 0.000000 1.828290 0.000000 
#    z 0.058500 0.000000 1.815580 
# 
# From -- ./inp_files/9257.got.cif
#   From: 2010.05.17/outbox.cif.g08.bks.cpg/sg11_5_cif.got.tgz:9257.got - 2010.06.03 12:22:45.
