data_PCOD9164728
_publ_section_title
;
Structure prediction by ZEFSAII (Michael W. Deem and Ramdas Pophale) SiO2 
 PCOD9164728
Probable space group: P 21/M
;
_chemical_formula_sum "Si O2"
_cell_formula_units_Z 28
_cell_length_a 12.115708
_cell_length_b 14.116359
_cell_length_c 8.316539
_cell_angle_alpha 90.000000
_cell_angle_beta 64.880284
_cell_angle_gamma 90.000000
_cell_volume 1287.850750
_symmetry_space_group_name_H-M "P 21/M"
_symmetry_group_IT_number 11
_symmetry_cell_setting 'monoclinic'
loop_
_space_group_symop_operation_xyz
x,y,z
-x,1/2+y,-z
-x,-y,-z
x,1/2-y,z
loop_
_atom_site_type_symbol
_atom_site_label
_atom_site_fract_x
_atom_site_fract_y
_atom_site_fract_z
Si Si1 0.960930 0.857292 0.346009
Si Si2 0.156322 0.139246 0.228902
Si Si3 0.612899 0.979983 0.814474
Si Si4 0.560480 0.361933 0.279425
Si Si5 0.187411 0.639151 0.022025
Si Si6 0.924136 0.054834 0.220983
Si Si7 0.696339 0.139358 0.531367
O O1 0.931447 0.750000 0.307051
O O2 0.911217 0.865775 0.556118
O O3 0.107713 0.868096 0.232942
O O4 0.907684 0.945463 0.280410
O O5 0.179546 0.250000 0.178443
O O6 0.059528 0.092998 0.168529
O O7 0.279316 0.078553 0.167085
O O8 0.659750 0.075319 0.703047
O O9 0.558324 0.917222 0.701742
O O10 0.500000 0.000000 0.000000
O O11 0.537086 0.250000 0.284315
O O12 0.611802 0.382067 0.426281
O O13 0.671224 0.384900 0.086249
O O14 0.180780 0.750000 0.976636
O O15 0.116978 0.578516 0.932681
O O16 0.832291 0.114500 0.390111
O O17 0.685426 0.250000 0.574592
#
# Coordination Sequence:
#
# PCOD9164728 Si02
#       7
#     4   4   4   4   4   4   4
#     4  10  21  36  59  92 124 155 199 245 303 370
#     4  11  24  41  60  88 124 160 197 244 306 372
#     4  12  26  41  61  88 126 167 206 251 307 362
#     4   9  20  41  66  87 119 163 209 253 295 357
#     4   9  19  36  63  96 120 155 201 248 301 358
#     4  11  20  39  64  91 125 159 192 252 311 363
#     4  10  22  42  67  91 115 158 213 258 303 364
#
# _framework density 21.74165
#
# number of rings (size 3 to 8) (size 9 to 14) (size 15 to 20)
#    0.000    1.714    1.429    3.857    2.000    1.143 
#    0.000    0.000    0.000    0.000    0.000    0.000 
#    0.000    0.000    0.000    0.000    0.000    0.000 
#
# Total GULP energy -156575.748716 kJ/mol
# GULP energy per Si atom -5591.991026 kJ/mol
# Density = 2.169217 g / cm^3
# Si number density = 21.741650 Si / 1000 Ang^3
#
#
#
# Elastic Constant Matrix: (Units=GPa)
#
#
# Indices 1 2 3 4 5 6 
#
# 1 121.9350 64.5147 13.9526 0.0000 -4.2410 0.0000
# 2 64.5147 116.6064 30.5128 0.0000 6.0674 0.0000
# 3 13.9526 30.5128 86.9828 0.0000 -12.9816 0.0000
# 4 0.0000 0.0000 0.0000 27.6396 0.0000 -9.2535
# 5 -4.2410 6.0674 -12.9816 0.0000 13.5825 0.0000
# 6 0.0000 0.0000 0.0000 -9.2535 0.0000 28.2815
#
#
#
# Elastic Compliance Matrix: (Units=1/GPa)
#
#
# Indices 1 2 3 4 5 6 
#
# 1 0.012520 -0.008014 0.002240 0.000000 0.009630 0.000000
# 2 -0.008014 0.015523 -0.006495 0.000000 -0.015644 0.000000
# 3 0.002240 -0.006495 0.016274 0.000000 0.019155 0.000000
# 4 0.000000 0.000000 0.000000 0.040631 0.000000 0.013294
# 5 0.009630 -0.015644 0.019155 0.000000 0.101928 0.000000
# 6 0.000000 0.000000 0.000000 0.013294 0.000000 0.039709
#
#
# Mechanical properties :
#
#
# Convention : Reuss Voigt Hill
#
# Bulk Modulus (GPa) = 50.55535 60.38717 55.47126
# Shear Modulus (GPa) = 19.40126 28.33697 23.86912
#
# Velocity S-wave (km/s) = 2.99047 3.61411 3.31698
# Velocity P-wave (km/s) = 5.93525 6.72688 6.34342
#
# Compressibility (1/GPa) = 0.01978030
#
# Stress axis : x y z
#
# Youngs Moduli (GPa) = 79.87254 64.41892 61.44680
#
# Poissons Ratio (x) = 0.51627 -0.13766
# Poissons Ratio (y) = 0.64012 0.39908
# Poissons Ratio (z) = -0.17894 0.41838
#
# Static dielectric constant tensor:
#      x y z
#    x 1.787210 0.000000 0.011980 
#    y 0.000000 1.787850 0.000000 
#    z 0.011980 0.000000 1.809760 
# 
# From -- ./inp_files/17934.got.cif
#   From: 2010.05.17/outbox.cif.g08.bks.cpg/sg11_9_cif.got.tgz:17934.got - 2010.06.03 12:22:45.
