data_PCOD9164264
_publ_section_title
;
Structure prediction by ZEFSAII (Michael W. Deem and Ramdas Pophale) SiO2 
 PCOD9164264
Probable space group: P 21/M
;
_chemical_formula_sum "Si O2"
_cell_formula_units_Z 32
_cell_length_a 12.155709
_cell_length_b 17.580675
_cell_length_c 15.289010
_cell_angle_alpha 90.000000
_cell_angle_beta 149.609939
_cell_angle_gamma 90.000000
_cell_volume 1652.898811
_symmetry_space_group_name_H-M "P 21/M"
_symmetry_group_IT_number 11
_symmetry_cell_setting 'monoclinic'
loop_
_space_group_symop_operation_xyz
x,y,z
-x,1/2+y,-z
-x,-y,-z
x,1/2-y,z
loop_
_atom_site_type_symbol
_atom_site_label
_atom_site_fract_x
_atom_site_fract_y
_atom_site_fract_z
Si Si1 0.278562 0.336378 0.182068
Si Si2 0.492367 0.506483 0.598323
Si Si3 0.624213 0.831080 0.135773
Si Si4 0.949784 0.979403 0.605789
Si Si5 0.044600 0.623328 0.517846
Si Si6 0.538835 0.867313 0.878558
Si Si7 0.323445 0.963908 0.000542
Si Si8 0.870643 0.427135 0.948239
O O1 0.332589 0.250000 0.248975
O O2 0.421385 0.408433 0.315950
O O3 0.320037 0.339436 0.106281
O O4 0.028975 0.357337 0.034744
O O5 0.500000 0.500000 0.500000
O O6 0.253038 0.490636 0.469986
O O7 0.642340 0.440180 0.743235
O O8 0.515566 0.750000 0.080217
O O9 0.862233 0.830830 0.341399
O O10 0.626284 0.841721 0.032625
O O11 0.491884 0.899932 0.087265
O O12 0.958294 0.903095 0.553604
O O13 0.168667 0.982352 0.812683
O O14 0.935322 0.048154 0.527908
O O15 0.287014 0.655812 0.694300
O O16 0.552894 0.959294 0.887477
O O17 0.178887 0.936254 0.983181
O O18 0.000000 0.500000 0.000000
#
# Coordination Sequence:
#
# PCOD9164264 Si02
#       8
#     4   4   4   4   4   4   4   4
#     4  11  24  42  65  94 130 168 211 271 338 386
#     4  11  22  38  65  97 127 165 217 270 318 391
#     4  12  27  41  60  96 135 174 213 265 334 388
#     4  11  20  37  65  98 117 163 221 264 314 374
#     4  11  22  38  63  91 127 165 214 266 310 382
#     4  12  22  44  67  95 129 172 220 266 320 392
#     4  12  21  41  71  91 125 167 222 268 315 394
#     4  10  20  40  64  91 119 164 217 260 317 389
#
# _framework density 19.359926000000002
#
# number of rings (size 3 to 8) (size 9 to 14) (size 15 to 20)
#    0.000    0.750    6.250    4.500    0.000    1.500 
#    0.000    0.625    0.000    3.000    0.000    0.000 
#    0.000    0.000    0.000    0.000    0.000    0.000 
#
# Total GULP energy -178674.721928 kJ/mol
# GULP energy per Si atom -5583.585060 kJ/mol
# Density = 1.931586 g / cm^3
# Si number density = 19.359926 Si / 1000 Ang^3
#
#
#
# Elastic Constant Matrix: (Units=GPa)
#
#
# Indices 1 2 3 4 5 6 
#
# 1 114.3040 30.3962 27.2974 0.0000 -6.7602 0.0000
# 2 30.3962 89.8124 29.8588 0.0000 7.9810 0.0000
# 3 27.2974 29.8588 108.3540 0.0000 -2.3772 0.0000
# 4 0.0000 0.0000 0.0000 2.6480 0.0000 4.6653
# 5 -6.7602 7.9810 -2.3772 0.0000 35.7408 0.0000
# 6 0.0000 0.0000 0.0000 4.6653 0.0000 2.9781
#
#
#
# Elastic Compliance Matrix: (Units=1/GPa)
#
#
# Indices 1 2 3 4 5 6 
#
# 1 0.010112 -0.003099 -0.001639 0.000000 0.002496 0.000000
# 2 -0.003099 0.013529 -0.003031 0.000000 -0.003809 0.000000
# 3 -0.001639 -0.003031 0.010500 0.000000 0.001065 0.000000
# 4 0.000000 0.000000 0.000000 -0.214574 0.000000 0.336141
# 5 0.002496 -0.003809 0.001065 0.000000 0.029373 0.000000
# 6 0.000000 0.000000 0.000000 0.336141 0.000000 -0.190793
#
#
# Mechanical properties :
#
#
# Convention : Reuss Voigt Hill
#
# Bulk Modulus (GPa) = 53.75253 54.17502 53.96378
# Shear Modulus (GPa) = -15.61942 23.26791 3.82424
#
# Velocity S-wave (km/s) = -2.84349 3.47055 1.40699
# Velocity P-wave (km/s) = 4.12850 6.64104 5.52937
#
# Compressibility (1/GPa) = 0.01860378
#
# Stress axis : x y z
#
# Youngs Moduli (GPa) = 98.89557 73.91314 95.23403
#
# Poissons Ratio (x) = 0.22907 0.15605
# Poissons Ratio (y) = 0.30650 0.28866
# Poissons Ratio (z) = 0.16205 0.22403
#
# Static dielectric constant tensor:
#      x y z
#    x 1.683320 0.000000 0.026940 
#    y 0.000000 1.601970 0.000000 
#    z 0.026940 0.000000 1.714320 
# 
# From -- ./inp_files/50731.got.cif
#   From: 2010.05.17/outbox.cif.g08.bks.cpg/sg11_26_cif.got.tgz:50731.got - 2010.06.03 12:22:45.
