data_PCOD9164453
_publ_section_title
;
Structure prediction by ZEFSAII (Michael W. Deem and Ramdas Pophale) SiO2 
 PCOD9164453
Probable space group: P 21/M
;
_chemical_formula_sum "Si O2"
_cell_formula_units_Z 28
_cell_length_a 23.466675
_cell_length_b 9.722131
_cell_length_c 20.661818
_cell_angle_alpha 90.000000
_cell_angle_beta 19.214160
_cell_angle_gamma 90.000000
_cell_volume 1551.348889
_symmetry_space_group_name_H-M "P 21/M"
_symmetry_group_IT_number 11
_symmetry_cell_setting 'monoclinic'
loop_
_space_group_symop_operation_xyz
x,y,z
-x,1/2+y,-z
-x,-y,-z
x,1/2-y,z
loop_
_atom_site_type_symbol
_atom_site_label
_atom_site_fract_x
_atom_site_fract_y
_atom_site_fract_z
Si Si1 0.466625 0.414135 0.100141
Si Si2 0.482323 0.905438 0.456628
Si Si3 0.115984 0.413614 0.552816
Si Si4 0.649597 0.593420 0.144307
Si Si5 0.284776 0.913614 0.046425
Si Si6 0.078729 0.594561 0.860223
Si Si7 0.056499 0.593418 0.737404
O O1 0.473270 0.250000 0.080201
O O2 0.276219 0.445030 0.333783
O O3 0.500000 0.500000 0.000000
O O4 0.613792 0.445036 0.996208
O O5 0.550840 0.750000 0.394809
O O6 0.571003 0.959521 0.295977
O O7 0.280743 0.895658 0.657774
O O8 0.500000 0.000000 0.500000
O O9 0.120032 0.250000 0.561643
O O10 0.139758 0.497498 0.593836
O O11 0.922822 0.444587 0.731543
O O12 0.584255 0.750000 0.204140
O O13 0.626653 0.497496 0.106941
O O14 0.855072 0.600710 0.934784
O O15 0.301702 0.750000 0.016624
O O16 0.003516 0.750000 0.942134
O O17 0.062018 0.540485 0.804962
O O18 0.000000 0.500000 0.000000
O O19 0.127347 0.750000 0.661048
#
# Coordination Sequence:
#
# PCOD9164453 Si02
#       7
#     4   4   4   4   4   4   4
#     4  10  22  38  56  82 112 142 178 220 266 318
#     4  10  21  35  51  74 104 139 179 223 270 321
#     4   9  19  36  56  79 109 142 177 218 264 317
#     4   9  18  33  53  77 104 134 172 219 267 316
#     4   9  19  36  56  79 109 142 177 218 264 317
#     4  10  21  35  51  74 104 139 179 223 270 321
#     4   9  18  33  53  77 104 134 172 219 267 316
#
# _framework density 18.048808000000001
#
# number of rings (size 3 to 8) (size 9 to 14) (size 15 to 20)
#    0.000    2.571    0.000    0.857    2.000    4.571 
#    0.000    2.857    0.000    0.000    0.000    0.000 
#    0.000    0.000    0.000    0.000    0.000    0.000 
#
# Total GULP energy -156098.077080 kJ/mol
# GULP energy per Si atom -5574.931324 kJ/mol
# Density = 1.800773 g / cm^3
# Si number density = 18.048808 Si / 1000 Ang^3
#
#
#
# Elastic Constant Matrix: (Units=GPa)
#
#
# Indices 1 2 3 4 5 6 
#
# 1 165.7694 78.3692 64.7377 0.0000 31.9575 0.0000
# 2 78.3692 56.1754 51.3237 0.0000 25.6122 0.0000
# 3 64.7377 51.3237 100.2145 0.0000 30.1102 0.0000
# 4 0.0000 0.0000 0.0000 23.0452 0.0000 9.5821
# 5 31.9575 25.6122 30.1102 0.0000 35.3838 0.0000
# 6 0.0000 0.0000 0.0000 9.5821 0.0000 33.1650
#
#
#
# Elastic Compliance Matrix: (Units=1/GPa)
#
#
# Indices 1 2 3 4 5 6 
#
# 1 0.018121 -0.028198 0.002042 0.000000 0.002307 0.000000
# 2 -0.028198 0.082418 -0.018434 0.000000 -0.018503 0.000000
# 3 0.002042 -0.018434 0.019676 0.000000 -0.005244 0.000000
# 4 0.000000 0.000000 0.000000 0.049318 0.000000 -0.014249
# 5 0.002307 -0.018503 -0.005244 0.000000 0.044034 0.000000
# 6 0.000000 0.000000 0.000000 -0.014249 0.000000 0.034269
#
#
# Mechanical properties :
#
#
# Convention : Reuss Voigt Hill
#
# Bulk Modulus (GPa) = 32.22179 79.00225 55.61202
# Shear Modulus (GPa) = 14.39424 26.83405 20.61415
#
# Velocity S-wave (km/s) = 2.82710 3.86002 3.38321
# Velocity P-wave (km/s) = 5.34303 7.98328 6.79267
#
# Compressibility (1/GPa) = 0.03103490
#
# Stress axis : x y z
#
# Youngs Moduli (GPa) = 55.18445 12.13330 50.82288
#
# Poissons Ratio (x) = 0.34213 -0.10378
# Poissons Ratio (y) = 1.55607 0.93689
# Poissons Ratio (z) = -0.11269 0.22367
#
# Static dielectric constant tensor:
#      x y z
#    x 1.601440 0.000000 -0.004310 
#    y 0.000000 1.613680 0.000000 
#    z -0.004310 0.000000 1.606000 
# 
# From -- ./inp_files/66661.got.cif
#   From: 2010.05.17/outbox.cif.g08.bks.cpg/sg11_34_cif.got.tgz:66661.got - 2010.06.03 12:22:45.
