data_PCOD9164966
_publ_section_title
;
Structure prediction by ZEFSAII (Michael W. Deem and Ramdas Pophale) SiO2 
 PCOD9164966
Probable space group: P 21/M
;
_chemical_formula_sum "Si O2"
_cell_formula_units_Z 28
_cell_length_a 8.186657
_cell_length_b 13.511278
_cell_length_c 19.734817
_cell_angle_alpha 90.000000
_cell_angle_beta 36.442011
_cell_angle_gamma 90.000000
_cell_volume 1296.668857
_symmetry_space_group_name_H-M "P 21/M"
_symmetry_group_IT_number 11
_symmetry_cell_setting 'monoclinic'
loop_
_space_group_symop_operation_xyz
x,y,z
-x,1/2+y,-z
-x,-y,-z
x,1/2-y,z
loop_
_atom_site_type_symbol
_atom_site_label
_atom_site_fract_x
_atom_site_fract_y
_atom_site_fract_z
Si Si1 0.405628 0.009497 0.810557
Si Si2 0.836919 0.053495 0.337894
Si Si3 0.702974 0.633887 0.904681
Si Si4 0.822198 0.037977 0.966430
Si Si5 0.506260 0.366544 0.571417
Si Si6 0.421911 0.133556 0.364006
Si Si7 0.182920 0.634166 0.390281
O O1 0.673498 0.077749 0.719085
O O2 0.301690 0.975332 0.917679
O O3 0.484112 0.919536 0.735462
O O4 0.141045 0.065102 0.866279
O O5 0.745334 0.094128 0.441231
O O6 0.634824 0.107771 0.351871
O O7 0.136336 0.086511 0.213305
O O8 0.752768 0.938241 0.357360
O O9 0.762681 0.750000 0.890673
O O10 0.378419 0.613185 0.004970
O O11 0.803655 0.567262 0.933894
O O12 0.454259 0.250000 0.576603
O O13 0.621187 0.378732 0.609178
O O14 0.409152 0.250000 0.357159
O O15 0.121277 0.099521 0.488821
O O16 0.165031 0.750000 0.381208
#
# Coordination Sequence:
#
# PCOD9164966 Si02
#       7
#     4   4   4   4   4   4   4
#     4  11  22  42  63  89 129 163 203 264 316 371
#     4  11  22  37  62  89 126 167 206 257 311 374
#     4  11  23  44  65  89 123 164 215 264 308 371
#     4  10  25  41  63  94 120 165 218 256 316 373
#     4  10  21  37  59  91 126 164 206 254 312 375
#     4  11  22  37  61  92 122 161 204 253 315 379
#     4  10  22  38  60  91 124 159 204 249 315 379
#
# _framework density 21.593796000000001
#
# number of rings (size 3 to 8) (size 9 to 14) (size 15 to 20)
#    0.000    1.429    2.857    1.714    2.000    2.857 
#    0.000    7.143    0.000    0.000    0.000    0.000 
#    0.000    0.000    0.000    0.000    0.000    0.000 
#
# Total GULP energy -156597.020073 kJ/mol
# GULP energy per Si atom -5592.750717 kJ/mol
# Density = 2.154465 g / cm^3
# Si number density = 21.593796 Si / 1000 Ang^3
#
#
#
# Elastic Constant Matrix: (Units=GPa)
#
#
# Indices 1 2 3 4 5 6 
#
# 1 22.1602 -10.2166 17.1164 0.0000 -8.8745 0.0000
# 2 -10.2166 89.7442 36.9328 0.0000 -9.6075 0.0000
# 3 17.1164 36.9328 126.2786 0.0000 -1.3104 0.0000
# 4 0.0000 0.0000 0.0000 16.1041 0.0000 -7.9211
# 5 -8.8745 -9.6075 -1.3104 0.0000 33.7855 0.0000
# 6 0.0000 0.0000 0.0000 -7.9211 0.0000 11.0547
#
#
#
# Elastic Compliance Matrix: (Units=1/GPa)
#
#
# Indices 1 2 3 4 5 6 
#
# 1 0.073810 0.016996 -0.014730 0.000000 0.023650 0.000000
# 2 0.016996 0.016999 -0.007182 0.000000 0.009020 0.000000
# 3 -0.014730 -0.007182 0.011960 0.000000 -0.005448 0.000000
# 4 0.000000 0.000000 0.000000 0.095892 0.000000 0.068709
# 5 0.023650 0.009020 -0.005448 0.000000 0.038164 0.000000
# 6 0.000000 0.000000 0.000000 0.068709 0.000000 0.139691
#
#
# Mechanical properties :
#
#
# Convention : Reuss Voigt Hill
#
# Bulk Modulus (GPa) = 10.75992 36.20537 23.48265
# Shear Modulus (GPa) = 11.98103 25.14557 18.56330
#
# Velocity S-wave (km/s) = 2.35805 3.41615 2.93517
# Velocity P-wave (km/s) = 3.52244 5.68886 4.73131
#
# Compressibility (1/GPa) = 0.09293748
#
# Stress axis : x y z
#
# Youngs Moduli (GPa) = 13.54826 58.82750 83.61524
#
# Poissons Ratio (x) = -0.99986 1.23166
# Poissons Ratio (y) = -0.23027 0.60051
# Poissons Ratio (z) = 0.19957 0.42249
#
# Static dielectric constant tensor:
#      x y z
#    x 1.799280 0.000000 -0.017410 
#    y 0.000000 1.764150 0.000000 
#    z -0.017410 0.000000 1.772490 
# 
# From -- ./inp_files/63861.got.cif
#   From: 2010.05.17/outbox.cif.g08.bks.cpg/sg11_32_cif.got.tgz:63861.got - 2010.06.03 12:22:45.
