data_PCOD9164632
_publ_section_title
;
Structure prediction by ZEFSAII (Michael W. Deem and Ramdas Pophale) SiO2 
 PCOD9164632
Probable space group: P 21/M
;
_chemical_formula_sum "Si O2"
_cell_formula_units_Z 24
_cell_length_a 13.840198
_cell_length_b 10.761948
_cell_length_c 19.267306
_cell_angle_alpha 90.000000
_cell_angle_beta 25.327828
_cell_angle_gamma 90.000000
_cell_volume 1227.698818
_symmetry_space_group_name_H-M "P 21/M"
_symmetry_group_IT_number 11
_symmetry_cell_setting 'monoclinic'
loop_
_space_group_symop_operation_xyz
x,y,z
-x,1/2+y,-z
-x,-y,-z
x,1/2-y,z
loop_
_atom_site_type_symbol
_atom_site_label
_atom_site_fract_x
_atom_site_fract_y
_atom_site_fract_z
Si Si1 0.313340 0.394252 0.612339
Si Si2 0.948259 0.947926 0.610131
Si Si3 0.533868 0.390776 0.125103
Si Si4 0.453746 0.613654 0.285335
Si Si5 0.084359 0.897007 0.232069
Si Si6 0.141063 0.388448 0.876187
O O1 0.500000 0.500000 0.500000
O O2 0.396572 0.250000 0.553042
O O3 0.160534 0.398587 0.780934
O O4 0.154691 0.422019 0.649779
O O5 0.187101 0.886436 0.474468
O O6 0.710216 0.881170 0.753278
O O7 0.000000 0.000000 0.500000
O O8 0.903569 0.044780 0.700280
O O9 0.593555 0.250000 0.111265
O O10 0.512605 0.495740 0.198433
O O11 0.717469 0.434725 0.949584
O O12 0.505297 0.750000 0.219225
O O13 0.608978 0.604584 0.252616
O O14 0.105526 0.750000 0.225363
O O15 0.050854 0.250000 0.951915
O O16 0.000000 0.500000 0.000000
#
# Coordination Sequence:
#
# PCOD9164632 Si02
#       6
#     4   4   4   4   4   4
#     4  10  21  38  59  85 116 151 191 236 283 335
#     4  10  21  36  56  82 111 146 186 231 281 336
#     4  10  21  38  61  88 115 149 191 234 282 338
#     4  10  21  37  57  85 120 155 189 231 281 334
#     4  10  21  38  60  85 115 150 190 236 286 338
#     4  10  21  37  58  85 118 153 191 234 281 333
#
# _framework density 19.548767999999999
#
# number of rings (size 3 to 8) (size 9 to 14) (size 15 to 20)
#    0.000    2.000    0.000    3.000    0.000    8.000 
#    0.000    3.333    0.000    0.000    0.000    0.000 
#    0.000    0.000    0.000    0.000    0.000    0.000 
#
# Total GULP energy -133775.368227 kJ/mol
# GULP energy per Si atom -5573.973676 kJ/mol
# Density = 1.950427 g / cm^3
# Si number density = 19.548768 Si / 1000 Ang^3
#
#
#
# Elastic Constant Matrix: (Units=GPa)
#
#
# Indices 1 2 3 4 5 6 
#
# 1 73.1703 19.9255 -2.3341 0.0000 1.3721 0.0000
# 2 19.9255 79.7243 25.4457 0.0000 4.7266 0.0000
# 3 -2.3341 25.4457 52.7220 0.0000 -1.7302 0.0000
# 4 0.0000 0.0000 0.0000 25.9402 0.0000 -2.1994
# 5 1.3721 4.7266 -1.7302 0.0000 27.0918 0.0000
# 6 0.0000 0.0000 0.0000 -2.1994 0.0000 26.2586
#
#
#
# Elastic Compliance Matrix: (Units=1/GPa)
#
#
# Indices 1 2 3 4 5 6 
#
# 1 0.015040 -0.004715 0.002950 0.000000 0.000249 0.000000
# 2 -0.004715 0.016561 -0.008306 0.000000 -0.003181 0.000000
# 3 0.002950 -0.008306 0.023198 0.000000 0.002781 0.000000
# 4 0.000000 0.000000 0.000000 0.038826 0.000000 0.003252
# 5 0.000249 -0.003181 0.002781 0.000000 0.037632 0.000000
# 6 0.000000 0.000000 0.000000 0.003252 0.000000 0.038355
#
#
# Mechanical properties :
#
#
# Convention : Reuss Voigt Hill
#
# Bulk Modulus (GPa) = 28.85478 32.41009 30.63244
# Shear Modulus (GPa) = 24.83752 26.69674 25.76713
#
# Velocity S-wave (km/s) = 3.56833 3.69948 3.63450
# Velocity P-wave (km/s) = 5.63647 5.90451 5.77205
#
# Compressibility (1/GPa) = 0.03465630
#
# Stress axis : x y z
#
# Youngs Moduli (GPa) = 66.48839 60.38115 43.10667
#
# Poissons Ratio (x) = 0.28471 -0.12716
# Poissons Ratio (y) = 0.31351 0.35806
# Poissons Ratio (z) = -0.19613 0.50155
#
# Static dielectric constant tensor:
#      x y z
#    x 1.683560 0.000000 -0.025610 
#    y 0.000000 1.877920 0.000000 
#    z -0.025610 0.000000 1.695610 
# 
# From -- ./inp_files/59113.got.cif
#   From: 2010.05.17/outbox.cif.g08.bks.cpg/sg11_30_cif.got.tgz:59113.got - 2010.06.03 12:22:45.
