data_PCOD9164737
_publ_section_title
;
Structure prediction by ZEFSAII (Michael W. Deem and Ramdas Pophale) SiO2 
 PCOD9164737
Probable space group: P 21/M
;
_chemical_formula_sum "Si O2"
_cell_formula_units_Z 28
_cell_length_a 13.193000
_cell_length_b 21.726551
_cell_length_c 4.919622
_cell_angle_alpha 90.000000
_cell_angle_beta 99.758096
_cell_angle_gamma 90.000000
_cell_volume 1389.750599
_symmetry_space_group_name_H-M "P 21/M"
_symmetry_group_IT_number 11
_symmetry_cell_setting 'monoclinic'
loop_
_space_group_symop_operation_xyz
x,y,z
-x,1/2+y,-z
-x,-y,-z
x,1/2-y,z
loop_
_atom_site_type_symbol
_atom_site_label
_atom_site_fract_x
_atom_site_fract_y
_atom_site_fract_z
Si Si1 0.665281 0.065390 0.941197
Si Si2 0.666298 0.250000 0.234182
Si Si3 0.526807 0.250000 0.672878
Si Si4 0.899620 0.939696 0.678032
Si Si5 0.553049 0.621214 0.159135
Si Si6 0.030520 0.921437 0.225740
Si Si7 0.768290 0.375119 0.468263
Si Si8 0.667036 0.927424 0.722870
O O1 0.555907 0.092649 0.984077
O O2 0.701029 0.104306 0.696161
O O3 0.655974 0.995110 0.847423
O O4 0.746982 0.075383 0.219634
O O5 0.564706 0.250000 0.379724
O O6 0.729623 0.310711 0.334666
O O7 0.629262 0.250000 0.907479
O O8 0.466526 0.188599 0.727803
O O9 0.785141 0.918994 0.690693
O O10 0.935212 0.929445 0.387174
O O11 0.911056 0.012507 0.749927
O O12 0.983870 0.908142 0.911424
O O13 0.598113 0.580081 0.423629
O O14 0.628479 0.619099 0.937044
O O15 0.114616 0.875109 0.379490
#
# Coordination Sequence:
#
# PCOD9164737 Si02
#       8
#     4   2   2   4   4   4   4   4
#     4  12  23  39  59  95 129 161 194 251 315 381
#     4  12  22  42  64  87 122 161 208 256 302 366
#     4  12  24  44  64  85 120 165 222 248 288 364
#     4  10  21  37  59  87 122 156 201 246 298 368
#     4  12  24  41  61  88 125 168 203 257 301 362
#     4  10  21  36  60  89 119 158 196 249 307 360
#     4  12  22  38  64  91 125 161 199 254 314 371
#     4  12  24  39  62  92 129 163 203 250 312 370
#
# _framework density 20.147501999999999
#
# number of rings (size 3 to 8) (size 9 to 14) (size 15 to 20)
#    0.000    0.571    4.286    5.143    4.000    0.000 
#    0.000    0.000    0.000    5.143    0.000    0.000 
#    0.000    0.000    0.000    0.000    0.000    0.000 
#
# Total GULP energy -156736.835432 kJ/mol
# GULP energy per Si atom -5597.744123 kJ/mol
# Density = 2.010165 g / cm^3
# Si number density = 20.147502 Si / 1000 Ang^3
#
#
#
# Elastic Constant Matrix: (Units=GPa)
#
#
# Indices 1 2 3 4 5 6 
#
# 1 71.0318 20.7749 -7.4539 0.0000 -0.1551 0.0000
# 2 20.7749 44.5892 -2.6891 0.0000 11.9804 0.0000
# 3 -7.4539 -2.6891 74.5890 0.0000 1.8169 0.0000
# 4 0.0000 0.0000 0.0000 16.8975 0.0000 -2.5332
# 5 -0.1551 11.9804 1.8169 0.0000 27.3669 0.0000
# 6 0.0000 0.0000 0.0000 -2.5332 0.0000 23.7431
#
#
#
# Elastic Compliance Matrix: (Units=1/GPa)
#
#
# Indices 1 2 3 4 5 6 
#
# 1 0.016788 -0.008781 0.001267 0.000000 0.003855 0.000000
# 2 -0.008781 0.030115 0.000531 0.000000 -0.013269 0.000000
# 3 0.001267 0.000531 0.013580 0.000000 -0.001127 0.000000
# 4 0.000000 0.000000 0.000000 0.060142 0.000000 0.006417
# 5 0.003855 -0.013269 -0.001127 0.000000 0.042446 0.000000
# 6 0.000000 0.000000 0.000000 0.006417 0.000000 0.042802
#
#
# Mechanical properties :
#
#
# Convention : Reuss Voigt Hill
#
# Bulk Modulus (GPa) = 21.49699 23.49710 22.49705
# Shear Modulus (GPa) = 21.24541 25.57334 23.40937
#
# Velocity S-wave (km/s) = 3.25082 3.56660 3.41236
# Velocity P-wave (km/s) = 4.97829 5.35245 5.16876
#
# Compressibility (1/GPa) = 0.04651813
#
# Stress axis : x y z
#
# Youngs Moduli (GPa) = 59.56689 33.20558 73.63741
#
# Poissons Ratio (x) = 0.29158 -0.09331
# Poissons Ratio (y) = 0.52307 -0.03913
# Poissons Ratio (z) = -0.07548 -0.01765
#
# Static dielectric constant tensor:
#      x y z
#    x 1.718840 0.000000 0.000250 
#    y 0.000000 1.706790 0.000000 
#    z 0.000250 0.000000 1.712920 
# 
# From -- ./inp_files/5109.got.cif
#   From: 2010.05.17/outbox.cif.g08.bks.cpg/sg11_3_cif.got.tgz:5109.got - 2010.06.03 12:22:45.
