data_PCOD9164238
_publ_section_title
;
Structure prediction by ZEFSAII (Michael W. Deem and Ramdas Pophale) SiO2 
 PCOD9164238
Probable space group: P 21/M
;
_chemical_formula_sum "Si O2"
_cell_formula_units_Z 24
_cell_length_a 5.128930
_cell_length_b 14.577267
_cell_length_c 16.483566
_cell_angle_alpha 90.000000
_cell_angle_beta 89.090989
_cell_angle_gamma 90.000000
_cell_volume 1232.251604
_symmetry_space_group_name_H-M "P 21/M"
_symmetry_group_IT_number 11
_symmetry_cell_setting 'monoclinic'
loop_
_space_group_symop_operation_xyz
x,y,z
-x,1/2+y,-z
-x,-y,-z
x,1/2-y,z
loop_
_atom_site_type_symbol
_atom_site_label
_atom_site_fract_x
_atom_site_fract_y
_atom_site_fract_z
Si Si1 0.244611 0.545595 0.542726
Si Si2 0.577250 0.347672 0.952816
Si Si3 0.679592 0.750000 0.365298
Si Si4 0.721059 0.950309 0.285932
Si Si5 0.054155 0.098463 0.040960
Si Si6 0.230238 0.991005 0.181597
Si Si7 0.180511 0.750000 0.480067
O O1 0.500000 0.500000 0.500000
O O2 0.231555 0.512688 0.635398
O O3 0.223874 0.655334 0.529395
O O4 0.000000 0.500000 0.500000
O O5 0.604990 0.250000 0.910799
O O6 0.288844 0.358951 0.988625
O O7 0.781191 0.352416 0.026297
O O8 0.652746 0.424608 0.888303
O O9 0.697975 0.844194 0.314163
O O10 0.400772 0.750000 0.409908
O O11 0.903426 0.750000 0.434128
O O12 0.458461 0.989527 0.246355
O O13 0.963829 0.956301 0.223331
O O14 0.150038 0.082045 0.131914
O O15 0.000000 0.000000 0.000000
#
# Coordination Sequence:
#
# PCOD9164238 Si02
#       7
#     4   4   2   4   4   4   2
#     4  12  23  43  66  94 123 171 217 256 310 379
#     4  11  22  37  63  93 118 157 210 260 302 367
#     4  12  24  38  64  98 126 160 200 264 328 378
#     4  12  24  38  62  95 131 159 203 257 324 379
#     4  10  20  40  61  83 118 166 205 234 297 376
#     4  11  23  39  61  89 127 161 194 252 319 378
#     4  12  22  44  68  90 122 166 224 264 298 380
#
# _framework density 19.47654
#
# number of rings (size 3 to 8) (size 9 to 14) (size 15 to 20)
#    0.000    0.667    3.333    7.500    2.333    0.000 
#    0.000    0.000   11.000    0.000    0.000    0.000 
#    0.000    0.000    0.000    0.000    0.000    0.000 
#
# Total GULP energy -133998.255495 kJ/mol
# GULP energy per Si atom -5583.260646 kJ/mol
# Density = 1.943221 g / cm^3
# Si number density = 19.476540 Si / 1000 Ang^3
#
#
#
# Elastic Constant Matrix: (Units=GPa)
#
#
# Indices 1 2 3 4 5 6 
#
# 1 97.7889 6.8700 -0.5074 0.0000 13.7147 0.0000
# 2 6.8700 78.6653 20.5890 0.0000 6.5692 0.0000
# 3 -0.5074 20.5890 66.4833 0.0000 14.1922 0.0000
# 4 0.0000 0.0000 0.0000 10.7923 0.0000 -4.6243
# 5 13.7147 6.5692 14.1922 0.0000 37.4405 0.0000
# 6 0.0000 0.0000 0.0000 -4.6243 0.0000 32.0233
#
#
#
# Elastic Compliance Matrix: (Units=1/GPa)
#
#
# Indices 1 2 3 4 5 6 
#
# 1 0.010904 -0.000930 0.001294 0.000000 -0.004322 0.000000
# 2 -0.000930 0.013939 -0.004216 0.000000 -0.000507 0.000000
# 3 0.001294 -0.004216 0.017735 0.000000 -0.006457 0.000000
# 4 0.000000 0.000000 0.000000 0.098770 0.000000 0.014263
# 5 -0.004322 -0.000507 -0.006457 0.000000 0.030829 0.000000
# 6 0.000000 0.000000 0.000000 0.014263 0.000000 0.033287
#
#
# Mechanical properties :
#
#
# Convention : Reuss Voigt Hill
#
# Bulk Modulus (GPa) = 28.67410 32.98229 30.82820
# Shear Modulus (GPa) = 22.24279 30.45030 26.34654
#
# Velocity S-wave (km/s) = 3.38306 3.95832 3.68194
# Velocity P-wave (km/s) = 5.47855 6.15323 5.82566
#
# Compressibility (1/GPa) = 0.03487467
#
# Stress axis : x y z
#
# Youngs Moduli (GPa) = 91.70741 71.74118 56.38534
#
# Poissons Ratio (x) = 0.06672 -0.07295
# Poissons Ratio (y) = 0.08529 0.23770
# Poissons Ratio (z) = -0.11865 0.30243
#
# Static dielectric constant tensor:
#      x y z
#    x 1.688490 0.000000 0.045170 
#    y 0.000000 1.730320 0.000000 
#    z 0.045170 0.000000 1.686260 
# 
# From -- ./inp_files/45748.got.cif
#   From: 2010.05.17/outbox.cif.g08.bks.cpg/sg11_23_cif.got.tgz:45748.got - 2010.06.03 12:22:45.
