data_PCOD9164065
_publ_section_title
;
Structure prediction by ZEFSAII (Michael W. Deem and Ramdas Pophale) SiO2 
 PCOD9164065
Probable space group: P 21/M
;
_chemical_formula_sum "Si O2"
_cell_formula_units_Z 26
_cell_length_a 9.538853
_cell_length_b 9.085470
_cell_length_c 16.251857
_cell_angle_alpha 90.000000
_cell_angle_beta 122.515451
_cell_angle_gamma 90.000000
_cell_volume 1187.684545
_symmetry_space_group_name_H-M "P 21/M"
_symmetry_group_IT_number 11
_symmetry_cell_setting 'monoclinic'
loop_
_space_group_symop_operation_xyz
x,y,z
-x,1/2+y,-z
-x,-y,-z
x,1/2-y,z
loop_
_atom_site_type_symbol
_atom_site_label
_atom_site_fract_x
_atom_site_fract_y
_atom_site_fract_z
Si Si1 0.612714 0.928009 0.186078
Si Si2 0.021409 0.250000 0.045988
Si Si3 0.242177 0.975029 0.062481
Si Si4 0.428943 0.576738 0.648525
Si Si5 0.910549 0.423765 0.548310
Si Si6 0.053538 0.926460 0.756223
Si Si7 0.762310 0.414546 0.749604
O O1 0.621794 0.750000 0.191669
O O2 0.432824 0.976844 0.094644
O O3 0.622064 0.995375 0.282249
O O4 0.766605 0.996822 0.185175
O O5 0.150997 0.374434 0.052044
O O6 0.882786 0.375682 0.027405
O O7 0.250912 0.902128 0.156345
O O8 0.458132 0.750000 0.676033
O O9 0.283982 0.566622 0.535617
O O10 0.596822 0.499786 0.670734
O O11 0.954028 0.250000 0.569794
O O12 0.000000 0.500000 0.500000
O O13 0.968947 0.514947 0.645078
O O14 0.063999 0.750000 0.760896
O O15 0.921587 0.989167 0.779200
O O16 0.775052 0.250000 0.718078
#
# Coordination Sequence:
#
# PCOD9164065 Si02
#       7
#     4   2   4   4   4   4   4
#     4  11  21  37  59  90 122 161 202 247 297 360
#     4  10  20  38  66 100 120 150 194 246 292 360
#     4  10  21  38  67  96 123 151 197 243 297 354
#     4  10  21  36  61  88 118 157 211 253 298 346
#     4  11  22  38  59  87 122 161 206 262 298 348
#     4  12  26  39  60  86 121 166 210 248 310 354
#     4  11  23  41  60  89 124 164 198 248 307 363
#
# _framework density 21.891335000000002
#
# number of rings (size 3 to 8) (size 9 to 14) (size 15 to 20)
#    0.000    1.231    3.077    4.154    6.462    2.462 
#    0.000    0.000    0.000    5.538    0.000    0.000 
#    0.000    0.000    0.000    0.000    0.000    0.000 
#
# Total GULP energy -144832.396347 kJ/mol
# GULP energy per Si atom -5570.476783 kJ/mol
# Density = 2.184151 g / cm^3
# Si number density = 21.891335 Si / 1000 Ang^3
#
#
#
# Elastic Constant Matrix: (Units=GPa)
#
#
# Indices 1 2 3 4 5 6 
#
# 1 111.8311 33.4827 38.0718 0.0000 44.9762 0.0000
# 2 33.4827 158.3692 42.2045 0.0000 40.6772 0.0000
# 3 38.0718 42.2045 67.1808 0.0000 32.1481 0.0000
# 4 0.0000 0.0000 0.0000 -58.6089 0.0000 -6.8511
# 5 44.9762 40.6772 32.1481 0.0000 44.8866 0.0000
# 6 0.0000 0.0000 0.0000 -6.8511 0.0000 23.0302
#
#
#
# Elastic Compliance Matrix: (Units=1/GPa)
#
#
# Indices 1 2 3 4 5 6 
#
# 1 0.015315 0.001173 -0.002379 0.000000 -0.014704 0.000000
# 2 0.001173 0.008591 -0.002699 0.000000 -0.007028 0.000000
# 3 -0.002379 -0.002699 0.023762 0.000000 -0.012188 0.000000
# 4 0.000000 0.000000 0.000000 -0.016489 0.000000 -0.004905
# 5 -0.014704 -0.007028 -0.012188 0.000000 0.052110 0.000000
# 6 0.000000 0.000000 0.000000 -0.004905 0.000000 0.041962
#
#
# Mechanical properties :
#
#
# Convention : Reuss Voigt Hill
#
# Bulk Modulus (GPa) = 25.09008 62.76657 43.92832
# Shear Modulus (GPa) = 34.16582 16.76972 25.46777
#
# Velocity S-wave (km/s) = 3.95486 2.77075 3.41452
# Velocity P-wave (km/s) = 5.68688 6.24261 5.97121
#
# Compressibility (1/GPa) = 0.03985639
#
# Stress axis : x y z
#
# Youngs Moduli (GPa) = 65.29734 116.40685 42.08478
#
# Poissons Ratio (x) = -0.13655 0.10014
# Poissons Ratio (y) = -0.07659 0.11357
# Poissons Ratio (z) = 0.15537 0.31414
#
# Static dielectric constant tensor:
#      x y z
#    x 1.815070 0.000000 -0.044510 
#    y 0.000000 1.731320 0.000000 
#    z -0.044510 0.000000 1.907270 
# 
# From -- ./inp_files/26060.got.cif
#   From: 2010.05.17/outbox.cif.g08.bks.cpg/sg11_14_cif.got.tgz:26060.got - 2010.06.03 12:22:45.
