data_PCOD9164483
_publ_section_title
;
Structure prediction by ZEFSAII (Michael W. Deem and Ramdas Pophale) SiO2 
 PCOD9164483
Probable space group: P 21/M
;
_chemical_formula_sum "Si O2"
_cell_formula_units_Z 28
_cell_length_a 16.493120
_cell_length_b 8.913231
_cell_length_c 12.564331
_cell_angle_alpha 90.000000
_cell_angle_beta 124.189951
_cell_angle_gamma 90.000000
_cell_volume 1527.836658
_symmetry_space_group_name_H-M "P 21/M"
_symmetry_group_IT_number 11
_symmetry_cell_setting 'monoclinic'
loop_
_space_group_symop_operation_xyz
x,y,z
-x,1/2+y,-z
-x,-y,-z
x,1/2-y,z
loop_
_atom_site_type_symbol
_atom_site_label
_atom_site_fract_x
_atom_site_fract_y
_atom_site_fract_z
Si Si1 0.933557 0.925478 0.540895
Si Si2 0.409735 0.072247 0.796723
Si Si3 0.005503 0.573946 0.835424
Si Si4 0.363107 0.928039 0.984772
Si Si5 0.733322 0.428964 0.466658
Si Si6 0.214233 0.071047 0.040865
Si Si7 0.197114 0.570654 0.246120
O O1 0.917589 0.750000 0.505604
O O2 0.986670 0.936292 0.694724
O O3 0.829617 0.007526 0.478292
O O4 0.000000 0.000000 0.500000
O O5 0.392115 0.250000 0.789329
O O6 0.362688 0.992723 0.865138
O O7 0.360545 0.004217 0.655912
O O8 0.526436 0.047267 0.890296
O O9 0.008829 0.750000 0.867242
O O10 0.912526 0.494874 0.821327
O O11 0.106063 0.493487 0.938345
O O12 0.343756 0.750000 0.968842
O O13 0.286238 0.010400 0.003208
O O14 0.729567 0.250000 0.451840
O O15 0.747919 0.463514 0.602430
O O16 0.212822 0.250000 0.041610
O O17 0.244059 0.005517 0.177848
O O18 0.192995 0.750000 0.230123
#
# Coordination Sequence:
#
# PCOD9164483 Si02
#       7
#     4   4   4   4   4   4   4
#     4  10  21  35  53  79 114 150 190 235 279 335
#     4  10  21  39  63  88 115 148 186 233 288 343
#     4  10  21  37  56  80 113 154 193 233 284 335
#     4  10  22  40  61  86 116 148 188 236 284 339
#     4  10  21  37  60  84 112 151 189 230 285 342
#     4  12  24  37  58  85 115 151 193 239 286 335
#     4  10  21  39  59  83 115 152 194 236 281 337
#
# _framework density 18.326567000000001
#
# number of rings (size 3 to 8) (size 9 to 14) (size 15 to 20)
#    0.000    1.714    0.000    4.286    2.000    5.143 
#    0.000    0.714    0.000    0.000    0.000    0.000 
#    0.000    0.000    0.000    0.000    0.000    0.000 
#
# Total GULP energy -156518.146062 kJ/mol
# GULP energy per Si atom -5589.933788 kJ/mol
# Density = 1.828485 g / cm^3
# Si number density = 18.326567 Si / 1000 Ang^3
#
#
#
# Elastic Constant Matrix: (Units=GPa)
#
#
# Indices 1 2 3 4 5 6 
#
# 1 54.5482 42.2991 34.7672 0.0000 -13.0045 0.0000
# 2 42.2991 117.1812 59.5502 0.0000 1.0019 0.0000
# 3 34.7672 59.5502 85.6558 0.0000 9.3508 0.0000
# 4 0.0000 0.0000 0.0000 32.9142 0.0000 -2.4511
# 5 -13.0045 1.0019 9.3508 0.0000 14.6259 0.0000
# 6 0.0000 0.0000 0.0000 -2.4511 0.0000 32.8591
#
#
#
# Elastic Compliance Matrix: (Units=1/GPa)
#
#
# Indices 1 2 3 4 5 6 
#
# 1 0.055730 -0.008590 -0.023782 0.000000 0.065345 0.000000
# 2 -0.008590 0.014919 -0.006386 0.000000 -0.004577 0.000000
# 3 -0.023782 -0.006386 0.030131 0.000000 -0.039972 0.000000
# 4 0.000000 0.000000 0.000000 0.030552 0.000000 0.002279
# 5 0.065345 -0.004577 -0.039972 0.000000 0.152342 0.000000
# 6 0.000000 0.000000 0.000000 0.002279 0.000000 0.030603
#
#
# Mechanical properties :
#
#
# Convention : Reuss Voigt Hill
#
# Bulk Modulus (GPa) = 42.98462 58.95757 50.97110
# Shear Modulus (GPa) = 12.51420 24.13108 18.32264
#
# Velocity S-wave (km/s) = 2.61597 3.63261 3.16537
# Velocity P-wave (km/s) = 5.71228 7.05938 6.42125
#
# Compressibility (1/GPa) = 0.02326413
#
# Stress axis : x y z
#
# Youngs Moduli (GPa) = 17.94374 67.02974 33.18865
#
# Poissons Ratio (x) = 0.57577 0.78929
# Poissons Ratio (y) = 0.15413 0.21193
# Poissons Ratio (z) = 0.42674 0.42803
#
# Static dielectric constant tensor:
#      x y z
#    x 1.591130 0.000000 -0.004240 
#    y 0.000000 1.607330 0.000000 
#    z -0.004240 0.000000 1.642450 
# 
# From -- ./inp_files/38465.got.cif
#   From: 2010.05.17/outbox.cif.g08.bks.cpg/sg11_20_cif.got.tgz:38465.got - 2010.06.03 12:22:45.
