data_PCOD9164913
_publ_section_title
;
Structure prediction by ZEFSAII (Michael W. Deem and Ramdas Pophale) SiO2 
 PCOD9164913
Probable space group: P 21/M
;
_chemical_formula_sum "Si O2"
_cell_formula_units_Z 20
_cell_length_a 18.770024
_cell_length_b 8.841196
_cell_length_c 7.942167
_cell_angle_alpha 90.000000
_cell_angle_beta 51.079884
_cell_angle_gamma 90.000000
_cell_volume 1025.432528
_symmetry_space_group_name_H-M "P 21/M"
_symmetry_group_IT_number 11
_symmetry_cell_setting 'monoclinic'
loop_
_space_group_symop_operation_xyz
x,y,z
-x,1/2+y,-z
-x,-y,-z
x,1/2-y,z
loop_
_atom_site_type_symbol
_atom_site_label
_atom_site_fract_x
_atom_site_fract_y
_atom_site_fract_z
Si Si1 0.595653 0.428965 0.304211
Si Si2 0.215248 0.430250 0.486225
Si Si3 0.210796 0.567557 0.842656
Si Si4 0.101097 0.931613 0.347066
Si Si5 0.402640 0.929506 0.096753
O O1 0.500000 0.500000 0.500000
O O2 0.589107 0.250000 0.343503
O O3 0.685265 0.483953 0.269909
O O4 0.611341 0.451366 0.082265
O O5 0.212557 0.250000 0.482556
O O6 0.178593 0.489774 0.719503
O O7 0.159131 0.500373 0.414617
O O8 0.319247 0.490022 0.314307
O O9 0.211280 0.750000 0.820383
O O10 0.150015 0.533014 0.096599
O O11 0.098762 0.750000 0.366908
O O12 0.000000 0.000000 0.500000
O O13 0.401581 0.750000 0.134395
O O14 0.500000 0.000000 0.000000
#
# Coordination Sequence:
#
# PCOD9164913 Si02
#       5
#     4   4   4   4   4
#     4  10  21  37  58  87 124 167 213 261 316 377
#     4  12  25  41  65  98 132 172 217 267 325 389
#     4  10  22  43  67  91 127 173 216 266 325 385
#     4  11  24  46  72  98 129 170 217 273 331 387
#     4  11  22  39  60  90 129 173 220 268 323 384
#
# _framework density 19.503964
#
# number of rings (size 3 to 8) (size 9 to 14) (size 15 to 20)
#    0.000    1.200    2.000    4.200    0.000    8.000 
#    0.000    0.000    0.000    0.000    0.000    0.000 
#    0.000    0.000    0.000    0.000    0.000    0.000 
#
# Total GULP energy -111873.614664 kJ/mol
# GULP energy per Si atom -5593.680733 kJ/mol
# Density = 1.945957 g / cm^3
# Si number density = 19.503964 Si / 1000 Ang^3
#
#
#
# Elastic Constant Matrix: (Units=GPa)
#
#
# Indices 1 2 3 4 5 6 
#
# 1 120.1716 61.4635 82.3497 0.0000 6.0803 0.0000
# 2 61.4635 90.8367 75.2184 0.0000 18.8723 0.0000
# 3 82.3497 75.2184 143.4303 0.0000 7.7731 0.0000
# 4 0.0000 0.0000 0.0000 27.2870 0.0000 -2.9611
# 5 6.0803 18.8723 7.7731 0.0000 32.8391 0.0000
# 6 0.0000 0.0000 0.0000 -2.9611 0.0000 35.1789
#
#
#
# Elastic Compliance Matrix: (Units=1/GPa)
#
#
# Indices 1 2 3 4 5 6 
#
# 1 0.015170 -0.005961 -0.005690 0.000000 0.001964 0.000000
# 2 -0.005961 0.024745 -0.008959 0.000000 -0.010997 0.000000
# 3 -0.005690 -0.008959 0.014791 0.000000 0.002701 0.000000
# 4 0.000000 0.000000 0.000000 0.036985 0.000000 0.003113
# 5 0.001964 -0.010997 0.002701 0.000000 0.035768 0.000000
# 6 0.000000 0.000000 0.000000 0.003113 0.000000 0.028688
#
#
# Mechanical properties :
#
#
# Convention : Reuss Voigt Hill
#
# Bulk Modulus (GPa) = 74.14749 88.05575 81.10162
# Shear Modulus (GPa) = 24.76935 28.08815 26.42875
#
# Velocity S-wave (km/s) = 3.56752 3.79902 3.68509
# Velocity P-wave (km/s) = 7.42083 8.03050 7.73168
#
# Compressibility (1/GPa) = 0.01348663
#
# Stress axis : x y z
#
# Youngs Moduli (GPa) = 65.91874 40.41233 67.60949
#
# Poissons Ratio (x) = 0.24089 0.38472
# Poissons Ratio (y) = 0.39292 0.60568
# Poissons Ratio (z) = 0.37510 0.36204
#
# Static dielectric constant tensor:
#      x y z
#    x 1.685730 0.000000 0.021450 
#    y 0.000000 1.649410 0.000000 
#    z 0.021450 0.000000 1.699850 
# 
# From -- ./inp_files/25637.got.cif
#   From: 2010.05.17/outbox.cif.g08.bks.cpg/sg11_13_cif.got.tgz:25637.got - 2010.06.03 12:22:45.
