data_PCOD9164801
_publ_section_title
;
Structure prediction by ZEFSAII (Michael W. Deem and Ramdas Pophale) SiO2 
 PCOD9164801
Probable space group: P 21/M
;
_chemical_formula_sum "Si O2"
_cell_formula_units_Z 24
_cell_length_a 16.547437
_cell_length_b 8.342149
_cell_length_c 9.378123
_cell_angle_alpha 90.000000
_cell_angle_beta 106.427413
_cell_angle_gamma 90.000000
_cell_volume 1241.721398
_symmetry_space_group_name_H-M "P 21/M"
_symmetry_group_IT_number 11
_symmetry_cell_setting 'monoclinic'
loop_
_space_group_symop_operation_xyz
x,y,z
-x,1/2+y,-z
-x,-y,-z
x,1/2-y,z
loop_
_atom_site_type_symbol
_atom_site_label
_atom_site_fract_x
_atom_site_fract_y
_atom_site_fract_z
Si Si1 0.918486 0.556151 0.545568
Si Si2 0.244019 0.942087 0.034834
Si Si3 0.594391 0.556303 0.384890
Si Si4 0.754671 0.556217 0.287688
Si Si5 0.081627 0.057816 0.126459
Si Si6 0.595598 0.443708 0.707489
O O1 0.918083 0.750000 0.546727
O O2 0.833813 0.502106 0.422615
O O3 0.920576 0.500575 0.710583
O O4 0.000000 0.500000 0.500000
O O5 0.244406 0.750000 0.035091
O O6 0.331195 0.999774 0.150439
O O7 0.165488 0.999920 0.089217
O O8 0.236397 0.000810 0.869568
O O9 0.594758 0.750000 0.384041
O O10 0.667191 0.499974 0.314895
O O11 0.612696 0.500942 0.555103
O O12 0.499270 0.502396 0.300836
O O13 0.754418 0.750000 0.289240
O O14 0.081568 0.250000 0.127873
O O15 0.000000 0.000000 0.000000
O O16 0.595737 0.250000 0.707660
#
# Coordination Sequence:
#
# PCOD9164801 Si02
#       6
#     4   4   4   4   4   4
#     4  10  22  38  57  81 108 139 177 221 268 321
#     4  11  23  37  54  81 115 148 183 225 274 328
#     4   9  18  35  58  81 107 143 187 232 279 331
#     4  10  21  37  56  79 108 144 186 229 273 325
#     4  11  23  40  61  85 112 144 183 225 272 325
#     4   9  19  35  55  81 112 144 182 230 280 329
#
# _framework density 19.328006999999999
#
# number of rings (size 3 to 8) (size 9 to 14) (size 15 to 20)
#    0.000    2.000    0.000    3.000    0.000    8.667 
#    0.000    0.000    0.000    0.000    0.000    0.000 
#    0.000    0.000    0.000    0.000    0.000    0.000 
#
# Total GULP energy -134077.089794 kJ/mol
# GULP energy per Si atom -5586.545408 kJ/mol
# Density = 1.928402 g / cm^3
# Si number density = 19.328007 Si / 1000 Ang^3
#
#
#
# Elastic Constant Matrix: (Units=GPa)
#
#
# Indices 1 2 3 4 5 6 
#
# 1 181.1005 22.9252 130.3505 0.0000 -9.1708 0.0000
# 2 22.9252 12.3020 21.0782 0.0000 1.9994 0.0000
# 3 130.3505 21.0782 199.5325 0.0000 4.3679 0.0000
# 4 0.0000 0.0000 0.0000 29.4505 0.0000 -3.2602
# 5 -9.1708 1.9994 4.3679 0.0000 40.7353 0.0000
# 6 0.0000 0.0000 0.0000 -3.2602 0.0000 27.2477
#
#
#
# Elastic Compliance Matrix: (Units=1/GPa)
#
#
# Indices 1 2 3 4 5 6 
#
# 1 0.012024 -0.011536 -0.006724 0.000000 0.003994 0.000000
# 2 -0.011536 0.110896 -0.004012 0.000000 -0.007610 0.000000
# 3 -0.006724 -0.004012 0.009880 0.000000 -0.002376 0.000000
# 4 0.000000 0.000000 0.000000 0.034411 0.000000 0.004117
# 5 0.003994 -0.007610 -0.002376 0.000000 0.026076 0.000000
# 6 0.000000 0.000000 0.000000 0.004117 0.000000 0.037193
#
#
# Mechanical properties :
#
#
# Convention : Reuss Voigt Hill
#
# Bulk Modulus (GPa) = 11.33058 82.40475 46.86767
# Shear Modulus (GPa) = 16.42345 34.05876 25.24110
#
# Velocity S-wave (km/s) = 2.91816 4.20235 3.61769
# Velocity P-wave (km/s) = 4.15081 8.14087 6.46154
#
# Compressibility (1/GPa) = 0.08825676
#
# Stress axis : x y z
#
# Youngs Moduli (GPa) = 83.16763 9.01745 101.21344
#
# Poissons Ratio (x) = 0.10402 0.68054
# Poissons Ratio (y) = 0.95939 0.40610
# Poissons Ratio (z) = 0.55920 0.03618
#
# Static dielectric constant tensor:
#      x y z
#    x 1.658660 0.000000 0.020690 
#    y 0.000000 1.669340 0.000000 
#    z 0.020690 0.000000 1.639820 
# 
# From -- ./inp_files/20590.got.cif
#   From: 2010.05.17/outbox.cif.g08.bks.cpg/sg11_11_cif.got.tgz:20590.got - 2010.06.03 12:22:45.
