data_PCOD9164019
_publ_section_title
;
Structure prediction by ZEFSAII (Michael W. Deem and Ramdas Pophale) SiO2 
 PCOD9164019
Probable space group: P 21/M
;
_chemical_formula_sum "Si O2"
_cell_formula_units_Z 26
_cell_length_a 9.427045
_cell_length_b 19.112629
_cell_length_c 9.130086
_cell_angle_alpha 90.000000
_cell_angle_beta 133.086776
_cell_angle_gamma 90.000000
_cell_volume 1201.390096
_symmetry_space_group_name_H-M "P 21/M"
_symmetry_group_IT_number 11
_symmetry_cell_setting 'monoclinic'
loop_
_space_group_symop_operation_xyz
x,y,z
-x,1/2+y,-z
-x,-y,-z
x,1/2-y,z
loop_
_atom_site_type_symbol
_atom_site_label
_atom_site_fract_x
_atom_site_fract_y
_atom_site_fract_z
Si Si1 0.161729 0.831277 0.931439
Si Si2 0.032066 0.039221 0.740925
Si Si3 0.789540 0.580384 0.671103
Si Si4 0.797470 0.410689 0.326232
Si Si5 0.353250 0.250000 0.968478
Si Si6 0.401094 0.327192 0.697676
Si Si7 0.619320 0.607910 0.843262
O O1 0.122124 0.750000 0.927553
O O2 0.186731 0.846312 0.775002
O O3 0.984192 0.878233 0.857954
O O4 0.371790 0.847531 0.147837
O O5 0.938527 0.095188 0.564796
O O6 0.134735 0.978519 0.716746
O O7 0.192586 0.068839 0.960653
O O8 0.856060 0.998973 0.696717
O O9 0.725824 0.615032 0.472225
O O10 0.625895 0.594295 0.674677
O O11 0.579312 0.419795 0.226874
O O12 0.355508 0.310416 0.835620
O O13 0.363343 0.188330 0.099045
O O14 0.374331 0.250000 0.605806
#
# Coordination Sequence:
#
# PCOD9164019 Si02
#       7
#     4   4   4   4   2   4   4
#     4  10  20  38  63  91 123 171 211 255 315 386
#     4  10  25  41  62  98 123 172 220 251 316 386
#     4  11  25  38  66  91 133 167 210 254 334 371
#     4  10  22  39  69  93 124 167 218 261 309 375
#     4  10  24  38  68  96 122 162 224 256 318 372
#     4   9  20  40  62  86 124 165 212 255 311 382
#     4  12  24  43  63  98 131 164 206 280 307 373
#
# _framework density 21.641596
#
# number of rings (size 3 to 8) (size 9 to 14) (size 15 to 20)
#    0.462    1.231    1.538    1.385    8.615    4.308 
#    0.000    0.000    0.000    0.000    0.000    0.000 
#    0.000    0.000    0.000    0.000    0.000    0.000 
#
# Total GULP energy -144742.679663 kJ/mol
# GULP energy per Si atom -5567.026141 kJ/mol
# Density = 2.159234 g / cm^3
# Si number density = 21.641596 Si / 1000 Ang^3
#
#
#
# Elastic Constant Matrix: (Units=GPa)
#
#
# Indices 1 2 3 4 5 6 
#
# 1 67.8571 -5.7565 -0.6741 0.0000 -13.7982 0.0000
# 2 -5.7565 32.0463 10.2067 0.0000 3.3062 0.0000
# 3 -0.6741 10.2067 47.7205 0.0000 5.9076 0.0000
# 4 0.0000 0.0000 0.0000 13.6784 0.0000 7.7718
# 5 -13.7982 3.3062 5.9076 0.0000 25.6581 0.0000
# 6 0.0000 0.0000 0.0000 7.7718 0.0000 3.6200
#
#
#
# Elastic Compliance Matrix: (Units=1/GPa)
#
#
# Indices 1 2 3 4 5 6 
#
# 1 0.016772 0.002535 -0.001422 0.000000 0.009020 0.000000
# 2 0.002535 0.034058 -0.007076 0.000000 -0.001396 0.000000
# 3 -0.001422 -0.007076 0.023089 0.000000 -0.005169 0.000000
# 4 0.000000 0.000000 0.000000 -0.332557 0.000000 0.713970
# 5 0.009020 -0.001396 -0.005169 0.000000 0.045195 0.000000
# 6 0.000000 0.000000 0.000000 0.713970 0.000000 -1.256585
#
#
# Mechanical properties :
#
#
# Convention : Reuss Voigt Hill
#
# Bulk Modulus (GPa) = 16.13087 17.24179 16.68633
# Shear Modulus (GPa) = -3.47841 18.18116 7.35138
#
# Velocity S-wave (km/s) = -1.26916 2.90160 1.84506
# Velocity P-wave (km/s) = 2.30697 4.38292 3.50229
#
# Compressibility (1/GPa) = 0.06199294
#
# Stress axis : x y z
#
# Youngs Moduli (GPa) = 59.62331 29.36175 43.31151
#
# Poissons Ratio (x) = -0.07443 0.06159
# Poissons Ratio (y) = -0.15115 0.30647
# Poissons Ratio (z) = 0.08478 0.20776
#
# Static dielectric constant tensor:
#      x y z
#    x 1.818420 0.000000 -0.001760 
#    y 0.000000 1.772600 0.000000 
#    z -0.001760 0.000000 1.779500 
# 
# From -- ./inp_files/14545.got.cif
#   From: 2010.05.17/outbox.cif.g08.bks.cpg/sg11_8_cif.got.tgz:14545.got - 2010.06.03 12:22:45.
