data_PCOD9164423
_publ_section_title
;
Structure prediction by ZEFSAII (Michael W. Deem and Ramdas Pophale) SiO2 
 PCOD9164423
Probable space group: P 21/M
;
_chemical_formula_sum "Si O2"
_cell_formula_units_Z 28
_cell_length_a 11.930972
_cell_length_b 22.807183
_cell_length_c 5.659741
_cell_angle_alpha 90.000000
_cell_angle_beta 63.499273
_cell_angle_gamma 90.000000
_cell_volume 1378.264173
_symmetry_space_group_name_H-M "P 21/M"
_symmetry_group_IT_number 11
_symmetry_cell_setting 'monoclinic'
loop_
_space_group_symop_operation_xyz
x,y,z
-x,1/2+y,-z
-x,-y,-z
x,1/2-y,z
loop_
_atom_site_type_symbol
_atom_site_label
_atom_site_fract_x
_atom_site_fract_y
_atom_site_fract_z
Si Si1 0.641114 0.384432 0.593750
Si Si2 0.752670 0.876964 0.134825
Si Si3 0.475774 0.183766 0.423753
Si Si4 0.599779 0.909217 0.893063
Si Si5 0.158210 0.680724 0.330805
Si Si6 0.639955 0.505679 0.471245
Si Si7 0.015360 0.680438 0.971950
O O1 0.599435 0.332980 0.455772
O O2 0.721216 0.359009 0.731623
O O3 0.700446 0.441209 0.411365
O O4 0.508200 0.408772 0.811354
O O5 0.650078 0.827847 0.305256
O O6 0.714017 0.940779 0.277238
O O7 0.728338 0.884617 0.879257
O O8 0.888193 0.856572 0.082759
O O9 0.481960 0.250000 0.332370
O O10 0.455508 0.135461 0.244413
O O11 0.625686 0.971270 0.752098
O O12 0.189861 0.750000 0.289729
O O13 0.082413 0.672218 0.651939
O O14 0.091620 0.666345 0.142822
O O15 0.500000 0.500000 0.500000
O O16 0.986813 0.750000 0.014495
#
# Coordination Sequence:
#
# PCOD9164423 Si02
#       7
#     4   4   4   4   4   4   4
#     4  11  22  38  60  86 123 161 206 252 310 372
#     4  10  22  38  61  87 120 156 210 252 314 367
#     4  10  21  34  56  91 122 151 195 257 317 374
#     4  10  21  35  60  89 123 157 199 251 312 382
#     4  10  24  43  65  90 122 168 214 257 313 371
#     4  11  20  38  59  91 123 162 200 248 317 378
#     4  10  23  44  66  88 122 167 213 260 311 370
#
# _framework density 20.31541
#
# number of rings (size 3 to 8) (size 9 to 14) (size 15 to 20)
#    0.000    1.714    4.286    1.286    6.000    3.429 
#    0.000    1.429    0.000    0.000    0.000    0.000 
#    0.000    0.000    0.000    0.000    0.000    0.000 
#
# Total GULP energy -156045.847905 kJ/mol
# GULP energy per Si atom -5573.065997 kJ/mol
# Density = 2.026917 g / cm^3
# Si number density = 20.315410 Si / 1000 Ang^3
#
#
#
# Elastic Constant Matrix: (Units=GPa)
#
#
# Indices 1 2 3 4 5 6 
#
# 1 125.5463 31.0175 21.4447 0.0000 23.4582 0.0000
# 2 31.0175 60.9346 -0.9681 0.0000 -4.0696 0.0000
# 3 21.4447 -0.9681 44.0651 0.0000 13.2529 0.0000
# 4 0.0000 0.0000 0.0000 18.8801 0.0000 6.2782
# 5 23.4582 -4.0696 13.2529 0.0000 26.0828 0.0000
# 6 0.0000 0.0000 0.0000 6.2782 0.0000 35.9548
#
#
#
# Elastic Compliance Matrix: (Units=1/GPa)
#
#
# Indices 1 2 3 4 5 6 
#
# 1 0.012138 -0.006928 -0.002893 0.000000 -0.010527 0.000000
# 2 -0.006928 0.020547 0.001162 0.000000 0.008846 0.000000
# 3 -0.002893 0.001162 0.027491 0.000000 -0.011185 0.000000
# 4 0.000000 0.000000 0.000000 0.056231 0.000000 -0.009819
# 5 -0.010527 0.008846 -0.011185 0.000000 0.054871 0.000000
# 6 0.000000 0.000000 0.000000 -0.009819 0.000000 0.029527
#
#
# Mechanical properties :
#
#
# Convention : Reuss Voigt Hill
#
# Bulk Modulus (GPa) = 23.33221 37.05938 30.19579
# Shear Modulus (GPa) = 21.51392 28.12033 24.81712
#
# Velocity S-wave (km/s) = 3.25775 3.72450 3.49892
# Velocity P-wave (km/s) = 5.06562 6.06445 5.58740
#
# Compressibility (1/GPa) = 0.04285921
#
# Stress axis : x y z
#
# Youngs Moduli (GPa) = 82.38639 48.66977 36.37528
#
# Poissons Ratio (x) = 0.33717 0.10524
# Poissons Ratio (y) = 0.57074 -0.04228
# Poissons Ratio (z) = 0.23835 -0.05657
#
# Static dielectric constant tensor:
#      x y z
#    x 1.715900 0.000000 0.001670 
#    y 0.000000 1.716300 0.000000 
#    z 0.001670 0.000000 1.850150 
# 
# From -- ./inp_files/4864.got.cif
#   From: 2010.05.17/outbox.cif.g08.bks.cpg/sg11_3_cif.got.tgz:4864.got - 2010.06.03 12:22:45.
