data_PCOD9164903
_publ_section_title
;
Structure prediction by ZEFSAII (Michael W. Deem and Ramdas Pophale) SiO2 
 PCOD9164903
Probable space group: P 21/M
;
_chemical_formula_sum "Si O2"
_cell_formula_units_Z 28
_cell_length_a 13.029261
_cell_length_b 9.091193
_cell_length_c 15.737830
_cell_angle_alpha 90.000000
_cell_angle_beta 54.250008
_cell_angle_gamma 90.000000
_cell_volume 1512.912010
_symmetry_space_group_name_H-M "P 21/M"
_symmetry_group_IT_number 11
_symmetry_cell_setting 'monoclinic'
loop_
_space_group_symop_operation_xyz
x,y,z
-x,1/2+y,-z
-x,-y,-z
x,1/2-y,z
loop_
_atom_site_type_symbol
_atom_site_label
_atom_site_fract_x
_atom_site_fract_y
_atom_site_fract_z
Si Si1 0.559008 0.919668 0.051315
Si Si2 0.205471 0.584112 0.113004
Si Si3 0.436106 0.072702 0.447022
Si Si4 0.917626 0.076882 0.644694
Si Si5 0.185234 0.926523 0.487175
Si Si6 0.881107 0.084090 0.025334
Si Si7 0.596747 0.425505 0.200613
O O1 0.528036 0.750000 0.069856
O O2 0.527373 0.995225 0.156048
O O3 0.500000 0.000000 0.000000
O O4 0.704531 0.953285 0.959928
O O5 0.266392 0.750000 0.081291
O O6 0.151841 0.561612 0.231989
O O7 0.109133 0.588264 0.081628
O O8 0.423528 0.250000 0.464604
O O9 0.531401 0.045629 0.321796
O O10 0.500000 0.000000 0.500000
O O11 0.300887 0.004605 0.481311
O O12 0.951500 0.250000 0.617326
O O13 0.826340 0.039175 0.608968
O O14 0.046609 0.983155 0.583589
O O15 0.197166 0.750000 0.491379
O O16 0.885515 0.250000 0.055607
O O17 0.743678 0.026677 0.122154
O O18 0.000000 0.000000 0.000000
O O19 0.594096 0.250000 0.186399
#
# Coordination Sequence:
#
# PCOD9164903 Si02
#       7
#     4   4   4   4   4   4   4
#     4  11  22  35  55  84 116 150 187 229 283 348
#     4   9  19  36  55  80 112 146 189 238 285 339
#     4  11  24  42  63  86 117 157 205 253 303 360
#     4   9  19  37  60  85 115 153 196 245 302 357
#     4  10  21  37  58  86 118 152 196 248 303 359
#     4   9  18  34  55  78 110 145 184 231 284 338
#     4   9  21  41  59  81 114 152 192 241 289 340
#
# _framework density 18.507353999999999
#
# number of rings (size 3 to 8) (size 9 to 14) (size 15 to 20)
#    0.000    2.286    0.000    3.000    2.000    5.714 
#    0.000    2.857    0.000    0.000    0.000    0.000 
#    0.000    0.000    0.000    0.000    0.000    0.000 
#
# Total GULP energy -155938.403459 kJ/mol
# GULP energy per Si atom -5569.228695 kJ/mol
# Density = 1.846523 g / cm^3
# Si number density = 18.507354 Si / 1000 Ang^3
#
#
#
# Elastic Constant Matrix: (Units=GPa)
#
#
# Indices 1 2 3 4 5 6 
#
# 1 143.6956 67.6590 49.6548 0.0000 19.6382 0.0000
# 2 67.6590 78.6203 45.2627 0.0000 19.0732 0.0000
# 3 49.6548 45.2627 102.0972 0.0000 28.6946 0.0000
# 4 0.0000 0.0000 0.0000 26.3204 0.0000 0.7196
# 5 19.6382 19.0732 28.6946 0.0000 18.9105 0.0000
# 6 0.0000 0.0000 0.0000 0.7196 0.0000 36.5843
#
#
#
# Elastic Compliance Matrix: (Units=1/GPa)
#
#
# Indices 1 2 3 4 5 6 
#
# 1 0.011917 -0.009197 -0.001478 0.000000 -0.000858 0.000000
# 2 -0.009197 0.025335 -0.003943 0.000000 -0.010019 0.000000
# 3 -0.001478 -0.003943 0.018678 0.000000 -0.022830 0.000000
# 4 0.000000 0.000000 0.000000 0.038014 0.000000 -0.000748
# 5 -0.000858 -0.010019 -0.022830 0.000000 0.098519 0.000000
# 6 0.000000 0.000000 0.000000 -0.000748 0.000000 0.027349
#
#
# Mechanical properties :
#
#
# Convention : Reuss Voigt Hill
#
# Bulk Modulus (GPa) = 37.46055 72.17402 54.81728
# Shear Modulus (GPa) = 19.38400 27.15215 23.26807
#
# Velocity S-wave (km/s) = 3.23982 3.83443 3.54960
# Velocity P-wave (km/s) = 5.85492 7.66068 6.81784
#
# Compressibility (1/GPa) = 0.02669475
#
# Stress axis : x y z
#
# Youngs Moduli (GPa) = 83.91060 39.47149 53.53994
#
# Poissons Ratio (x) = 0.36303 0.07911
# Poissons Ratio (y) = 0.77174 0.21109
# Poissons Ratio (z) = 0.12399 0.15563
#
# Static dielectric constant tensor:
#      x y z
#    x 0.966020 0.000000 -0.086660 
#    y 0.000000 1.651040 0.000000 
#    z -0.086660 0.000000 1.651750 
# 
# From -- ./inp_files/49132.got.cif
#   From: 2010.05.17/outbox.cif.g08.bks.cpg/sg11_25_cif.got.tgz:49132.got - 2010.06.03 12:22:45.
