data_PCOD9164950
_publ_section_title
;
Structure prediction by ZEFSAII (Michael W. Deem and Ramdas Pophale) SiO2 
 PCOD9164950
Probable space group: P 21/M
;
_chemical_formula_sum "Si O2"
_cell_formula_units_Z 32
_cell_length_a 20.268799
_cell_length_b 7.598996
_cell_length_c 26.715874
_cell_angle_alpha 90.000000
_cell_angle_beta 18.766460
_cell_angle_gamma 90.000000
_cell_volume 1323.793325
_symmetry_space_group_name_H-M "P 21/M"
_symmetry_group_IT_number 11
_symmetry_cell_setting 'monoclinic'
loop_
_space_group_symop_operation_xyz
x,y,z
-x,1/2+y,-z
-x,-y,-z
x,1/2-y,z
loop_
_atom_site_type_symbol
_atom_site_label
_atom_site_fract_x
_atom_site_fract_y
_atom_site_fract_z
Si Si1 0.944385 0.534216 0.615870
Si Si2 0.335858 0.451220 0.268863
Si Si3 0.287782 0.042043 0.124107
Si Si4 0.364507 0.466111 0.439260
Si Si5 0.034232 0.540013 0.215526
Si Si6 0.000881 0.037768 0.873323
Si Si7 0.448129 0.534961 0.795078
Si Si8 0.789275 0.046983 0.179927
O O1 0.958685 0.750000 0.602935
O O2 0.751464 0.475416 0.719747
O O3 0.891579 0.474832 0.709592
O O4 0.141061 0.456473 0.446954
O O5 0.393451 0.250000 0.216765
O O6 0.506289 0.532991 0.181995
O O7 0.273463 0.250000 0.134446
O O8 0.237283 0.987266 0.103680
O O9 0.500000 0.000000 0.000000
O O10 0.356906 0.250000 0.445059
O O11 0.393334 0.522394 0.360986
O O12 0.572761 0.530117 0.317096
O O13 0.159204 0.528058 0.613599
O O14 0.017161 0.750000 0.223267
O O15 0.009518 0.473844 0.176446
O O16 0.010409 0.250000 0.865818
O O17 0.781431 0.986758 0.054595
O O18 0.173971 0.977676 0.787299
O O19 0.456047 0.750000 0.791875
O O20 0.764531 0.250000 0.186277
O O21 0.000000 0.000000 0.000000
#
# Coordination Sequence:
#
# PCOD9164950 Si02
#       8
#     4   4   4   4   4   4   4   4
#     4   9  19  34  51  77 110 141 181 236 290 338
#     4   9  17  30  54  79 104 140 185 231 285 344
#     4  11  24  40  59  83 117 157 198 242 290 347
#     4   9  18  34  58  87 117 154 196 239 291 355
#     4  10  22  40  63  88 116 154 201 244 293 357
#     4  10  21  37  59  87 118 152 195 244 295 354
#     4   9  16  29  53  79 107 147 189 232 280 339
#     4  11  21  37  61  89 123 157 198 245 295 352
#
# _framework density 24.172957
#
# number of rings (size 3 to 8) (size 9 to 14) (size 15 to 20)
#    0.000    2.250    1.250    1.500    1.750    3.000 
#    0.000    1.875    0.000    0.000    0.000    0.000 
#    0.000    0.000    0.000    0.000    0.000    0.000 
#
# Total GULP energy -178677.553007 kJ/mol
# GULP energy per Si atom -5583.673531 kJ/mol
# Density = 2.411794 g / cm^3
# Si number density = 24.172957 Si / 1000 Ang^3
#
#
#
# Elastic Constant Matrix: (Units=GPa)
#
#
# Indices 1 2 3 4 5 6 
#
# 1 151.1853 -12.7743 32.2562 0.0000 -4.2868 0.0000
# 2 -12.7743 56.8777 -1.1743 0.0000 2.9004 0.0000
# 3 32.2562 -1.1743 69.3072 0.0000 4.9183 0.0000
# 4 0.0000 0.0000 0.0000 10.4428 0.0000 -2.2897
# 5 -4.2868 2.9004 4.9183 0.0000 44.7685 0.0000
# 6 0.0000 0.0000 0.0000 -2.2897 0.0000 21.1256
#
#
#
# Elastic Compliance Matrix: (Units=1/GPa)
#
#
# Indices 1 2 3 4 5 6 
#
# 1 0.007533 0.001567 -0.003551 0.000000 0.001010 0.000000
# 2 0.001567 0.017976 -0.000356 0.000000 -0.000975 0.000000
# 3 -0.003551 -0.000356 0.016224 0.000000 -0.002099 0.000000
# 4 0.000000 0.000000 0.000000 0.098091 0.000000 0.010631
# 5 0.001010 -0.000975 -0.002099 0.000000 0.022728 0.000000
# 6 0.000000 0.000000 0.000000 0.010631 0.000000 0.048488
#
#
# Mechanical properties :
#
#
# Convention : Reuss Voigt Hill
#
# Bulk Modulus (GPa) = 26.98756 34.88727 30.93742
# Shear Modulus (GPa) = 21.92304 32.53822 27.23063
#
# Velocity S-wave (km/s) = 3.01479 3.67285 3.35997
# Velocity P-wave (km/s) = 4.82775 5.69650 5.28002
#
# Compressibility (1/GPa) = 0.03705410
#
# Stress axis : x y z
#
# Youngs Moduli (GPa) = 132.74775 55.62995 61.63642
#
# Poissons Ratio (x) = -0.08718 0.21888
# Poissons Ratio (y) = -0.20802 0.02191
# Poissons Ratio (z) = 0.47140 0.01978
#
# Static dielectric constant tensor:
#      x y z
#    x 2.033190 0.000000 -0.049550 
#    y 0.000000 1.918680 0.000000 
#    z -0.049550 0.000000 1.968550 
# 
# From -- ./inp_files/71970.got.cif
#   From: 2010.05.17/outbox.cif.g08.bks.cpg/sg11_36_cif.got.tgz:71970.got - 2010.06.03 12:22:45.
