data_PCOD9164629
_publ_section_title
;
Structure prediction by ZEFSAII (Michael W. Deem and Ramdas Pophale) SiO2 
 PCOD9164629
Probable space group: P 21/M
;
_chemical_formula_sum "Si O2"
_cell_formula_units_Z 28
_cell_length_a 8.109532
_cell_length_b 8.910530
_cell_length_c 22.403082
_cell_angle_alpha 90.000000
_cell_angle_beta 48.514418
_cell_angle_gamma 90.000000
_cell_volume 1212.718223
_symmetry_space_group_name_H-M "P 21/M"
_symmetry_group_IT_number 11
_symmetry_cell_setting 'monoclinic'
loop_
_space_group_symop_operation_xyz
x,y,z
-x,1/2+y,-z
-x,-y,-z
x,1/2-y,z
loop_
_atom_site_type_symbol
_atom_site_label
_atom_site_fract_x
_atom_site_fract_y
_atom_site_fract_z
Si Si1 0.762029 0.570839 0.545761
Si Si2 0.820189 0.069668 0.408248
Si Si3 0.207743 0.576944 0.029721
Si Si4 0.331703 0.070927 0.680886
Si Si5 0.698788 0.921760 0.746289
Si Si6 0.302327 0.077818 0.886234
Si Si7 0.908218 0.923731 0.828480
O O1 0.767285 0.750000 0.548690
O O2 0.716638 0.515000 0.489012
O O3 0.569322 0.504329 0.633324
O O4 0.000000 0.500000 0.500000
O O5 0.778245 0.250000 0.418988
O O6 0.086089 0.049328 0.345109
O O7 0.742648 0.995905 0.365434
O O8 0.262681 0.750000 0.027061
O O9 0.945120 0.563456 0.078810
O O10 0.240225 0.481337 0.081588
O O11 0.317140 0.519575 0.942826
O O12 0.350413 0.250000 0.675251
O O13 0.132227 0.019834 0.770899
O O14 0.629165 0.750000 0.753194
O O15 0.791637 0.935176 0.792100
O O16 0.487997 0.027197 0.795251
O O17 0.338635 0.250000 0.893815
O O18 0.965875 0.750000 0.824041
#
# Coordination Sequence:
#
# PCOD9164629 Si02
#       7
#     4   4   4   4   4   4   4
#     4  12  25  41  60  86 118 152 191 237 286 337
#     4  10  21  40  62  86 116 152 192 233 282 341
#     4  10  21  37  56  80 111 148 189 231 280 338
#     4  11  22  39  62  87 115 151 192 234 283 339
#     4   9  20  37  58  83 112 145 183 228 278 332
#     4  10  21  36  56  81 110 146 188 231 278 334
#     4  10  21  38  59  85 114 146 187 233 282 335
#
# _framework density 23.088626999999999
#
# number of rings (size 3 to 8) (size 9 to 14) (size 15 to 20)
#    0.000    1.714    0.000    5.571    0.000    6.857 
#    0.000    2.857    0.000    0.000    0.000    0.000 
#    0.000    0.000    0.000    0.000    0.000    0.000 
#
# Total GULP energy -156741.258744 kJ/mol
# GULP energy per Si atom -5597.902098 kJ/mol
# Density = 2.303608 g / cm^3
# Si number density = 23.088627 Si / 1000 Ang^3
#
#
#
# Elastic Constant Matrix: (Units=GPa)
#
#
# Indices 1 2 3 4 5 6 
#
# 1 43.0151 25.0970 5.0068 0.0000 -2.5221 0.0000
# 2 25.0970 137.5856 40.7589 0.0000 -16.4108 0.0000
# 3 5.0068 40.7589 113.7282 0.0000 -4.6227 0.0000
# 4 0.0000 0.0000 0.0000 37.9502 0.0000 -4.5396
# 5 -2.5221 -16.4108 -4.6227 0.0000 44.6045 0.0000
# 6 0.0000 0.0000 0.0000 -4.5396 0.0000 25.7850
#
#
#
# Elastic Compliance Matrix: (Units=1/GPa)
#
#
# Indices 1 2 3 4 5 6 
#
# 1 0.026059 -0.004973 0.000623 0.000000 -0.000292 0.000000
# 2 -0.004973 0.009418 -0.003040 0.000000 0.002869 0.000000
# 3 0.000623 -0.003040 0.009852 0.000000 -0.000062 0.000000
# 4 0.000000 0.000000 0.000000 0.026917 0.000000 0.004739
# 5 -0.000292 0.002869 -0.000062 0.000000 0.023452 0.000000
# 6 0.000000 0.000000 0.000000 0.004739 0.000000 0.039616
#
#
# Mechanical properties :
#
#
# Convention : Reuss Voigt Hill
#
# Bulk Modulus (GPa) = 32.73243 48.45049 40.59146
# Shear Modulus (GPa) = 31.19581 36.56570 33.88075
#
# Velocity S-wave (km/s) = 3.67976 3.98390 3.83485
# Velocity P-wave (km/s) = 5.67995 6.49555 6.10139
#
# Compressibility (1/GPa) = 0.03055074
#
# Stress axis : x y z
#
# Youngs Moduli (GPa) = 38.37383 106.17961 101.49856
#
# Poissons Ratio (x) = 0.52802 -0.06325
# Poissons Ratio (y) = 0.19083 0.30853
# Poissons Ratio (z) = -0.02391 0.32276
#
# Static dielectric constant tensor:
#      x y z
#    x 1.471630 0.000000 -0.244010 
#    y 0.000000 1.705570 0.000000 
#    z -0.244010 0.000000 1.746560 
# 
# From -- ./inp_files/70841.got.cif
#   From: 2010.05.17/outbox.cif.g08.bks.cpg/sg11_36_cif.got.tgz:70841.got - 2010.06.03 12:22:45.
