data_PCOD9164831
_publ_section_title
;
Structure prediction by ZEFSAII (Michael W. Deem and Ramdas Pophale) SiO2 
 PCOD9164831
Probable space group: P 21/M
;
_chemical_formula_sum "Si O2"
_cell_formula_units_Z 32
_cell_length_a 11.954121
_cell_length_b 8.836367
_cell_length_c 24.667844
_cell_angle_alpha 90.000000
_cell_angle_beta 137.190010
_cell_angle_gamma 90.000000
_cell_volume 1770.746082
_symmetry_space_group_name_H-M "P 21/M"
_symmetry_group_IT_number 11
_symmetry_cell_setting 'monoclinic'
loop_
_space_group_symop_operation_xyz
x,y,z
-x,1/2+y,-z
-x,-y,-z
x,1/2-y,z
loop_
_atom_site_type_symbol
_atom_site_label
_atom_site_fract_x
_atom_site_fract_y
_atom_site_fract_z
Si Si1 0.732402 0.069984 0.466496
Si Si2 0.984253 0.431915 0.859533
Si Si3 0.160387 0.430837 0.027990
Si Si4 0.710681 0.931620 0.347238
Si Si5 0.660171 0.431780 0.813685
Si Si6 0.966730 0.930782 0.345934
Si Si7 0.075307 0.070407 0.275152
Si Si8 0.434749 0.930428 0.420637
O O1 0.704809 0.250000 0.458082
O O2 0.871198 0.033954 0.560477
O O3 0.782918 0.017167 0.424751
O O4 0.566359 0.982059 0.422805
O O5 0.978952 0.250000 0.850004
O O6 0.810407 0.475898 0.826901
O O7 0.999988 0.512982 0.807981
O O8 0.130048 0.467268 0.954092
O O9 0.158209 0.250000 0.032320
O O10 0.308167 0.497807 0.115787
O O11 0.000000 0.500000 0.000000
O O12 0.723142 0.750000 0.360328
O O13 0.518952 0.972635 0.272186
O O14 0.811769 0.966981 0.328867
O O15 0.668006 0.250000 0.821381
O O16 0.968171 0.750000 0.336280
O O17 0.975598 0.016472 0.292460
O O18 0.092332 0.250000 0.281180
O O19 0.255338 0.994647 0.344187
O O20 0.427442 0.750000 0.421939
O O21 0.500000 0.000000 0.500000
#
# Coordination Sequence:
#
# PCOD9164831 Si02
#       8
#     4   4   4   4   4   4   4   4
#     4  11  22  36  56  81 107 141 183 228 275 320
#     4   9  18  33  53  80 113 145 173 211 266 325
#     4   9  17  30  52  80 110 142 171 208 265 321
#     4  10  21  37  57  80 107 145 185 224 271 319
#     4   9  18  33  54  81 111 141 174 214 266 321
#     4  10  22  39  56  74 105 147 187 227 272 320
#     4  12  24  36  55  81 108 143 183 225 273 321
#     4  12  23  37  56  78 107 141 177 220 270 324
#
# _framework density 18.071477999999999
#
# number of rings (size 3 to 8) (size 9 to 14) (size 15 to 20)
#    0.000    1.750    1.250    4.875    0.000    5.000 
#    0.000    0.000    0.000    0.750    0.000    0.000 
#    0.000    0.000    0.000    0.000    0.000    0.000 
#
# Total GULP energy -178696.269056 kJ/mol
# GULP energy per Si atom -5584.258408 kJ/mol
# Density = 1.803035 g / cm^3
# Si number density = 18.071478 Si / 1000 Ang^3
#
#
#
# Elastic Constant Matrix: (Units=GPa)
#
#
# Indices 1 2 3 4 5 6 
#
# 1 70.3886 31.7025 30.0112 0.0000 -23.3397 0.0000
# 2 31.7025 63.2443 45.7218 0.0000 -20.7197 0.0000
# 3 30.0112 45.7218 102.6456 0.0000 -36.2775 0.0000
# 4 0.0000 0.0000 0.0000 30.6506 0.0000 -7.7378
# 5 -23.3397 -20.7197 -36.2775 0.0000 25.5672 0.0000
# 6 0.0000 0.0000 0.0000 -7.7378 0.0000 23.6483
#
#
#
# Elastic Compliance Matrix: (Units=1/GPa)
#
#
# Indices 1 2 3 4 5 6 
#
# 1 0.022578 -0.007542 0.003776 0.000000 0.019857 0.000000
# 2 -0.007542 0.026764 -0.008995 0.000000 0.002042 0.000000
# 3 0.003776 -0.008995 0.022641 0.000000 0.028282 0.000000
# 4 0.000000 0.000000 0.000000 0.035563 0.000000 0.011637
# 5 0.019857 0.002042 0.028282 0.000000 0.099024 0.000000
# 6 0.000000 0.000000 0.000000 0.011637 0.000000 0.046094
#
#
# Mechanical properties :
#
#
# Convention : Reuss Voigt Hill
#
# Bulk Modulus (GPa) = 21.52367 50.12771 35.82569
# Shear Modulus (GPa) = 17.02577 24.56277 20.79427
#
# Velocity S-wave (km/s) = 3.07275 3.69073 3.39583
# Velocity P-wave (km/s) = 4.95229 6.77944 5.93658
#
# Compressibility (1/GPa) = 0.04646049
#
# Stress axis : x y z
#
# Youngs Moduli (GPa) = 44.29098 37.36361 44.16858
#
# Poissons Ratio (x) = 0.28181 -0.16679
# Poissons Ratio (y) = 0.33405 0.39729
# Poissons Ratio (z) = -0.16725 0.33608
#
# Static dielectric constant tensor:
#      x y z
#    x 1.619020 0.000000 -0.016390 
#    y 0.000000 1.599020 0.000000 
#    z -0.016390 0.000000 1.626590 
# 
# From -- ./inp_files/64466.got.cif
#   From: 2010.05.17/outbox.cif.g08.bks.cpg/sg11_33_cif.got.tgz:64466.got - 2010.06.03 12:22:45.
