data_PCOD9164473
_publ_section_title
;
Structure prediction by ZEFSAII (Michael W. Deem and Ramdas Pophale) SiO2 
 PCOD9164473
Probable space group: P 21/M
;
_chemical_formula_sum "Si O2"
_cell_formula_units_Z 32
_cell_length_a 20.169405
_cell_length_b 9.048917
_cell_length_c 26.365341
_cell_angle_alpha 90.000000
_cell_angle_beta 18.129365
_cell_angle_gamma 90.000000
_cell_volume 1497.310232
_symmetry_space_group_name_H-M "P 21/M"
_symmetry_group_IT_number 11
_symmetry_cell_setting 'monoclinic'
loop_
_space_group_symop_operation_xyz
x,y,z
-x,1/2+y,-z
-x,-y,-z
x,1/2-y,z
loop_
_atom_site_type_symbol
_atom_site_label
_atom_site_fract_x
_atom_site_fract_y
_atom_site_fract_z
Si Si1 0.167532 0.421418 0.841781
Si Si2 0.181038 0.923173 0.294733
Si Si3 0.807181 0.079818 0.025855
Si Si4 0.943304 0.572650 0.714360
Si Si5 0.442175 0.426976 0.488014
Si Si6 0.237224 0.921521 0.360796
Si Si7 0.417723 0.581218 0.338436
Si Si8 0.955645 0.428054 0.810689
O O1 0.199703 0.250000 0.831879
O O2 0.387042 0.507197 0.675427
O O3 0.041994 0.424479 0.879232
O O4 0.000000 0.500000 0.000000
O O5 0.196001 0.750000 0.272162
O O6 0.321427 0.956023 0.243072
O O7 0.194702 0.013651 0.232819
O O8 0.949593 0.967453 0.486185
O O9 0.739379 0.250000 0.072133
O O10 0.829184 0.022491 0.952700
O O11 0.638152 0.001672 0.185271
O O12 0.937720 0.750000 0.718206
O O13 0.191500 0.524666 0.524024
O O14 0.883232 0.506133 0.811989
O O15 0.500000 0.500000 0.500000
O O16 0.462278 0.250000 0.477567
O O17 0.204241 0.461301 0.641786
O O18 0.155367 0.750000 0.418176
O O19 0.392185 0.923438 0.295804
O O20 0.436545 0.750000 0.341441
O O21 0.936610 0.250000 0.819662
#
# Coordination Sequence:
#
# PCOD9164473 Si02
#       8
#     4   4   4   4   4   4   4   4
#     4  11  24  42  60  85 115 146 185 232 281 331
#     4   9  15  26  48  75 105 142 178 218 270 321
#     4  10  22  40  57  77 109 145 180 222 270 325
#     4  10  21  35  52  81 113 141 179 228 272 317
#     4  11  22  40  63  86 111 145 185 230 278 333
#     4   8  15  28  46  73 108 141 177 222 268 316
#     4   9  19  34  52  79 112 142 177 222 269 320
#     4  10  22  40  58  78 107 144 183 223 271 325
#
# _framework density 21.371658
#
# number of rings (size 3 to 8) (size 9 to 14) (size 15 to 20)
#    0.000    2.250    1.250    2.250    1.750    5.500 
#    0.000    0.000    0.000    0.750    0.000    0.000 
#    0.000    0.000    0.000    0.000    0.000    0.000 
#
# Total GULP energy -178527.520718 kJ/mol
# GULP energy per Si atom -5578.985022 kJ/mol
# Density = 2.132302 g / cm^3
# Si number density = 21.371658 Si / 1000 Ang^3
#
#
#
# Elastic Constant Matrix: (Units=GPa)
#
#
# Indices 1 2 3 4 5 6 
#
# 1 99.9595 12.7645 -5.4460 0.0000 28.2762 0.0000
# 2 12.7645 39.5236 11.6004 0.0000 10.2152 0.0000
# 3 -5.4460 11.6004 51.0752 0.0000 17.1102 0.0000
# 4 0.0000 0.0000 0.0000 17.7436 0.0000 2.9954
# 5 28.2762 10.2152 17.1102 0.0000 27.8144 0.0000
# 6 0.0000 0.0000 0.0000 2.9954 0.0000 28.8084
#
#
#
# Elastic Compliance Matrix: (Units=1/GPa)
#
#
# Indices 1 2 3 4 5 6 
#
# 1 0.017384 -0.002664 0.010141 0.000000 -0.022932 0.000000
# 2 -0.002664 0.028919 -0.005292 0.000000 -0.004658 0.000000
# 3 0.010141 -0.005292 0.031067 0.000000 -0.027477 0.000000
# 4 0.000000 0.000000 0.000000 0.057365 0.000000 -0.005965
# 5 -0.022932 -0.004658 -0.027477 0.000000 0.077879 0.000000
# 6 0.000000 0.000000 0.000000 -0.005965 0.000000 0.035332
#
#
# Mechanical properties :
#
#
# Convention : Reuss Voigt Hill
#
# Bulk Modulus (GPa) = 12.23391 25.37735 18.80563
# Shear Modulus (GPa) = 18.46238 26.31592 22.38915
#
# Velocity S-wave (km/s) = 2.94236 3.51286 3.24019
# Velocity P-wave (km/s) = 4.15693 5.32482 4.77670
#
# Compressibility (1/GPa) = 0.08174001
#
# Stress axis : x y z
#
# Youngs Moduli (GPa) = 57.52527 34.57992 32.18858
#
# Poissons Ratio (x) = 0.09211 -0.32642
# Poissons Ratio (y) = 0.15322 0.17034
# Poissons Ratio (z) = -0.58336 0.18299
#
# Static dielectric constant tensor:
#      x y z
#    x 1.856840 0.000000 -0.006270 
#    y 0.000000 1.735050 0.000000 
#    z -0.006270 0.000000 1.768590 
# 
# From -- ./inp_files/67238.got.cif
#   From: 2010.05.17/outbox.cif.g08.bks.cpg/sg11_34_cif.got.tgz:67238.got - 2010.06.03 12:22:45.
