data_PCOD9164577
_publ_section_title
;
Structure prediction by ZEFSAII (Michael W. Deem and Ramdas Pophale) SiO2 
 PCOD9164577
Probable space group: P 21/M
;
_chemical_formula_sum "Si O2"
_cell_formula_units_Z 28
_cell_length_a 17.583155
_cell_length_b 7.821157
_cell_length_c 20.471138
_cell_angle_alpha 90.000000
_cell_angle_beta 30.737495
_cell_angle_gamma 90.000000
_cell_volume 1438.866010
_symmetry_space_group_name_H-M "P 21/M"
_symmetry_group_IT_number 11
_symmetry_cell_setting 'monoclinic'
loop_
_space_group_symop_operation_xyz
x,y,z
-x,1/2+y,-z
-x,-y,-z
x,1/2-y,z
loop_
_atom_site_type_symbol
_atom_site_label
_atom_site_fract_x
_atom_site_fract_y
_atom_site_fract_z
Si Si1 0.322090 0.455194 0.840943
Si Si2 0.556708 0.455940 0.768014
Si Si3 0.973950 0.042324 0.858334
Si Si4 0.148544 0.044403 0.849649
Si Si5 0.052780 0.951516 0.268294
Si Si6 0.607843 0.954634 0.979698
Si Si7 0.098818 0.452924 0.489619
O O1 0.334645 0.250000 0.826258
O O2 0.469768 0.520126 0.767902
O O3 0.280140 0.521547 0.799498
O O4 0.181387 0.490228 0.992557
O O5 0.546490 0.250000 0.775627
O O6 0.467212 0.517276 0.897786
O O7 0.729118 0.500033 0.645008
O O8 0.974166 0.250000 0.857327
O O9 0.981392 0.977352 0.778725
O O10 0.108826 0.983764 0.806076
O O11 0.162532 0.250000 0.835913
O O12 0.000000 0.000000 0.000000
O O13 0.016877 0.750000 0.291375
O O14 0.967009 0.026465 0.393977
O O15 0.228736 0.969913 0.149853
O O16 0.623445 0.750000 0.971751
O O17 0.500000 0.000000 0.000000
O O18 0.089434 0.250000 0.501343
O O19 0.000000 0.500000 0.500000
#
# Coordination Sequence:
#
# PCOD9164577 Si02
#       7
#     4   4   4   4   4   4   4
#     4   9  16  29  48  74 106 134 165 205 248 296
#     4  10  21  36  53  75 104 135 169 210 252 302
#     4   9  16  28  48  75 104 133 166 204 249 300
#     4   8  14  24  43  71 102 134 163 197 244 295
#     4  10  21  36  53  75 104 133 168 212 256 305
#     4  11  22  35  53  77 102 130 165 209 261 308
#     4  11  24  40  56  74  98 134 175 215 258 307
#
# _framework density 19.459769999999999
#
# number of rings (size 3 to 8) (size 9 to 14) (size 15 to 20)
#    0.000    2.286    1.429    1.714    0.000    6.286 
#    0.000    0.000    0.000    0.857    0.000    0.000 
#    0.000    0.000    0.000    0.000    0.000    0.143 
#
# Total GULP energy -156125.924426 kJ/mol
# GULP energy per Si atom -5575.925872 kJ/mol
# Density = 1.941548 g / cm^3
# Si number density = 19.459770 Si / 1000 Ang^3
#
#
#
# Elastic Constant Matrix: (Units=GPa)
#
#
# Indices 1 2 3 4 5 6 
#
# 1 131.2286 -5.6865 -0.1860 0.0000 -16.1218 0.0000
# 2 -5.6865 21.6830 -10.7598 0.0000 -0.3929 0.0000
# 3 -0.1860 -10.7598 45.1281 0.0000 -9.0102 0.0000
# 4 0.0000 0.0000 0.0000 18.8530 0.0000 -1.8191
# 5 -16.1218 -0.3929 -9.0102 0.0000 25.8296 0.0000
# 6 0.0000 0.0000 0.0000 -1.8191 0.0000 14.6659
#
#
#
# Elastic Compliance Matrix: (Units=1/GPa)
#
#
# Indices 1 2 3 4 5 6 
#
# 1 0.008516 0.003361 0.002051 0.000000 0.006082 0.000000
# 2 0.003361 0.054380 0.014579 0.000000 0.008011 0.000000
# 3 0.002051 0.014579 0.027886 0.000000 0.011229 0.000000
# 4 0.000000 0.000000 0.000000 0.053684 0.000000 0.006659
# 5 0.006082 0.008011 0.011229 0.000000 0.046550 0.000000
# 6 0.000000 0.000000 0.000000 0.006659 0.000000 0.069011
#
#
# Mechanical properties :
#
#
# Convention : Reuss Voigt Hill
#
# Bulk Modulus (GPa) = 7.64734 18.30835 12.97784
# Shear Modulus (GPa) = 18.96568 26.18117 22.57343
#
# Velocity S-wave (km/s) = 3.12526 3.67195 3.40958
# Velocity P-wave (km/s) = 4.11842 5.23511 4.70997
#
# Compressibility (1/GPa) = 0.13076438
#
# Stress axis : x y z
#
# Youngs Moduli (GPa) = 117.42567 18.38899 35.86073
#
# Poissons Ratio (x) = -0.06181 -0.07354
# Poissons Ratio (y) = -0.39470 -0.52282
# Poissons Ratio (z) = -0.24082 -0.26809
#
# Static dielectric constant tensor:
#      x y z
#    x 1.741650 0.000000 0.021060 
#    y 0.000000 1.746350 0.000000 
#    z 0.021060 0.000000 1.649530 
# 
# From -- ./inp_files/57521.got.cif
#   From: 2010.05.17/outbox.cif.g08.bks.cpg/sg11_29_cif.got.tgz:57521.got - 2010.06.03 12:22:45.
