data_PCOD9164383
_publ_section_title
;
Structure prediction by ZEFSAII (Michael W. Deem and Ramdas Pophale) SiO2 
 PCOD9164383
Probable space group: P 21/M
;
_chemical_formula_sum "Si O2"
_cell_formula_units_Z 32
_cell_length_a 11.900111
_cell_length_b 14.016658
_cell_length_c 19.974599
_cell_angle_alpha 90.000000
_cell_angle_beta 152.474745
_cell_angle_gamma 90.000000
_cell_volume 1539.737523
_symmetry_space_group_name_H-M "P 21/M"
_symmetry_group_IT_number 11
_symmetry_cell_setting 'monoclinic'
loop_
_space_group_symop_operation_xyz
x,y,z
-x,1/2+y,-z
-x,-y,-z
x,1/2-y,z
loop_
_atom_site_type_symbol
_atom_site_label
_atom_site_fract_x
_atom_site_fract_y
_atom_site_fract_z
Si Si1 0.767859 0.040774 0.939816
Si Si2 0.191668 0.991486 0.260086
Si Si3 0.501207 0.360590 0.183089
Si Si4 0.558022 0.362058 0.708499
Si Si5 0.023934 0.364878 0.422585
Si Si6 0.086342 0.360670 0.303186
Si Si7 0.220223 0.360554 0.894953
Si Si8 0.443534 0.639210 0.047276
O O1 0.672894 0.935042 0.871850
O O2 0.747143 0.109409 0.865860
O O3 0.586622 0.079162 0.901817
O O4 0.027499 0.035186 0.113072
O O5 0.389402 0.926031 0.328664
O O6 0.006254 0.923531 0.202839
O O7 0.256727 0.075138 0.345960
O O8 0.482406 0.250000 0.195612
O O9 0.779872 0.395809 0.330566
O O10 0.409188 0.362271 0.057043
O O11 0.574160 0.250000 0.701083
O O12 0.287382 0.383474 0.592802
O O13 0.993730 0.250000 0.402481
O O14 0.048030 0.397125 0.358302
O O15 0.165833 0.250000 0.347584
O O16 0.818745 0.363275 0.127897
O O17 0.150338 0.250000 0.849064
O O18 0.355894 0.394413 0.899796
O O19 0.493207 0.750000 0.089838
#
# Coordination Sequence:
#
# PCOD9164383 Si02
#       8
#     4   4   4   4   4   4   4   4
#     4  10  21  33  53  77 103 132 170 207 254 300
#     4  10  21  33  53  77 103 132 170 207 254 300
#     4   9  17  31  52  79 104 128 166 212 256 295
#     4  11  23  39  52  69 102 142 177 203 237 300
#     4   9  18  33  54  75 101 136 170 205 245 296
#     4   9  17  31  52  79 104 128 166 212 256 295
#     4   9  16  28  50  80 108 129 157 208 266 305
#     4   9  16  28  50  80 108 129 157 208 266 305
#
# _framework density 20.782762000000002
#
# number of rings (size 3 to 8) (size 9 to 14) (size 15 to 20)
#    0.000    2.500    1.250    1.125    1.750    3.500 
#    0.000    0.625    0.000    0.000    0.000    1.750 
#    0.000    0.000    0.000    0.000    0.000    0.000 
#
# Total GULP energy -178588.900108 kJ/mol
# GULP energy per Si atom -5580.903128 kJ/mol
# Density = 2.073546 g / cm^3
# Si number density = 20.782762 Si / 1000 Ang^3
#
#
#
# Elastic Constant Matrix: (Units=GPa)
#
#
# Indices 1 2 3 4 5 6 
#
# 1 41.2586 6.3317 1.9325 0.0000 0.9358 0.0000
# 2 6.3317 57.3322 10.1441 0.0000 -2.1518 0.0000
# 3 1.9325 10.1441 31.3003 0.0000 -0.6754 0.0000
# 4 0.0000 0.0000 0.0000 10.5460 0.0000 2.4835
# 5 0.9358 -2.1518 -0.6754 0.0000 17.8886 0.0000
# 6 0.0000 0.0000 0.0000 2.4835 0.0000 31.8304
#
#
#
# Elastic Compliance Matrix: (Units=1/GPa)
#
#
# Indices 1 2 3 4 5 6 
#
# 1 0.024717 -0.002668 -0.000697 0.000000 -0.001640 0.000000
# 2 -0.002668 0.018863 -0.005901 0.000000 0.002186 0.000000
# 3 -0.000697 -0.005901 0.033917 0.000000 0.000607 0.000000
# 4 0.000000 0.000000 0.000000 0.096598 0.000000 -0.007537
# 5 -0.001640 0.002186 0.000607 0.000000 0.056273 0.000000
# 6 0.000000 0.000000 0.000000 -0.007537 0.000000 0.032005
#
#
# Mechanical properties :
#
#
# Convention : Reuss Voigt Hill
#
# Bulk Modulus (GPa) = 16.95929 18.52307 17.74118
# Shear Modulus (GPa) = 16.63564 19.48519 18.06042
#
# Velocity S-wave (km/s) = 2.83230 3.06529 2.95109
# Velocity P-wave (km/s) = 4.34441 4.63250 4.49076
#
# Compressibility (1/GPa) = 0.05896474
#
# Stress axis : x y z
#
# Youngs Moduli (GPa) = 40.45862 53.01375 29.48348
#
# Poissons Ratio (x) = 0.14144 0.02054
# Poissons Ratio (y) = 0.10794 0.17399
# Poissons Ratio (z) = 0.02819 0.31286
#
# Static dielectric constant tensor:
#      x y z
#    x 1.747690 0.000000 0.012710 
#    y 0.000000 1.783120 0.000000 
#    z 0.012710 0.000000 1.749230 
# 
# From -- ./inp_files/59538.got.cif
#   From: 2010.05.17/outbox.cif.g08.bks.cpg/sg11_30_cif.got.tgz:59538.got - 2010.06.03 12:22:45.
