data_PCOD9164373
_publ_section_title
;
Structure prediction by ZEFSAII (Michael W. Deem and Ramdas Pophale) SiO2 
 PCOD9164373
Probable space group: P 21/M
;
_chemical_formula_sum "Si O2"
_cell_formula_units_Z 18
_cell_length_a 10.025168
_cell_length_b 19.808702
_cell_length_c 4.913274
_cell_angle_alpha 90.000000
_cell_angle_beta 136.513346
_cell_angle_gamma 90.000000
_cell_volume 671.466329
_symmetry_space_group_name_H-M "P 21/M"
_symmetry_group_IT_number 11
_symmetry_cell_setting 'monoclinic'
loop_
_space_group_symop_operation_xyz
x,y,z
-x,1/2+y,-z
-x,-y,-z
x,1/2-y,z
loop_
_atom_site_type_symbol
_atom_site_label
_atom_site_fract_x
_atom_site_fract_y
_atom_site_fract_z
Si Si1 0.811813 0.676021 0.897007
Si Si2 0.812459 0.250000 0.630129
Si Si3 0.895754 0.946846 0.639606
Si Si4 0.706387 0.058547 0.037109
Si Si5 0.537382 0.372243 0.297522
O O1 0.739052 0.750000 0.679065
O O2 0.815020 0.614358 0.694201
O O3 0.676191 0.654694 0.944969
O O4 0.036600 0.693116 0.275869
O O5 0.679023 0.309323 0.567655
O O6 0.069472 0.924184 0.699385
O O7 0.734852 0.986705 0.228102
O O8 0.000000 0.000000 0.000000
O O9 0.594657 0.106548 0.079635
O O10 0.597793 0.067747 0.591587
#
# Coordination Sequence:
#
# PCOD9164373 Si02
#       5
#     4   2   4   4   4
#     4  10  23  45  73 107 140 193 242 297 362 438
#     4  10  20  48  70 100 146 186 234 302 360 424
#     4  11  22  47  76 108 144 195 242 290 370 423
#     4  11  24  44  74 100 148 184 235 303 346 430
#     4  12  24  48  70 108 138 191 239 298 361 423
#
# _framework density 26.807003000000002
#
# number of rings (size 3 to 8) (size 9 to 14) (size 15 to 20)
#    0.667    0.444    5.556    0.000    0.000    2.667 
#   14.000    0.000    0.000    0.000    0.000    0.000 
#    0.000    0.000    0.000    0.000    0.000    0.000 
#
# Total GULP energy -100305.862458 kJ/mol
# GULP energy per Si atom -5572.547914 kJ/mol
# Density = 2.674599 g / cm^3
# Si number density = 26.807003 Si / 1000 Ang^3
#
#
#
# Elastic Constant Matrix: (Units=GPa)
#
#
# Indices 1 2 3 4 5 6 
#
# 1 234.8259 83.8234 42.4772 0.0000 17.5476 0.0000
# 2 83.8234 165.0638 43.7085 0.0000 3.9691 0.0000
# 3 42.4772 43.7085 105.2601 0.0000 -4.2306 0.0000
# 4 0.0000 0.0000 0.0000 -0.7573 0.0000 10.4338
# 5 17.5476 3.9691 -4.2306 0.0000 42.2136 0.0000
# 6 0.0000 0.0000 0.0000 10.4338 0.0000 71.3554
#
#
#
# Elastic Compliance Matrix: (Units=1/GPa)
#
#
# Indices 1 2 3 4 5 6 
#
# 1 0.005518 -0.002400 -0.001319 0.000000 -0.002200 0.000000
# 2 -0.002400 0.007887 -0.002305 0.000000 0.000025 0.000000
# 3 -0.001319 -0.002305 0.011065 0.000000 0.001874 0.000000
# 4 0.000000 0.000000 0.000000 -0.438021 0.000000 0.064049
# 5 -0.002200 0.000025 0.001874 0.000000 0.024789 0.000000
# 6 0.000000 0.000000 0.000000 0.064049 0.000000 0.004649
#
#
# Mechanical properties :
#
#
# Convention : Reuss Voigt Hill
#
# Bulk Modulus (GPa) = 80.50396 93.90757 87.20576
# Shear Modulus (GPa) = -13.58979 44.90505 15.65763
#
# Velocity S-wave (km/s) = -2.25400 4.09727 2.41941
# Velocity P-wave (km/s) = 4.82930 7.58225 6.35660
#
# Compressibility (1/GPa) = 0.01242175
#
# Stress axis : x y z
#
# Youngs Moduli (GPa) = 181.21881 126.79074 90.37493
#
# Poissons Ratio (x) = 0.30432 0.11917
# Poissons Ratio (y) = 0.43496 0.20835
# Poissons Ratio (z) = 0.23896 0.29231
#
# Static dielectric constant tensor:
#      x y z
#    x 1.985800 0.000000 0.031580 
#    y 0.000000 2.079970 0.000000 
#    z 0.031580 0.000000 2.191870 
# 
# From -- ./inp_files/2463.got.cif
#   From: 2010.05.17/outbox.cif.g08.bks.cpg/sg11_2_cif.got.tgz:2463.got - 2010.06.03 12:22:45.
