data_PCOD9164007
_publ_section_title
;
Structure prediction by ZEFSAII (Michael W. Deem and Ramdas Pophale) SiO2 
 PCOD9164007
Probable space group: P 21/M
;
_chemical_formula_sum "Si O2"
_cell_formula_units_Z 24
_cell_length_a 22.896033
_cell_length_b 13.155040
_cell_length_c 9.142194
_cell_angle_alpha 90.000000
_cell_angle_beta 152.013075
_cell_angle_gamma 90.000000
_cell_volume 1292.187975
_symmetry_space_group_name_H-M "P 21/M"
_symmetry_group_IT_number 11
_symmetry_cell_setting 'monoclinic'
loop_
_space_group_symop_operation_xyz
x,y,z
-x,1/2+y,-z
-x,-y,-z
x,1/2-y,z
loop_
_atom_site_type_symbol
_atom_site_label
_atom_site_fract_x
_atom_site_fract_y
_atom_site_fract_z
Si Si1 0.957529 0.041693 0.248981
Si Si2 0.816956 0.866210 0.763218
Si Si3 0.440320 0.459588 0.719318
Si Si4 0.612350 0.037445 0.851049
Si Si5 0.803347 0.868739 0.383488
Si Si6 0.297248 0.864752 0.228904
O O1 0.070698 0.096592 0.418142
O O2 0.842105 0.116559 0.022962
O O3 0.000000 0.000000 0.500000
O O4 0.904912 0.947782 0.036865
O O5 0.853095 0.750000 0.875710
O O6 0.675863 0.886615 0.505529
O O7 0.818055 0.881034 0.590683
O O8 0.546378 0.414804 0.847291
O O9 0.382229 0.556645 0.506566
O O10 0.500000 0.500000 0.000000
O O11 0.692775 0.107750 0.921202
O O12 0.500000 0.000000 0.500000
O O13 0.694648 0.942419 0.085858
O O14 0.776779 0.750000 0.294889
O O15 0.338166 0.750000 0.343245
#
# Coordination Sequence:
#
# PCOD9164007 Si02
#       6
#     4   4   4   4   4   4
#     4  11  22  41  62  88 121 154 198 256 297 350
#     4  10  23  40  63  91 120 159 203 247 301 361
#     4  10  20  38  63  87 123 153 198 251 295 352
#     4  10  21  38  58  89 122 158 193 244 295 349
#     4  11  22  40  65  89 119 162 202 242 302 361
#     4  10  22  39  58  85 119 158 198 243 299 353
#
# _framework density 18.573149999999998
#
# number of rings (size 3 to 8) (size 9 to 14) (size 15 to 20)
#    0.000    1.667    3.333    1.000    0.000    5.333 
#    0.000    0.000    0.000    0.000    0.000    0.000 
#    0.000    0.000    0.000    0.000    0.000    0.000 
#
# Total GULP energy -133959.900115 kJ/mol
# GULP energy per Si atom -5581.662505 kJ/mol
# Density = 1.853088 g / cm^3
# Si number density = 18.573150 Si / 1000 Ang^3
#
#
#
# Elastic Constant Matrix: (Units=GPa)
#
#
# Indices 1 2 3 4 5 6 
#
# 1 148.0308 31.7635 27.8407 0.0000 6.2924 0.0000
# 2 31.7635 70.8753 10.3704 0.0000 -3.9641 0.0000
# 3 27.8407 10.3704 62.4967 0.0000 -1.0869 0.0000
# 4 0.0000 0.0000 0.0000 13.7436 0.0000 -7.9251
# 5 6.2924 -3.9641 -1.0869 0.0000 31.9428 0.0000
# 6 0.0000 0.0000 0.0000 -7.9251 0.0000 19.0510
#
#
#
# Elastic Compliance Matrix: (Units=1/GPa)
#
#
# Indices 1 2 3 4 5 6 
#
# 1 0.008142 -0.003312 -0.003114 0.000000 -0.002121 0.000000
# 2 -0.003312 0.015902 -0.001118 0.000000 0.002588 0.000000
# 3 -0.003114 -0.001118 0.017592 0.000000 0.001073 0.000000
# 4 0.000000 0.000000 0.000000 0.095723 0.000000 0.039820
# 5 -0.002121 0.002588 0.001073 0.000000 0.032081 0.000000
# 6 0.000000 0.000000 0.000000 0.039820 0.000000 0.069056
#
#
# Mechanical properties :
#
#
# Convention : Reuss Voigt Hill
#
# Bulk Modulus (GPa) = 37.66875 46.81689 42.24282
# Shear Modulus (GPa) = 19.05239 27.04268 23.04753
#
# Velocity S-wave (km/s) = 3.20629 3.81991 3.52647
# Velocity P-wave (km/s) = 5.83373 6.68708 6.27493
#
# Compressibility (1/GPa) = 0.02654721
#
# Stress axis : x y z
#
# Youngs Moduli (GPa) = 122.82230 62.88562 56.84259
#
# Poissons Ratio (x) = 0.20826 0.17703
# Poissons Ratio (y) = 0.40676 0.06357
# Poissons Ratio (z) = 0.38251 0.07033
#
# Static dielectric constant tensor:
#      x y z
#    x 1.674200 0.000000 0.007480 
#    y 0.000000 1.610380 0.000000 
#    z 0.007480 0.000000 1.727270 
# 
# From -- ./inp_files/16941.got.cif
#   From: 2010.05.17/outbox.cif.g08.bks.cpg/sg11_9_cif.got.tgz:16941.got - 2010.06.03 12:22:45.
