data_PCOD9164989
_publ_section_title
;
Structure prediction by ZEFSAII (Michael W. Deem and Ramdas Pophale) SiO2 
 PCOD9164989
Probable space group: P 21/M
;
_chemical_formula_sum "Si O2"
_cell_formula_units_Z 28
_cell_length_a 14.970079
_cell_length_b 8.675449
_cell_length_c 22.149416
_cell_angle_alpha 90.000000
_cell_angle_beta 149.885004
_cell_angle_gamma 90.000000
_cell_volume 1443.293304
_symmetry_space_group_name_H-M "P 21/M"
_symmetry_group_IT_number 11
_symmetry_cell_setting 'monoclinic'
loop_
_space_group_symop_operation_xyz
x,y,z
-x,1/2+y,-z
-x,-y,-z
x,1/2-y,z
loop_
_atom_site_type_symbol
_atom_site_label
_atom_site_fract_x
_atom_site_fract_y
_atom_site_fract_z
Si Si1 0.198874 0.435395 0.114907
Si Si2 0.414398 0.564004 0.889562
Si Si3 0.529639 0.937582 0.826907
Si Si4 0.843793 0.065161 0.450831
Si Si5 0.393420 0.565355 0.346335
Si Si6 0.758099 0.066004 0.612763
Si Si7 0.996460 0.065784 0.337265
O O1 0.193835 0.250000 0.112712
O O2 0.302923 0.486699 0.115108
O O3 0.310454 0.492897 0.237958
O O4 0.000000 0.500000 0.000000
O O5 0.421055 0.750000 0.894573
O O6 0.513390 0.510259 0.886586
O O7 0.206149 0.519939 0.766537
O O8 0.500000 0.500000 0.000000
O O9 0.531537 0.750000 0.829116
O O10 0.347673 0.983529 0.686665
O O11 0.850819 0.250000 0.453791
O O12 0.000000 0.000000 0.500000
O O13 0.878718 0.005071 0.538217
O O14 0.404126 0.750000 0.346261
O O15 0.272210 0.529949 0.334428
O O16 0.587500 0.500504 0.477106
O O17 0.760641 0.250000 0.607571
O O18 0.933550 0.994790 0.685756
O O19 0.007677 0.250000 0.345876
#
# Coordination Sequence:
#
# PCOD9164989 Si02
#       7
#     4   4   4   4   4   4   4
#     4  11  23  40  63  87 117 159 205 254 303 358
#     4  10  22  41  59  80 113 152 196 240 289 350
#     4   9  20  40  61  82 116 156 191 239 301 354
#     4  11  20  35  60  89 120 154 195 242 300 363
#     4  10  21  39  61  87 120 156 198 248 302 359
#     4  10  21  37  60  89 121 157 195 241 302 363
#     4  11  22  37  58  87 121 155 196 247 295 350
#
# _framework density 19.400075000000001
#
# number of rings (size 3 to 8) (size 9 to 14) (size 15 to 20)
#    0.000    1.714    1.429    3.000    0.000    5.143 
#    0.000    7.857    0.000    0.000    0.000    0.000 
#    0.000    0.000    0.000    0.000    0.000    0.000 
#
# Total GULP energy -156466.237873 kJ/mol
# GULP energy per Si atom -5588.079924 kJ/mol
# Density = 1.935592 g / cm^3
# Si number density = 19.400075 Si / 1000 Ang^3
#
#
#
# Elastic Constant Matrix: (Units=GPa)
#
#
# Indices 1 2 3 4 5 6 
#
# 1 183.4396 42.0419 68.7351 0.0000 4.6263 0.0000
# 2 42.0419 43.0722 21.8489 0.0000 -0.4380 0.0000
# 3 68.7351 21.8489 86.1449 0.0000 -11.2400 0.0000
# 4 0.0000 0.0000 0.0000 31.4432 0.0000 -1.7444
# 5 4.6263 -0.4380 -11.2400 0.0000 30.9609 0.0000
# 6 0.0000 0.0000 0.0000 -1.7444 0.0000 33.8975
#
#
#
# Elastic Compliance Matrix: (Units=1/GPa)
#
#
# Indices 1 2 3 4 5 6 
#
# 1 0.009299 -0.005852 -0.006432 0.000000 -0.003807 0.000000
# 2 -0.005852 0.030469 -0.003032 0.000000 0.000205 0.000000
# 3 -0.006432 -0.003032 0.018506 0.000000 0.007636 0.000000
# 4 0.000000 0.000000 0.000000 0.031894 0.000000 0.001641
# 5 -0.003807 0.000205 0.007636 0.000000 0.035643 0.000000
# 6 0.000000 0.000000 0.000000 0.001641 0.000000 0.029585
#
#
# Mechanical properties :
#
#
# Convention : Reuss Voigt Hill
#
# Bulk Modulus (GPa) = 36.17697 64.21204 50.19451
# Shear Modulus (GPa) = 25.60932 31.26237 28.43585
#
# Velocity S-wave (km/s) = 3.63721 4.01865 3.83268
# Velocity P-wave (km/s) = 6.02722 7.39618 6.74651
#
# Compressibility (1/GPa) = 0.02764190
#
# Stress axis : x y z
#
# Youngs Moduli (GPa) = 107.54163 32.82015 54.03764
#
# Poissons Ratio (x) = 0.19208 0.34756
# Poissons Ratio (y) = 0.62937 0.16382
# Poissons Ratio (z) = 0.69170 0.09949
#
# Static dielectric constant tensor:
#      x y z
#    x 1.509030 0.000000 0.059940 
#    y 0.000000 1.655700 0.000000 
#    z 0.059940 0.000000 1.625560 
# 
# From -- ./inp_files/65444.got.cif
#   From: 2010.05.17/outbox.cif.g08.bks.cpg/sg11_33_cif.got.tgz:65444.got - 2010.06.03 12:22:45.
