data_PCOD9164959
_publ_section_title
;
Structure prediction by ZEFSAII (Michael W. Deem and Ramdas Pophale) SiO2 
 PCOD9164959
Probable space group: P 21/M
;
_chemical_formula_sum "Si O2"
_cell_formula_units_Z 32
_cell_length_a 14.902002
_cell_length_b 7.998864
_cell_length_c 11.508162
_cell_angle_alpha 90.000000
_cell_angle_beta 78.954838
_cell_angle_gamma 90.000000
_cell_volume 1346.352536
_symmetry_space_group_name_H-M "P 21/M"
_symmetry_group_IT_number 11
_symmetry_cell_setting 'monoclinic'
loop_
_space_group_symop_operation_xyz
x,y,z
-x,1/2+y,-z
-x,-y,-z
x,1/2-y,z
loop_
_atom_site_type_symbol
_atom_site_label
_atom_site_fract_x
_atom_site_fract_y
_atom_site_fract_z
Si Si1 0.934185 0.057435 0.121328
Si Si2 0.275465 0.452593 0.058755
Si Si3 0.270184 0.055358 0.809847
Si Si4 0.894809 0.448335 0.527253
Si Si5 0.545903 0.548947 0.866106
Si Si6 0.095699 0.552819 0.221839
Si Si7 0.452214 0.451562 0.390271
Si Si8 0.278007 0.051389 0.557138
O O1 0.908914 0.250000 0.111359
O O2 0.840613 0.956212 0.156452
O O3 0.001418 0.037626 0.214478
O O4 0.000000 0.000000 0.000000
O O5 0.271384 0.250000 0.056242
O O6 0.348361 0.501509 0.137710
O O7 0.174616 0.516982 0.110181
O O8 0.304908 0.515567 0.923452
O O9 0.296636 0.250000 0.801946
O O10 0.298403 0.977568 0.679865
O O11 0.888690 0.250000 0.517333
O O12 0.864559 0.500633 0.664151
O O13 0.826466 0.523180 0.451055
O O14 0.000000 0.500000 0.500000
O O15 0.541436 0.750000 0.863361
O O16 0.515655 0.485603 0.745342
O O17 0.500000 0.500000 0.000000
O O18 0.075705 0.750000 0.229645
O O19 0.500000 0.500000 0.500000
O O20 0.456092 0.250000 0.383043
O O21 0.347598 0.508350 0.441225
O O22 0.291544 0.250000 0.562321
#
# Coordination Sequence:
#
# PCOD9164959 Si02
#       8
#     4   4   4   4   4   4   4   4
#     4  12  23  36  55  83 120 162 205 253 307 365
#     4  10  21  38  62  89 119 158 204 252 311 373
#     4  10  21  37  59  89 121 159 207 257 309 366
#     4  11  24  40  60  88 122 162 208 257 310 372
#     4  10  23  42  66  98 130 164 209 259 314 382
#     4  11  23  38  58  85 118 155 202 254 305 363
#     4  10  23  43  68  99 132 170 216 264 322 388
#     4  10  22  41  65  91 125 165 211 264 315 375
#
# _framework density 23.767918999999999
#
# number of rings (size 3 to 8) (size 9 to 14) (size 15 to 20)
#    0.000    1.500    1.250    3.375    1.750    8.000 
#    0.000    0.000    0.000    0.000    0.000    0.000 
#    0.000    0.000    0.000    0.000    0.000    0.000 
#
# Total GULP energy -178801.697954 kJ/mol
# GULP energy per Si atom -5587.553061 kJ/mol
# Density = 2.371382 g / cm^3
# Si number density = 23.767919 Si / 1000 Ang^3
#
#
#
# Elastic Constant Matrix: (Units=GPa)
#
#
# Indices 1 2 3 4 5 6 
#
# 1 69.8919 -7.4326 33.1299 0.0000 7.5527 0.0000
# 2 -7.4326 30.1178 14.8915 0.0000 4.3490 0.0000
# 3 33.1299 14.8915 182.4684 0.0000 8.9912 0.0000
# 4 0.0000 0.0000 0.0000 25.1815 0.0000 2.5255
# 5 7.5527 4.3490 8.9912 0.0000 41.3600 0.0000
# 6 0.0000 0.0000 0.0000 2.5255 0.0000 21.2019
#
#
#
# Elastic Compliance Matrix: (Units=1/GPa)
#
#
# Indices 1 2 3 4 5 6 
#
# 1 0.016936 0.006316 -0.003442 0.000000 -0.003009 0.000000
# 2 0.006316 0.037341 -0.003987 0.000000 -0.004213 0.000000
# 3 -0.003442 -0.003987 0.006448 0.000000 -0.000354 0.000000
# 4 0.000000 0.000000 0.000000 0.040192 0.000000 -0.004787
# 5 -0.003009 -0.004213 -0.000354 0.000000 0.025247 0.000000
# 6 0.000000 0.000000 0.000000 -0.004787 0.000000 0.047736
#
#
# Mechanical properties :
#
#
# Convention : Reuss Voigt Hill
#
# Bulk Modulus (GPa) = 17.09403 40.40617 28.75010
# Shear Modulus (GPa) = 25.55896 33.67465 29.61680
#
# Velocity S-wave (km/s) = 3.28282 3.76814 3.53382
# Velocity P-wave (km/s) = 4.64509 5.99742 5.36404
#
# Compressibility (1/GPa) = 0.05849996
#
# Stress axis : x y z
#
# Youngs Moduli (GPa) = 59.04485 26.78011 155.08232
#
# Poissons Ratio (x) = -0.16914 0.53383
# Poissons Ratio (y) = -0.37293 0.61826
# Poissons Ratio (z) = 0.20325 0.10676
#
# Static dielectric constant tensor:
#      x y z
#    x 1.882070 0.000000 0.001630 
#    y 0.000000 1.837350 0.000000 
#    z 0.001630 0.000000 2.008130 
# 
# From -- ./inp_files/38221.got.cif
#   From: 2010.05.17/outbox.cif.g08.bks.cpg/sg11_20_cif.got.tgz:38221.got - 2010.06.03 12:22:45.
