data_PCOD9164278
_publ_section_title
;
Structure prediction by ZEFSAII (Michael W. Deem and Ramdas Pophale) SiO2 
 PCOD9164278
Probable space group: P 21/M
;
_chemical_formula_sum "Si O2"
_cell_formula_units_Z 32
_cell_length_a 17.307388
_cell_length_b 14.535491
_cell_length_c 11.658789
_cell_angle_alpha 90.000000
_cell_angle_beta 150.033082
_cell_angle_gamma 90.000000
_cell_volume 1465.041980
_symmetry_space_group_name_H-M "P 21/M"
_symmetry_group_IT_number 11
_symmetry_cell_setting 'monoclinic'
loop_
_space_group_symop_operation_xyz
x,y,z
-x,1/2+y,-z
-x,-y,-z
x,1/2-y,z
loop_
_atom_site_type_symbol
_atom_site_label
_atom_site_fract_x
_atom_site_fract_y
_atom_site_fract_z
Si Si1 0.899137 0.530210 0.981318
Si Si2 0.347061 0.350423 0.074667
Si Si3 0.893372 0.144197 0.569879
Si Si4 0.444916 0.642960 0.863142
Si Si5 0.257713 0.138613 0.615291
Si Si6 0.351212 0.140580 0.482168
Si Si7 0.051835 0.104170 0.548386
Si Si8 0.630289 0.033714 0.754910
O O1 0.766723 0.599100 0.762593
O O2 0.792714 0.447817 0.899306
O O3 0.000000 0.500000 0.000000
O O4 0.997457 0.582724 0.207012
O O5 0.336301 0.250000 0.119412
O O6 0.502696 0.354667 0.201456
O O7 0.333178 0.443122 0.125657
O O8 0.210746 0.358150 0.807305
O O9 0.893896 0.250000 0.615319
O O10 0.723176 0.100220 0.349067
O O11 0.935871 0.150661 0.489546
O O12 0.426291 0.750000 0.876584
O O13 0.586558 0.604206 0.119212
O O14 0.262686 0.250000 0.625610
O O15 0.280584 0.110397 0.513636
O O16 0.097079 0.113961 0.472908
O O17 0.350136 0.250000 0.473924
O O18 0.530182 0.107291 0.697873
O O19 0.000000 0.000000 0.500000
O O20 0.500000 0.000000 0.500000
#
# Coordination Sequence:
#
# PCOD9164278 Si02
#       8
#     4   4   4   4   4   4   4   4
#     4  11  25  42  66  93 137 169 223 287 342 402
#     4  10  20  40  66  91 127 172 219 270 326 396
#     4  11  22  40  65  93 132 175 221 271 329 405
#     4   8  18  34  58  92 120 158 209 260 316 372
#     4   9  19  40  65  91 127 170 214 263 327 404
#     4  10  23  44  69  93 131 183 224 270 341 412
#     4  11  23  35  61  97 132 167 215 268 337 397
#     4  10  23  39  63  96 124 167 226 274 328 392
#
# _framework density 21.842376999999999
#
# number of rings (size 3 to 8) (size 9 to 14) (size 15 to 20)
#    0.000    2.000    1.250    2.250    5.250    3.000 
#    0.000    3.750    0.000    1.500    0.000    0.000 
#    0.000    0.000    0.000    0.000    0.000    0.000 
#
# Total GULP energy -178171.144072 kJ/mol
# GULP energy per Si atom -5567.848252 kJ/mol
# Density = 2.179266 g / cm^3
# Si number density = 21.842377 Si / 1000 Ang^3
#
#
#
# Elastic Constant Matrix: (Units=GPa)
#
#
# Indices 1 2 3 4 5 6 
#
# 1 139.4179 31.5243 33.6375 0.0000 30.3228 0.0000
# 2 31.5243 75.2568 20.8500 0.0000 4.9317 0.0000
# 3 33.6375 20.8500 59.9971 0.0000 19.1414 0.0000
# 4 0.0000 0.0000 0.0000 22.5833 0.0000 -0.6255
# 5 30.3228 4.9317 19.1414 0.0000 36.6458 0.0000
# 6 0.0000 0.0000 0.0000 -0.6255 0.0000 25.1110
#
#
#
# Elastic Compliance Matrix: (Units=1/GPa)
#
#
# Indices 1 2 3 4 5 6 
#
# 1 0.009849 -0.003036 -0.002396 0.000000 -0.006489 0.000000
# 2 -0.003036 0.015661 -0.004643 0.000000 0.002830 0.000000
# 3 -0.002396 -0.004643 0.022550 0.000000 -0.009171 0.000000
# 4 0.000000 0.000000 0.000000 0.044311 0.000000 0.001104
# 5 -0.006489 0.002830 -0.009171 0.000000 0.037067 0.000000
# 6 0.000000 0.000000 0.000000 0.001104 0.000000 0.039851
#
#
# Mechanical properties :
#
#
# Convention : Reuss Voigt Hill
#
# Bulk Modulus (GPa) = 35.83107 49.63280 42.73194
# Shear Modulus (GPa) = 25.15815 29.44536 27.30175
#
# Velocity S-wave (km/s) = 3.39751 3.67561 3.53929
# Velocity P-wave (km/s) = 5.64187 6.38639 6.02564
#
# Compressibility (1/GPa) = 0.02790874
#
# Stress axis : x y z
#
# Youngs Moduli (GPa) = 101.53564 63.85447 44.34514
#
# Poissons Ratio (x) = 0.19389 0.10626
# Poissons Ratio (y) = 0.30830 0.20589
# Poissons Ratio (z) = 0.24330 0.29647
#
# Static dielectric constant tensor:
#      x y z
#    x 1.915290 0.000000 0.052700 
#    y 0.000000 1.906880 0.000000 
#    z 0.052700 0.000000 1.760580 
# 
# From -- ./inp_files/41724.got.cif
#   From: 2010.05.17/outbox.cif.g08.bks.cpg/sg11_21_cif.got.tgz:41724.got - 2010.06.03 12:22:45.
