data_PCOD9164165
_publ_section_title
;
Structure prediction by ZEFSAII (Michael W. Deem and Ramdas Pophale) SiO2 
 PCOD9164165
Probable space group: P 21/M
;
_chemical_formula_sum "Si O2"
_cell_formula_units_Z 28
_cell_length_a 29.546228
_cell_length_b 7.869246
_cell_length_c 9.989765
_cell_angle_alpha 90.000000
_cell_angle_beta 146.458977
_cell_angle_gamma 90.000000
_cell_volume 1283.362554
_symmetry_space_group_name_H-M "P 21/M"
_symmetry_group_IT_number 11
_symmetry_cell_setting 'monoclinic'
loop_
_space_group_symop_operation_xyz
x,y,z
-x,1/2+y,-z
-x,-y,-z
x,1/2-y,z
loop_
_atom_site_type_symbol
_atom_site_label
_atom_site_fract_x
_atom_site_fract_y
_atom_site_fract_z
Si Si1 0.867658 0.446186 0.897827
Si Si2 0.629201 0.545457 0.961880
Si Si3 0.650474 0.454430 0.719067
Si Si4 0.951565 0.446978 0.636643
Si Si5 0.833554 0.041883 0.114541
Si Si6 0.809937 0.946372 0.477292
Si Si7 0.510841 0.454909 0.181331
O O1 0.841605 0.250000 0.825626
O O2 0.824234 0.542455 0.670594
O O3 0.847121 0.510608 0.995446
O O4 0.965573 0.457593 0.123490
O O5 0.630961 0.750000 0.977309
O O6 0.721004 0.482748 0.219864
O O7 0.610631 0.500865 0.762735
O O8 0.563442 0.482530 0.907552
O O9 0.654043 0.250000 0.720870
O O10 0.594956 0.515064 0.458653
O O11 0.744260 0.516129 0.943908
O O12 0.973934 0.250000 0.671767
O O13 0.906130 0.514285 0.391645
O O14 0.883499 0.459255 0.584202
O O15 0.834885 0.250000 0.122272
O O16 0.814215 0.750000 0.444841
O O17 0.511152 0.250000 0.189653
O O18 0.500000 0.500000 0.000000
#
# Coordination Sequence:
#
# PCOD9164165 Si02
#       7
#     4   4   4   4   4   4   4
#     4  11  23  38  58  85 119 155 196 245 297 348
#     4  10  22  40  60  88 122 155 194 243 291 343
#     4  10  20  39  64  89 117 155 199 239 284 346
#     4  11  21  39  62  85 115 152 198 246 296 350
#     4   9  20  37  59  87 117 149 194 244 287 343
#     4  11  23  39  58  84 119 157 198 241 291 348
#     4  10  23  40  62  92 126 156 190 238 290 348
#
# _framework density 21.817685999999998
#
# number of rings (size 3 to 8) (size 9 to 14) (size 15 to 20)
#    0.000    1.714    1.429    2.571    2.000    1.714 
#    0.000    3.571    0.000    0.000    0.000    0.000 
#    0.000    0.000    0.000    0.000    0.000    0.000 
#
# Total GULP energy -156551.050340 kJ/mol
# GULP energy per Si atom -5591.108941 kJ/mol
# Density = 2.176803 g / cm^3
# Si number density = 21.817686 Si / 1000 Ang^3
#
#
#
# Elastic Constant Matrix: (Units=GPa)
#
#
# Indices 1 2 3 4 5 6 
#
# 1 -36.4580 17.8437 3.2031 0.0000 -12.1985 0.0000
# 2 17.8437 21.1191 1.3889 0.0000 3.3929 0.0000
# 3 3.2031 1.3889 109.1288 0.0000 -18.9496 0.0000
# 4 0.0000 0.0000 0.0000 9.2038 0.0000 -12.7130
# 5 -12.1985 3.3929 -18.9496 0.0000 39.6450 0.0000
# 6 0.0000 0.0000 0.0000 -12.7130 0.0000 11.6675
#
#
#
# Elastic Compliance Matrix: (Units=1/GPa)
#
#
# Indices 1 2 3 4 5 6 
#
# 1 -0.017353 0.015871 -0.000933 0.000000 -0.007144 0.000000
# 2 0.015871 0.033705 -0.000597 0.000000 0.001713 0.000000
# 3 -0.000933 -0.000597 0.009986 0.000000 0.004537 0.000000
# 4 0.000000 0.000000 0.000000 -0.215129 0.000000 -0.234406
# 5 -0.007144 0.001713 0.004537 0.000000 0.025048 0.000000
# 6 0.000000 0.000000 0.000000 -0.234406 0.000000 -0.169703
#
#
# Mechanical properties :
#
#
# Convention : Reuss Voigt Hill
#
# Bulk Modulus (GPa) = 18.17544 15.40680 16.79112
# Shear Modulus (GPa) = -14.54392 16.86020 1.15814
#
# Velocity S-wave (km/s) = -2.58468 2.78290 0.72937
# Velocity P-wave (km/s) = 0.74751 4.17169 2.90209
#
# Compressibility (1/GPa) = 0.05501931
#
# Stress axis : x y z
#
# Youngs Moduli (GPa) = -57.62715 29.66895 100.13666
#
# Poissons Ratio (x) = -0.47087 0.09344
# Poissons Ratio (y) = 0.91458 0.05981
# Poissons Ratio (z) = -0.05377 0.01772
#
# Static dielectric constant tensor:
#      x y z
#    x 1.775060 0.000000 0.005680 
#    y 0.000000 1.783780 0.000000 
#    z 0.005680 0.000000 1.776090 
# 
# From -- ./inp_files/26168.got.cif
#   From: 2010.05.17/outbox.cif.g08.bks.cpg/sg11_14_cif.got.tgz:26168.got - 2010.06.03 12:22:45.
