data_PCOD9164556
_publ_section_title
;
Structure prediction by ZEFSAII (Michael W. Deem and Ramdas Pophale) SiO2 
 PCOD9164556
Probable space group: P 21/M
;
_chemical_formula_sum "Si O2"
_cell_formula_units_Z 28
_cell_length_a 15.345936
_cell_length_b 8.624642
_cell_length_c 19.635628
_cell_angle_alpha 90.000000
_cell_angle_beta 142.400981
_cell_angle_gamma 90.000000
_cell_volume 1585.633355
_symmetry_space_group_name_H-M "P 21/M"
_symmetry_group_IT_number 11
_symmetry_cell_setting 'monoclinic'
loop_
_space_group_symop_operation_xyz
x,y,z
-x,1/2+y,-z
-x,-y,-z
x,1/2-y,z
loop_
_atom_site_type_symbol
_atom_site_label
_atom_site_fract_x
_atom_site_fract_y
_atom_site_fract_z
Si Si1 0.989534 0.064978 0.209917
Si Si2 0.385391 0.934918 0.128433
Si Si3 0.319975 0.433696 0.946372
Si Si4 0.090503 0.563115 0.404178
Si Si5 0.677196 0.435140 0.341136
Si Si6 0.231749 0.436959 0.748430
Si Si7 0.067687 0.935417 0.973675
O O1 0.959516 0.250000 0.196007
O O2 0.020045 0.028788 0.149898
O O3 0.100373 0.015465 0.336320
O O4 0.846190 0.969919 0.139202
O O5 0.388954 0.750000 0.133041
O O6 0.517165 0.003568 0.251227
O O7 0.230876 0.988578 0.060378
O O8 0.399776 0.984472 0.058004
O O9 0.347084 0.250000 0.965697
O O10 0.328560 0.488898 0.873147
O O11 0.095227 0.750000 0.399570
O O12 0.212493 0.513369 0.532304
O O13 0.933709 0.523857 0.337418
O O14 0.676590 0.250000 0.340261
O O15 0.727478 0.493779 0.298461
O O16 0.242542 0.250000 0.752137
O O17 0.072894 0.750000 0.982659
O O18 0.000000 0.000000 0.000000
#
# Coordination Sequence:
#
# PCOD9164556 Si02
#       7
#     4   4   4   4   4   4   4
#     4   9  17  30  50  77 103 128 161 199 243 292
#     4  10  21  36  51  72 102 132 164 200 247 304
#     4   9  17  31  50  71  97 130 167 207 250 293
#     4   9  19  34  50  71  99 133 175 213 245 286
#     4  11  22  33  48  71  99 134 174 212 249 290
#     4   9  18  32  49  70  97 130 170 215 255 289
#     4   9  19  34  55  82 104 123 152 193 242 298
#
# _framework density 17.658557999999999
#
# number of rings (size 3 to 8) (size 9 to 14) (size 15 to 20)
#    0.000    2.571    0.000    3.857    0.000    8.000 
#    0.000    0.000    0.000    0.857    0.000    0.000 
#    0.000    0.000    0.000    0.000    0.000    0.000 
#
# Total GULP energy -156116.800682 kJ/mol
# GULP energy per Si atom -5575.600024 kJ/mol
# Density = 1.761837 g / cm^3
# Si number density = 17.658558 Si / 1000 Ang^3
#
#
#
# Elastic Constant Matrix: (Units=GPa)
#
#
# Indices 1 2 3 4 5 6 
#
# 1 102.2836 19.7671 57.9071 0.0000 -21.8737 0.0000
# 2 19.7671 16.0372 21.3538 0.0000 -2.8442 0.0000
# 3 57.9071 21.3538 134.1854 0.0000 -9.5644 0.0000
# 4 0.0000 0.0000 0.0000 26.9164 0.0000 -4.2908
# 5 -21.8737 -2.8442 -9.5644 0.0000 21.6235 0.0000
# 6 0.0000 0.0000 0.0000 -4.2908 0.0000 26.6182
#
#
#
# Elastic Compliance Matrix: (Units=1/GPa)
#
#
# Indices 1 2 3 4 5 6 
#
# 1 0.018125 -0.013616 -0.004622 0.000000 0.014500 0.000000
# 2 -0.013616 0.089874 -0.008844 0.000000 -0.005864 0.000000
# 3 -0.004622 -0.008844 0.010778 0.000000 -0.001071 0.000000
# 4 0.000000 0.000000 0.000000 0.038132 0.000000 0.006147
# 5 0.014500 -0.005864 -0.001071 0.000000 0.059669 0.000000
# 6 0.000000 0.000000 0.000000 0.006147 0.000000 0.038559
#
#
# Mechanical properties :
#
#
# Convention : Reuss Voigt Hill
#
# Bulk Modulus (GPa) = 15.47656 50.06248 32.76952
# Shear Modulus (GPa) = 15.11312 25.26349 20.18831
#
# Velocity S-wave (km/s) = 2.92867 3.78652 3.38488
# Velocity P-wave (km/s) = 4.49661 6.89411 5.82015
#
# Compressibility (1/GPa) = 0.06461386
#
# Stress axis : x y z
#
# Youngs Moduli (GPa) = 55.17097 11.12672 92.78186
#
# Poissons Ratio (x) = 0.15150 0.42881
# Poissons Ratio (y) = 0.75118 0.82060
# Poissons Ratio (z) = 0.25498 0.09841
#
# Static dielectric constant tensor:
#      x y z
#    x 1.598670 0.000000 -0.000110 
#    y 0.000000 1.594440 0.000000 
#    z -0.000110 0.000000 1.642200 
# 
# From -- ./inp_files/42324.got.cif
#   From: 2010.05.17/outbox.cif.g08.bks.cpg/sg11_22_cif.got.tgz:42324.got - 2010.06.03 12:22:45.
