data_PCOD9164441
_publ_section_title
;
Structure prediction by ZEFSAII (Michael W. Deem and Ramdas Pophale) SiO2 
 PCOD9164441
Probable space group: P 21/M
;
_chemical_formula_sum "Si O2"
_cell_formula_units_Z 32
_cell_length_a 15.055547
_cell_length_b 7.646321
_cell_length_c 20.682493
_cell_angle_alpha 90.000000
_cell_angle_beta 149.906750
_cell_angle_gamma 90.000000
_cell_volume 1193.833914
_symmetry_space_group_name_H-M "P 21/M"
_symmetry_group_IT_number 11
_symmetry_cell_setting 'monoclinic'
loop_
_space_group_symop_operation_xyz
x,y,z
-x,1/2+y,-z
-x,-y,-z
x,1/2-y,z
loop_
_atom_site_type_symbol
_atom_site_label
_atom_site_fract_x
_atom_site_fract_y
_atom_site_fract_z
Si Si1 0.884718 0.452305 0.489448
Si Si2 0.597730 0.538133 0.214996
Si Si3 0.195091 0.540984 0.927692
Si Si4 0.126734 0.540540 0.020341
Si Si5 0.819337 0.045115 0.584583
Si Si6 0.705129 0.040579 0.646124
Si Si7 0.703205 0.544294 0.146389
Si Si8 0.582630 0.463542 0.703173
O O1 0.919184 0.250000 0.522329
O O2 0.687486 0.478117 0.337287
O O3 0.905654 0.535087 0.573884
O O4 0.000000 0.500000 0.500000
O O5 0.599733 0.750000 0.218494
O O6 0.397026 0.486055 0.073247
O O7 0.714294 0.473854 0.226552
O O8 0.188833 0.750000 0.924485
O O9 0.089728 0.471456 0.924453
O O10 0.176407 0.496758 0.840115
O O11 0.131499 0.750000 0.018038
O O12 0.318961 0.485203 0.169153
O O13 0.000000 0.500000 0.000000
O O14 0.867377 0.250000 0.621154
O O15 0.818490 0.966808 0.656962
O O16 0.610460 0.038001 0.432839
O O17 0.726867 0.250000 0.659383
O O18 0.710523 0.980494 0.723707
O O19 0.500000 0.000000 0.500000
O O20 0.716000 0.750000 0.161588
O O21 0.500000 0.500000 0.000000
O O22 0.567924 0.250000 0.692671
#
# Coordination Sequence:
#
# PCOD9164441 Si02
#       8
#     4   4   4   4   4   4   4   4
#     4  11  23  36  50  70 100 137 171 206 248 295
#     4   9  18  34  55  77 100 127 162 207 255 300
#     4   9  18  33  53  76 103 133 166 210 258 302
#     4  10  21  35  49  70 102 137 172 210 250 293
#     4   9  18  32  51  76 101 125 158 201 246 289
#     4   8  14  27  48  73  98 121 151 195 241 286
#     4   9  17  30  51  78 104 129 161 205 254 304
#     4   9  17  31  53  76  97 127 164 200 243 293
#
# _framework density 26.804399
#
# number of rings (size 3 to 8) (size 9 to 14) (size 15 to 20)
#    0.000    2.750    0.000    2.250    0.000    5.500 
#    0.000    1.250    0.000    3.000    0.000    0.000 
#    0.000    0.000    0.000    0.000    0.000    0.000 
#
# Total GULP energy -178764.107033 kJ/mol
# GULP energy per Si atom -5586.378345 kJ/mol
# Density = 2.674339 g / cm^3
# Si number density = 26.804399 Si / 1000 Ang^3
#
#
#
# Elastic Constant Matrix: (Units=GPa)
#
#
# Indices 1 2 3 4 5 6 
#
# 1 217.6324 9.8472 43.3963 0.0000 -37.7427 0.0000
# 2 9.8472 61.6250 -0.7674 0.0000 -5.1369 0.0000
# 3 43.3963 -0.7674 115.2227 0.0000 -42.8906 0.0000
# 4 0.0000 0.0000 0.0000 21.0245 0.0000 4.5806
# 5 -37.7427 -5.1369 -42.8906 0.0000 70.7101 0.0000
# 6 0.0000 0.0000 0.0000 4.5806 0.0000 17.7811
#
#
#
# Elastic Compliance Matrix: (Units=1/GPa)
#
#
# Indices 1 2 3 4 5 6 
#
# 1 0.005216 -0.000683 -0.001228 0.000000 0.001989 0.000000
# 2 -0.000683 0.016461 0.000874 0.000000 0.001361 0.000000
# 3 -0.001228 0.000874 0.011530 0.000000 0.006402 0.000000
# 4 0.000000 0.000000 0.000000 0.050392 0.000000 -0.012981
# 5 0.001989 0.001361 0.006402 0.000000 0.019186 0.000000
# 6 0.000000 0.000000 0.000000 -0.012981 0.000000 0.059584
#
#
# Mechanical properties :
#
#
# Convention : Reuss Voigt Hill
#
# Bulk Modulus (GPa) = 32.12242 55.49250 43.80746
# Shear Modulus (GPa) = 28.60070 44.70341 36.65206
#
# Velocity S-wave (km/s) = 3.27006 4.08826 3.70183
# Velocity P-wave (km/s) = 5.12521 6.55994 5.88645
#
# Compressibility (1/GPa) = 0.03113091
#
# Stress axis : x y z
#
# Youngs Moduli (GPa) = 191.72722 60.75097 86.72791
#
# Poissons Ratio (x) = 0.04149 0.10654
# Poissons Ratio (y) = 0.13093 -0.07576
# Poissons Ratio (z) = 0.23553 -0.05307
#
# Static dielectric constant tensor:
#      x y z
#    x 2.333040 0.000000 -0.007260 
#    y 0.000000 1.956550 0.000000 
#    z -0.007260 0.000000 2.211700 
# 
# From -- ./inp_files/65257.got.cif
#   From: 2010.05.17/outbox.cif.g08.bks.cpg/sg11_33_cif.got.tgz:65257.got - 2010.06.03 12:22:45.
