data_PCOD9164254
_publ_section_title
;
Structure prediction by ZEFSAII (Michael W. Deem and Ramdas Pophale) SiO2 
 PCOD9164254
Probable space group: P 21/M
;
_chemical_formula_sum "Si O2"
_cell_formula_units_Z 32
_cell_length_a 9.304439
_cell_length_b 27.075087
_cell_length_c 12.803615
_cell_angle_alpha 90.000000
_cell_angle_beta 29.211642
_cell_angle_gamma 90.000000
_cell_volume 1574.147508
_symmetry_space_group_name_H-M "P 21/M"
_symmetry_group_IT_number 11
_symmetry_cell_setting 'monoclinic'
loop_
_space_group_symop_operation_xyz
x,y,z
-x,1/2+y,-z
-x,-y,-z
x,1/2-y,z
loop_
_atom_site_type_symbol
_atom_site_label
_atom_site_fract_x
_atom_site_fract_y
_atom_site_fract_z
Si Si1 0.258739 0.129148 0.416268
Si Si2 0.506021 0.131461 0.664719
Si Si3 0.423151 0.844354 0.158937
Si Si4 0.404226 0.803357 0.954362
Si Si5 0.843238 0.539466 0.025649
Si Si6 0.308683 0.026238 0.289525
Si Si7 0.703859 0.691363 0.400845
Si Si8 0.094843 0.421783 0.223326
O O1 0.401536 0.156179 0.226123
O O2 0.342470 0.072115 0.348299
O O3 0.360953 0.159495 0.453574
O O4 0.904991 0.133196 0.639712
O O5 0.521545 0.167247 0.755592
O O6 0.264988 0.088373 0.842800
O O7 0.444837 0.163551 0.601455
O O8 0.819370 0.103898 0.454288
O O9 0.441886 0.804824 0.055264
O O10 0.671565 0.883339 0.970446
O O11 0.492180 0.750000 0.856377
O O12 0.056704 0.811145 0.157391
O O13 0.558586 0.512900 0.156284
O O14 0.026771 0.551976 0.804413
O O15 0.000000 0.500000 0.000000
O O16 0.279363 0.046781 0.190443
O O17 0.000000 0.000000 0.500000
O O18 0.629558 0.750000 0.458329
#
# Coordination Sequence:
#
# PCOD9164254 Si02
#       8
#     4   4   4   4   4   4   4   4
#     4  11  22  40  68  95 126 167 221 268 327 392
#     4  11  23  42  63  92 136 169 220 271 330 399
#     4  10  20  40  63  94 122 162 211 267 323 386
#     4  10  21  40  66  94 122 160 214 272 332 391
#     4  11  27  39  61  99 132 177 229 271 329 398
#     4  12  22  42  66  96 131 178 217 270 334 396
#     4  10  25  43  65  93 128 172 215 270 337 400
#     4  11  22  43  63  89 133 172 216 268 326 397
#
# _framework density 20.328465000000001
#
# number of rings (size 3 to 8) (size 9 to 14) (size 15 to 20)
#    0.000    1.250    3.750    1.500    3.500    3.500 
#    0.000    1.875    0.000    0.000    0.000    0.000 
#    0.000    0.000    0.000    0.000    0.000    0.000 
#
# Total GULP energy -178585.130080 kJ/mol
# GULP energy per Si atom -5580.785315 kJ/mol
# Density = 2.028220 g / cm^3
# Si number density = 20.328465 Si / 1000 Ang^3
#
#
#
# Elastic Constant Matrix: (Units=GPa)
#
#
# Indices 1 2 3 4 5 6 
#
# 1 119.2506 17.8977 10.1928 0.0000 24.2112 0.0000
# 2 17.8977 75.0513 10.4779 0.0000 10.1556 0.0000
# 3 10.1928 10.4779 53.1361 0.0000 17.4730 0.0000
# 4 0.0000 0.0000 0.0000 16.4254 0.0000 10.1636
# 5 24.2112 10.1556 17.4730 0.0000 27.4889 0.0000
# 6 0.0000 0.0000 0.0000 10.1636 0.0000 18.1343
#
#
#
# Elastic Compliance Matrix: (Units=1/GPa)
#
#
# Indices 1 2 3 4 5 6 
#
# 1 0.010414 -0.001388 0.001420 0.000000 -0.009562 0.000000
# 2 -0.001388 0.014286 -0.001539 0.000000 -0.003077 0.000000
# 3 0.001420 -0.001539 0.024116 0.000000 -0.016011 0.000000
# 4 0.000000 0.000000 0.000000 0.093205 0.000000 -0.052238
# 5 -0.009562 -0.003077 -0.016011 0.000000 0.056115 0.000000
# 6 0.000000 0.000000 0.000000 -0.052238 0.000000 0.084421
#
#
# Mechanical properties :
#
#
# Convention : Reuss Voigt Hill
#
# Bulk Modulus (GPa) = 21.83238 36.06387 28.94813
# Shear Modulus (GPa) = 16.62024 26.33437 21.47730
#
# Velocity S-wave (km/s) = 2.86245 3.60313 3.25393
# Velocity P-wave (km/s) = 4.65703 5.92361 5.32809
#
# Compressibility (1/GPa) = 0.04580352
#
# Stress axis : x y z
#
# Youngs Moduli (GPa) = 96.02427 69.99638 41.46688
#
# Poissons Ratio (x) = 0.09714 -0.05890
# Poissons Ratio (y) = 0.13327 0.06382
# Poissons Ratio (z) = -0.13640 0.10772
#
# Static dielectric constant tensor:
#      x y z
#    x 1.769760 0.000000 0.050750 
#    y 0.000000 1.813990 0.000000 
#    z 0.050750 0.000000 1.745760 
# 
# From -- ./inp_files/33201.got.cif
#   From: 2010.05.17/outbox.cif.g08.bks.cpg/sg11_17_cif.got.tgz:33201.got - 2010.06.03 12:22:45.
