data_PCOD9164298
_publ_section_title
;
Structure prediction by ZEFSAII (Michael W. Deem and Ramdas Pophale) SiO2 
 PCOD9164298
Probable space group: P 21/M
;
_chemical_formula_sum "Si O2"
_cell_formula_units_Z 28
_cell_length_a 10.779363
_cell_length_b 19.805315
_cell_length_c 7.054757
_cell_angle_alpha 90.000000
_cell_angle_beta 67.439635
_cell_angle_gamma 90.000000
_cell_volume 1390.856892
_symmetry_space_group_name_H-M "P 21/M"
_symmetry_group_IT_number 11
_symmetry_cell_setting 'monoclinic'
loop_
_space_group_symop_operation_xyz
x,y,z
-x,1/2+y,-z
-x,-y,-z
x,1/2-y,z
loop_
_atom_site_type_symbol
_atom_site_label
_atom_site_fract_x
_atom_site_fract_y
_atom_site_fract_z
Si Si1 0.047915 0.576456 0.938354
Si Si2 0.886954 0.170387 0.739612
Si Si3 0.911639 0.672696 0.730842
Si Si4 0.525508 0.968271 0.780681
Si Si5 0.605798 0.325617 0.685488
Si Si6 0.674405 0.049209 0.418654
Si Si7 0.594299 0.824100 0.858437
O O1 0.179288 0.569407 0.731245
O O2 0.943504 0.620484 0.878413
O O3 0.084826 0.618518 0.106388
O O4 0.000000 0.500000 0.000000
O O5 0.896817 0.250000 0.792339
O O6 0.737233 0.160994 0.740546
O O7 0.994734 0.159494 0.507420
O O8 0.942413 0.750000 0.773842
O O9 0.754529 0.669916 0.773644
O O10 0.402619 0.984133 0.712594
O O11 0.536987 0.888263 0.785826
O O12 0.657954 0.999259 0.605946
O O13 0.500000 0.000000 0.000000
O O14 0.622166 0.250000 0.598232
O O15 0.601960 0.382772 0.531005
O O16 0.474613 0.327457 0.894163
O O17 0.559231 0.750000 0.799827
#
# Coordination Sequence:
#
# PCOD9164298 Si02
#       7
#     4   4   4   4   4   4   4
#     4  12  27  38  63  97 129 168 221 263 320 387
#     4  10  22  43  67  90 124 171 213 262 324 382
#     4  10  23  44  66  91 130 169 211 266 322 382
#     4  11  24  42  67  89 133 166 209 263 325 382
#     4  10  20  40  69  97 123 158 214 268 314 380
#     4  11  25  41  62  96 124 172 209 259 331 374
#     4  10  22  41  67  94 124 168 212 263 320 377
#
# _framework density 20.131474000000001
#
# number of rings (size 3 to 8) (size 9 to 14) (size 15 to 20)
#    0.000    1.429    2.857    1.286    4.000    1.714 
#    0.000    0.000    0.000    0.000    0.000    0.000 
#    0.000    0.000    0.000    0.000    0.000    0.000 
#
# Total GULP energy -156377.761133 kJ/mol
# GULP energy per Si atom -5584.920040 kJ/mol
# Density = 2.008565 g / cm^3
# Si number density = 20.131474 Si / 1000 Ang^3
#
#
#
# Elastic Constant Matrix: (Units=GPa)
#
#
# Indices 1 2 3 4 5 6 
#
# 1 37.8775 7.6954 29.1768 0.0000 -12.0350 0.0000
# 2 7.6954 131.2795 56.5504 0.0000 12.8142 0.0000
# 3 29.1768 56.5504 97.6859 0.0000 0.1108 0.0000
# 4 0.0000 0.0000 0.0000 43.4012 0.0000 3.4539
# 5 -12.0350 12.8142 0.1108 0.0000 32.6440 0.0000
# 6 0.0000 0.0000 0.0000 3.4539 0.0000 28.3588
#
#
#
# Elastic Compliance Matrix: (Units=1/GPa)
#
#
# Indices 1 2 3 4 5 6 
#
# 1 0.040838 0.001956 -0.013346 0.000000 0.014333 0.000000
# 2 0.001956 0.010782 -0.006822 0.000000 -0.003488 0.000000
# 3 -0.013346 -0.006822 0.018175 0.000000 -0.002304 0.000000
# 4 0.000000 0.000000 0.000000 0.023266 0.000000 -0.002834
# 5 0.014333 -0.003488 -0.002304 0.000000 0.037295 0.000000
# 6 0.000000 0.000000 0.000000 -0.002834 0.000000 0.035608
#
#
# Mechanical properties :
#
#
# Convention : Reuss Voigt Hill
#
# Bulk Modulus (GPa) = 29.96620 50.40979 40.18800
# Shear Modulus (GPa) = 23.41800 32.44216 27.93008
#
# Velocity S-wave (km/s) = 3.41435 4.01872 3.72880
# Velocity P-wave (km/s) = 5.51917 6.82848 6.20844
#
# Compressibility (1/GPa) = 0.03337093
#
# Stress axis : x y z
#
# Youngs Moduli (GPa) = 24.48692 92.74938 55.02084
#
# Poissons Ratio (x) = -0.18143 0.73432
# Poissons Ratio (y) = -0.04790 0.37534
# Poissons Ratio (z) = 0.32681 0.63272
#
# Static dielectric constant tensor:
#      x y z
#    x 1.713000 0.000000 0.008350 
#    y 0.000000 1.746510 0.000000 
#    z 0.008350 0.000000 1.709320 
# 
# From -- ./inp_files/5019.got.cif
#   From: 2010.05.17/outbox.cif.g08.bks.cpg/sg11_3_cif.got.tgz:5019.got - 2010.06.03 12:22:45.
