data_PCOD9164306
_publ_section_title
;
Structure prediction by ZEFSAII (Michael W. Deem and Ramdas Pophale) SiO2 
 PCOD9164306
Probable space group: P 21/M
;
_chemical_formula_sum "Si O2"
_cell_formula_units_Z 20
_cell_length_a 9.087200
_cell_length_b 16.639612
_cell_length_c 7.772420
_cell_angle_alpha 90.000000
_cell_angle_beta 129.934694
_cell_angle_gamma 90.000000
_cell_volume 901.152708
_symmetry_space_group_name_H-M "P 21/M"
_symmetry_group_IT_number 11
_symmetry_cell_setting 'monoclinic'
loop_
_space_group_symop_operation_xyz
x,y,z
-x,1/2+y,-z
-x,-y,-z
x,1/2-y,z
loop_
_atom_site_type_symbol
_atom_site_label
_atom_site_fract_x
_atom_site_fract_y
_atom_site_fract_z
Si Si1 0.096160 0.250000 0.322990
Si Si2 0.734586 0.750000 0.903855
Si Si3 0.344129 0.750000 0.025594
Si Si4 0.142803 0.419779 0.506498
Si Si5 0.688857 0.250000 0.589072
Si Si6 0.780721 0.414692 0.479462
Si Si7 0.417431 0.383542 0.994438
O O1 0.112256 0.250000 0.129984
O O2 0.187146 0.332998 0.458184
O O3 0.873486 0.250000 0.203674
O O4 0.523066 0.750000 0.656978
O O5 0.736378 0.827589 0.024300
O O6 0.339620 0.750000 0.227918
O O7 0.451677 0.826201 0.026166
O O8 0.164979 0.497675 0.400792
O O9 0.934938 0.411154 0.439257
O O10 0.292584 0.436453 0.773491
O O11 0.787720 0.332710 0.596304
O O12 0.562876 0.417535 0.244299
#
# Coordination Sequence:
#
# PCOD9164306 Si02
#       7
#     2   2   2   4   2   4   4
#     4  12  22  39  60  93 124 157 201 260 286 364
#     4   9  21  36  61  90 117 156 208 236 306 355
#     4  11  22  37  64  89 121 162 207 241 309 347
#     4  11  22  38  65  88 126 159 200 245 308 355
#     4  10  21  40  61  84 126 155 198 257 293 356
#     4  10  22  40  61  96 118 160 201 249 299 365
#     4  10  20  41  62  89 119 163 198 249 297 371
#
# _framework density 22.193798000000001
#
# number of rings (size 3 to 8) (size 9 to 14) (size 15 to 20)
#    0.000    1.600    2.000    4.200    2.800    0.000 
#    0.000   12.000    0.000    0.000    0.000    0.000 
#    0.000    0.000    0.000    0.000    0.000    0.000 
#
# Total GULP energy -111621.157133 kJ/mol
# GULP energy per Si atom -5581.057857 kJ/mol
# Density = 2.214328 g / cm^3
# Si number density = 22.193798 Si / 1000 Ang^3
#
#
#
# Elastic Constant Matrix: (Units=GPa)
#
#
# Indices 1 2 3 4 5 6 
#
# 1 66.2255 23.4740 2.2437 0.0000 5.9706 0.0000
# 2 23.4740 148.9788 5.6170 0.0000 -14.3329 0.0000
# 3 2.2437 5.6170 43.9263 0.0000 4.1036 0.0000
# 4 0.0000 0.0000 0.0000 989.6827 0.0000 1026.5406
# 5 5.9706 -14.3329 4.1036 0.0000 34.6472 0.0000
# 6 0.0000 0.0000 0.0000 1026.5406 0.0000 1061.4179
#
#
#
# Elastic Compliance Matrix: (Units=1/GPa)
#
#
# Indices 1 2 3 4 5 6 
#
# 1 0.016532 -0.002994 -0.000081 0.000000 -0.004078 0.000000
# 2 -0.002994 0.007594 -0.001173 0.000000 0.003796 0.000000
# 3 -0.000081 -0.001173 0.023220 0.000000 -0.003221 0.000000
# 4 0.000000 0.000000 0.000000 -0.319825 0.000000 0.309315
# 5 -0.004078 0.003796 -0.003221 0.000000 0.031517 0.000000
# 6 0.000000 0.000000 0.000000 0.309315 0.000000 -0.298209
#
#
# Mechanical properties :
#
#
# Convention : Reuss Voigt Hill
#
# Bulk Modulus (GPa) = 25.73952 35.75557 30.74754
# Shear Modulus (GPa) = -9.65761 432.33593 211.33916
#
# Velocity S-wave (km/s) = -2.08829 13.97223 9.76889
# Velocity P-wave (km/s) = 2.41002 16.62658 11.87963
#
# Compressibility (1/GPa) = 0.03885077
#
# Stress axis : x y z
#
# Youngs Moduli (GPa) = 60.49024 131.69036 43.06548
#
# Poissons Ratio (x) = 0.39429 0.00347
# Poissons Ratio (y) = 0.18111 0.05050
# Poissons Ratio (z) = 0.00488 0.15444
#
# Static dielectric constant tensor:
#      x y z
#    x 1.771070 0.000000 0.016190 
#    y 0.000000 1.893200 0.000000 
#    z 0.016190 0.000000 1.826130 
# 
# From -- ./inp_files/13080.got.cif
#   From: 2010.05.17/outbox.cif.g08.bks.cpg/sg11_7_cif.got.tgz:13080.got - 2010.06.03 12:22:45.
