data_PCOD9164891
_publ_section_title
;
Structure prediction by ZEFSAII (Michael W. Deem and Ramdas Pophale) SiO2 
 PCOD9164891
Probable space group: P 21/M
;
_chemical_formula_sum "Si O2"
_cell_formula_units_Z 28
_cell_length_a 13.878805
_cell_length_b 8.926780
_cell_length_c 15.250897
_cell_angle_alpha 90.000000
_cell_angle_beta 51.530613
_cell_angle_gamma 90.000000
_cell_volume 1479.350686
_symmetry_space_group_name_H-M "P 21/M"
_symmetry_group_IT_number 11
_symmetry_cell_setting 'monoclinic'
loop_
_space_group_symop_operation_xyz
x,y,z
-x,1/2+y,-z
-x,-y,-z
x,1/2-y,z
loop_
_atom_site_type_symbol
_atom_site_label
_atom_site_fract_x
_atom_site_fract_y
_atom_site_fract_z
Si Si1 0.865709 0.067680 0.927917
Si Si2 0.530974 0.572462 0.888270
Si Si3 0.122726 0.432819 0.700206
Si Si4 0.391693 0.069626 0.620446
Si Si5 0.974017 0.582823 0.425066
Si Si6 0.349372 0.568593 0.832355
Si Si7 0.243589 0.581342 0.191210
O O1 0.867497 0.250000 0.925898
O O2 0.779837 0.022705 0.893874
O O3 0.005327 0.018311 0.826624
O O4 0.789168 0.023492 0.057602
O O5 0.524813 0.750000 0.898760
O O6 0.442385 0.528345 0.858829
O O7 0.670651 0.518534 0.796977
O O8 0.500000 0.500000 0.000000
O O9 0.115352 0.250000 0.701105
O O10 0.256094 0.472954 0.660642
O O11 0.105872 0.485954 0.609017
O O12 0.401518 0.250000 0.613748
O O13 0.500000 0.000000 0.500000
O O14 0.392411 0.008173 0.719023
O O15 0.926406 0.750000 0.470925
O O16 0.000000 0.500000 0.500000
O O17 0.107819 0.593521 0.305554
O O18 0.351272 0.750000 0.821520
O O19 0.295723 0.750000 0.156325
#
# Coordination Sequence:
#
# PCOD9164891 Si02
#       7
#     4   4   4   4   4   4   4
#     4   8  14  31  57  82 110 142 178 221 281 344
#     4  11  21  33  53  82 116 152 185 223 274 334
#     4   8  17  35  59  81 106 146 186 227 280 336
#     4  11  24  42  61  82 110 148 195 241 282 332
#     4   9  18  33  55  80 109 143 183 228 276 332
#     4  10  21  37  58  84 114 152 189 229 285 342
#     4   9  17  32  52  77 110 149 183 222 277 332
#
# _framework density 18.927223999999999
#
# number of rings (size 3 to 8) (size 9 to 14) (size 15 to 20)
#    0.000    2.571    1.429    2.571    0.000    3.429 
#    0.000    5.714    0.000    2.571    0.000    0.000 
#    0.000    0.000    0.000    0.000    0.000    0.000 
#
# Total GULP energy -155935.419825 kJ/mol
# GULP energy per Si atom -5569.122137 kJ/mol
# Density = 1.888414 g / cm^3
# Si number density = 18.927224 Si / 1000 Ang^3
#
#
#
# Elastic Constant Matrix: (Units=GPa)
#
#
# Indices 1 2 3 4 5 6 
#
# 1 137.1693 39.2051 70.5563 0.0000 0.6430 0.0000
# 2 39.2051 30.4750 36.5998 0.0000 6.9943 0.0000
# 3 70.5563 36.5998 126.9066 0.0000 12.8830 0.0000
# 4 0.0000 0.0000 0.0000 28.0162 0.0000 1.2514
# 5 0.6430 6.9943 12.8830 0.0000 26.1630 0.0000
# 6 0.0000 0.0000 0.0000 1.2514 0.0000 24.3654
#
#
#
# Elastic Compliance Matrix: (Units=1/GPa)
#
#
# Indices 1 2 3 4 5 6 
#
# 1 0.013109 -0.013264 -0.003990 0.000000 0.005188 0.000000
# 2 -0.013264 0.064736 -0.010076 0.000000 -0.012019 0.000000
# 3 -0.003990 -0.010076 0.013390 0.000000 -0.003802 0.000000
# 4 0.000000 0.000000 0.000000 0.035776 0.000000 -0.001837
# 5 0.005188 -0.012019 -0.003802 0.000000 0.043179 0.000000
# 6 0.000000 0.000000 0.000000 -0.001837 0.000000 0.041136
#
#
# Mechanical properties :
#
#
# Convention : Reuss Voigt Hill
#
# Bulk Modulus (GPa) = 27.33966 65.25260 46.29613
# Shear Modulus (GPa) = 17.97423 25.58822 21.78122
#
# Velocity S-wave (km/s) = 3.08498 3.68084 3.39601
# Velocity P-wave (km/s) = 5.21205 7.25363 6.31588
#
# Compressibility (1/GPa) = 0.03657690
#
# Stress axis : x y z
#
# Youngs Moduli (GPa) = 76.28285 15.44740 74.68416
#
# Poissons Ratio (x) = 0.20489 0.29797
# Poissons Ratio (y) = 1.01178 0.75248
# Poissons Ratio (z) = 0.30435 0.15564
#
# Static dielectric constant tensor:
#      x y z
#    x 1.691650 0.000000 -0.019020 
#    y 0.000000 1.681560 0.000000 
#    z -0.019020 0.000000 1.713090 
# 
# From -- ./inp_files/51582.got.cif
#   From: 2010.05.17/outbox.cif.g08.bks.cpg/sg11_26_cif.got.tgz:51582.got - 2010.06.03 12:22:45.
