data_PCOD9164226
_publ_section_title
;
Structure prediction by ZEFSAII (Michael W. Deem and Ramdas Pophale) SiO2 
 PCOD9164226
Probable space group: P 21/M
;
_chemical_formula_sum "Si O2"
_cell_formula_units_Z 28
_cell_length_a 11.449367
_cell_length_b 14.563121
_cell_length_c 9.869748
_cell_angle_alpha 90.000000
_cell_angle_beta 135.907425
_cell_angle_gamma 90.000000
_cell_volume 1145.087665
_symmetry_space_group_name_H-M "P 21/M"
_symmetry_group_IT_number 11
_symmetry_cell_setting 'monoclinic'
loop_
_space_group_symop_operation_xyz
x,y,z
-x,1/2+y,-z
-x,-y,-z
x,1/2-y,z
loop_
_atom_site_type_symbol
_atom_site_label
_atom_site_fract_x
_atom_site_fract_y
_atom_site_fract_z
Si Si1 0.674463 0.895909 0.063664
Si Si2 0.246067 0.450602 0.442706
Si Si3 0.193973 0.355811 0.116129
Si Si4 0.319018 0.614722 0.884576
Si Si5 0.969861 0.891775 0.498301
Si Si6 0.577683 0.350845 0.741158
Si Si7 0.818873 0.147052 0.685472
O O1 0.693901 0.881977 0.919976
O O2 0.498667 0.857950 0.972662
O O3 0.679428 0.003626 0.105865
O O4 0.840471 0.856693 0.277115
O O5 0.436362 0.427386 0.638576
O O6 0.221032 0.421295 0.266314
O O7 0.208543 0.558199 0.429600
O O8 0.127073 0.390276 0.439126
O O9 0.228530 0.250000 0.182603
O O10 0.002388 0.361913 0.905316
O O11 0.155237 0.647470 0.669073
O O12 0.307738 0.645247 0.031036
O O13 0.000000 0.000000 0.500000
O O14 0.495276 0.250000 0.669208
O O15 0.683140 0.361029 0.692880
O O16 0.804225 0.250000 0.615178
#
# Coordination Sequence:
#
# PCOD9164226 Si02
#       7
#     4   4   4   4   4   4   4
#     4  10  21  41  64 100 135 179 230 282 343 416
#     4  12  22  42  70  98 139 188 231 293 359 417
#     4  11  24  43  66 100 144 186 232 293 354 419
#     4  10  20  39  68  94 134 179 230 284 346 409
#     4  10  21  40  70 104 129 176 240 282 347 427
#     4  11  23  40  63 101 137 178 239 290 341 421
#     4  10  22  39  63  96 134 176 232 291 354 425
#
# _framework density 24.452276000000001
#
# number of rings (size 3 to 8) (size 9 to 14) (size 15 to 20)
#    0.000    1.429    1.429    4.714    0.000    0.571 
#    2.571    1.429    0.000    4.286    0.000    0.000 
#    0.000    0.000    0.000    0.000    0.000    0.000 
#
# Total GULP energy -156845.385324 kJ/mol
# GULP energy per Si atom -5601.620904 kJ/mol
# Density = 2.439662 g / cm^3
# Si number density = 24.452276 Si / 1000 Ang^3
#
#
#
# Elastic Constant Matrix: (Units=GPa)
#
#
# Indices 1 2 3 4 5 6 
#
# 1 91.1234 11.2668 47.9320 0.0000 -1.6943 0.0000
# 2 11.2668 118.6024 29.2013 0.0000 8.6891 0.0000
# 3 47.9320 29.2013 101.7005 0.0000 1.6172 0.0000
# 4 0.0000 0.0000 0.0000 -15.3574 0.0000 5.7837
# 5 -1.6943 8.6891 1.6172 0.0000 47.6342 0.0000
# 6 0.0000 0.0000 0.0000 5.7837 0.0000 7.6124
#
#
#
# Elastic Compliance Matrix: (Units=1/GPa)
#
#
# Indices 1 2 3 4 5 6 
#
# 1 0.014627 0.000279 -0.006985 0.000000 0.000707 0.000000
# 2 0.000279 0.009197 -0.002747 0.000000 -0.001574 0.000000
# 3 -0.006985 -0.002747 0.013917 0.000000 -0.000220 0.000000
# 4 0.000000 0.000000 0.000000 -0.050629 0.000000 0.038466
# 5 0.000707 -0.001574 -0.000220 0.000000 0.021313 0.000000
# 6 0.000000 0.000000 0.000000 0.038466 0.000000 0.102139
#
#
# Mechanical properties :
#
#
# Convention : Reuss Voigt Hill
#
# Bulk Modulus (GPa) = 53.09527 54.24740 53.67133
# Shear Modulus (GPa) = 36.83253 22.84625 29.83939
#
# Velocity S-wave (km/s) = 3.88532 3.05998 3.49709
# Velocity P-wave (km/s) = 6.47214 5.89218 6.18896
#
# Compressibility (1/GPa) = 0.01883407
#
# Stress axis : x y z
#
# Youngs Moduli (GPa) = 68.36653 108.73423 71.85411
#
# Poissons Ratio (x) = -0.03028 0.50190
# Poissons Ratio (y) = -0.01904 0.19738
# Poissons Ratio (z) = 0.47754 0.29868
#
# Static dielectric constant tensor:
#      x y z
#    x 1.904000 0.000000 0.008280 
#    y 0.000000 1.960700 0.000000 
#    z 0.008280 0.000000 1.920160 
# 
# From -- ./inp_files/18158.got.cif
#   From: 2010.05.17/outbox.cif.g08.bks.cpg/sg11_10_cif.got.tgz:18158.got - 2010.06.03 12:22:45.
