data_PCOD9164606
_publ_section_title
;
Structure prediction by ZEFSAII (Michael W. Deem and Ramdas Pophale) SiO2 
 PCOD9164606
Probable space group: P 21/M
;
_chemical_formula_sum "Si O2"
_cell_formula_units_Z 32
_cell_length_a 28.522488
_cell_length_b 8.646122
_cell_length_c 14.650733
_cell_angle_alpha 90.000000
_cell_angle_beta 29.427212
_cell_angle_gamma 90.000000
_cell_volume 1775.130669
_symmetry_space_group_name_H-M "P 21/M"
_symmetry_group_IT_number 11
_symmetry_cell_setting 'monoclinic'
loop_
_space_group_symop_operation_xyz
x,y,z
-x,1/2+y,-z
-x,-y,-z
x,1/2-y,z
loop_
_atom_site_type_symbol
_atom_site_label
_atom_site_fract_x
_atom_site_fract_y
_atom_site_fract_z
Si Si1 0.599668 0.066109 0.295077
Si Si2 0.397211 0.065747 0.205879
Si Si3 0.872884 0.063164 0.634122
Si Si4 0.636665 0.934351 0.526671
Si Si5 0.918680 0.437331 0.759310
Si Si6 0.562792 0.931524 0.171336
Si Si7 0.700599 0.066724 0.796661
Si Si8 0.234688 0.565581 0.837773
O O1 0.592102 0.250000 0.291904
O O2 0.681884 0.039913 0.229117
O O3 0.500000 0.000000 0.500000
O O4 0.617799 0.981870 0.168919
O O5 0.404804 0.250000 0.189621
O O6 0.369301 0.021471 0.356560
O O7 0.316892 0.010370 0.271061
O O8 0.500000 0.000000 0.000000
O O9 0.871294 0.250000 0.635448
O O10 0.866985 0.017218 0.751251
O O11 0.788529 0.009406 0.710116
O O12 0.975085 0.003676 0.426290
O O13 0.623019 0.750000 0.541989
O O14 0.547503 0.021646 0.631475
O O15 0.731594 0.982886 0.311548
O O16 0.922191 0.250000 0.753897
O O17 0.860443 0.486340 0.947760
O O18 0.571420 0.750000 0.139673
O O19 0.606284 0.027580 0.014630
O O20 0.709425 0.250000 0.770122
O O21 0.228694 0.750000 0.831330
#
# Coordination Sequence:
#
# PCOD9164606 Si02
#       8
#     4   4   4   4   4   4   4   4
#     4  11  21  33  49  73 108 146 184 223 267 322
#     4  11  23  38  57  81 110 146 189 234 284 335
#     4   9  19  36  58  85 114 145 180 226 281 333
#     4  11  23  37  54  76 107 145 185 230 276 327
#     4   9  18  35  58  84 114 147 182 224 274 333
#     4  12  23  34  51  76 108 147 187 226 272 330
#     4  11  22  37  58  82 111 145 183 233 286 335
#     4  10  21  36  55  78 109 149 187 226 276 333
#
# _framework density 18.026841000000001
#
# number of rings (size 3 to 8) (size 9 to 14) (size 15 to 20)
#    0.000    1.500    2.500    3.375    0.000    5.500 
#    0.000    2.500    0.000    0.750    0.000    0.000 
#    0.000    0.000    0.000    0.000    0.000    0.000 
#
# Total GULP energy -178686.285940 kJ/mol
# GULP energy per Si atom -5583.946436 kJ/mol
# Density = 1.798581 g / cm^3
# Si number density = 18.026841 Si / 1000 Ang^3
#
#
#
# Elastic Constant Matrix: (Units=GPa)
#
#
# Indices 1 2 3 4 5 6 
#
# 1 97.4786 22.9111 39.6094 0.0000 14.4248 0.0000
# 2 22.9111 21.1203 10.1887 0.0000 7.1984 0.0000
# 3 39.6094 10.1887 93.0033 0.0000 16.3987 0.0000
# 4 0.0000 0.0000 0.0000 27.0399 0.0000 2.4021
# 5 14.4248 7.1984 16.3987 0.0000 29.3486 0.0000
# 6 0.0000 0.0000 0.0000 2.4021 0.0000 26.0769
#
#
#
# Elastic Compliance Matrix: (Units=1/GPa)
#
#
# Indices 1 2 3 4 5 6 
#
# 1 0.015840 -0.014291 -0.004909 0.000000 -0.001537 0.000000
# 2 -0.014291 0.065800 0.000538 0.000000 -0.009416 0.000000
# 3 -0.004909 0.000538 0.013735 0.000000 -0.005394 0.000000
# 4 0.000000 0.000000 0.000000 0.037288 0.000000 -0.003435
# 5 -0.001537 -0.009416 -0.005394 0.000000 0.040152 0.000000
# 6 0.000000 0.000000 0.000000 -0.003435 0.000000 0.038665
#
#
# Mechanical properties :
#
#
# Convention : Reuss Voigt Hill
#
# Bulk Modulus (GPa) = 17.22637 39.66896 28.44766
# Shear Modulus (GPa) = 18.64605 25.75260 22.19932
#
# Velocity S-wave (km/s) = 3.21962 3.78374 3.51302
# Velocity P-wave (km/s) = 4.83714 6.41422 5.68068
#
# Compressibility (1/GPa) = 0.05805054
#
# Stress axis : x y z
#
# Youngs Moduli (GPa) = 63.13192 15.19763 72.80503
#
# Poissons Ratio (x) = 0.21718 0.35744
# Poissons Ratio (y) = 0.90219 -0.03916
# Poissons Ratio (z) = 0.30995 -0.00818
#
# Static dielectric constant tensor:
#      x y z
#    x 1.632830 0.000000 0.015460 
#    y 0.000000 1.606290 0.000000 
#    z 0.015460 0.000000 1.620940 
# 
# From -- ./inp_files/56069.got.cif
#   From: 2010.05.17/outbox.cif.g08.bks.cpg/sg11_29_cif.got.tgz:56069.got - 2010.06.03 12:22:45.
