data_PCOD9164057
_publ_section_title
;
Structure prediction by ZEFSAII (Michael W. Deem and Ramdas Pophale) SiO2 
 PCOD9164057
Probable space group: P 21/M
;
_chemical_formula_sum "Si O2"
_cell_formula_units_Z 32
_cell_length_a 15.333466
_cell_length_b 21.665238
_cell_length_c 15.248311
_cell_angle_alpha 90.000000
_cell_angle_beta 161.139587
_cell_angle_gamma 90.000000
_cell_volume 1637.504254
_symmetry_space_group_name_H-M "P 21/M"
_symmetry_group_IT_number 11
_symmetry_cell_setting 'monoclinic'
loop_
_space_group_symop_operation_xyz
x,y,z
-x,1/2+y,-z
-x,-y,-z
x,1/2-y,z
loop_
_atom_site_type_symbol
_atom_site_label
_atom_site_fract_x
_atom_site_fract_y
_atom_site_fract_z
Si Si1 0.625096 0.048158 0.429432
Si Si2 0.355794 0.319558 0.912666
Si Si3 0.172040 0.418727 0.878393
Si Si4 0.489201 0.099421 0.661363
Si Si5 0.773936 0.017074 0.214327
Si Si6 0.749447 0.045447 0.741652
Si Si7 0.956970 0.321353 0.190869
Si Si8 0.090132 0.843745 0.653506
O O1 0.739029 0.069280 0.632470
O O2 0.849660 0.077707 0.579659
O O3 0.598057 0.972435 0.399549
O O4 0.336125 0.074530 0.125141
O O5 0.276288 0.250000 0.859409
O O6 0.289268 0.363933 0.930568
O O7 0.173480 0.341716 0.657689
O O8 0.662768 0.318993 0.170285
O O9 0.228307 0.480463 0.877559
O O10 0.665532 0.092007 0.739179
O O11 0.216842 0.140725 0.401391
O O12 0.694262 0.136845 0.919112
O O13 0.816409 0.087732 0.236428
O O14 0.000000 0.000000 0.500000
O O15 0.500000 0.000000 0.000000
O O16 0.500000 0.000000 0.500000
O O17 0.000000 0.000000 0.000000
O O18 0.940282 0.250000 0.141379
O O19 0.972006 0.316014 0.310854
#
# Coordination Sequence:
#
# PCOD9164057 Si02
#       8
#     4   4   4   4   4   4   4   4
#     4  11  22  38  64  96 121 152 199 260 318 375
#     4  12  25  42  60  80 117 169 218 256 297 357
#     4  12  23  38  59  91 123 158 203 253 318 359
#     4  11  22  41  63  92 127 159 196 251 319 373
#     4  12  21  37  57  85 121 151 197 252 317 366
#     4  10  20  38  65  95 124 152 189 242 312 386
#     4  12  25  40  61  89 126 170 213 251 294 372
#     4  12  23  42  60  86 117 165 213 258 303 363
#
# _framework density 19.541934999999999
#
# number of rings (size 3 to 8) (size 9 to 14) (size 15 to 20)
#    0.000    0.500    2.500    9.000    0.000    0.000 
#    0.000    0.000    0.000    4.500    0.000    0.000 
#    0.000    0.000    0.000    0.000    0.000    0.000 
#
# Total GULP energy -178456.052586 kJ/mol
# GULP energy per Si atom -5576.751643 kJ/mol
# Density = 1.949746 g / cm^3
# Si number density = 19.541935 Si / 1000 Ang^3
#
#
#
# Elastic Constant Matrix: (Units=GPa)
#
#
# Indices 1 2 3 4 5 6 
#
# 1 70.7197 26.2508 18.9254 0.0000 -2.9696 0.0000
# 2 26.2508 104.6398 -5.3280 0.0000 -2.0359 0.0000
# 3 18.9254 -5.3280 110.4018 0.0000 6.7975 0.0000
# 4 0.0000 0.0000 0.0000 8.0348 0.0000 -8.5858
# 5 -2.9696 -2.0359 6.7975 0.0000 38.0857 0.0000
# 6 0.0000 0.0000 0.0000 -8.5858 0.0000 -1.8036
#
#
#
# Elastic Compliance Matrix: (Units=1/GPa)
#
#
# Indices 1 2 3 4 5 6 
#
# 1 0.016654 -0.004307 -0.003163 0.000000 0.001633 0.000000
# 2 -0.004307 0.010701 0.001254 0.000000 0.000012 0.000000
# 3 -0.003163 0.001254 0.009779 0.000000 -0.001925 0.000000
# 4 0.000000 0.000000 0.000000 0.020447 0.000000 -0.097337
# 5 0.001633 0.000012 -0.001925 0.000000 0.026728 0.000000
# 6 0.000000 0.000000 0.000000 -0.097337 0.000000 -0.091091
#
#
# Mechanical properties :
#
#
# Convention : Reuss Voigt Hill
#
# Bulk Modulus (GPa) = 40.48342 40.60641 40.54492
# Shear Modulus (GPa) = 360.05902 25.25758 192.65830
#
# Velocity S-wave (km/s) = 13.58858 3.59901 9.93988
# Velocity P-wave (km/s) = 16.33892 6.17209 12.35020
#
# Compressibility (1/GPa) = 0.02470147
#
# Stress axis : x y z
#
# Youngs Moduli (GPa) = 60.04451 93.44691 102.25848
#
# Poissons Ratio (x) = 0.40251 0.32348
# Poissons Ratio (y) = 0.25863 -0.12824
# Poissons Ratio (z) = 0.18994 -0.11719
#
# Static dielectric constant tensor:
#      x y z
#    x 1.807210 0.000000 0.005640 
#    y 0.000000 1.716930 0.000000 
#    z 0.005640 0.000000 1.709830 
# 
# From -- ./inp_files/52712.got.cif
#   From: 2010.05.17/outbox.cif.g08.bks.cpg/sg11_27_cif.got.tgz:52712.got - 2010.06.03 12:22:45.
