data_PCOD9164774
_publ_section_title
;
Structure prediction by ZEFSAII (Michael W. Deem and Ramdas Pophale) SiO2 
 PCOD9164774
Probable space group: P 21/M
;
_chemical_formula_sum "Si O2"
_cell_formula_units_Z 24
_cell_length_a 30.735675
_cell_length_b 8.635476
_cell_length_c 15.353288
_cell_angle_alpha 90.000000
_cell_angle_beta 160.348634
_cell_angle_gamma 90.000000
_cell_volume 1370.415078
_symmetry_space_group_name_H-M "P 21/M"
_symmetry_group_IT_number 11
_symmetry_cell_setting 'monoclinic'
loop_
_space_group_symop_operation_xyz
x,y,z
-x,1/2+y,-z
-x,-y,-z
x,1/2-y,z
loop_
_atom_site_type_symbol
_atom_site_label
_atom_site_fract_x
_atom_site_fract_y
_atom_site_fract_z
Si Si1 0.119411 0.562653 0.670055
Si Si2 0.170835 0.938057 0.572806
Si Si3 0.392847 0.565083 0.732181
Si Si4 0.586405 0.436731 0.740862
Si Si5 0.466927 0.563433 0.163804
Si Si6 0.112087 0.937217 0.272072
O O1 0.116306 0.750000 0.665485
O O2 0.113502 0.511475 0.557475
O O3 0.000000 0.500000 0.500000
O O4 0.261952 0.515290 0.974061
O O5 0.167526 0.750000 0.567240
O O6 0.104739 0.990292 0.359002
O O7 0.322897 0.979862 0.858933
O O8 0.397130 0.750000 0.744400
O O9 0.428736 0.509581 0.703227
O O10 0.251257 0.514461 0.496423
O O11 0.500000 0.500000 0.000000
O O12 0.500000 0.500000 0.500000
O O13 0.585495 0.250000 0.736281
O O14 0.529260 0.482450 0.727668
O O15 0.476477 0.750000 0.177012
O O16 0.107854 0.750000 0.264008
O O17 0.000000 0.000000 0.000000
#
# Coordination Sequence:
#
# PCOD9164774 Si02
#       6
#     4   4   4   4   4   4
#     4   9  18  34  56  78 101 135 177 217 257 307
#     4   8  15  33  56  73  99 138 174 210 256 307
#     4  11  21  34  56  82 107 136 174 220 262 309
#     4   9  19  35  56  79 108 141 172 215 266 314
#     4   9  17  34  57  79 103 137 180 218 257 310
#     4  10  21  37  54  75 106 141 173 213 260 308
#
# _framework density 17.512944000000001
#
# number of rings (size 3 to 8) (size 9 to 14) (size 15 to 20)
#    0.000    2.667    1.667    2.500    0.000    2.667 
#    3.000    3.333    0.000    0.000    0.000    0.000 
#    0.000    0.000    0.000    0.000    0.000    0.000 
#
# Total GULP energy -133795.673327 kJ/mol
# GULP energy per Si atom -5574.819722 kJ/mol
# Density = 1.747308 g / cm^3
# Si number density = 17.512944 Si / 1000 Ang^3
#
#
#
# Elastic Constant Matrix: (Units=GPa)
#
#
# Indices 1 2 3 4 5 6 
#
# 1 169.0993 29.3169 105.8790 0.0000 -4.3429 0.0000
# 2 29.3169 11.4199 26.8259 0.0000 0.5264 0.0000
# 3 105.8790 26.8259 138.0207 0.0000 -14.6188 0.0000
# 4 0.0000 0.0000 0.0000 30.1684 0.0000 -0.3227
# 5 -4.3429 0.5264 -14.6188 0.0000 35.6465 0.0000
# 6 0.0000 0.0000 0.0000 -0.3227 0.0000 31.8046
#
#
#
# Elastic Compliance Matrix: (Units=1/GPa)
#
#
# Indices 1 2 3 4 5 6 
#
# 1 0.013257 -0.018191 -0.006727 0.000000 -0.000875 0.000000
# 2 -0.018191 0.195220 -0.025642 0.000000 -0.015615 0.000000
# 3 -0.006727 -0.025642 0.018130 0.000000 0.006994 0.000000
# 4 0.000000 0.000000 0.000000 0.033151 0.000000 0.000336
# 5 -0.000875 -0.015615 0.006994 0.000000 0.031046 0.000000
# 6 0.000000 0.000000 0.000000 0.000336 0.000000 0.031445
#
#
# Mechanical properties :
#
#
# Convention : Reuss Voigt Hill
#
# Bulk Modulus (GPa) = 7.96895 71.39819 39.68357
# Shear Modulus (GPa) = 10.74810 29.95844 20.35327
#
# Velocity S-wave (km/s) = 2.48003 4.14048 3.41278
# Velocity P-wave (km/s) = 3.57225 7.98220 6.18370
#
# Compressibility (1/GPa) = 0.12548709
#
# Stress axis : x y z
#
# Youngs Moduli (GPa) = 75.43297 5.12242 55.15660
#
# Poissons Ratio (x) = 0.09318 0.37102
# Poissons Ratio (y) = 1.37220 1.41435
# Poissons Ratio (z) = 0.50741 0.13135
#
# Static dielectric constant tensor:
#      x y z
#    x 1.609280 0.000000 -0.006590 
#    y 0.000000 1.599820 0.000000 
#    z -0.006590 0.000000 1.571060 
# 
# From -- ./inp_files/28944.got.cif
#   From: 2010.05.17/outbox.cif.g08.bks.cpg/sg11_15_cif.got.tgz:28944.got - 2010.06.03 12:22:45.
