data_PCOD9164613
_publ_section_title
;
Structure prediction by ZEFSAII (Michael W. Deem and Ramdas Pophale) SiO2 
 PCOD9164613
Probable space group: P 21/M
;
_chemical_formula_sum "Si O2"
_cell_formula_units_Z 24
_cell_length_a 15.224571
_cell_length_b 10.937765
_cell_length_c 21.617839
_cell_angle_alpha 90.000000
_cell_angle_beta 160.214822
_cell_angle_gamma 90.000000
_cell_volume 1218.533742
_symmetry_space_group_name_H-M "P 21/M"
_symmetry_group_IT_number 11
_symmetry_cell_setting 'monoclinic'
loop_
_space_group_symop_operation_xyz
x,y,z
-x,1/2+y,-z
-x,-y,-z
x,1/2-y,z
loop_
_atom_site_type_symbol
_atom_site_label
_atom_site_fract_x
_atom_site_fract_y
_atom_site_fract_z
Si Si1 0.541558 0.885516 0.071797
Si Si2 0.093284 0.616662 0.876184
Si Si3 0.445723 0.054954 0.532032
Si Si4 0.494210 0.608273 0.681598
Si Si5 0.065508 0.607937 0.495481
Si Si6 0.974097 0.614465 0.078420
O O1 0.503818 0.750000 0.017691
O O2 0.829080 0.889792 0.290335
O O3 0.338428 0.894197 0.993646
O O4 0.500000 0.000000 0.000000
O O5 0.107048 0.750000 0.917897
O O6 0.079027 0.499722 0.911503
O O7 0.830425 0.618075 0.661076
O O8 0.717737 0.119089 0.728530
O O9 0.500000 0.000000 0.500000
O O10 0.415479 0.960792 0.567828
O O11 0.441644 0.750000 0.635714
O O12 0.324539 0.574195 0.629168
O O13 0.795114 0.594650 0.899734
O O14 0.089300 0.750000 0.535255
O O15 0.000000 0.500000 0.500000
O O16 0.897451 0.750000 0.052643
#
# Coordination Sequence:
#
# PCOD9164613 Si02
#       6
#     4   4   4   4   4   4
#     4  10  21  36  55  81 112 146 187 232 281 336
#     4  10  21  37  56  81 113 148 186 231 282 336
#     4  10  21  36  56  82 112 149 189 232 279 330
#     4  10  21  38  60  85 115 151 191 234 283 338
#     4  10  21  38  60  87 116 149 189 233 283 339
#     4  10  21  37  58  84 111 145 189 232 278 335
#
# _framework density 19.695800999999999
#
# number of rings (size 3 to 8) (size 9 to 14) (size 15 to 20)
#    0.000    2.000    0.000    3.000    0.000    6.667 
#    0.000    3.333    0.000    0.000    0.000    0.000 
#    0.000    0.000    0.000    0.000    0.000    0.000 
#
# Total GULP energy -133741.063075 kJ/mol
# GULP energy per Si atom -5572.544295 kJ/mol
# Density = 1.965097 g / cm^3
# Si number density = 19.695801 Si / 1000 Ang^3
#
#
#
# Elastic Constant Matrix: (Units=GPa)
#
#
# Indices 1 2 3 4 5 6 
#
# 1 48.6412 52.7770 -7.5522 0.0000 -6.0028 0.0000
# 2 52.7770 144.1220 -4.7873 0.0000 -19.9567 0.0000
# 3 -7.5522 -4.7873 57.8459 0.0000 6.4200 0.0000
# 4 0.0000 0.0000 0.0000 38.7601 0.0000 22.6103
# 5 -6.0028 -19.9567 6.4200 0.0000 29.3400 0.0000
# 6 0.0000 0.0000 0.0000 22.6103 0.0000 100.4547
#
#
#
# Elastic Compliance Matrix: (Units=1/GPa)
#
#
# Indices 1 2 3 4 5 6 
#
# 1 0.034971 -0.013032 0.003768 0.000000 -0.002534 0.000000
# 2 -0.013032 0.012517 -0.001347 0.000000 0.006142 0.000000
# 3 0.003768 -0.001347 0.018124 0.000000 -0.004111 0.000000
# 4 0.000000 0.000000 0.000000 0.029699 0.000000 -0.006685
# 5 -0.002534 0.006142 -0.004111 0.000000 0.038642 0.000000
# 6 0.000000 0.000000 0.000000 -0.006685 0.000000 0.011459
#
#
# Mechanical properties :
#
#
# Convention : Reuss Voigt Hill
#
# Bulk Modulus (GPa) = 22.52746 36.83156 29.67951
# Shear Modulus (GPa) = 27.55867 47.72240 37.64054
#
# Velocity S-wave (km/s) = 3.74467 4.92771 4.37635
# Velocity P-wave (km/s) = 5.49174 7.14963 6.37481
#
# Compressibility (1/GPa) = 0.04439028
#
# Stress axis : x y z
#
# Youngs Moduli (GPa) = 28.59492 79.89373 55.17519
#
# Poissons Ratio (x) = 1.04118 -0.20793
# Poissons Ratio (y) = 0.37265 0.07433
# Poissons Ratio (z) = -0.10776 0.10764
#
# Static dielectric constant tensor:
#      x y z
#    x 1.173950 0.000000 -0.188850 
#    y 0.000000 1.722780 0.000000 
#    z -0.188850 0.000000 1.602520 
# 
# From -- ./inp_files/65612.got.cif
#   From: 2010.05.17/outbox.cif.g08.bks.cpg/sg11_33_cif.got.tgz:65612.got - 2010.06.03 12:22:45.
