data_PCOD9164522
_publ_section_title
;
Structure prediction by ZEFSAII (Michael W. Deem and Ramdas Pophale) SiO2 
 PCOD9164522
Probable space group: P 21/M
;
_chemical_formula_sum "Si O2"
_cell_formula_units_Z 24
_cell_length_a 5.466894
_cell_length_b 14.169552
_cell_length_c 21.479896
_cell_angle_alpha 90.000000
_cell_angle_beta 42.055491
_cell_angle_gamma 90.000000
_cell_volume 1114.567890
_symmetry_space_group_name_H-M "P 21/M"
_symmetry_group_IT_number 11
_symmetry_cell_setting 'monoclinic'
loop_
_space_group_symop_operation_xyz
x,y,z
-x,1/2+y,-z
-x,-y,-z
x,1/2-y,z
loop_
_atom_site_type_symbol
_atom_site_label
_atom_site_fract_x
_atom_site_fract_y
_atom_site_fract_z
Si Si1 0.415014 0.964311 0.422418
Si Si2 0.481280 0.647392 0.531092
Si Si3 0.819057 0.535855 0.892187
Si Si4 0.700848 0.145043 0.666321
Si Si5 0.338549 0.250000 0.063317
Si Si6 0.519540 0.440147 0.824393
Si Si7 0.183168 0.250000 0.945423
O O1 0.625919 0.057283 0.407162
O O2 0.394766 0.881495 0.476944
O O3 0.528670 0.922850 0.334854
O O4 0.000000 0.000000 0.500000
O O5 0.335347 0.750000 0.576939
O O6 0.919315 0.654293 0.442189
O O7 0.828189 0.649423 0.885237
O O8 0.709713 0.494293 0.845287
O O9 0.193453 0.498824 0.852783
O O10 0.500000 0.500000 0.000000
O O11 0.541950 0.250000 0.704203
O O12 0.764452 0.096458 0.720463
O O13 0.753115 0.250000 0.010765
O O14 0.295114 0.250000 0.996623
O O15 0.346478 0.344798 0.885151
#
# Coordination Sequence:
#
# PCOD9164522 Si02
#       7
#     4   4   4   4   2   4   2
#     4   9  18  34  56  83 117 150 194 235 285 349
#     4   9  18  34  58  87 116 155 197 237 292 354
#     4  12  24  42  63  90 121 164 210 256 304 368
#     4  10  21  35  57  90 123 152 187 243 309 361
#     4  12  24  40  68  84 120 158 218 257 301 364
#     4  12  24  39  61  95 129 159 200 259 319 366
#     4  12  20  38  62  96 120 156 202 259 317 364
#
# _framework density 21.533007999999999
#
# number of rings (size 3 to 8) (size 9 to 14) (size 15 to 20)
#    0.000    1.333    4.167    2.000    2.333    0.667 
#    0.000    0.000    3.667    0.000    0.000    0.000 
#    0.000    0.000    0.000    0.000    0.000    0.000 
#
# Total GULP energy -133913.813860 kJ/mol
# GULP energy per Si atom -5579.742244 kJ/mol
# Density = 2.148400 g / cm^3
# Si number density = 21.533008 Si / 1000 Ang^3
#
#
#
# Elastic Constant Matrix: (Units=GPa)
#
#
# Indices 1 2 3 4 5 6 
#
# 1 97.6479 43.9873 31.4471 0.0000 29.2796 0.0000
# 2 43.9873 188.3468 50.9237 0.0000 23.9263 0.0000
# 3 31.4471 50.9237 61.4921 0.0000 33.4520 0.0000
# 4 0.0000 0.0000 0.0000 7.4170 0.0000 -11.2388
# 5 29.2796 23.9263 33.4520 0.0000 43.1254 0.0000
# 6 0.0000 0.0000 0.0000 -11.2388 0.0000 12.2075
#
#
#
# Elastic Compliance Matrix: (Units=1/GPa)
#
#
# Indices 1 2 3 4 5 6 
#
# 1 0.013711 -0.001864 -0.001673 0.000000 -0.006978 0.000000
# 2 -0.001864 0.007121 -0.006026 0.000000 0.001989 0.000000
# 3 -0.001673 -0.006026 0.034033 0.000000 -0.021920 0.000000
# 4 0.000000 0.000000 0.000000 -0.341293 0.000000 -0.314212
# 5 -0.006978 0.001989 -0.021920 0.000000 0.043825 0.000000
# 6 0.000000 0.000000 0.000000 -0.314212 0.000000 -0.207362
#
#
# Mechanical properties :
#
#
# Convention : Reuss Voigt Hill
#
# Bulk Modulus (GPa) = 27.97984 66.68923 47.33454
# Shear Modulus (GPa) = -11.93529 27.29188 7.67830
#
# Velocity S-wave (km/s) = -2.35687 3.56398 1.89039
# Velocity P-wave (km/s) = 2.36975 6.92632 5.17637
#
# Compressibility (1/GPa) = 0.03574002
#
# Stress axis : x y z
#
# Youngs Moduli (GPa) = 72.93250 140.42470 29.38346
#
# Poissons Ratio (x) = 0.26168 0.04915
# Poissons Ratio (y) = 0.13591 0.17707
# Poissons Ratio (z) = 0.12201 0.84624
#
# Static dielectric constant tensor:
#      x y z
#    x 1.889720 0.000000 -0.027860 
#    y 0.000000 1.800500 0.000000 
#    z -0.027860 0.000000 1.798700 
# 
# From -- ./inp_files/6423.got.cif
#   From: 2010.05.17/outbox.cif.g08.bks.cpg/sg11_4_cif.got.tgz:6423.got - 2010.06.03 12:22:45.
