data_PCOD9164712
_publ_section_title
;
Structure prediction by ZEFSAII (Michael W. Deem and Ramdas Pophale) SiO2 
 PCOD9164712
Probable space group: P 21/M
;
_chemical_formula_sum "Si O2"
_cell_formula_units_Z 28
_cell_length_a 21.541045
_cell_length_b 7.684343
_cell_length_c 14.526491
_cell_angle_alpha 90.000000
_cell_angle_beta 28.948213
_cell_angle_gamma 90.000000
_cell_volume 1163.848749
_symmetry_space_group_name_H-M "P 21/M"
_symmetry_group_IT_number 11
_symmetry_cell_setting 'monoclinic'
loop_
_space_group_symop_operation_xyz
x,y,z
-x,1/2+y,-z
-x,-y,-z
x,1/2-y,z
loop_
_atom_site_type_symbol
_atom_site_label
_atom_site_fract_x
_atom_site_fract_y
_atom_site_fract_z
Si Si1 0.157077 0.956676 0.177710
Si Si2 0.378998 0.535827 0.754112
Si Si3 0.932988 0.951881 0.350932
Si Si4 0.646666 0.044693 0.727694
Si Si5 0.625560 0.552221 0.965451
Si Si6 0.089664 0.041200 0.967499
Si Si7 0.644314 0.555959 0.422843
O O1 0.142687 0.750000 0.187680
O O2 0.015251 0.025299 0.332298
O O3 0.255857 0.016744 0.970821
O O4 0.244799 0.981416 0.154585
O O5 0.379484 0.750000 0.743615
O O6 0.511160 0.485290 0.633297
O O7 0.379603 0.440350 0.656355
O O8 0.905694 0.750000 0.404416
O O9 0.793992 0.027725 0.503691
O O10 0.029307 0.967982 0.139201
O O11 0.622517 0.250000 0.771175
O O12 0.520790 0.976334 0.835430
O O13 0.646055 0.959681 0.829303
O O14 0.620810 0.750000 0.003787
O O15 0.105383 0.250000 0.960254
O O16 0.221983 0.961256 0.756406
O O17 0.000000 0.000000 0.000000
O O18 0.661654 0.750000 0.438997
#
# Coordination Sequence:
#
# PCOD9164712 Si02
#       7
#     4   4   4   4   4   4   4
#     4  10  21  36  58  89 124 159 199 246 300 356
#     4   9  17  32  53  77 107 143 184 231 283 338
#     4  11  23  40  62  89 121 160 203 247 300 358
#     4  10  22  42  65  90 121 157 198 244 299 358
#     4  10  22  40  64  92 120 154 198 245 297 359
#     4  11  23  38  56  82 117 156 201 247 297 354
#     4   9  18  32  52  77 105 142 187 234 285 335
#
# _framework density 24.058109000000002
#
# number of rings (size 3 to 8) (size 9 to 14) (size 15 to 20)
#    0.000    2.000    1.429    1.714    0.000    5.714 
#    0.000    1.429    0.000    0.000    0.000    0.000 
#    0.000    0.000    0.000    0.000    0.000    0.000 
#
# Total GULP energy -155904.251102 kJ/mol
# GULP energy per Si atom -5568.008968 kJ/mol
# Density = 2.400335 g / cm^3
# Si number density = 24.058109 Si / 1000 Ang^3
#
#
#
# Elastic Constant Matrix: (Units=GPa)
#
#
# Indices 1 2 3 4 5 6 
#
# 1 101.9912 -11.0233 25.0355 0.0000 -18.1334 0.0000
# 2 -11.0233 63.8600 4.6575 0.0000 -1.8886 0.0000
# 3 25.0355 4.6575 94.6804 0.0000 -44.7563 0.0000
# 4 0.0000 0.0000 0.0000 17.6507 0.0000 2.0179
# 5 -18.1334 -1.8886 -44.7563 0.0000 34.0068 0.0000
# 6 0.0000 0.0000 0.0000 2.0179 0.0000 15.4120
#
#
#
# Elastic Compliance Matrix: (Units=1/GPa)
#
#
# Indices 1 2 3 4 5 6 
#
# 1 0.011113 0.002114 -0.000492 0.000000 0.005396 0.000000
# 2 0.002114 0.016120 -0.001048 0.000000 0.000643 0.000000
# 3 -0.000492 -0.001048 0.028031 0.000000 0.036571 0.000000
# 4 0.000000 0.000000 0.000000 0.057516 0.000000 -0.007530
# 5 0.005396 0.000643 0.036571 0.000000 0.080450 0.000000
# 6 0.000000 0.000000 0.000000 -0.007530 0.000000 0.065870
#
#
# Mechanical properties :
#
#
# Convention : Reuss Voigt Hill
#
# Bulk Modulus (GPa) = 17.72661 33.09678 25.41169
# Shear Modulus (GPa) = 18.06647 29.53802 23.80224
#
# Velocity S-wave (km/s) = 2.74332 3.50777 3.14883
# Velocity P-wave (km/s) = 4.17357 5.49480 4.87911
#
# Compressibility (1/GPa) = 0.05641238
#
# Stress axis : x y z
#
# Youngs Moduli (GPa) = 89.98196 62.03641 35.67489
#
# Poissons Ratio (x) = -0.13113 0.01755
# Poissons Ratio (y) = -0.19020 0.03738
# Poissons Ratio (z) = 0.04425 0.06500
#
# Static dielectric constant tensor:
#      x y z
#    x 2.020250 0.000000 -0.147160 
#    y 0.000000 1.865020 0.000000 
#    z -0.147160 0.000000 2.063100 
# 
# From -- ./inp_files/54399.got.cif
#   From: 2010.05.17/outbox.cif.g08.bks.cpg/sg11_28_cif.got.tgz:54399.got - 2010.06.03 12:22:45.
