data_PCOD9164260
_publ_section_title
;
Structure prediction by ZEFSAII (Michael W. Deem and Ramdas Pophale) SiO2 
 PCOD9164260
Probable space group: P 21/M
;
_chemical_formula_sum "Si O2"
_cell_formula_units_Z 32
_cell_length_a 12.445807
_cell_length_b 8.597579
_cell_length_c 30.165861
_cell_angle_alpha 90.000000
_cell_angle_beta 148.694641
_cell_angle_gamma 90.000000
_cell_volume 1677.193974
_symmetry_space_group_name_H-M "P 21/M"
_symmetry_group_IT_number 11
_symmetry_cell_setting 'monoclinic'
loop_
_space_group_symop_operation_xyz
x,y,z
-x,1/2+y,-z
-x,-y,-z
x,1/2-y,z
loop_
_atom_site_type_symbol
_atom_site_label
_atom_site_fract_x
_atom_site_fract_y
_atom_site_fract_z
Si Si1 0.337791 0.071476 0.321558
Si Si2 0.218908 0.066207 0.017142
Si Si3 0.797484 0.064161 0.821237
Si Si4 0.609789 0.567128 0.493372
Si Si5 0.988880 0.575427 0.251039
Si Si6 0.584239 0.067061 0.074753
Si Si7 0.543439 0.938048 0.811386
Si Si8 0.081138 0.565955 0.680582
O O1 0.386705 0.250000 0.330530
O O2 0.263495 0.997767 0.248901
O O3 0.517590 0.996160 0.414780
O O4 0.147442 0.049172 0.288112
O O5 0.178243 0.250000 0.009960
O O6 0.411010 0.053037 0.051461
O O7 0.305845 0.006150 0.095042
O O8 0.013743 0.003678 0.919870
O O9 0.814998 0.250000 0.823745
O O10 0.622291 0.014929 0.794297
O O11 0.500000 0.500000 0.500000
O O12 0.569242 0.750000 0.481626
O O13 0.858156 0.544901 0.579130
O O14 0.066349 0.750000 0.270553
O O15 0.775824 0.542113 0.152280
O O16 0.941968 0.542517 0.285190
O O17 0.641443 0.250000 0.092187
O O18 0.500000 0.000000 0.000000
O O19 0.562765 0.750000 0.815490
O O20 0.300612 0.970156 0.734986
O O21 0.094845 0.750000 0.698367
#
# Coordination Sequence:
#
# PCOD9164260 Si02
#       8
#     4   4   4   4   4   4   4   4
#     4  12  25  42  63  88 122 166 207 253 310 374
#     4   9  19  36  60  85 119 161 204 251 301 358
#     4  11  23  40  61  91 124 159 206 262 310 360
#     4  11  22  38  64  97 126 158 199 252 309 373
#     4  12  23  36  58  88 123 159 199 252 308 366
#     4  11  21  36  55  82 121 165 207 251 307 370
#     4  10  20  40  64  88 120 165 208 248 301 369
#     4  10  21  39  64  90 122 159 199 245 303 368
#
# _framework density 19.079488000000001
#
# number of rings (size 3 to 8) (size 9 to 14) (size 15 to 20)
#    0.000    1.250    2.500    4.500    0.000    2.000 
#    0.000    3.125    0.000    0.000    0.000    0.000 
#    0.000    0.000    0.000    0.000    0.000    0.000 
#
# Total GULP energy -178499.330808 kJ/mol
# GULP energy per Si atom -5578.104088 kJ/mol
# Density = 1.903606 g / cm^3
# Si number density = 19.079488 Si / 1000 Ang^3
#
#
#
# Elastic Constant Matrix: (Units=GPa)
#
#
# Indices 1 2 3 4 5 6 
#
# 1 124.6903 55.1990 64.1597 0.0000 -14.1822 0.0000
# 2 55.1990 51.3985 60.0529 0.0000 -7.0556 0.0000
# 3 64.1597 60.0529 158.1187 0.0000 -7.1729 0.0000
# 4 0.0000 0.0000 0.0000 65.9232 0.0000 -22.7788
# 5 -14.1822 -7.0556 -7.1729 0.0000 17.5107 0.0000
# 6 0.0000 0.0000 0.0000 -22.7788 0.0000 38.2795
#
#
#
# Elastic Compliance Matrix: (Units=1/GPa)
#
#
# Indices 1 2 3 4 5 6 
#
# 1 0.015931 -0.016215 -0.000017 0.000000 0.006362 0.000000
# 2 -0.016215 0.052870 -0.013378 0.000000 0.002690 0.000000
# 3 -0.000017 -0.013378 0.011379 0.000000 -0.000743 0.000000
# 4 0.000000 0.000000 0.000000 0.019095 0.000000 0.011363
# 5 0.006362 0.002690 -0.000743 0.000000 0.063040 0.000000
# 6 0.000000 0.000000 0.000000 0.011363 0.000000 0.032885
#
#
# Mechanical properties :
#
#
# Convention : Reuss Voigt Hill
#
# Bulk Modulus (GPa) = 47.71394 77.00341 62.35868
# Shear Modulus (GPa) = 19.12724 34.66240 26.89482
#
# Velocity S-wave (km/s) = 3.16967 4.26694 3.75856
# Velocity P-wave (km/s) = 6.20145 8.04504 7.18264
#
# Compressibility (1/GPa) = 0.02095823
#
# Stress axis : x y z
#
# Youngs Moduli (GPa) = 62.77254 18.91425 87.88467
#
# Poissons Ratio (x) = 0.30670 0.00150
# Poissons Ratio (y) = 1.01787 1.17574
# Poissons Ratio (z) = 0.00107 0.25304
#
# Static dielectric constant tensor:
#      x y z
#    x 1.644920 0.000000 0.011300 
#    y 0.000000 1.662040 0.000000 
#    z 0.011300 0.000000 1.658320 
# 
# From -- ./inp_files/73160.got.cif
#   From: 2010.05.17/outbox.cif.g08.bks.cpg/sg11_37_cif.got.tgz:73160.got - 2010.06.03 12:22:45.
