data_PCOD9164817
_publ_section_title
;
Structure prediction by ZEFSAII (Michael W. Deem and Ramdas Pophale) SiO2 
 PCOD9164817
Probable space group: P 21/M
;
_chemical_formula_sum "Si O2"
_cell_formula_units_Z 28
_cell_length_a 10.000558
_cell_length_b 8.065383
_cell_length_c 26.617993
_cell_angle_alpha 90.000000
_cell_angle_beta 36.741963
_cell_angle_gamma 90.000000
_cell_volume 1284.339388
_symmetry_space_group_name_H-M "P 21/M"
_symmetry_group_IT_number 11
_symmetry_cell_setting 'monoclinic'
loop_
_space_group_symop_operation_xyz
x,y,z
-x,1/2+y,-z
-x,-y,-z
x,1/2-y,z
loop_
_atom_site_type_symbol
_atom_site_label
_atom_site_fract_x
_atom_site_fract_y
_atom_site_fract_z
Si Si1 0.061461 0.447858 0.925017
Si Si2 0.240434 0.447484 0.078164
Si Si3 0.680468 0.949903 0.571158
Si Si4 0.871639 0.949850 0.778164
Si Si5 0.126620 0.944090 0.385744
Si Si6 0.444238 0.951111 0.206928
Si Si7 0.672109 0.052545 0.404123
O O1 0.061949 0.250000 0.922868
O O2 0.317861 0.508410 0.843829
O O3 0.896557 0.504759 0.930543
O O4 0.000000 0.500000 0.000000
O O5 0.237255 0.250000 0.081537
O O6 0.127613 0.509741 0.164330
O O7 0.500000 0.500000 0.000000
O O8 0.703349 0.750000 0.570759
O O9 0.455536 0.983046 0.609555
O O10 0.886568 0.011452 0.474380
O O11 0.713928 0.034297 0.614290
O O12 0.890182 0.750000 0.773206
O O13 0.077841 0.015214 0.681359
O O14 0.634637 0.996159 0.824411
O O15 0.091345 0.750000 0.386023
O O16 0.252390 0.020289 0.301206
O O17 0.445703 0.750000 0.207792
O O18 0.690445 0.250000 0.404837
O O19 0.500000 0.000000 0.500000
#
# Coordination Sequence:
#
# PCOD9164817 Si02
#       7
#     4   4   4   4   4   4   4
#     4  11  24  42  65  94 125 160 204 253 308 372
#     4  11  24  43  67  95 128 165 205 255 313 375
#     4   9  18  32  52  76 108 148 191 238 291 349
#     4  10  23  40  60  89 124 162 207 254 307 370
#     4   9  18  33  52  78 110 146 190 240 291 345
#     4  10  22  39  60  86 118 155 200 249 299 358
#     4  10  21  37  56  82 117 158 205 252 303 362
#
# _framework density 21.801089999999999
#
# number of rings (size 3 to 8) (size 9 to 14) (size 15 to 20)
#    0.000    2.000    0.000    2.571    2.000    7.429 
#    0.000    2.857    0.000    0.000    0.000    0.000 
#    0.000    0.000    0.000    0.000    0.000    0.000 
#
# Total GULP energy -156244.174409 kJ/mol
# GULP energy per Si atom -5580.149086 kJ/mol
# Density = 2.175147 g / cm^3
# Si number density = 21.801090 Si / 1000 Ang^3
#
#
#
# Elastic Constant Matrix: (Units=GPa)
#
#
# Indices 1 2 3 4 5 6 
#
# 1 154.3348 11.4437 73.1827 0.0000 -8.4559 0.0000
# 2 11.4437 17.0100 11.8125 0.0000 -3.8894 0.0000
# 3 73.1827 11.8125 101.3456 0.0000 6.3243 0.0000
# 4 0.0000 0.0000 0.0000 15.7139 0.0000 -0.3861
# 5 -8.4559 -3.8894 6.3243 0.0000 23.4915 0.0000
# 6 0.0000 0.0000 0.0000 -0.3861 0.0000 34.2977
#
#
#
# Elastic Compliance Matrix: (Units=1/GPa)
#
#
# Indices 1 2 3 4 5 6 
#
# 1 0.010623 -0.000220 -0.008016 0.000000 0.005945 0.000000
# 2 -0.000220 0.068002 -0.008609 0.000000 0.013497 0.000000
# 3 -0.008016 -0.008609 0.017217 0.000000 -0.008946 0.000000
# 4 0.000000 0.000000 0.000000 0.063656 0.000000 0.000717
# 5 0.005945 0.013497 -0.008946 0.000000 0.049352 0.000000
# 6 0.000000 0.000000 0.000000 0.000717 0.000000 0.029165
#
#
# Mechanical properties :
#
#
# Convention : Reuss Voigt Hill
#
# Bulk Modulus (GPa) = 16.08993 51.72980 33.90986
# Shear Modulus (GPa) = 17.09861 26.45071 21.77466
#
# Velocity S-wave (km/s) = 2.80357 3.48699 3.16379
# Velocity P-wave (km/s) = 4.22805 6.32390 5.37904
#
# Compressibility (1/GPa) = 0.06215069
#
# Stress axis : x y z
#
# Youngs Moduli (GPa) = 94.13979 14.70547 58.08106
#
# Poissons Ratio (x) = 0.00324 0.46557
# Poissons Ratio (y) = 0.02075 0.50003
# Poissons Ratio (z) = 0.75462 0.12660
#
# Static dielectric constant tensor:
#      x y z
#    x 1.800920 0.000000 0.002730 
#    y 0.000000 1.773380 0.000000 
#    z 0.002730 0.000000 1.868840 
# 
# From -- ./inp_files/70843.got.cif
#   From: 2010.05.17/outbox.cif.g08.bks.cpg/sg11_36_cif.got.tgz:70843.got - 2010.06.03 12:22:45.
