data_PCOD9164495
_publ_section_title
;
Structure prediction by ZEFSAII (Michael W. Deem and Ramdas Pophale) SiO2 
 PCOD9164495
Probable space group: P 21/M
;
_chemical_formula_sum "Si O2"
_cell_formula_units_Z 26
_cell_length_a 16.800980
_cell_length_b 7.675132
_cell_length_c 14.218720
_cell_angle_alpha 90.000000
_cell_angle_beta 34.201349
_cell_angle_gamma 90.000000
_cell_volume 1030.615710
_symmetry_space_group_name_H-M "P 21/M"
_symmetry_group_IT_number 11
_symmetry_cell_setting 'monoclinic'
loop_
_space_group_symop_operation_xyz
x,y,z
-x,1/2+y,-z
-x,-y,-z
x,1/2-y,z
loop_
_atom_site_type_symbol
_atom_site_label
_atom_site_fract_x
_atom_site_fract_y
_atom_site_fract_z
Si Si1 0.432772 0.958265 0.667763
Si Si2 0.110963 0.558838 0.207530
Si Si3 0.287057 0.961265 0.322261
Si Si4 0.137909 0.539214 0.659039
Si Si5 0.835620 0.041712 0.164730
Si Si6 0.000000 0.000000 0.500000
Si Si7 0.570756 0.951732 0.121522
O O1 0.437544 0.750000 0.675791
O O2 0.271052 0.024800 0.809386
O O3 0.500000 0.000000 0.500000
O O4 0.482910 0.037339 0.717478
O O5 0.080663 0.750000 0.282707
O O6 0.035376 0.439517 0.358012
O O7 0.019976 0.536392 0.202360
O O8 0.276746 0.541835 0.032287
O O9 0.291451 0.750000 0.314615
O O10 0.225537 0.017781 0.483398
O O11 0.450534 0.020888 0.167893
O O12 0.172451 0.016872 0.357608
O O13 0.128921 0.750000 0.669652
O O14 0.206192 0.480290 0.689732
O O15 0.820680 0.250000 0.176782
O O16 0.000000 0.000000 0.000000
O O17 0.595870 0.750000 0.075020
#
# Coordination Sequence:
#
# PCOD9164495 Si02
#       7
#     4   4   4   4   4   2   4
#     4  11  23  40  61  89 125 163 206 253 301 355
#     4  11  23  39  61  91 124 154 196 252 304 359
#     4   9  19  38  62  85 113 151 197 245 296 360
#     4   9  18  36  59  81 111 155 199 240 295 355
#     4  10  21  35  54  81 114 154 200 247 292 346
#     4  10  22  42  64  86 116 154 194 244 304 362
#     4  11  23  40  62  89 123 164 203 244 301 362
#
# _framework density 25.227639
#
# number of rings (size 3 to 8) (size 9 to 14) (size 15 to 20)
#    0.000    1.846    0.000    3.692    0.000    9.231 
#    0.000   10.769    0.000    0.000    0.000    0.000 
#    0.000    0.000    0.000    0.000    0.000    0.000 
#
# Total GULP energy -144785.051580 kJ/mol
# GULP energy per Si atom -5568.655830 kJ/mol
# Density = 2.517022 g / cm^3
# Si number density = 25.227639 Si / 1000 Ang^3
#
#
#
# Elastic Constant Matrix: (Units=GPa)
#
#
# Indices 1 2 3 4 5 6 
#
# 1 156.5268 -7.7417 14.9480 0.0000 -38.4554 0.0000
# 2 -7.7417 70.6002 -10.5508 0.0000 -8.6941 0.0000
# 3 14.9480 -10.5508 70.1209 0.0000 -19.1891 0.0000
# 4 0.0000 0.0000 0.0000 3367.3350 0.0000 2160.4712
# 5 -38.4554 -8.6941 -19.1891 0.0000 55.5980 0.0000
# 6 0.0000 0.0000 0.0000 2160.4712 0.0000 1405.2795
#
#
#
# Elastic Compliance Matrix: (Units=1/GPa)
#
#
# Indices 1 2 3 4 5 6 
#
# 1 0.007863 0.001588 0.000131 0.000000 0.005732 0.000000
# 2 0.001588 0.015393 0.003243 0.000000 0.004625 0.000000
# 3 0.000131 0.003243 0.016437 0.000000 0.006271 0.000000
# 4 0.000000 0.000000 0.000000 0.021817 0.000000 -0.033542
# 5 0.005732 0.004625 0.006271 0.000000 0.024839 0.000000
# 6 0.000000 0.000000 0.000000 -0.033542 0.000000 0.052279
#
#
# Mechanical properties :
#
#
# Convention : Reuss Voigt Hill
#
# Bulk Modulus (GPa) = 20.15432 32.28432 26.21932
# Shear Modulus (GPa) = 34.42540 985.68202 510.05371
#
# Velocity S-wave (km/s) = 3.69804 19.78796 14.23445
# Velocity P-wave (km/s) = 5.12254 23.12811 16.75037
#
# Compressibility (1/GPa) = 0.04961715
#
# Stress axis : x y z
#
# Youngs Moduli (GPa) = 127.17892 64.96660 60.83755
#
# Poissons Ratio (x) = -0.10315 -0.00799
# Poissons Ratio (y) = -0.20193 -0.19730
# Poissons Ratio (z) = -0.01671 -0.21069
#
# Static dielectric constant tensor:
#      x y z
#    x 1.731380 0.000000 -0.020790 
#    y 0.000000 2.067700 0.000000 
#    z -0.020790 0.000000 2.106240 
# 
# From -- ./inp_files/51913.got.cif
#   From: 2010.05.17/outbox.cif.g08.bks.cpg/sg11_26_cif.got.tgz:51913.got - 2010.06.03 12:22:45.
