data_PCOD9164013
_publ_section_title
;
Structure prediction by ZEFSAII (Michael W. Deem and Ramdas Pophale) SiO2 
 PCOD9164013
Probable space group: P 21/M
;
_chemical_formula_sum "Si O2"
_cell_formula_units_Z 32
_cell_length_a 12.661049
_cell_length_b 7.860520
_cell_length_c 32.978543
_cell_angle_alpha 90.000000
_cell_angle_beta 26.045602
_cell_angle_gamma 90.000000
_cell_volume 1441.127415
_symmetry_space_group_name_H-M "P 21/M"
_symmetry_group_IT_number 11
_symmetry_cell_setting 'monoclinic'
loop_
_space_group_symop_operation_xyz
x,y,z
-x,1/2+y,-z
-x,-y,-z
x,1/2-y,z
loop_
_atom_site_type_symbol
_atom_site_label
_atom_site_fract_x
_atom_site_fract_y
_atom_site_fract_z
Si Si1 0.448362 0.448210 0.589785
Si Si2 0.274210 0.546355 0.896833
Si Si3 0.991095 0.542712 0.308508
Si Si4 0.470492 0.041874 0.273850
Si Si5 0.983122 0.048085 0.403629
Si Si6 0.478526 0.553917 0.107695
Si Si7 0.262796 0.942865 0.057843
Si Si8 0.742757 0.053111 0.259695
O O1 0.481046 0.250000 0.567652
O O2 0.266079 0.520104 0.619051
O O3 0.714890 0.524764 0.501619
O O4 0.315237 0.459634 0.678655
O O5 0.306879 0.750000 0.888767
O O6 0.361682 0.493588 0.822081
O O7 0.429080 0.459179 0.878403
O O8 0.000000 0.500000 0.000000
O O9 0.993672 0.750000 0.308371
O O10 0.042755 0.478308 0.335740
O O11 0.204260 0.489942 0.204301
O O12 0.469852 0.250000 0.275108
O O13 0.584156 0.984541 0.276916
O O14 0.201042 0.981523 0.356108
O O15 0.973655 0.250000 0.415192
O O16 0.479099 0.750000 0.094011
O O17 0.658456 0.457495 0.016080
O O18 0.207862 0.750000 0.087742
O O19 0.022209 0.044012 0.150978
O O20 0.500000 0.000000 0.000000
O O21 0.678201 0.250000 0.288533
#
# Coordination Sequence:
#
# PCOD9164013 Si02
#       8
#     4   4   4   4   4   4   4   4
#     4  10  22  39  60  88 122 161 205 256 313 369
#     4  11  21  36  58  84 117 156 202 252 310 371
#     4  10  21  37  58  88 124 156 195 254 311 367
#     4   9  20  38  59  85 120 159 202 257 310 361
#     4  10  20  38  63  88 119 160 205 254 311 372
#     4  11  22  37  58  87 123 160 200 249 305 367
#     4  12  25  42  64  91 123 162 208 254 306 368
#     4  11  23  41  63  88 122 164 209 256 308 368
#
# _framework density 22.204839
#
# number of rings (size 3 to 8) (size 9 to 14) (size 15 to 20)
#    0.000    1.500    1.250    4.125    0.000    4.000 
#    0.000    3.125    0.000    0.000    0.000    0.000 
#    0.000    0.000    0.000    0.000    0.000    0.000 
#
# Total GULP energy -178902.805841 kJ/mol
# GULP energy per Si atom -5590.712683 kJ/mol
# Density = 2.215430 g / cm^3
# Si number density = 22.204839 Si / 1000 Ang^3
#
#
#
# Elastic Constant Matrix: (Units=GPa)
#
#
# Indices 1 2 3 4 5 6 
#
# 1 94.0326 -14.0512 5.3936 0.0000 -22.5467 0.0000
# 2 -14.0512 35.2678 -12.9449 0.0000 -3.6965 0.0000
# 3 5.3936 -12.9449 90.1442 0.0000 -28.1493 0.0000
# 4 0.0000 0.0000 0.0000 18.9467 0.0000 5.0328
# 5 -22.5467 -3.6965 -28.1493 0.0000 40.2690 0.0000
# 6 0.0000 0.0000 0.0000 5.0328 0.0000 7.0146
#
#
#
# Elastic Compliance Matrix: (Units=1/GPa)
#
#
# Indices 1 2 3 4 5 6 
#
# 1 0.014465 0.008450 0.003990 0.000000 0.011664 0.000000
# 2 0.008450 0.036676 0.009326 0.000000 0.014617 0.000000
# 3 0.003990 0.009326 0.016833 0.000000 0.014857 0.000000
# 4 0.000000 0.000000 0.000000 0.065207 0.000000 -0.046784
# 5 0.011664 0.014617 0.014857 0.000000 0.043091 0.000000
# 6 0.000000 0.000000 0.000000 -0.046784 0.000000 0.176126
#
#
# Mechanical properties :
#
#
# Convention : Reuss Voigt Hill
#
# Bulk Modulus (GPa) = 8.96800 19.58216 14.27508
# Shear Modulus (GPa) = 14.44940 29.31586 21.88263
#
# Velocity S-wave (km/s) = 2.55371 3.63746 3.14266
# Velocity P-wave (km/s) = 3.56970 5.14583 4.42845
#
# Compressibility (1/GPa) = 0.11150756
#
# Stress axis : x y z
#
# Youngs Moduli (GPa) = 69.13121 27.26558 59.40630
#
# Poissons Ratio (x) = -0.23040 -0.23705
# Poissons Ratio (y) = -0.58419 -0.55400
# Poissons Ratio (z) = -0.27586 -0.25427
#
# Static dielectric constant tensor:
#      x y z
#    x 1.819310 0.000000 -0.036550 
#    y 0.000000 1.875680 0.000000 
#    z -0.036550 0.000000 1.845100 
# 
# From -- ./inp_files/73064.got.cif
#   From: 2010.05.17/outbox.cif.g08.bks.cpg/sg11_37_cif.got.tgz:73064.got - 2010.06.03 12:22:45.
