data_PCOD9164389
_publ_section_title
;
Structure prediction by ZEFSAII (Michael W. Deem and Ramdas Pophale) SiO2 
 PCOD9164389
Probable space group: P 21/M
;
_chemical_formula_sum "Si O2"
_cell_formula_units_Z 30
_cell_length_a 15.003662
_cell_length_b 9.568451
_cell_length_c 25.887482
_cell_angle_alpha 90.000000
_cell_angle_beta 155.793932
_cell_angle_gamma 90.000000
_cell_volume 1523.818948
_symmetry_space_group_name_H-M "P 21/M"
_symmetry_group_IT_number 11
_symmetry_cell_setting 'monoclinic'
loop_
_space_group_symop_operation_xyz
x,y,z
-x,1/2+y,-z
-x,-y,-z
x,1/2-y,z
loop_
_atom_site_type_symbol
_atom_site_label
_atom_site_fract_x
_atom_site_fract_y
_atom_site_fract_z
Si Si1 0.079672 0.993277 0.967200
Si Si2 0.899833 0.750000 0.939279
Si Si3 0.010498 0.587392 0.717628
Si Si4 0.437335 0.412025 0.754638
Si Si5 0.511699 0.909495 0.417995
Si Si6 0.886842 0.589276 0.326074
Si Si7 0.946610 0.085898 0.782621
Si Si8 0.608690 0.090704 0.372865
O O1 0.320102 0.926864 0.096257
O O2 0.083783 0.127614 0.006587
O O3 0.923629 0.874923 0.907923
O O4 0.024031 0.039225 0.879957
O O5 0.070949 0.750000 0.752346
O O6 0.750756 0.579781 0.568617
O O7 0.046346 0.506144 0.789789
O O8 0.121537 0.509417 0.728071
O O9 0.391578 0.250000 0.717571
O O10 0.267888 0.457315 0.709053
O O11 0.421611 0.504224 0.695120
O O12 0.486395 0.750000 0.384666
O O13 0.315601 0.932855 0.353796
O O14 0.500464 0.015253 0.364328
O O15 0.830102 0.750000 0.282610
O O16 0.134877 0.591693 0.477819
O O17 0.990936 0.250000 0.797631
O O18 0.529787 0.250000 0.322180
#
# Coordination Sequence:
#
# PCOD9164389 Si02
#       8
#     4   2   4   4   4   4   4   4
#     4  11  24  40  61  88 117 157 193 234 284 343
#     4  10  24  42  60  82 126 152 194 234 282 334
#     4  10  21  38  60  87 115 149 189 240 289 338
#     4  11  23  38  59  83 116 156 195 236 288 345
#     4   9  20  36  57  85 119 153 189 229 286 347
#     4   9  20  41  60  82 114 153 193 239 290 341
#     4  11  23  38  59  84 116 154 193 234 283 342
#     4  10  21  33  57  89 118 150 190 236 289 344
#
# _framework density 19.687379
#
# number of rings (size 3 to 8) (size 9 to 14) (size 15 to 20)
#    0.000    1.867    1.333    1.600    5.600    2.133 
#    0.000    0.667    0.000    0.000    0.000    0.000 
#    0.000    0.000    0.000    0.000    0.000    0.000 
#
# Total GULP energy -167135.271593 kJ/mol
# GULP energy per Si atom -5571.175720 kJ/mol
# Density = 1.964257 g / cm^3
# Si number density = 19.687379 Si / 1000 Ang^3
#
#
#
# Elastic Constant Matrix: (Units=GPa)
#
#
# Indices 1 2 3 4 5 6 
#
# 1 -23.6999 -150.1309 -143.2302 0.0000 102.3044 0.0000
# 2 -150.1309 -399.5376 -390.5256 0.0000 276.1968 0.0000
# 3 -143.2302 -390.5256 -289.9951 0.0000 218.4505 0.0000
# 4 0.0000 0.0000 0.0000 24.7450 0.0000 -8.5723
# 5 102.3044 276.1968 218.4505 0.0000 -145.5569 0.0000
# 6 0.0000 0.0000 0.0000 -8.5723 0.0000 28.5358
#
#
#
# Elastic Compliance Matrix: (Units=1/GPa)
#
#
# Indices 1 2 3 4 5 6 
#
# 1 0.030709 -0.010520 -0.001695 0.000000 -0.000923 0.000000
# 2 -0.010520 0.012749 -0.005215 0.000000 0.008972 0.000000
# 3 -0.001695 -0.005215 0.030184 0.000000 0.034213 0.000000
# 4 0.000000 0.000000 0.000000 0.045106 0.000000 0.013550
# 5 -0.000923 0.008972 0.034213 0.000000 0.060852 0.000000
# 6 0.000000 0.000000 0.000000 0.013550 0.000000 0.039114
#
#
# Mechanical properties :
#
#
# Convention : Reuss Voigt Hill
#
# Bulk Modulus (GPa) = 25.78540 -231.22287 -102.71873
# Shear Modulus (GPa) = 18.76163 -20.41160 -0.82498
#
# Velocity S-wave (km/s) = 3.09038 -3.22341 -0.64804
# Velocity P-wave (km/s) = 5.08525 11.46979 7.26967
#
# Compressibility (1/GPa) = 0.03878164
#
# Stress axis : x y z
#
# Youngs Moduli (GPa) = 32.56400 78.43639 33.13038
#
# Poissons Ratio (x) = 0.82519 0.05616
# Poissons Ratio (y) = 0.34259 0.17276
# Poissons Ratio (z) = 0.05520 0.40901
#
# Static dielectric constant tensor:
#      x y z
#    x 1.656260 0.000000 0.040820 
#    y 0.000000 1.672660 0.000000 
#    z 0.040820 0.000000 1.742430 
# 
# From -- ./inp_files/68916.got.cif
#   From: 2010.05.17/outbox.cif.g08.bks.cpg/sg11_35_cif.got.tgz:68916.got - 2010.06.03 12:22:45.
