data_PCOD9164717
_publ_section_title
;
Structure prediction by ZEFSAII (Michael W. Deem and Ramdas Pophale) SiO2 
 PCOD9164717
Probable space group: P 21/M
;
_chemical_formula_sum "Si O2"
_cell_formula_units_Z 24
_cell_length_a 5.004763
_cell_length_b 22.553845
_cell_length_c 10.414722
_cell_angle_alpha 90.000000
_cell_angle_beta 106.151303
_cell_angle_gamma 90.000000
_cell_volume 1129.179360
_symmetry_space_group_name_H-M "P 21/M"
_symmetry_group_IT_number 11
_symmetry_cell_setting 'monoclinic'
loop_
_space_group_symop_operation_xyz
x,y,z
-x,1/2+y,-z
-x,-y,-z
x,1/2-y,z
loop_
_atom_site_type_symbol
_atom_site_label
_atom_site_fract_x
_atom_site_fract_y
_atom_site_fract_z
Si Si1 0.396445 0.179926 0.174901
Si Si2 0.267161 0.984108 0.622096
Si Si3 0.477357 0.178551 0.895241
Si Si4 0.040279 0.873648 0.691839
Si Si5 0.558181 0.902645 0.452638
Si Si6 0.884306 0.320820 0.731623
O O1 0.333129 0.250000 0.164932
O O2 0.691410 0.168053 0.282898
O O3 0.150774 0.147061 0.216435
O O4 0.444073 0.157311 0.035964
O O5 0.157048 0.941081 0.718427
O O6 0.463986 0.942348 0.562325
O O7 0.407161 0.048184 0.655583
O O8 0.000000 0.000000 0.500000
O O9 0.466536 0.250000 0.903114
O O10 0.759132 0.165705 0.857023
O O11 0.207001 0.161766 0.775261
O O12 0.842342 0.872645 0.539483
O O13 0.318834 0.856631 0.387668
O O14 0.862096 0.250000 0.707143
#
# Coordination Sequence:
#
# PCOD9164717 Si02
#       6
#     4   4   4   4   4   4
#     4  11  22  37  59  84 119 157 193 236 290 350
#     4   9  20  38  60  84 114 158 200 228 284 358
#     4   9  20  38  56  80 112 159 199 224 279 353
#     4  11  21  37  58  88 116 150 195 242 286 344
#     4  10  21  38  60  91 115 154 190 239 300 346
#     4  10  21  36  59  86 117 147 187 242 288 345
#
# _framework density 21.254370999999999
#
# number of rings (size 3 to 8) (size 9 to 14) (size 15 to 20)
#    0.000    2.000    1.667    1.500    4.667    4.000 
#    0.000    0.000    0.000    6.000    0.000    0.000 
#    0.000    0.000    0.000    0.000    0.000    0.000 
#
# Total GULP energy -133930.715374 kJ/mol
# GULP energy per Si atom -5580.446474 kJ/mol
# Density = 2.120600 g / cm^3
# Si number density = 21.254371 Si / 1000 Ang^3
#
#
#
# Elastic Constant Matrix: (Units=GPa)
#
#
# Indices 1 2 3 4 5 6 
#
# 1 89.1103 14.1978 -4.7130 0.0000 2.6095 0.0000
# 2 14.1978 62.2969 14.2090 0.0000 -6.4746 0.0000
# 3 -4.7130 14.2090 39.8221 0.0000 0.3756 0.0000
# 4 0.0000 0.0000 0.0000 -7.5268 0.0000 -12.8956
# 5 2.6095 -6.4746 0.3756 0.0000 27.1794 0.0000
# 6 0.0000 0.0000 0.0000 -12.8956 0.0000 33.7325
#
#
#
# Elastic Compliance Matrix: (Units=1/GPa)
#
#
# Indices 1 2 3 4 5 6 
#
# 1 0.011993 -0.003563 0.002710 0.000000 -0.002038 0.000000
# 2 -0.003563 0.019038 -0.007262 0.000000 0.004978 0.000000
# 3 0.002710 -0.007262 0.028046 0.000000 -0.002378 0.000000
# 4 0.000000 0.000000 0.000000 -0.080279 0.000000 -0.030690
# 5 -0.002038 0.004978 -0.002378 0.000000 0.038207 0.000000
# 6 0.000000 0.000000 0.000000 -0.030690 0.000000 0.017913
#
#
# Mechanical properties :
#
#
# Convention : Reuss Voigt Hill
#
# Bulk Modulus (GPa) = 23.33889 26.51299 24.92594
# Shear Modulus (GPa) = 76.41876 21.84606 49.13241
#
# Velocity S-wave (km/s) = 6.00270 3.20947 4.81317
# Velocity P-wave (km/s) = 7.68426 5.12206 6.53006
#
# Compressibility (1/GPa) = 0.04284695
#
# Stress axis : x y z
#
# Youngs Moduli (GPa) = 83.38372 52.52712 35.65593
#
# Poissons Ratio (x) = 0.18716 -0.09662
# Poissons Ratio (y) = 0.29710 0.25892
# Poissons Ratio (z) = -0.22596 0.38143
#
# Static dielectric constant tensor:
#      x y z
#    x 1.823490 0.000000 -0.024640 
#    y 0.000000 1.806410 0.000000 
#    z -0.024640 0.000000 1.811140 
# 
# From -- ./inp_files/30128.got.cif
#   From: 2010.05.17/outbox.cif.g08.bks.cpg/sg11_16_cif.got.tgz:30128.got - 2010.06.03 12:22:45.
