data_PCOD9164624
_publ_section_title
;
Structure prediction by ZEFSAII (Michael W. Deem and Ramdas Pophale) SiO2 
 PCOD9164624
Probable space group: P 21/M
;
_chemical_formula_sum "Si O2"
_cell_formula_units_Z 32
_cell_length_a 28.053421
_cell_length_b 8.924976
_cell_length_c 21.922884
_cell_angle_alpha 90.000000
_cell_angle_beta 162.447237
_cell_angle_gamma 90.000000
_cell_volume 1655.384104
_symmetry_space_group_name_H-M "P 21/M"
_symmetry_group_IT_number 11
_symmetry_cell_setting 'monoclinic'
loop_
_space_group_symop_operation_xyz
x,y,z
-x,1/2+y,-z
-x,-y,-z
x,1/2-y,z
loop_
_atom_site_type_symbol
_atom_site_label
_atom_site_fract_x
_atom_site_fract_y
_atom_site_fract_z
Si Si1 0.094468 0.427069 0.926344
Si Si2 0.772473 0.919899 0.243508
Si Si3 0.977689 0.577760 0.370181
Si Si4 0.529299 0.927340 0.100243
Si Si5 0.381732 0.424567 0.574083
Si Si6 0.939240 0.070406 0.863429
Si Si7 0.258505 0.930086 0.016706
Si Si8 0.785783 0.575147 0.502726
O O1 0.126481 0.250000 0.963744
O O2 0.055677 0.473011 0.948919
O O3 0.221160 0.514781 0.039943
O O4 0.929690 0.467897 0.692615
O O5 0.724904 0.750000 0.200058
O O6 0.875300 0.917546 0.307696
O O7 0.870840 0.985925 0.420617
O O8 0.620998 0.019877 0.044694
O O9 0.016869 0.750000 0.401465
O O10 0.870934 0.502157 0.187340
O O11 0.531115 0.750000 0.099268
O O12 0.691894 0.974953 0.329120
O O13 0.500000 0.000000 0.000000
O O14 0.370687 0.250000 0.541417
O O15 0.336995 0.430059 0.590925
O O16 0.238677 0.513962 0.367798
O O17 0.561510 0.474471 0.781379
O O18 0.939109 0.250000 0.866249
O O19 0.000000 0.000000 0.000000
O O20 0.246142 0.750000 0.997568
O O21 0.838525 0.750000 0.561657
#
# Coordination Sequence:
#
# PCOD9164624 Si02
#       8
#     4   4   4   4   4   4   4   4
#     4  10  22  38  58  87 120 152 191 235 283 339
#     4  10  21  37  54  75 103 139 188 238 293 353
#     4  10  21  36  56  78 105 144 186 236 290 345
#     4  11  23  36  52  74 105 143 188 241 295 346
#     4   9  19  37  61  88 115 148 191 235 280 336
#     4  10  21  39  65  93 121 155 191 231 276 333
#     4  11  22  36  58  86 118 153 190 235 288 341
#     4   9  19  37  58  78 106 147 193 239 289 346
#
# _framework density 19.330860999999999
#
# number of rings (size 3 to 8) (size 9 to 14) (size 15 to 20)
#    0.000    2.000    0.000    3.000    1.750    6.000 
#    0.000    3.125    0.000    0.000    0.000    0.000 
#    0.000    0.000    0.000    0.000    0.000    0.000 
#
# Total GULP energy -178628.536085 kJ/mol
# GULP energy per Si atom -5582.141753 kJ/mol
# Density = 1.928686 g / cm^3
# Si number density = 19.330861 Si / 1000 Ang^3
#
#
#
# Elastic Constant Matrix: (Units=GPa)
#
#
# Indices 1 2 3 4 5 6 
#
# 1 85.8794 27.4445 33.1883 0.0000 -5.2612 0.0000
# 2 27.4445 39.9994 12.4691 0.0000 -14.1893 0.0000
# 3 33.1883 12.4691 38.1091 0.0000 -13.2881 0.0000
# 4 0.0000 0.0000 0.0000 28.9881 0.0000 0.7496
# 5 -5.2612 -14.1893 -13.2881 0.0000 35.5789 0.0000
# 6 0.0000 0.0000 0.0000 0.7496 0.0000 31.2637
#
#
#
# Elastic Compliance Matrix: (Units=1/GPa)
#
#
# Indices 1 2 3 4 5 6 
#
# 1 0.022150 -0.012559 -0.018148 0.000000 -0.008511 0.000000
# 2 -0.012559 0.037619 0.003694 0.000000 0.014525 0.000000
# 3 -0.018148 0.003694 0.046466 0.000000 0.016144 0.000000
# 4 0.000000 0.000000 0.000000 0.034518 0.000000 -0.000828
# 5 -0.008511 0.014525 0.016144 0.000000 0.038670 0.000000
# 6 0.000000 0.000000 0.000000 -0.000828 0.000000 0.032006
#
#
# Mechanical properties :
#
#
# Convention : Reuss Voigt Hill
#
# Bulk Modulus (GPa) = 19.15469 34.46576 26.81023
# Shear Modulus (GPa) = 17.67667 25.22521 21.45094
#
# Velocity S-wave (km/s) = 3.02723 3.61629 3.33479
# Velocity P-wave (km/s) = 4.70630 5.94178 5.35976
#
# Compressibility (1/GPa) = 0.05220654
#
# Stress axis : x y z
#
# Youngs Moduli (GPa) = 45.14705 26.58243 21.52123
#
# Poissons Ratio (x) = 0.33386 0.39057
# Poissons Ratio (y) = 0.56702 -0.07949
# Poissons Ratio (z) = 0.81934 -0.09819
#
# Static dielectric constant tensor:
#      x y z
#    x 1.684760 0.000000 -0.096810 
#    y 0.000000 1.657910 0.000000 
#    z -0.096810 0.000000 1.303600 
# 
# From -- ./inp_files/67230.got.cif
#   From: 2010.05.17/outbox.cif.g08.bks.cpg/sg11_34_cif.got.tgz:67230.got - 2010.06.03 12:22:45.
