data_PCOD9164454
_publ_section_title
;
Structure prediction by ZEFSAII (Michael W. Deem and Ramdas Pophale) SiO2 
 PCOD9164454
Probable space group: P 21/M
;
_chemical_formula_sum "Si O2"
_cell_formula_units_Z 24
_cell_length_a 9.508642
_cell_length_b 15.268473
_cell_length_c 16.031140
_cell_angle_alpha 90.000000
_cell_angle_beta 150.194392
_cell_angle_gamma 90.000000
_cell_volume 1156.874791
_symmetry_space_group_name_H-M "P 21/M"
_symmetry_group_IT_number 11
_symmetry_cell_setting 'monoclinic'
loop_
_space_group_symop_operation_xyz
x,y,z
-x,1/2+y,-z
-x,-y,-z
x,1/2-y,z
loop_
_atom_site_type_symbol
_atom_site_label
_atom_site_fract_x
_atom_site_fract_y
_atom_site_fract_z
Si Si1 0.250082 0.589918 0.430562
Si Si2 0.848614 0.149160 0.016652
Si Si3 0.410065 0.148250 0.236510
Si Si4 0.776993 0.908844 0.296624
Si Si5 0.103852 0.615178 0.626758
Si Si6 0.200754 0.385670 0.364184
O O1 0.422889 0.591046 0.608172
O O2 0.204828 0.491980 0.372907
O O3 0.469542 0.637820 0.481804
O O4 0.945613 0.626920 0.302314
O O5 0.771971 0.250000 0.961378
O O6 0.082242 0.120871 0.068342
O O7 0.020103 0.141887 0.191370
O O8 0.558031 0.097891 0.874999
O O9 0.416230 0.250000 0.268308
O O10 0.584380 0.144854 0.240778
O O11 0.903825 0.865076 0.444883
O O12 0.863467 0.010622 0.346038
O O13 0.953704 0.647762 0.632722
#
# Coordination Sequence:
#
# PCOD9164454 Si02
#       6
#     4   4   4   4   4   4
#     4   8  16  31  53  76 101 136 171 202 249 309
#     4  10  21  35  51  74 105 139 169 204 258 313
#     4   9  18  33  51  73 104 139 171 206 256 312
#     4   9  18  33  51  75 105 135 171 207 250 310
#     4   9  18  32  53  77  99 131 174 215 249 291
#     4   9  17  33  55  78 104 131 170 215 252 297
#
# _framework density 20.745546999999998
#
# number of rings (size 3 to 8) (size 9 to 14) (size 15 to 20)
#    0.000    3.000    0.000    1.000    0.000    6.667 
#    0.000    1.667    0.000    0.000    0.000    0.000 
#    0.000    0.000    0.000    0.000    0.000    0.000 
#
# Total GULP energy -133640.822919 kJ/mol
# GULP energy per Si atom -5568.367622 kJ/mol
# Density = 2.069833 g / cm^3
# Si number density = 20.745547 Si / 1000 Ang^3
#
#
#
# Elastic Constant Matrix: (Units=GPa)
#
#
# Indices 1 2 3 4 5 6 
#
# 1 196.0887 8.2837 44.3668 0.0000 45.5184 0.0000
# 2 8.2837 39.9969 12.2599 0.0000 8.2674 0.0000
# 3 44.3668 12.2599 57.6857 0.0000 39.3540 0.0000
# 4 0.0000 0.0000 0.0000 38.8994 0.0000 46.8902
# 5 45.5184 8.2674 39.3540 0.0000 36.7959 0.0000
# 6 0.0000 0.0000 0.0000 46.8902 0.0000 69.6762
#
#
#
# Elastic Compliance Matrix: (Units=1/GPa)
#
#
# Indices 1 2 3 4 5 6 
#
# 1 0.007217 0.000193 0.001955 0.000000 -0.011062 0.000000
# 2 0.000193 0.026750 -0.005809 0.000000 -0.000036 0.000000
# 3 0.001955 -0.005809 0.065934 0.000000 -0.071631 0.000000
# 4 0.000000 0.000000 0.000000 0.136174 0.000000 -0.091642
# 5 -0.011062 -0.000036 -0.071631 0.000000 0.117480 0.000000
# 6 0.000000 0.000000 0.000000 -0.091642 0.000000 0.076024
#
#
# Mechanical properties :
#
#
# Convention : Reuss Voigt Hill
#
# Bulk Modulus (GPa) = 10.80163 47.06579 28.93371
# Shear Modulus (GPa) = 10.68919 44.33167 27.51043
#
# Velocity S-wave (km/s) = 2.27238 4.62770 3.64550
# Velocity P-wave (km/s) = 3.47893 7.16175 5.62999
#
# Compressibility (1/GPa) = 0.09257859
#
# Stress axis : x y z
#
# Youngs Moduli (GPa) = 138.55914 37.38322 15.16671
#
# Poissons Ratio (x) = -0.00720 -0.02965
# Poissons Ratio (y) = -0.02668 0.08810
# Poissons Ratio (z) = -0.27090 0.21715
#
# Static dielectric constant tensor:
#      x y z
#    x 1.836940 0.000000 0.048640 
#    y 0.000000 1.637390 0.000000 
#    z 0.048640 0.000000 1.707380 
# 
# From -- ./inp_files/13935.got.cif
#   From: 2010.05.17/outbox.cif.g08.bks.cpg/sg11_7_cif.got.tgz:13935.got - 2010.06.03 12:22:45.
