data_PCOD9164536
_publ_section_title
;
Structure prediction by ZEFSAII (Michael W. Deem and Ramdas Pophale) SiO2 
 PCOD9164536
Probable space group: P 21/M
;
_chemical_formula_sum "Si O2"
_cell_formula_units_Z 20
_cell_length_a 7.432193
_cell_length_b 26.426639
_cell_length_c 8.107753
_cell_angle_alpha 90.000000
_cell_angle_beta 141.129079
_cell_angle_gamma 90.000000
_cell_volume 999.355969
_symmetry_space_group_name_H-M "P 21/M"
_symmetry_group_IT_number 11
_symmetry_cell_setting 'monoclinic'
loop_
_space_group_symop_operation_xyz
x,y,z
-x,1/2+y,-z
-x,-y,-z
x,1/2-y,z
loop_
_atom_site_type_symbol
_atom_site_label
_atom_site_fract_x
_atom_site_fract_y
_atom_site_fract_z
Si Si1 0.794840 0.509624 0.511170
Si Si2 0.609572 0.690336 0.407289
Si Si3 0.949670 0.365197 0.056156
Si Si4 0.778812 0.950011 0.978778
Si Si5 0.407158 0.102819 0.814598
O O1 0.682077 0.566427 0.401783
O O2 0.000000 0.500000 0.500000
O O3 0.984422 0.492023 0.800934
O O4 0.511148 0.475148 0.295941
O O5 0.607130 0.750000 0.384009
O O6 0.700459 0.658937 0.307309
O O7 0.292257 0.667526 0.212100
O O8 0.822946 0.672227 0.701204
O O9 0.093788 0.407704 0.048821
O O10 0.751215 0.392202 0.053817
O O11 0.696077 0.921684 0.091098
#
# Coordination Sequence:
#
# PCOD9164536 Si02
#       5
#     4   4   4   4   4
#     4  10  21  35  59  90 124 159 182 237 285 348
#     4  10  22  42  61  81 115 151 196 253 299 329
#     4  10  23  38  61  85 115 153 193 243 288 343
#     4  11  22  38  60  88 125 153 194 227 293 353
#     4   9  23  37  63  83 122 150 199 230 293 341
#
# _framework density 20.012888
#
# number of rings (size 3 to 8) (size 9 to 14) (size 15 to 20)
#    1.200    0.800    0.000    4.200    8.400    1.600 
#    0.000    2.000    0.000    0.000    0.000    0.000 
#    0.000    0.000    0.000    0.000    0.000    0.000 
#
# Total GULP energy -111618.747482 kJ/mol
# GULP energy per Si atom -5580.937374 kJ/mol
# Density = 1.996734 g / cm^3
# Si number density = 20.012888 Si / 1000 Ang^3
#
#
#
# Elastic Constant Matrix: (Units=GPa)
#
#
# Indices 1 2 3 4 5 6 
#
# 1 70.6470 43.1838 30.7482 0.0000 5.8127 0.0000
# 2 43.1838 159.0424 46.3851 0.0000 14.3779 0.0000
# 3 30.7482 46.3851 140.7657 0.0000 28.6327 0.0000
# 4 0.0000 0.0000 0.0000 34.5770 0.0000 -2.3415
# 5 5.8127 14.3779 28.6327 0.0000 26.9616 0.0000
# 6 0.0000 0.0000 0.0000 -2.3415 0.0000 18.5267
#
#
#
# Elastic Compliance Matrix: (Units=1/GPa)
#
#
# Indices 1 2 3 4 5 6 
#
# 1 0.017790 -0.004136 -0.002795 0.000000 0.001339 0.000000
# 2 -0.004136 0.007974 -0.001327 0.000000 -0.001951 0.000000
# 3 -0.002795 -0.001327 0.010058 0.000000 -0.009371 0.000000
# 4 0.000000 0.000000 0.000000 0.029171 0.000000 0.003687
# 5 0.001339 -0.001951 -0.009371 0.000000 0.047794 0.000000
# 6 0.000000 0.000000 0.000000 0.003687 0.000000 0.054442
#
#
# Mechanical properties :
#
#
# Convention : Reuss Voigt Hill
#
# Bulk Modulus (GPa) = 51.80147 67.89883 59.85015
# Shear Modulus (GPa) = 26.29085 32.68893 29.48989
#
# Velocity S-wave (km/s) = 3.62843 4.04591 3.84284
# Velocity P-wave (km/s) = 6.59501 7.47175 7.04703
#
# Compressibility (1/GPa) = 0.01930447
#
# Stress axis : x y z
#
# Youngs Moduli (GPa) = 56.21270 125.40480 99.42222
#
# Poissons Ratio (x) = 0.51868 0.27792
# Poissons Ratio (y) = 0.23250 0.13196
# Poissons Ratio (z) = 0.15713 0.16645
#
# Static dielectric constant tensor:
#      x y z
#    x 1.713780 0.000000 -0.011180 
#    y 0.000000 1.694880 0.000000 
#    z -0.011180 0.000000 1.754910 
# 
# From -- ./inp_files/10255.got.cif
#   From: 2010.05.17/outbox.cif.g08.bks.cpg/sg11_6_cif.got.tgz:10255.got - 2010.06.03 12:22:45.
