data_PCOD9164909
_publ_section_title
;
Structure prediction by ZEFSAII (Michael W. Deem and Ramdas Pophale) SiO2 
 PCOD9164909
Probable space group: P 21/M
;
_chemical_formula_sum "Si O2"
_cell_formula_units_Z 28
_cell_length_a 14.912355
_cell_length_b 8.856008
_cell_length_c 21.548819
_cell_angle_alpha 90.000000
_cell_angle_beta 28.658924
_cell_angle_gamma 90.000000
_cell_volume 1364.840608
_symmetry_space_group_name_H-M "P 21/M"
_symmetry_group_IT_number 11
_symmetry_cell_setting 'monoclinic'
loop_
_space_group_symop_operation_xyz
x,y,z
-x,1/2+y,-z
-x,-y,-z
x,1/2-y,z
loop_
_atom_site_type_symbol
_atom_site_label
_atom_site_fract_x
_atom_site_fract_y
_atom_site_fract_z
Si Si1 0.195082 0.078569 0.892740
Si Si2 0.435199 0.076834 0.622454
Si Si3 0.034813 0.069670 0.410625
Si Si4 0.807429 0.573659 0.442186
Si Si5 0.712741 0.570774 0.032979
Si Si6 0.430227 0.430425 0.107579
Si Si7 0.917063 0.569605 0.241399
O O1 0.149876 0.250000 0.937670
O O2 0.308967 0.078819 0.760698
O O3 0.312417 0.020961 0.880224
O O4 0.000000 0.000000 0.000000
O O5 0.497576 0.250000 0.571649
O O6 0.290846 0.027593 0.656422
O O7 0.606391 0.972679 0.537593
O O8 0.040676 0.250000 0.413619
O O9 0.871791 0.021623 0.461968
O O10 0.000000 0.000000 0.500000
O O11 0.228021 0.020553 0.258532
O O12 0.812190 0.750000 0.455130
O O13 0.937421 0.548290 0.302761
O O14 0.678501 0.750000 0.045719
O O15 0.580843 0.479214 0.067344
O O16 0.926289 0.527355 0.887519
O O17 0.576220 0.750000 0.895888
O O18 0.500000 0.500000 0.000000
O O19 0.937793 0.750000 0.215272
#
# Coordination Sequence:
#
# PCOD9164909 Si02
#       7
#     4   4   4   4   4   4   4
#     4  10  21  37  58  87 122 162 204 251 305 362
#     4  10  21  38  60  88 124 166 208 251 305 365
#     4  11  26  47  69  95 127 167 215 268 324 382
#     4  11  24  40  62  92 123 162 209 256 310 370
#     4  11  23  37  61  95 127 163 205 253 311 371
#     4  11  25  45  70  99 128 165 212 266 324 384
#     4  10  21  39  62  90 127 168 208 253 304 363
#
# _framework density 20.515215999999999
#
# number of rings (size 3 to 8) (size 9 to 14) (size 15 to 20)
#    0.000    1.429    1.429    3.000    2.000    7.429 
#    0.000    0.000    0.000    0.000    0.000    0.000 
#    0.000    0.000    0.000    0.000    0.000    0.000 
#
# Total GULP energy -156384.781049 kJ/mol
# GULP energy per Si atom -5585.170752 kJ/mol
# Density = 2.046852 g / cm^3
# Si number density = 20.515216 Si / 1000 Ang^3
#
#
#
# Elastic Constant Matrix: (Units=GPa)
#
#
# Indices 1 2 3 4 5 6 
#
# 1 146.4412 20.4941 33.9912 0.0000 19.3202 0.0000
# 2 20.4941 31.5533 24.7935 0.0000 14.5053 0.0000
# 3 33.9912 24.7935 69.6009 0.0000 8.7387 0.0000
# 4 0.0000 0.0000 0.0000 28.5909 0.0000 -1.7321
# 5 19.3202 14.5053 8.7387 0.0000 31.5901 0.0000
# 6 0.0000 0.0000 0.0000 -1.7321 0.0000 29.4031
#
#
#
# Elastic Compliance Matrix: (Units=1/GPa)
#
#
# Indices 1 2 3 4 5 6 
#
# 1 0.008197 -0.001226 -0.003116 0.000000 -0.003588 0.000000
# 2 -0.001226 0.054340 -0.016285 0.000000 -0.019696 0.000000
# 3 -0.003116 -0.016285 0.021250 0.000000 0.003505 0.000000
# 4 0.000000 0.000000 0.000000 0.035101 0.000000 0.002068
# 5 -0.003588 -0.019696 0.003505 0.000000 0.041924 0.000000
# 6 0.000000 0.000000 0.000000 0.002068 0.000000 0.034132
#
#
# Mechanical properties :
#
#
# Convention : Reuss Voigt Hill
#
# Bulk Modulus (GPa) = 23.51138 45.12810 34.31974
# Shear Modulus (GPa) = 19.96990 29.13795 24.55392
#
# Velocity S-wave (km/s) = 3.12335 3.77279 3.46333
# Velocity P-wave (km/s) = 4.94898 6.40497 5.72347
#
# Compressibility (1/GPa) = 0.04253259
#
# Stress axis : x y z
#
# Youngs Moduli (GPa) = 121.99727 18.40275 47.05778
#
# Poissons Ratio (x) = 0.02256 0.14663
# Poissons Ratio (y) = 0.14958 0.76635
# Poissons Ratio (z) = 0.38013 0.29969
#
# Static dielectric constant tensor:
#      x y z
#    x 1.745270 0.000000 0.020800 
#    y 0.000000 1.718060 0.000000 
#    z 0.020800 0.000000 1.750510 
# 
# From -- ./inp_files/65387.got.cif
#   From: 2010.05.17/outbox.cif.g08.bks.cpg/sg11_33_cif.got.tgz:65387.got - 2010.06.03 12:22:45.
