data_PCOD9164996
_publ_section_title
;
Structure prediction by ZEFSAII (Michael W. Deem and Ramdas Pophale) SiO2 
 PCOD9164996
Probable space group: P 21/M
;
_chemical_formula_sum "Si O2"
_cell_formula_units_Z 28
_cell_length_a 16.418807
_cell_length_b 10.629425
_cell_length_c 8.742733
_cell_angle_alpha 90.000000
_cell_angle_beta 120.244223
_cell_angle_gamma 90.000000
_cell_volume 1318.120667
_symmetry_space_group_name_H-M "P 21/M"
_symmetry_group_IT_number 11
_symmetry_cell_setting 'monoclinic'
loop_
_space_group_symop_operation_xyz
x,y,z
-x,1/2+y,-z
-x,-y,-z
x,1/2-y,z
loop_
_atom_site_type_symbol
_atom_site_label
_atom_site_fract_x
_atom_site_fract_y
_atom_site_fract_z
Si Si1 0.848257 0.118604 0.284512
Si Si2 0.513349 0.894101 0.384785
Si Si3 0.956551 0.899202 0.234304
Si Si4 0.666362 0.891775 0.278905
Si Si5 0.667270 0.030390 0.963955
Si Si6 0.832423 0.488127 0.575804
Si Si7 0.786419 0.893866 0.836968
O O1 0.900671 0.250000 0.305871
O O2 0.812861 0.115951 0.426495
O O3 0.907812 0.992020 0.311782
O O4 0.760350 0.111408 0.087252
O O5 0.525573 0.750000 0.452908
O O6 0.602141 0.928534 0.361947
O O7 0.500000 0.000000 0.500000
O O8 0.420813 0.899908 0.190755
O O9 0.967298 0.750000 0.285424
O O10 0.056221 0.966130 0.295384
O O11 0.884623 0.900605 0.023634
O O12 0.642163 0.750000 0.217459
O O13 0.775731 0.900762 0.434122
O O14 0.645812 0.971793 0.109000
O O15 0.703877 0.925959 0.878115
O O16 0.790814 0.503995 0.705954
O O17 0.776293 0.750000 0.770176
#
# Coordination Sequence:
#
# PCOD9164996 Si02
#       7
#     4   4   4   4   4   4   4
#     4  10  22  39  61  91 123 160 204 253 309 370
#     4  11  24  43  66  96 129 163 204 252 307 369
#     4  10  22  40  61  88 122 164 210 256 307 367
#     4  10  22  39  63  93 125 164 209 253 306 370
#     4  10  21  41  65  91 121 161 204 256 308 362
#     4  11  21  35  56  85 121 159 201 252 302 355
#     4  10  21  37  60  90 124 163 207 252 307 371
#
# _framework density 21.242363999999998
#
# number of rings (size 3 to 8) (size 9 to 14) (size 15 to 20)
#    0.000    1.714    0.000    3.857    0.000    7.429 
#    0.000   17.143    0.000    0.000    0.000    0.000 
#    0.000    0.000    0.000    0.000    0.000    0.000 
#
# Total GULP energy -155914.038828 kJ/mol
# GULP energy per Si atom -5568.358530 kJ/mol
# Density = 2.119402 g / cm^3
# Si number density = 21.242364 Si / 1000 Ang^3
#
#
#
# Elastic Constant Matrix: (Units=GPa)
#
#
# Indices 1 2 3 4 5 6 
#
# 1 103.3251 66.6499 30.0642 0.0000 -1.8404 0.0000
# 2 66.6499 110.6456 40.4375 0.0000 -27.2501 0.0000
# 3 30.0642 40.4375 84.0609 0.0000 6.1072 0.0000
# 4 0.0000 0.0000 0.0000 -5.4110 0.0000 -1.0979
# 5 -1.8404 -27.2501 6.1072 0.0000 41.3373 0.0000
# 6 0.0000 0.0000 0.0000 -1.0979 0.0000 16.1124
#
#
#
# Elastic Compliance Matrix: (Units=1/GPa)
#
#
# Indices 1 2 3 4 5 6 
#
# 1 0.017536 -0.012525 0.000300 0.000000 -0.007520 0.000000
# 2 -0.012525 0.023458 -0.007973 0.000000 0.016084 0.000000
# 3 0.000300 -0.007973 0.016179 0.000000 -0.007633 0.000000
# 4 0.000000 0.000000 0.000000 -0.182289 0.000000 -0.012422
# 5 -0.007520 0.016084 -0.007633 0.000000 0.035587 0.000000
# 6 0.000000 0.000000 0.000000 -0.012422 0.000000 0.061218
#
#
# Mechanical properties :
#
#
# Convention : Reuss Voigt Hill
#
# Bulk Modulus (GPa) = 59.60954 63.59276 61.60115
# Shear Modulus (GPa) = 282.83317 21.13307 151.98312
#
# Velocity S-wave (km/s) = 11.55140 3.15755 8.46773
# Velocity P-wave (km/s) = 14.35394 6.57991 11.16537
#
# Compressibility (1/GPa) = 0.01677584
#
# Stress axis : x y z
#
# Youngs Moduli (GPa) = 57.02454 42.62962 61.80804
#
# Poissons Ratio (x) = 0.53394 -0.01852
# Poissons Ratio (y) = 0.71423 0.49282
# Poissons Ratio (z) = -0.01709 0.33990
#
# Static dielectric constant tensor:
#      x y z
#    x 1.794480 0.000000 0.007490 
#    y 0.000000 1.909560 0.000000 
#    z 0.007490 0.000000 1.791570 
# 
# From -- ./inp_files/21603.got.cif
#   From: 2010.05.17/outbox.cif.g08.bks.cpg/sg11_11_cif.got.tgz:21603.got - 2010.06.03 12:22:45.
