data_PCOD9164644
_publ_section_title
;
Structure prediction by ZEFSAII (Michael W. Deem and Ramdas Pophale) SiO2 
 PCOD9164644
Probable space group: P 21/M
;
_chemical_formula_sum "Si O2"
_cell_formula_units_Z 32
_cell_length_a 5.068693
_cell_length_b 11.523988
_cell_length_c 27.676383
_cell_angle_alpha 90.000000
_cell_angle_beta 79.447132
_cell_angle_gamma 90.000000
_cell_volume 1589.277654
_symmetry_space_group_name_H-M "P 21/M"
_symmetry_group_IT_number 11
_symmetry_cell_setting 'monoclinic'
loop_
_space_group_symop_operation_xyz
x,y,z
-x,1/2+y,-z
-x,-y,-z
x,1/2-y,z
loop_
_atom_site_type_symbol
_atom_site_label
_atom_site_fract_x
_atom_site_fract_y
_atom_site_fract_z
Si Si1 0.871773 0.621494 0.486318
Si Si2 0.196529 0.486973 0.887505
Si Si3 0.343440 0.120815 0.082063
Si Si4 0.971542 0.486974 0.612495
Si Si5 0.424355 0.110648 0.780967
Si Si6 0.986289 0.389351 0.719033
Si Si7 0.155588 0.121494 0.986318
Si Si8 0.492435 0.879185 0.582064
O O1 0.984121 0.750000 0.496270
O O2 0.902741 0.609281 0.427885
O O3 0.583990 0.618689 0.522717
O O4 0.000000 0.500000 0.500000
O O5 0.382146 0.590951 0.900834
O O6 0.299318 0.445632 0.832589
O O7 0.241484 0.390717 0.927885
O O8 0.888709 0.529032 0.896811
O O9 0.252888 0.250000 0.098256
O O10 0.370577 0.118689 0.022716
O O11 0.183817 0.590952 0.599167
O O12 0.964498 0.445632 0.667411
O O13 0.682332 0.529032 0.603190
O O14 0.407481 0.250000 0.786966
O O15 0.731559 0.078863 0.760676
O O16 0.252912 0.078863 0.739324
O O17 0.981414 0.250000 0.713035
O O18 0.023335 0.250000 0.996271
O O19 0.000000 0.000000 0.000000
O O20 0.550603 0.750000 0.598257
#
# Coordination Sequence:
#
# PCOD9164644 Si02
#       8
#     4   4   4   4   4   4   4   4
#     4   9  19  35  56  87 120 153 190 231 280 341
#     4  11  20  36  59  82 110 149 188 230 279 338
#     4  10  21  36  56  83 116 149 184 226 278 337
#     4  11  20  36  59  82 110 149 188 230 279 338
#     4  10  21  37  57  82 110 141 182 235 290 338
#     4  10  21  37  57  82 110 141 182 235 290 338
#     4   9  19  35  56  87 120 153 190 231 280 341
#     4  10  21  36  56  83 116 149 184 226 278 337
#
# _framework density 20.134934000000001
#
# number of rings (size 3 to 8) (size 9 to 14) (size 15 to 20)
#    0.000    2.000    0.000    3.750    0.000    1.000 
#    0.000   16.250    0.000   15.000    0.000    0.000 
#    0.000    0.000    0.000    0.000    0.000    0.000 
#
# Total GULP energy -178411.425393 kJ/mol
# GULP energy per Si atom -5575.357044 kJ/mol
# Density = 2.008911 g / cm^3
# Si number density = 20.134934 Si / 1000 Ang^3
#
#
#
# Elastic Constant Matrix: (Units=GPa)
#
#
# Indices 1 2 3 4 5 6 
#
# 1 46.3843 6.2738 -14.4276 0.0000 -0.5372 0.0000
# 2 6.2738 87.3736 28.1167 0.0000 0.8821 0.0000
# 3 -14.4276 28.1167 82.7141 0.0000 2.0051 0.0000
# 4 0.0000 0.0000 0.0000 11.4802 0.0000 -0.5017
# 5 -0.5372 0.8821 2.0051 0.0000 23.8572 0.0000
# 6 0.0000 0.0000 0.0000 -0.5017 0.0000 23.9010
#
#
#
# Elastic Compliance Matrix: (Units=1/GPa)
#
#
# Indices 1 2 3 4 5 6 
#
# 1 0.023663 -0.003400 0.005278 0.000000 0.000215 0.000000
# 2 -0.003400 0.013340 -0.005124 0.000000 -0.000139 0.000000
# 3 0.005278 -0.005124 0.014775 0.000000 -0.000933 0.000000
# 4 0.000000 0.000000 0.000000 0.087186 0.000000 0.001830
# 5 0.000215 -0.000139 -0.000933 0.000000 0.042004 0.000000
# 6 0.000000 0.000000 0.000000 0.001830 0.000000 0.041878
#
#
# Mechanical properties :
#
#
# Convention : Reuss Voigt Hill
#
# Bulk Modulus (GPa) = 22.08204 28.48865 25.28535
# Shear Modulus (GPa) = 20.45551 24.94830 22.70190
#
# Velocity S-wave (km/s) = 3.19081 3.52384 3.36145
# Velocity P-wave (km/s) = 4.95640 5.54402 5.25842
#
# Compressibility (1/GPa) = 0.04528567
#
# Stress axis : x y z
#
# Youngs Moduli (GPa) = 42.26007 74.96509 67.68241
#
# Poissons Ratio (x) = 0.25486 -0.35722
# Poissons Ratio (y) = 0.14367 0.34681
# Poissons Ratio (z) = -0.22304 0.38413
#
# Static dielectric constant tensor:
#      x y z
#    x 1.716840 0.000000 -0.000010 
#    y 0.000000 1.732650 0.000000 
#    z -0.000010 0.000000 1.716520 
# 
# From -- ./inp_files/67623.got.cif
#   From: 2010.05.17/outbox.cif.g08.bks.cpg/sg11_34_cif.got.tgz:67623.got - 2010.06.03 12:22:45.
