data_PCOD9164787
_publ_section_title
;
Structure prediction by ZEFSAII (Michael W. Deem and Ramdas Pophale) SiO2 
 PCOD9164787
Probable space group: P 21/M
;
_chemical_formula_sum "Si O2"
_cell_formula_units_Z 24
_cell_length_a 14.649992
_cell_length_b 8.169168
_cell_length_c 10.578670
_cell_angle_alpha 90.000000
_cell_angle_beta 90.349073
_cell_angle_gamma 90.000000
_cell_volume 1266.013173
_symmetry_space_group_name_H-M "P 21/M"
_symmetry_group_IT_number 11
_symmetry_cell_setting 'monoclinic'
loop_
_space_group_symop_operation_xyz
x,y,z
-x,1/2+y,-z
-x,-y,-z
x,1/2-y,z
loop_
_atom_site_type_symbol
_atom_site_label
_atom_site_fract_x
_atom_site_fract_y
_atom_site_fract_z
Si Si1 0.895042 0.054880 0.499641
Si Si2 0.601818 0.552276 0.145667
Si Si3 0.791421 0.947926 0.247218
Si Si4 0.602118 0.051962 0.855339
Si Si5 0.104592 0.053680 0.006391
Si Si6 0.211767 0.946489 0.255810
O O1 0.895957 0.250000 0.508957
O O2 0.839642 0.988442 0.620769
O O3 0.843296 0.006624 0.371435
O O4 0.000000 0.000000 0.500000
O O5 0.601268 0.750000 0.148092
O O6 0.686383 0.496217 0.231719
O O7 0.500021 0.494899 0.180801
O O8 0.618503 0.500422 0.000599
O O9 0.792127 0.750000 0.248855
O O10 0.844069 0.001261 0.120634
O O11 0.602050 0.250000 0.852366
O O12 0.685446 0.991897 0.769762
O O13 0.109786 0.250000 0.011753
O O14 0.153228 0.984402 0.130783
O O15 0.000000 0.000000 0.000000
O O16 0.217695 0.750000 0.268649
#
# Coordination Sequence:
#
# PCOD9164787 Si02
#       6
#     4   4   4   4   4   4
#     4  11  24  40  57  77 107 146 187 226 271 325
#     4   9  17  32  54  82 112 141 175 218 268 321
#     4  10  21  37  55  79 111 143 179 222 269 321
#     4   9  17  31  55  82 110 142 175 217 271 323
#     4  11  22  35  54  80 108 138 178 228 274 322
#     4  10  21  37  55  80 110 141 179 225 273 322
#
# _framework density 18.957148
#
# number of rings (size 3 to 8) (size 9 to 14) (size 15 to 20)
#    0.000    2.000    1.667    2.000    0.000    7.333 
#    0.000    0.833    0.000    0.000    0.000    0.000 
#    0.000    0.000    0.000    0.000    0.000    0.000 
#
# Total GULP energy -133970.063771 kJ/mol
# GULP energy per Si atom -5582.085990 kJ/mol
# Density = 1.891400 g / cm^3
# Si number density = 18.957148 Si / 1000 Ang^3
#
#
#
# Elastic Constant Matrix: (Units=GPa)
#
#
# Indices 1 2 3 4 5 6 
#
# 1 209.4218 14.3149 98.9495 0.0000 1.3050 0.0000
# 2 14.3149 8.4272 6.8405 0.0000 -1.8548 0.0000
# 3 98.9495 6.8405 140.5908 0.0000 -0.9290 0.0000
# 4 0.0000 0.0000 0.0000 26.9228 0.0000 4.2704
# 5 1.3050 -1.8548 -0.9290 0.0000 33.3665 0.0000
# 6 0.0000 0.0000 0.0000 4.2704 0.0000 21.2092
#
#
#
# Elastic Compliance Matrix: (Units=1/GPa)
#
#
# Indices 1 2 3 4 5 6 
#
# 1 0.007805 -0.009377 -0.005043 0.000000 -0.000967 0.000000
# 2 -0.009377 0.136324 0.000019 0.000000 0.007945 0.000000
# 3 -0.005043 0.000019 0.010665 0.000000 0.000495 0.000000
# 4 0.000000 0.000000 0.000000 0.038369 0.000000 -0.007725
# 5 -0.000967 0.007945 0.000495 0.000000 0.030463 0.000000
# 6 0.000000 0.000000 0.000000 -0.007725 0.000000 0.048705
#
#
# Mechanical properties :
#
#
# Convention : Reuss Voigt Hill
#
# Bulk Modulus (GPa) = 7.93702 66.51662 37.22682
# Shear Modulus (GPa) = 14.57171 32.18871 23.38021
#
# Velocity S-wave (km/s) = 2.77549 4.12512 3.51567
# Velocity P-wave (km/s) = 3.80356 7.60610 6.01331
#
# Compressibility (1/GPa) = 0.12599188
#
# Stress axis : x y z
#
# Youngs Moduli (GPa) = 128.12334 7.33545 93.76659
#
# Poissons Ratio (x) = 0.06878 0.47290
# Poissons Ratio (y) = 1.20141 -0.00180
# Poissons Ratio (z) = 0.64618 -0.00014
#
# Static dielectric constant tensor:
#      x y z
#    x 1.686140 0.000000 -0.022580 
#    y 0.000000 1.672130 0.000000 
#    z -0.022580 0.000000 1.626300 
# 
# From -- ./inp_files/20546.got.cif
#   From: 2010.05.17/outbox.cif.g08.bks.cpg/sg11_11_cif.got.tgz:20546.got - 2010.06.03 12:22:45.
