data_PCOD9164506
_publ_section_title
;
Structure prediction by ZEFSAII (Michael W. Deem and Ramdas Pophale) SiO2 
 PCOD9164506
Probable space group: P 21/M
;
_chemical_formula_sum "Si O2"
_cell_formula_units_Z 28
_cell_length_a 14.442782
_cell_length_b 9.084544
_cell_length_c 16.843348
_cell_angle_alpha 90.000000
_cell_angle_beta 41.396651
_cell_angle_gamma 90.000000
_cell_volume 1461.369133
_symmetry_space_group_name_H-M "P 21/M"
_symmetry_group_IT_number 11
_symmetry_cell_setting 'monoclinic'
loop_
_space_group_symop_operation_xyz
x,y,z
-x,1/2+y,-z
-x,-y,-z
x,1/2-y,z
loop_
_atom_site_type_symbol
_atom_site_label
_atom_site_fract_x
_atom_site_fract_y
_atom_site_fract_z
Si Si1 0.823326 0.427097 0.951626
Si Si2 0.650833 0.424605 0.398222
Si Si3 0.433508 0.078678 0.967550
Si Si4 0.661135 0.074615 0.211687
Si Si5 0.095971 0.074317 0.684492
Si Si6 0.397466 0.578418 0.304770
Si Si7 0.903133 0.574609 0.496242
O O1 0.815004 0.250000 0.949593
O O2 0.976755 0.471298 0.823731
O O3 0.708229 0.499658 0.968839
O O4 0.776594 0.466306 0.071255
O O5 0.500000 0.500000 0.500000
O O6 0.637459 0.250000 0.418077
O O7 0.704812 0.453712 0.273730
O O8 0.760316 0.492076 0.389233
O O9 0.407476 0.250000 0.001063
O O10 0.538403 0.069488 0.825115
O O11 0.500000 0.000000 0.000000
O O12 0.634401 0.250000 0.221140
O O13 0.517639 0.990435 0.283264
O O14 0.119591 0.250000 0.676291
O O15 0.045823 0.046027 0.626820
O O16 0.374681 0.750000 0.339107
O O17 0.253436 0.489993 0.399817
O O18 0.900930 0.750000 0.509935
O O19 0.000000 0.500000 0.500000
#
# Coordination Sequence:
#
# PCOD9164506 Si02
#       7
#     4   4   4   4   4   4   4
#     4   9  19  38  60  82 115 154 190 235 291 344
#     4  11  23  38  60  89 119 153 195 240 286 343
#     4  10  21  35  55  83 113 147 191 240 287 341
#     4   9  19  37  60  86 116 151 191 235 287 343
#     4  10  23  41  60  85 118 153 191 239 292 347
#     4  10  21  37  57  83 113 147 191 238 285 342
#     4  11  24  40  58  82 114 152 193 239 292 348
#
# _framework density 19.160114
#
# number of rings (size 3 to 8) (size 9 to 14) (size 15 to 20)
#    0.000    2.000    0.000    2.571    2.000    8.571 
#    0.000    0.000    0.000    0.000    0.000    0.000 
#    0.000    0.000    0.000    0.000    0.000    0.000 
#
# Total GULP energy -156419.291048 kJ/mol
# GULP energy per Si atom -5586.403252 kJ/mol
# Density = 1.911650 g / cm^3
# Si number density = 19.160114 Si / 1000 Ang^3
#
#
#
# Elastic Constant Matrix: (Units=GPa)
#
#
# Indices 1 2 3 4 5 6 
#
# 1 97.1172 42.9554 40.1377 0.0000 12.1768 0.0000
# 2 42.9554 48.8263 40.5400 0.0000 5.4287 0.0000
# 3 40.1377 40.5400 86.1216 0.0000 -14.3199 0.0000
# 4 0.0000 0.0000 0.0000 26.6619 0.0000 -2.0734
# 5 12.1768 5.4287 -14.3199 0.0000 22.7523 0.0000
# 6 0.0000 0.0000 0.0000 -2.0734 0.0000 34.4599
#
#
#
# Elastic Compliance Matrix: (Units=1/GPa)
#
#
# Indices 1 2 3 4 5 6 
#
# 1 0.018630 -0.010611 -0.005500 0.000000 -0.010901 0.000000
# 2 -0.010611 0.050542 -0.022234 0.000000 -0.020374 0.000000
# 3 -0.005500 -0.022234 0.029053 0.000000 0.026534 0.000000
# 4 0.000000 0.000000 0.000000 0.037683 0.000000 0.002267
# 5 -0.010901 -0.020374 0.026534 0.000000 0.071347 0.000000
# 6 0.000000 0.000000 0.000000 0.002267 0.000000 0.029156
#
#
# Mechanical properties :
#
#
# Convention : Reuss Voigt Hill
#
# Bulk Modulus (GPa) = 46.43709 53.25902 49.84805
# Shear Modulus (GPa) = 15.61141 24.00365 19.80753
#
# Velocity S-wave (km/s) = 2.85754 3.54332 3.21875
# Velocity P-wave (km/s) = 5.93097 6.67812 6.31560
#
# Compressibility (1/GPa) = 0.02153451
#
# Stress axis : x y z
#
# Youngs Moduli (GPa) = 53.67626 19.78559 34.42007
#
# Poissons Ratio (x) = 0.20995 0.18932
# Poissons Ratio (y) = 0.56958 0.76528
# Poissons Ratio (z) = 0.29523 0.43990
#
# Static dielectric constant tensor:
#      x y z
#    x 1.626490 0.000000 0.037620 
#    y 0.000000 1.639010 0.000000 
#    z 0.037620 0.000000 1.688750 
# 
# From -- ./inp_files/60079.got.cif
#   From: 2010.05.17/outbox.cif.g08.bks.cpg/sg11_31_cif.got.tgz:60079.got - 2010.06.03 12:22:45.
