data_PCOD9164750
_publ_section_title
;
Structure prediction by ZEFSAII (Michael W. Deem and Ramdas Pophale) SiO2 
 PCOD9164750
Probable space group: P 21/M
;
_chemical_formula_sum "Si O2"
_cell_formula_units_Z 32
_cell_length_a 15.287414
_cell_length_b 9.572090
_cell_length_c 11.821149
_cell_angle_alpha 90.000000
_cell_angle_beta 86.978092
_cell_angle_gamma 90.000000
_cell_volume 1727.412919
_symmetry_space_group_name_H-M "P 21/M"
_symmetry_group_IT_number 11
_symmetry_cell_setting 'monoclinic'
loop_
_space_group_symop_operation_xyz
x,y,z
-x,1/2+y,-z
-x,-y,-z
x,1/2-y,z
loop_
_atom_site_type_symbol
_atom_site_label
_atom_site_fract_x
_atom_site_fract_y
_atom_site_fract_z
Si Si1 0.790443 0.906876 0.893349
Si Si2 0.770081 0.413713 0.494856
Si Si3 0.377255 0.914812 0.074110
Si Si4 0.424429 0.918312 0.572630
Si Si5 0.070921 0.412700 0.924801
Si Si6 0.113777 0.088363 0.345329
Si Si7 0.077772 0.914491 0.697218
Si Si8 0.464821 0.915406 0.830674
O O1 0.752320 0.750000 0.885459
O O2 0.861149 0.921598 0.788583
O O3 0.715697 0.020697 0.889111
O O4 0.840523 0.917340 0.008102
O O5 0.767052 0.250000 0.525437
O O6 0.671717 0.456946 0.468382
O O7 0.816542 0.499009 0.590681
O O8 0.836214 0.428075 0.384649
O O9 0.381125 0.750000 0.094236
O O10 0.451214 0.993343 0.141563
O O11 0.397406 0.939435 0.939047
O O12 0.434935 0.750000 0.558399
O O13 0.430959 0.947842 0.707025
O O14 0.500000 0.000000 0.500000
O O15 0.044894 0.250000 0.915168
O O16 0.083384 0.487286 0.804791
O O17 0.000000 0.500000 0.000000
O O18 0.122069 0.250000 0.379657
O O19 0.011901 0.047920 0.362933
O O20 0.068483 0.750000 0.730451
O O21 0.486783 0.750000 0.831662
#
# Coordination Sequence:
#
# PCOD9164750 Si02
#       8
#     4   4   4   4   4   4   4   4
#     4  10  22  38  56  84 122 157 188 235 293 348
#     4  10  23  40  62  89 117 152 200 252 293 341
#     4  10  21  36  61  91 114 148 194 239 284 348
#     4  10  23  42  61  85 116 153 195 241 296 351
#     4  11  22  38  59  86 120 156 195 238 287 347
#     4  10  21  39  60  84 120 160 198 238 292 351
#     4  10  21  40  63  87 121 159 194 244 298 349
#     4   9  20  40  61  83 117 153 187 235 299 352
#
# _framework density 18.524811
#
# number of rings (size 3 to 8) (size 9 to 14) (size 15 to 20)
#    0.000    2.000    1.250    1.125    3.500    4.000 
#    0.000    0.000    0.000    0.000    0.000    0.000 
#    0.000    0.000    0.000    0.000    0.000    0.000 
#
# Total GULP energy -178618.820147 kJ/mol
# GULP energy per Si atom -5581.838130 kJ/mol
# Density = 1.848265 g / cm^3
# Si number density = 18.524811 Si / 1000 Ang^3
#
#
#
# Elastic Constant Matrix: (Units=GPa)
#
#
# Indices 1 2 3 4 5 6 
#
# 1 118.9716 46.8673 35.3981 0.0000 2.5728 0.0000
# 2 46.8673 58.1006 44.8240 0.0000 8.2471 0.0000
# 3 35.3981 44.8240 82.0304 0.0000 20.2069 0.0000
# 4 0.0000 0.0000 0.0000 34.9766 0.0000 1.3199
# 5 2.5728 8.2471 20.2069 0.0000 18.9854 0.0000
# 6 0.0000 0.0000 0.0000 1.3199 0.0000 31.9086
#
#
#
# Elastic Compliance Matrix: (Units=1/GPa)
#
#
# Indices 1 2 3 4 5 6 
#
# 1 0.012489 -0.009937 -0.000821 0.000000 0.003498 0.000000
# 2 -0.009937 0.038165 -0.017368 0.000000 0.003253 0.000000
# 3 -0.000821 -0.017368 0.027309 0.000000 -0.021411 0.000000
# 4 0.000000 0.000000 0.000000 0.028635 0.000000 -0.001185
# 5 0.003498 0.003253 -0.021411 0.000000 0.073573 0.000000
# 6 0.000000 0.000000 0.000000 -0.001185 0.000000 0.031388
#
#
# Mechanical properties :
#
#
# Convention : Reuss Voigt Hill
#
# Bulk Modulus (GPa) = 46.05919 57.03128 51.54524
# Shear Modulus (GPa) = 18.17866 25.97499 22.07683
#
# Velocity S-wave (km/s) = 3.13599 3.74862 3.45591
# Velocity P-wave (km/s) = 6.16685 7.04198 6.61890
#
# Compressibility (1/GPa) = 0.02171119
#
# Stress axis : x y z
#
# Youngs Moduli (GPa) = 80.07288 26.20214 36.61786
#
# Poissons Ratio (x) = 0.26038 0.03005
# Poissons Ratio (y) = 0.79572 0.63596
# Poissons Ratio (z) = 0.06571 0.45507
#
# Static dielectric constant tensor:
#      x y z
#    x 1.622880 0.000000 -0.006220 
#    y 0.000000 1.591010 0.000000 
#    z -0.006220 0.000000 1.633790 
# 
# From -- ./inp_files/38240.got.cif
#   From: 2010.05.17/outbox.cif.g08.bks.cpg/sg11_20_cif.got.tgz:38240.got - 2010.06.03 12:22:45.
