data_PCOD9164224
_publ_section_title
;
Structure prediction by ZEFSAII (Michael W. Deem and Ramdas Pophale) SiO2 
 PCOD9164224
Probable space group: P 21/M
;
_chemical_formula_sum "Si O2"
_cell_formula_units_Z 24
_cell_length_a 17.923747
_cell_length_b 14.289899
_cell_length_c 10.384753
_cell_angle_alpha 90.000000
_cell_angle_beta 153.189275
_cell_angle_gamma 90.000000
_cell_volume 1199.702699
_symmetry_space_group_name_H-M "P 21/M"
_symmetry_group_IT_number 11
_symmetry_cell_setting 'monoclinic'
loop_
_space_group_symop_operation_xyz
x,y,z
-x,1/2+y,-z
-x,-y,-z
x,1/2-y,z
loop_
_atom_site_type_symbol
_atom_site_label
_atom_site_fract_x
_atom_site_fract_y
_atom_site_fract_z
Si Si1 0.021875 0.052561 0.669855
Si Si2 0.513365 0.750000 0.206254
Si Si3 0.806628 0.250000 0.975666
Si Si4 0.279046 0.052554 0.730289
Si Si5 0.557586 0.545797 0.297695
Si Si6 0.324033 0.959424 0.276653
Si Si7 0.812616 0.750000 0.457254
Si Si8 0.866129 0.250000 0.374918
O O1 0.972472 0.159704 0.575958
O O2 0.000000 0.000000 0.500000
O O3 0.879254 0.009701 0.539300
O O4 0.190830 0.020342 0.993726
O O5 0.528598 0.651365 0.303207
O O6 0.670922 0.750000 0.350752
O O7 0.323363 0.750000 0.858686
O O8 0.834531 0.250000 0.172778
O O9 0.994161 0.250000 0.204703
O O10 0.715321 0.348471 0.801090
O O11 0.375789 0.056158 0.744859
O O12 0.221204 0.156509 0.674507
O O13 0.385633 0.007494 0.008299
O O14 0.674544 0.487340 0.570559
O O15 0.500000 0.000000 0.500000
#
# Coordination Sequence:
#
# PCOD9164224 Si02
#       8
#     4   2   2   4   4   4   2   2
#     4  12  23  41  66  95 126 172 222 265 326 389
#     4  10  20  39  67  95 132 172 215 265 334 379
#     4  12  24  44  68  94 132 174 217 274 339 387
#     4  10  20  40  66  95 128 174 219 259 325 391
#     4  10  22  39  66  96 134 172 212 270 324 393
#     4  12  26  43  66  97 133 170 221 278 329 387
#     4  10  20  39  67  97 128 176 219 261 322 397
#     4  12  22  40  72  98 126 174 225 272 319 403
#
# _framework density 20.004954999999999
#
# number of rings (size 3 to 8) (size 9 to 14) (size 15 to 20)
#    0.000    1.000    5.000    2.000    0.000    2.667 
#    0.000    1.667    0.000    0.000    0.000    0.000 
#    0.000    0.000    0.000    0.000    0.000    0.000 
#
# Total GULP energy -133831.663653 kJ/mol
# GULP energy per Si atom -5576.319319 kJ/mol
# Density = 1.995942 g / cm^3
# Si number density = 20.004955 Si / 1000 Ang^3
#
#
#
# Elastic Constant Matrix: (Units=GPa)
#
#
# Indices 1 2 3 4 5 6 
#
# 1 32.7400 27.1273 26.9336 0.0000 1.9088 0.0000
# 2 27.1273 234.5658 87.8011 0.0000 4.7083 0.0000
# 3 26.9336 87.8011 160.5119 0.0000 5.2275 0.0000
# 4 0.0000 0.0000 0.0000 39.0713 0.0000 -1.3317
# 5 1.9088 4.7083 5.2275 0.0000 27.7429 0.0000
# 6 0.0000 0.0000 0.0000 -1.3317 0.0000 18.0318
#
#
#
# Elastic Compliance Matrix: (Units=1/GPa)
#
#
# Indices 1 2 3 4 5 6 
#
# 1 0.036540 -0.002416 -0.004771 0.000000 -0.001205 0.000000
# 2 -0.002416 0.005524 -0.002607 0.000000 -0.000280 0.000000
# 3 -0.004771 -0.002607 0.008484 0.000000 -0.000828 0.000000
# 4 0.000000 0.000000 0.000000 0.025659 0.000000 0.001895
# 5 -0.001205 -0.000280 -0.000828 0.000000 0.036332 0.000000
# 6 0.000000 0.000000 0.000000 0.001895 0.000000 0.055598
#
#
# Mechanical properties :
#
#
# Convention : Reuss Voigt Hill
#
# Bulk Modulus (GPa) = 32.29919 79.06020 55.67969
# Shear Modulus (GPa) = 25.24693 36.03291 30.63992
#
# Velocity S-wave (km/s) = 3.55637 4.24866 3.91783
# Velocity P-wave (km/s) = 5.74842 7.97961 6.95408
#
# Compressibility (1/GPa) = 0.03096053
#
# Stress axis : x y z
#
# Youngs Moduli (GPa) = 27.36709 181.02364 117.87314
#
# Poissons Ratio (x) = 0.43734 0.56232
# Poissons Ratio (y) = 0.06612 0.30732
# Poissons Ratio (z) = 0.13056 0.47197
#
# Static dielectric constant tensor:
#      x y z
#    x 1.824380 0.000000 0.085290 
#    y 0.000000 1.677800 0.000000 
#    z 0.085290 0.000000 1.711540 
# 
# From -- ./inp_files/43457.got.cif
#   From: 2010.05.17/outbox.cif.g08.bks.cpg/sg11_22_cif.got.tgz:43457.got - 2010.06.03 12:22:45.
