data_PCOD9164842
_publ_section_title
;
Structure prediction by ZEFSAII (Michael W. Deem and Ramdas Pophale) SiO2 
 PCOD9164842
Probable space group: P 21/M
;
_chemical_formula_sum "Si O2"
_cell_formula_units_Z 28
_cell_length_a 25.765480
_cell_length_b 10.160784
_cell_length_c 7.272916
_cell_angle_alpha 90.000000
_cell_angle_beta 46.198821
_cell_angle_gamma 90.000000
_cell_volume 1374.226773
_symmetry_space_group_name_H-M "P 21/M"
_symmetry_group_IT_number 11
_symmetry_cell_setting 'monoclinic'
loop_
_space_group_symop_operation_xyz
x,y,z
-x,1/2+y,-z
-x,-y,-z
x,1/2-y,z
loop_
_atom_site_type_symbol
_atom_site_label
_atom_site_fract_x
_atom_site_fract_y
_atom_site_fract_z
Si Si1 0.262252 0.401402 0.495987
Si Si2 0.050618 0.597138 0.264696
Si Si3 0.541191 0.598982 0.642968
Si Si4 0.178869 0.600498 0.219812
Si Si5 0.132527 0.904306 0.725174
Si Si6 0.299891 0.400975 0.838593
Si Si7 0.578750 0.900582 0.989662
O O1 0.242608 0.250000 0.499364
O O2 0.199107 0.502317 0.610775
O O3 0.280358 0.404240 0.668920
O O4 0.336827 0.434254 0.208894
O O5 0.027491 0.750000 0.339278
O O6 0.129957 0.585648 0.160362
O O7 0.000000 0.500000 0.500000
O O8 0.064007 0.563424 0.018702
O O9 0.522478 0.750000 0.643786
O O10 0.615801 0.563933 0.358766
O O11 0.475849 0.499126 0.779099
O O12 0.559800 0.597205 0.816977
O O13 0.207047 0.750000 0.156176
O O14 0.125663 0.583658 0.523336
O O15 0.243712 0.498538 0.068634
O O16 0.149167 0.750000 0.723582
O O17 0.291250 0.250000 0.922283
O O18 0.569154 0.750000 0.075205
#
# Coordination Sequence:
#
# PCOD9164842 Si02
#       7
#     4   4   4   4   4   4   4
#     4   9  17  30  50  76 107 142 182 226 271 320
#     4  10  22  40  60  84 113 142 173 214 261 312
#     4   8  14  24  39  65 100 136 176 222 268 316
#     4  10  21  37  57  82 111 143 180 219 262 315
#     4  10  21  37  57  82 111 143 180 219 262 315
#     4   9  17  30  50  76 107 142 182 226 271 320
#     4   8  14  24  39  65 100 136 176 222 268 316
#
# _framework density 20.375091999999999
#
# number of rings (size 3 to 8) (size 9 to 14) (size 15 to 20)
#    0.000    2.857    1.429    1.714    0.000    3.429 
#    0.000    2.857    0.000    0.857    0.000    0.000 
#    0.000    0.000    0.000    0.000    0.000    0.000 
#
# Total GULP energy -156288.552256 kJ/mol
# GULP energy per Si atom -5581.734009 kJ/mol
# Density = 2.032872 g / cm^3
# Si number density = 20.375092 Si / 1000 Ang^3
#
#
#
# Elastic Constant Matrix: (Units=GPa)
#
#
# Indices 1 2 3 4 5 6 
#
# 1 28.4913 3.7748 -0.3629 0.0000 10.4783 0.0000
# 2 3.7748 68.1674 68.8748 0.0000 -11.0532 0.0000
# 3 -0.3629 68.8748 129.7212 0.0000 3.0707 0.0000
# 4 0.0000 0.0000 0.0000 42.0349 0.0000 -9.2093
# 5 10.4783 -11.0532 3.0707 0.0000 23.7689 0.0000
# 6 0.0000 0.0000 0.0000 -9.2093 0.0000 16.4341
#
#
#
# Elastic Compliance Matrix: (Units=1/GPa)
#
#
# Indices 1 2 3 4 5 6 
#
# 1 0.049629 -0.019165 0.011077 0.000000 -0.032222 0.000000
# 2 -0.019165 0.047708 -0.026189 0.000000 0.034018 0.000000
# 3 0.011077 -0.026189 0.022116 0.000000 -0.019919 0.000000
# 4 0.000000 0.000000 0.000000 0.027119 0.000000 0.015197
# 5 -0.032222 0.034018 -0.019919 0.000000 0.074669 0.000000
# 6 0.000000 0.000000 0.000000 0.015197 0.000000 0.069365
#
#
# Mechanical properties :
#
#
# Convention : Reuss Voigt Hill
#
# Bulk Modulus (GPa) = 19.64666 41.21703 30.43184
# Shear Modulus (GPa) = 13.29338 26.72043 20.00691
#
# Velocity S-wave (km/s) = 2.55705 3.62529 3.13698
# Velocity P-wave (km/s) = 4.28736 6.14790 5.29991
#
# Compressibility (1/GPa) = 0.05089923
#
# Stress axis : x y z
#
# Youngs Moduli (GPa) = 20.14947 20.96095 45.21552
#
# Poissons Ratio (x) = 0.40172 -0.50086
# Poissons Ratio (y) = 0.38617 1.18415
# Poissons Ratio (z) = -0.22320 0.54895
#
# Static dielectric constant tensor:
#      x y z
#    x 1.741790 0.000000 0.060600 
#    y 0.000000 1.681160 0.000000 
#    z 0.060600 0.000000 1.736230 
# 
# From -- ./inp_files/29034.got.cif
#   From: 2010.05.17/outbox.cif.g08.bks.cpg/sg11_15_cif.got.tgz:29034.got - 2010.06.03 12:22:45.
