data_PCOD9164779
_publ_section_title
;
Structure prediction by ZEFSAII (Michael W. Deem and Ramdas Pophale) SiO2 
 PCOD9164779
Probable space group: P 21/M
;
_chemical_formula_sum "Si O2"
_cell_formula_units_Z 32
_cell_length_a 11.711913
_cell_length_b 9.002207
_cell_length_c 22.287437
_cell_angle_alpha 90.000000
_cell_angle_beta 124.682053
_cell_angle_gamma 90.000000
_cell_volume 1932.319955
_symmetry_space_group_name_H-M "P 21/M"
_symmetry_group_IT_number 11
_symmetry_cell_setting 'monoclinic'
loop_
_space_group_symop_operation_xyz
x,y,z
-x,1/2+y,-z
-x,-y,-z
x,1/2-y,z
loop_
_atom_site_type_symbol
_atom_site_label
_atom_site_fract_x
_atom_site_fract_y
_atom_site_fract_z
Si Si1 0.088135 0.920981 0.939116
Si Si2 0.637509 0.925651 0.375251
Si Si3 0.073015 0.928653 0.355711
Si Si4 0.084588 0.927572 0.580601
Si Si5 0.214036 0.421019 0.085846
Si Si6 0.358406 0.074121 0.479843
Si Si7 0.951734 0.428106 0.789296
Si Si8 0.336746 0.571488 0.234948
O O1 0.126960 0.750000 0.943175
O O2 0.938022 0.925837 0.927792
O O3 0.060013 0.998497 0.867272
O O4 0.193529 0.002271 0.015484
O O5 0.658041 0.750000 0.367416
O O6 0.649919 0.941251 0.450639
O O7 0.483343 0.969495 0.308027
O O8 0.756735 0.022177 0.380290
O O9 0.071630 0.750000 0.362819
O O10 0.028485 0.964381 0.274395
O O11 0.227991 0.990271 0.412153
O O12 0.977989 0.006128 0.377070
O O13 0.069081 0.750000 0.574371
O O14 0.000000 0.000000 0.500000
O O15 0.253651 0.250000 0.090842
O O16 0.313857 0.503492 0.162368
O O17 0.355347 0.250000 0.464883
O O18 0.500000 0.000000 0.500000
O O19 0.959830 0.250000 0.798398
O O20 0.795954 0.473279 0.764055
O O21 0.332735 0.750000 0.229335
#
# Coordination Sequence:
#
# PCOD9164779 Si02
#       8
#     4   4   4   4   4   4   4   4
#     4   9  16  26  43  68  99 136 173 207 245 295
#     4  10  21  37  55  75 101 135 173 215 261 308
#     4  11  22  37  56  77 102 134 173 216 263 311
#     4  12  24  39  58  77  98 130 173 222 267 309
#     4   9  16  26  42  67 100 136 172 207 246 296
#     4  11  22  35  53  76 105 138 172 209 255 311
#     4   9  18  32  50  74 105 138 168 206 256 307
#     4   9  17  31  50  73 104 137 169 207 253 305
#
# _framework density 16.560403999999998
#
# number of rings (size 3 to 8) (size 9 to 14) (size 15 to 20)
#    0.000    2.000    1.250    3.375    0.000    7.000 
#    0.000    2.500    0.000    0.000    0.000    0.875 
#    0.000    0.000    0.000    0.000    0.000    0.000 
#
# Total GULP energy -178572.025945 kJ/mol
# GULP energy per Si atom -5580.375811 kJ/mol
# Density = 1.652271 g / cm^3
# Si number density = 16.560404 Si / 1000 Ang^3
#
#
#
# Elastic Constant Matrix: (Units=GPa)
#
#
# Indices 1 2 3 4 5 6 
#
# 1 66.8311 38.9190 24.2919 0.0000 -22.2121 0.0000
# 2 38.9190 75.8883 46.9291 0.0000 -20.8969 0.0000
# 3 24.2919 46.9291 105.8325 0.0000 -32.2495 0.0000
# 4 0.0000 0.0000 0.0000 31.4210 0.0000 -0.5382
# 5 -22.2121 -20.8969 -32.2495 0.0000 16.9666 0.0000
# 6 0.0000 0.0000 0.0000 -0.5382 0.0000 23.5269
#
#
#
# Elastic Compliance Matrix: (Units=1/GPa)
#
#
# Indices 1 2 3 4 5 6 
#
# 1 0.038076 -0.011243 0.017148 0.000000 0.068595 0.000000
# 2 -0.011243 0.023735 -0.008368 0.000000 -0.001392 0.000000
# 3 0.017148 -0.008368 0.030713 0.000000 0.070521 0.000000
# 4 0.000000 0.000000 0.000000 0.031838 0.000000 0.000728
# 5 0.068595 -0.001392 0.070521 0.000000 0.281071 0.000000
# 6 0.000000 0.000000 0.000000 0.000728 0.000000 0.042521
#
#
# Mechanical properties :
#
#
# Convention : Reuss Voigt Hill
#
# Bulk Modulus (GPa) = 11.41586 52.09242 31.75414
# Shear Modulus (GPa) = 10.37177 23.61035 16.99106
#
# Velocity S-wave (km/s) = 2.50531 3.77995 3.20661
# Velocity P-wave (km/s) = 3.90861 7.11161 5.73813
#
# Compressibility (1/GPa) = 0.08759740
#
# Stress axis : x y z
#
# Youngs Moduli (GPa) = 26.26357 42.13248 32.55972
#
# Poissons Ratio (x) = 0.47369 -0.55834
# Poissons Ratio (y) = 0.29528 0.27246
# Poissons Ratio (z) = -0.45037 0.35257
#
# Static dielectric constant tensor:
#      x y z
#    x 1.540450 0.000000 -0.003040 
#    y 0.000000 1.555820 0.000000 
#    z -0.003040 0.000000 1.545090 
# 
# From -- ./inp_files/40607.got.cif
#   From: 2010.05.17/outbox.cif.g08.bks.cpg/sg11_21_cif.got.tgz:40607.got - 2010.06.03 12:22:45.
