data_PCOD9164640
_publ_section_title
;
Structure prediction by ZEFSAII (Michael W. Deem and Ramdas Pophale) SiO2 
 PCOD9164640
Probable space group: P 21/M
;
_chemical_formula_sum "Si O2"
_cell_formula_units_Z 24
_cell_length_a 21.999258
_cell_length_b 9.227324
_cell_length_c 11.021372
_cell_angle_alpha 90.000000
_cell_angle_beta 147.139607
_cell_angle_gamma 90.000000
_cell_volume 1213.932064
_symmetry_space_group_name_H-M "P 21/M"
_symmetry_group_IT_number 11
_symmetry_cell_setting 'monoclinic'
loop_
_space_group_symop_operation_xyz
x,y,z
-x,1/2+y,-z
-x,-y,-z
x,1/2-y,z
loop_
_atom_site_type_symbol
_atom_site_label
_atom_site_fract_x
_atom_site_fract_y
_atom_site_fract_z
Si Si1 0.253181 0.421431 0.336706
Si Si2 0.048559 0.921962 0.894061
Si Si3 0.381531 0.078383 0.805621
Si Si4 0.613552 0.420752 0.654780
Si Si5 0.828505 0.924470 0.404916
Si Si6 0.165954 0.583962 0.829639
O O1 0.248013 0.250000 0.301572
O O2 0.312589 0.440516 0.565397
O O3 0.329066 0.503180 0.364467
O O4 0.128788 0.488376 0.116724
O O5 0.054502 0.750000 0.932704
O O6 0.100425 0.941294 0.845357
O O7 0.920231 0.967684 0.659855
O O8 0.400737 0.250000 0.854403
O O9 0.295823 0.026682 0.766204
O O10 0.500000 0.000000 0.000000
O O11 0.500000 0.500000 0.500000
O O12 0.596141 0.250000 0.601363
O O13 0.704157 0.432357 0.914792
O O14 0.829967 0.750000 0.405930
O O15 0.860995 0.982122 0.327583
O O16 0.144545 0.750000 0.757501
#
# Coordination Sequence:
#
# PCOD9164640 Si02
#       6
#     4   4   4   4   4   4
#     4  10  21  38  58  82 114 148 190 239 284 337
#     4   9  19  37  59  85 117 148 184 234 291 344
#     4  10  24  42  58  81 113 151 194 241 286 335
#     4  10  21  36  56  83 114 149 190 235 286 338
#     4  10  21  37  58  84 114 151 192 234 283 341
#     4   9  19  34  53  83 117 146 181 229 283 341
#
# _framework density 19.770464
#
# number of rings (size 3 to 8) (size 9 to 14) (size 15 to 20)
#    0.000    2.333    0.000    2.500    2.333    6.667 
#    0.000    0.000    0.000    0.000    0.000    0.000 
#    0.000    0.000    0.000    0.000    0.000    0.000 
#
# Total GULP energy -133996.434623 kJ/mol
# GULP energy per Si atom -5583.184776 kJ/mol
# Density = 1.972547 g / cm^3
# Si number density = 19.770464 Si / 1000 Ang^3
#
#
#
# Elastic Constant Matrix: (Units=GPa)
#
#
# Indices 1 2 3 4 5 6 
#
# 1 24.1517 16.9421 15.6391 0.0000 6.3779 0.0000
# 2 16.9421 63.4324 46.3099 0.0000 0.2082 0.0000
# 3 15.6391 46.3099 83.2853 0.0000 23.2411 0.0000
# 4 0.0000 0.0000 0.0000 37.0914 0.0000 -0.8613
# 5 6.3779 0.2082 23.2411 0.0000 29.6185 0.0000
# 6 0.0000 0.0000 0.0000 -0.8613 0.0000 18.3366
#
#
#
# Elastic Compliance Matrix: (Units=1/GPa)
#
#
# Indices 1 2 3 4 5 6 
#
# 1 0.054976 -0.016752 0.002897 0.000000 -0.013993 0.000000
# 2 -0.016752 0.037685 -0.023995 0.000000 0.022171 0.000000
# 3 0.002897 -0.023995 0.031922 0.000000 -0.025504 0.000000
# 4 0.000000 0.000000 0.000000 0.026990 0.000000 0.001268
# 5 -0.013993 0.022171 -0.025504 0.000000 0.056633 0.000000
# 6 0.000000 0.000000 0.000000 0.001268 0.000000 0.054595
#
#
# Mechanical properties :
#
#
# Convention : Reuss Voigt Hill
#
# Bulk Modulus (GPa) = 20.45786 36.51681 28.48734
# Shear Modulus (GPa) = 14.09260 23.14121 18.61690
#
# Velocity S-wave (km/s) = 2.67275 3.42496 3.07196
# Velocity P-wave (km/s) = 4.46037 5.84388 5.19836
#
# Compressibility (1/GPa) = 0.04888097
#
# Stress axis : x y z
#
# Youngs Moduli (GPa) = 18.18972 26.53606 31.32603
#
# Poissons Ratio (x) = 0.44454 -0.09074
# Poissons Ratio (y) = 0.30472 0.75168
# Poissons Ratio (z) = -0.05269 0.63674
#
# Static dielectric constant tensor:
#      x y z
#    x 1.717900 0.000000 0.016980 
#    y 0.000000 1.659110 0.000000 
#    z 0.016980 0.000000 1.702080 
# 
# From -- ./inp_files/43886.got.cif
#   From: 2010.05.17/outbox.cif.g08.bks.cpg/sg11_22_cif.got.tgz:43886.got - 2010.06.03 12:22:45.
