data_PCOD9164706
_publ_section_title
;
Structure prediction by ZEFSAII (Michael W. Deem and Ramdas Pophale) SiO2 
 PCOD9164706
Probable space group: P 21/M
;
_chemical_formula_sum "Si O2"
_cell_formula_units_Z 28
_cell_length_a 7.013813
_cell_length_b 18.864576
_cell_length_c 14.424401
_cell_angle_alpha 90.000000
_cell_angle_beta 128.559013
_cell_angle_gamma 90.000000
_cell_volume 1492.406752
_symmetry_space_group_name_H-M "P 21/M"
_symmetry_group_IT_number 11
_symmetry_cell_setting 'monoclinic'
loop_
_space_group_symop_operation_xyz
x,y,z
-x,1/2+y,-z
-x,-y,-z
x,1/2-y,z
loop_
_atom_site_type_symbol
_atom_site_label
_atom_site_fract_x
_atom_site_fract_y
_atom_site_fract_z
Si Si1 0.092823 0.062552 0.763720
Si Si2 0.339713 0.940821 0.099872
Si Si3 0.969441 0.417764 0.515338
Si Si4 0.835216 0.169250 0.808289
Si Si5 0.471346 0.334296 0.347807
Si Si6 0.895023 0.552297 0.830516
Si Si7 0.373413 0.328762 0.535884
O O1 0.380043 0.049740 0.841116
O O2 0.999268 0.088718 0.635457
O O3 0.047515 0.120512 0.830536
O O4 0.942501 0.993425 0.751766
O O5 0.285851 0.868884 0.140491
O O6 0.259312 0.003557 0.145315
O O7 0.158414 0.939759 0.957907
O O8 0.719818 0.379265 0.408563
O O9 0.000000 0.500000 0.500000
O O10 0.191796 0.381505 0.529919
O O11 0.907572 0.250000 0.848773
O O12 0.630036 0.168518 0.666342
O O13 0.494494 0.250000 0.332474
O O14 0.251091 0.375412 0.230431
O O15 0.413491 0.340048 0.439725
O O16 0.269944 0.250000 0.517715
#
# Coordination Sequence:
#
# PCOD9164706 Si02
#       7
#     4   4   4   4   4   4   4
#     4  11  21  36  61  89 118 151 198 249 301 343
#     4  10  21  41  62  90 117 156 200 252 298 345
#     4  12  23  34  61  91 119 153 203 245 298 356
#     4  10  21  36  58  88 118 150 194 244 295 351
#     4  11  24  41  59  85 124 164 196 240 303 366
#     4  10  23  40  62  85 121 157 201 243 294 361
#     4  10  21  38  56  83 122 155 192 241 294 353
#
# _framework density 18.761641999999998
#
# number of rings (size 3 to 8) (size 9 to 14) (size 15 to 20)
#    0.000    1.429    2.857    2.571    2.000    2.857 
#    0.000    0.000    0.000    1.714    0.000    0.000 
#    0.000    0.000    0.000    0.000    0.000    0.000 
#
# Total GULP energy -156326.281443 kJ/mol
# GULP energy per Si atom -5583.081480 kJ/mol
# Density = 1.871894 g / cm^3
# Si number density = 18.761642 Si / 1000 Ang^3
#
#
#
# Elastic Constant Matrix: (Units=GPa)
#
#
# Indices 1 2 3 4 5 6 
#
# 1 83.1327 42.4375 6.3863 0.0000 18.0924 0.0000
# 2 42.4375 121.1679 14.6094 0.0000 7.8781 0.0000
# 3 6.3863 14.6094 36.3437 0.0000 12.3002 0.0000
# 4 0.0000 0.0000 0.0000 9.9506 0.0000 6.2990
# 5 18.0924 7.8781 12.3002 0.0000 25.7657 0.0000
# 6 0.0000 0.0000 0.0000 6.2990 0.0000 28.6897
#
#
#
# Elastic Compliance Matrix: (Units=1/GPa)
#
#
# Indices 1 2 3 4 5 6 
#
# 1 0.017275 -0.005669 0.003294 0.000000 -0.011970 0.000000
# 2 -0.005669 0.010564 -0.004180 0.000000 0.002746 0.000000
# 3 0.003294 -0.004180 0.034549 0.000000 -0.017528 0.000000
# 4 0.000000 0.000000 0.000000 0.116719 0.000000 -0.025626
# 5 -0.011970 0.002746 -0.017528 0.000000 0.054744 0.000000
# 6 0.000000 0.000000 0.000000 -0.025626 0.000000 0.040482
#
#
# Mechanical properties :
#
#
# Convention : Reuss Voigt Hill
#
# Bulk Modulus (GPa) = 20.29289 40.83452 30.56371
# Shear Modulus (GPa) = 16.45451 24.69529 20.57490
#
# Velocity S-wave (km/s) = 2.96468 3.63197 3.31516
# Velocity P-wave (km/s) = 4.74960 6.27698 5.56593
#
# Compressibility (1/GPa) = 0.04927834
#
# Stress axis : x y z
#
# Youngs Moduli (GPa) = 57.88736 94.66090 28.94463
#
# Poissons Ratio (x) = 0.53666 -0.09536
# Poissons Ratio (y) = 0.32818 0.12098
# Poissons Ratio (z) = -0.19071 0.39566
#
# Static dielectric constant tensor:
#      x y z
#    x 1.625840 0.000000 -0.005430 
#    y 0.000000 1.588280 0.000000 
#    z -0.005430 0.000000 1.653180 
# 
# From -- ./inp_files/6875.got.cif
#   From: 2010.05.17/outbox.cif.g08.bks.cpg/sg11_4_cif.got.tgz:6875.got - 2010.06.03 12:22:45.
