data_PCOD9164890
_publ_section_title
;
Structure prediction by ZEFSAII (Michael W. Deem and Ramdas Pophale) SiO2 
 PCOD9164890
Probable space group: P 21/M
;
_chemical_formula_sum "Si O2"
_cell_formula_units_Z 32
_cell_length_a 30.975809
_cell_length_b 7.548726
_cell_length_c 13.031117
_cell_angle_alpha 90.000000
_cell_angle_beta 151.751232
_cell_angle_gamma 90.000000
_cell_volume 1442.165607
_symmetry_space_group_name_H-M "P 21/M"
_symmetry_group_IT_number 11
_symmetry_cell_setting 'monoclinic'
loop_
_space_group_symop_operation_xyz
x,y,z
-x,1/2+y,-z
-x,-y,-z
x,1/2-y,z
loop_
_atom_site_type_symbol
_atom_site_label
_atom_site_fract_x
_atom_site_fract_y
_atom_site_fract_z
Si Si1 0.864344 0.454170 0.976617
Si Si2 0.605582 0.962153 0.234708
Si Si3 0.896682 0.539815 0.811370
Si Si4 0.036059 0.038010 0.461907
Si Si5 0.242971 0.467210 0.858218
Si Si6 0.263049 0.466113 0.668719
Si Si7 0.338597 0.045480 0.426738
Si Si8 0.401822 0.463002 0.343702
O O1 0.857504 0.250000 0.994723
O O2 0.870306 0.462393 0.866155
O O3 0.770546 0.541802 0.816468
O O4 0.957963 0.528974 0.220373
O O5 0.621288 0.750000 0.268844
O O6 0.660320 0.028494 0.250306
O O7 0.639690 0.033785 0.416002
O O8 0.500000 0.000000 0.000000
O O9 0.883863 0.750000 0.795171
O O10 0.831703 0.480403 0.583009
O O11 0.000000 0.500000 0.000000
O O12 0.041309 0.250000 0.457263
O O13 0.139410 0.972660 0.663723
O O14 0.000000 0.000000 0.500000
O O15 0.242543 0.250000 0.859680
O O16 0.270181 0.524421 0.800538
O O17 0.318537 0.526818 0.097961
O O18 0.265106 0.250000 0.676591
O O19 0.368349 0.250000 0.495242
O O20 0.388194 0.967269 0.431045
O O21 0.500000 0.500000 0.500000
O O22 0.392719 0.250000 0.329892
#
# Coordination Sequence:
#
# PCOD9164890 Si02
#       8
#     4   4   4   4   4   4   4   4
#     4  11  22  36  58  89 118 149 192 244 292 343
#     4  10  21  37  58  84 112 149 191 236 291 347
#     4  11  21  36  57  83 118 158 195 237 287 347
#     4  10  21  37  58  84 114 149 192 239 286 344
#     4   9  18  35  57  81 109 146 188 227 276 339
#     4   9  18  35  57  80 112 150 188 229 280 341
#     4  10  21  40  60  83 117 155 192 234 293 356
#     4  10  22  38  60  84 110 147 189 234 286 342
#
# _framework density 22.188852000000001
#
# number of rings (size 3 to 8) (size 9 to 14) (size 15 to 20)
#    0.000    2.000    1.250    2.250    1.750    5.000 
#    0.000    0.625    0.000    2.250    0.000    0.000 
#    0.000    0.000    0.000    0.000    0.000    0.000 
#
# Total GULP energy -178822.124301 kJ/mol
# GULP energy per Si atom -5588.191384 kJ/mol
# Density = 2.213835 g / cm^3
# Si number density = 22.188852 Si / 1000 Ang^3
#
#
#
# Elastic Constant Matrix: (Units=GPa)
#
#
# Indices 1 2 3 4 5 6 
#
# 1 184.0451 -2.3582 66.9878 0.0000 2.7502 0.0000
# 2 -2.3582 50.8621 -0.6360 0.0000 -5.1899 0.0000
# 3 66.9878 -0.6360 122.3867 0.0000 4.6757 0.0000
# 4 0.0000 0.0000 0.0000 18.1679 0.0000 8.1388
# 5 2.7502 -5.1899 4.6757 0.0000 40.9365 0.0000
# 6 0.0000 0.0000 0.0000 8.1388 0.0000 18.9449
#
#
#
# Elastic Compliance Matrix: (Units=1/GPa)
#
#
# Indices 1 2 3 4 5 6 
#
# 1 0.006789 0.000269 -0.003715 0.000000 0.000002 0.000000
# 2 0.000269 0.019929 -0.000140 0.000000 0.002525 0.000000
# 3 -0.003715 -0.000140 0.010239 0.000000 -0.000938 0.000000
# 4 0.000000 0.000000 0.000000 0.068160 0.000000 -0.029282
# 5 0.000002 0.002525 -0.000938 0.000000 0.024855 0.000000
# 6 0.000000 0.000000 0.000000 -0.029282 0.000000 0.065364
#
#
# Mechanical properties :
#
#
# Convention : Reuss Voigt Hill
#
# Bulk Modulus (GPa) = 33.57340 53.92011 43.74675
# Shear Modulus (GPa) = 23.53647 35.16322 29.34985
#
# Velocity S-wave (km/s) = 3.26042 3.98518 3.64088
# Velocity P-wave (km/s) = 5.41640 6.74751 6.11826
#
# Compressibility (1/GPa) = 0.02978549
#
# Stress axis : x y z
#
# Youngs Moduli (GPa) = 147.30018 50.17741 97.66523
#
# Poissons Ratio (x) = -0.01347 0.36278
# Poissons Ratio (y) = -0.03956 0.01366
# Poissons Ratio (z) = 0.54715 0.00702
#
# Static dielectric constant tensor:
#      x y z
#    x 1.782720 0.000000 -0.023130 
#    y 0.000000 1.809230 0.000000 
#    z -0.023130 0.000000 1.785510 
# 
# From -- ./inp_files/45250.got.cif
#   From: 2010.05.17/outbox.cif.g08.bks.cpg/sg11_23_cif.got.tgz:45250.got - 2010.06.03 12:22:45.
