data_PCOD9164977
_publ_section_title
;
Structure prediction by ZEFSAII (Michael W. Deem and Ramdas Pophale) SiO2 
 PCOD9164977
Probable space group: P 21/M
;
_chemical_formula_sum "Si O2"
_cell_formula_units_Z 32
_cell_length_a 14.393510
_cell_length_b 15.056472
_cell_length_c 7.847019
_cell_angle_alpha 90.000000
_cell_angle_beta 62.671239
_cell_angle_gamma 90.000000
_cell_volume 1510.764531
_symmetry_space_group_name_H-M "P 21/M"
_symmetry_group_IT_number 11
_symmetry_cell_setting 'monoclinic'
loop_
_space_group_symop_operation_xyz
x,y,z
-x,1/2+y,-z
-x,-y,-z
x,1/2-y,z
loop_
_atom_site_type_symbol
_atom_site_label
_atom_site_fract_x
_atom_site_fract_y
_atom_site_fract_z
Si Si1 0.143932 0.853053 0.626274
Si Si2 0.404215 0.482019 0.206491
Si Si3 0.823803 0.482279 0.715039
Si Si4 0.460675 0.849295 0.718942
Si Si5 0.247667 0.954943 0.854916
Si Si6 0.478993 0.654431 0.300561
Si Si7 0.914407 0.653541 0.720575
Si Si8 0.285722 0.347977 0.864389
O O1 0.177963 0.750000 0.591951
O O2 0.162618 0.903663 0.431619
O O3 0.198347 0.902210 0.738643
O O4 0.017825 0.854399 0.748532
O O5 0.291986 0.478461 0.218263
O O6 0.440908 0.396179 0.277616
O O7 0.408227 0.571547 0.315044
O O8 0.500000 0.500000 0.000000
O O9 0.902099 0.564868 0.619985
O O10 0.824484 0.454282 0.913827
O O11 0.442201 0.750000 0.801363
O O12 0.356791 0.909262 0.820029
O O13 0.483787 0.843828 0.499797
O O14 0.269916 0.057708 0.784003
O O15 0.439449 0.750000 0.270814
O O16 0.600027 0.644893 0.143660
O O17 0.922040 0.750000 0.624836
O O18 0.810778 0.655171 0.923856
O O19 0.286578 0.250000 0.775555
#
# Coordination Sequence:
#
# PCOD9164977 Si02
#       8
#     4   4   4   4   4   4   4   4
#     4  11  25  43  67  95 124 168 213 260 325 380
#     4  12  22  38  57  89 123 164 206 246 311 373
#     4  11  24  40  67  96 127 164 214 262 311 377
#     4  11  23  38  58  87 125 166 209 252 304 369
#     4  11  22  42  65  91 129 167 206 263 315 373
#     4  10  21  37  60  86 119 164 210 257 307 364
#     4   9  20  43  67  92 127 161 206 266 325 378
#     4   9  18  35  62  91 120 162 209 259 313 369
#
# _framework density 21.181328000000001
#
# number of rings (size 3 to 8) (size 9 to 14) (size 15 to 20)
#    0.000    1.500    2.500    2.625    1.750    5.500 
#    0.000    0.625    0.000    5.250    0.000    0.000 
#    0.000    0.000    0.000    0.000    0.000    0.000 
#
# Total GULP energy -178591.245114 kJ/mol
# GULP energy per Si atom -5580.976410 kJ/mol
# Density = 2.113312 g / cm^3
# Si number density = 21.181328 Si / 1000 Ang^3
#
#
#
# Elastic Constant Matrix: (Units=GPa)
#
#
# Indices 1 2 3 4 5 6 
#
# 1 83.9788 55.8712 16.1610 0.0000 0.3993 0.0000
# 2 55.8712 210.0222 30.5109 0.0000 19.8857 0.0000
# 3 16.1610 30.5109 51.5988 0.0000 7.2549 0.0000
# 4 0.0000 0.0000 0.0000 34.0518 0.0000 42.6786
# 5 0.3993 19.8857 7.2549 0.0000 30.6318 0.0000
# 6 0.0000 0.0000 0.0000 42.6786 0.0000 306.7202
#
#
#
# Elastic Compliance Matrix: (Units=1/GPa)
#
#
# Indices 1 2 3 4 5 6 
#
# 1 0.015010 -0.003864 -0.002836 0.000000 0.002984 0.000000
# 2 -0.003864 0.006436 -0.002085 0.000000 -0.003634 0.000000
# 3 -0.002836 -0.002085 0.022040 0.000000 -0.003830 0.000000
# 4 0.000000 0.000000 0.000000 0.035570 0.000000 -0.004949
# 5 0.002984 -0.003634 -0.003830 0.000000 0.035873 0.000000
# 6 0.000000 0.000000 0.000000 -0.004949 0.000000 0.003949
#
#
# Mechanical properties :
#
#
# Convention : Reuss Voigt Hill
#
# Bulk Modulus (GPa) = 38.58490 61.18732 49.88611
# Shear Modulus (GPa) = 34.46230 90.48453 62.47342
#
# Velocity S-wave (km/s) = 4.03800 6.54307 5.43678
# Velocity P-wave (km/s) = 6.32429 9.27537 7.93817
#
# Compressibility (1/GPa) = 0.02591688
#
# Stress axis : x y z
#
# Youngs Moduli (GPa) = 66.62324 155.37255 45.37247
#
# Poissons Ratio (x) = 0.60028 0.12868
# Poissons Ratio (y) = 0.25740 0.09459
# Poissons Ratio (z) = 0.18896 0.32391
#
# Static dielectric constant tensor:
#      x y z
#    x 1.739790 0.000000 -0.016800 
#    y 0.000000 1.906830 0.000000 
#    z -0.016800 0.000000 1.811680 
# 
# From -- ./inp_files/22165.got.cif
#   From: 2010.05.17/outbox.cif.g08.bks.cpg/sg11_12_cif.got.tgz:22165.got - 2010.06.03 12:22:45.
