data_PCOD9164408
_publ_section_title
;
Structure prediction by ZEFSAII (Michael W. Deem and Ramdas Pophale) SiO2 
 PCOD9164408
Probable space group: P 21/M
;
_chemical_formula_sum "Si O2"
_cell_formula_units_Z 28
_cell_length_a 16.989831
_cell_length_b 7.541908
_cell_length_c 14.869566
_cell_angle_alpha 90.000000
_cell_angle_beta 38.978566
_cell_angle_gamma 90.000000
_cell_volume 1198.504529
_symmetry_space_group_name_H-M "P 21/M"
_symmetry_group_IT_number 11
_symmetry_cell_setting 'monoclinic'
loop_
_space_group_symop_operation_xyz
x,y,z
-x,1/2+y,-z
-x,-y,-z
x,1/2-y,z
loop_
_atom_site_type_symbol
_atom_site_label
_atom_site_fract_x
_atom_site_fract_y
_atom_site_fract_z
Si Si1 0.211019 0.955555 0.792571
Si Si2 0.569122 0.964420 0.188496
Si Si3 0.399956 0.545457 0.487384
Si Si4 0.304063 0.041718 0.388195
Si Si5 0.814842 0.963424 0.872043
Si Si6 0.145804 0.462560 0.362641
Si Si7 0.031506 0.960642 0.102705
O O1 0.239384 0.750000 0.785530
O O2 0.329650 0.037112 0.634773
O O3 0.148780 0.032521 0.938345
O O4 0.094870 0.961442 0.825507
O O5 0.574386 0.750000 0.189297
O O6 0.522752 0.031034 0.328103
O O7 0.450139 0.014885 0.232746
O O8 0.696409 0.031943 0.033813
O O9 0.425404 0.750000 0.486107
O O10 0.302826 0.540886 0.488954
O O11 0.278432 0.250000 0.423038
O O12 0.217734 0.968019 0.386413
O O13 0.806710 0.750000 0.876024
O O14 0.813077 0.029935 0.771790
O O15 0.937748 0.007450 0.820743
O O16 0.166054 0.250000 0.344718
O O17 0.000000 0.500000 0.500000
O O18 0.023657 0.750000 0.094670
#
# Coordination Sequence:
#
# PCOD9164408 Si02
#       7
#     4   4   4   4   4   4   4
#     4   9  18  35  56  77 105 140 175 212 260 317
#     4   8  17  34  55  76 100 138 180 208 252 316
#     4   8  16  32  55  77  99 134 174 208 250 310
#     4   9  18  33  52  77 106 131 168 220 262 300
#     4  10  21  38  55  73 106 144 175 211 259 314
#     4  10  23  38  53  77 107 140 174 213 261 312
#     4  10  21  34  52  80 109 137 174 218 262 308
#
# _framework density 23.362447
#
# number of rings (size 3 to 8) (size 9 to 14) (size 15 to 20)
#    0.857    2.000    0.000    0.429    2.000    4.000 
#    0.000    0.714    0.000    0.000    0.000    0.000 
#    0.000    0.000    0.000    0.000    0.000    0.000 
#
# Total GULP energy -156119.532107 kJ/mol
# GULP energy per Si atom -5575.697575 kJ/mol
# Density = 2.330927 g / cm^3
# Si number density = 23.362447 Si / 1000 Ang^3
#
#
#
# Elastic Constant Matrix: (Units=GPa)
#
#
# Indices 1 2 3 4 5 6 
#
# 1 151.7371 -4.2687 22.4302 0.0000 16.2723 0.0000
# 2 -4.2687 76.5501 4.1697 0.0000 2.5019 0.0000
# 3 22.4302 4.1697 112.2315 0.0000 10.8317 0.0000
# 4 0.0000 0.0000 0.0000 11.2402 0.0000 -3.4715
# 5 16.2723 2.5019 10.8317 0.0000 21.8265 0.0000
# 6 0.0000 0.0000 0.0000 -3.4715 0.0000 18.0140
#
#
#
# Elastic Compliance Matrix: (Units=1/GPa)
#
#
# Indices 1 2 3 4 5 6 
#
# 1 0.007293 0.000625 -0.000997 0.000000 -0.005014 0.000000
# 2 0.000625 0.013180 -0.000445 0.000000 -0.001756 0.000000
# 3 -0.000997 -0.000445 0.009504 0.000000 -0.003923 0.000000
# 4 0.000000 0.000000 0.000000 0.094597 0.000000 0.018230
# 5 -0.005014 -0.001756 -0.003923 0.000000 0.051702 0.000000
# 6 0.000000 0.000000 0.000000 0.018230 0.000000 0.059025
#
#
# Mechanical properties :
#
#
# Convention : Reuss Voigt Hill
#
# Bulk Modulus (GPa) = 35.28199 42.79792 39.03995
# Shear Modulus (GPa) = 20.29359 31.42864 25.86112
#
# Velocity S-wave (km/s) = 2.95047 3.67176 3.33070
# Velocity P-wave (km/s) = 5.17125 6.02782 5.61589
#
# Compressibility (1/GPa) = 0.02834307
#
# Stress axis : x y z
#
# Youngs Moduli (GPa) = 137.11798 75.87360 105.21345
#
# Poissons Ratio (x) = -0.04741 0.10488
# Poissons Ratio (y) = -0.08568 0.04683
# Poissons Ratio (z) = 0.13669 0.03377
#
# Static dielectric constant tensor:
#      x y z
#    x 1.880600 0.000000 -0.015940 
#    y 0.000000 1.871020 0.000000 
#    z -0.015940 0.000000 1.919580 
# 
# From -- ./inp_files/53183.got.cif
#   From: 2010.05.17/outbox.cif.g08.bks.cpg/sg11_27_cif.got.tgz:53183.got - 2010.06.03 12:22:45.
