data_PCOD9164180
_publ_section_title
;
Structure prediction by ZEFSAII (Michael W. Deem and Ramdas Pophale) SiO2 
 PCOD9164180
Probable space group: P 21/M
;
_chemical_formula_sum "Si O2"
_cell_formula_units_Z 28
_cell_length_a 14.768589
_cell_length_b 12.520256
_cell_length_c 7.324691
_cell_angle_alpha 90.000000
_cell_angle_beta 104.384144
_cell_angle_gamma 90.000000
_cell_volume 1311.925813
_symmetry_space_group_name_H-M "P 21/M"
_symmetry_group_IT_number 11
_symmetry_cell_setting 'monoclinic'
loop_
_space_group_symop_operation_xyz
x,y,z
-x,1/2+y,-z
-x,-y,-z
x,1/2-y,z
loop_
_atom_site_type_symbol
_atom_site_label
_atom_site_fract_x
_atom_site_fract_y
_atom_site_fract_z
Si Si1 0.633095 0.874941 0.367471
Si Si2 0.570223 0.374883 0.668673
Si Si3 0.762533 0.367963 0.610520
Si Si4 0.215638 0.413626 0.250766
Si Si5 0.671727 0.974223 0.004184
Si Si6 0.826253 0.368833 0.232771
Si Si7 0.994678 0.874491 0.915535
O O1 0.635365 0.750000 0.330473
O O2 0.537472 0.897710 0.430460
O O3 0.628478 0.930880 0.168864
O O4 0.724282 0.897131 0.535699
O O5 0.573839 0.250000 0.728637
O O6 0.649364 0.383387 0.550137
O O7 0.604301 0.452095 0.847802
O O8 0.778501 0.250000 0.691691
O O9 0.799365 0.458407 0.760226
O O10 0.813277 0.377276 0.443592
O O11 0.113696 0.365966 0.195331
O O12 0.282158 0.388416 0.112029
O O13 0.069018 0.620395 0.788098
O O14 0.758451 0.044349 0.116118
O O15 0.792290 0.250000 0.165689
O O16 0.012987 0.750000 0.009226
O O17 0.000000 0.000000 0.000000
#
# Coordination Sequence:
#
# PCOD9164180 Si02
#       7
#     4   4   4   4   4   4   4
#     4  11  24  42  60  90 134 174 217 272 327 401
#     4   9  20  39  64  93 129 170 215 268 331 393
#     4   9  19  37  63  94 127 167 218 271 330 390
#     4  11  23  41  66  92 130 173 216 270 335 403
#     4  11  21  39  65  94 125 170 218 268 329 389
#     4  10  20  39  64  92 127 161 214 279 329 389
#     4  11  24  43  69 100 132 177 226 279 342 408
#
# _framework density 21.342672
#
# number of rings (size 3 to 8) (size 9 to 14) (size 15 to 20)
#    0.000    1.714    2.857    1.286    0.000    5.143 
#    2.571    0.000    0.000    0.000    0.000    0.000 
#    0.000    0.000    0.000    0.000    0.000    0.000 
#
# Total GULP energy -155920.460434 kJ/mol
# GULP energy per Si atom -5568.587873 kJ/mol
# Density = 2.129409 g / cm^3
# Si number density = 21.342672 Si / 1000 Ang^3
#
#
#
# Elastic Constant Matrix: (Units=GPa)
#
#
# Indices 1 2 3 4 5 6 
#
# 1 132.4227 39.7854 32.1198 0.0000 1.1119 0.0000
# 2 39.7854 112.9087 16.7904 0.0000 -9.1572 0.0000
# 3 32.1198 16.7904 50.7335 0.0000 -10.0637 0.0000
# 4 0.0000 0.0000 0.0000 8.7977 0.0000 -7.2089
# 5 1.1119 -9.1572 -10.0637 0.0000 39.7197 0.0000
# 6 0.0000 0.0000 0.0000 -7.2089 0.0000 23.1405
#
#
#
# Elastic Compliance Matrix: (Units=1/GPa)
#
#
# Indices 1 2 3 4 5 6 
#
# 1 0.009807 -0.002792 -0.005756 0.000000 -0.002377 0.000000
# 2 -0.002792 0.010189 -0.001182 0.000000 0.002128 0.000000
# 3 -0.005756 -0.001182 0.024980 0.000000 0.006218 0.000000
# 4 0.000000 0.000000 0.000000 0.152626 0.000000 0.047547
# 5 -0.002377 0.002128 0.006218 0.000000 0.027309 0.000000
# 6 0.000000 0.000000 0.000000 0.047547 0.000000 0.058026
#
#
# Mechanical properties :
#
#
# Convention : Reuss Voigt Hill
#
# Bulk Modulus (GPa) = 39.19381 52.60623 45.90002
# Shear Modulus (GPa) = 16.08224 28.15619 22.11922
#
# Velocity S-wave (km/s) = 2.74802 3.63608 3.22279
# Velocity P-wave (km/s) = 5.33599 6.50615 5.94990
#
# Compressibility (1/GPa) = 0.02551423
#
# Stress axis : x y z
#
# Youngs Moduli (GPa) = 101.97217 98.14503 40.03275
#
# Poissons Ratio (x) = 0.27405 0.23043
# Poissons Ratio (y) = 0.28474 0.04733
# Poissons Ratio (z) = 0.58695 0.11603
#
# Static dielectric constant tensor:
#      x y z
#    x 1.791550 0.000000 -0.027530 
#    y 0.000000 1.885870 0.000000 
#    z -0.027530 0.000000 1.797450 
# 
# From -- ./inp_files/21302.got.cif
#   From: 2010.05.17/outbox.cif.g08.bks.cpg/sg11_11_cif.got.tgz:21302.got - 2010.06.03 12:22:45.
