data_PCOD9164074
_publ_section_title
;
Structure prediction by ZEFSAII (Michael W. Deem and Ramdas Pophale) SiO2 
 PCOD9164074
Probable space group: P 21/M
;
_chemical_formula_sum "Si O2"
_cell_formula_units_Z 24
_cell_length_a 5.163687
_cell_length_b 26.017703
_cell_length_c 7.834066
_cell_angle_alpha 90.000000
_cell_angle_beta 118.547180
_cell_angle_gamma 90.000000
_cell_volume 924.528345
_symmetry_space_group_name_H-M "P 21/M"
_symmetry_group_IT_number 11
_symmetry_cell_setting 'monoclinic'
loop_
_space_group_symop_operation_xyz
x,y,z
-x,1/2+y,-z
-x,-y,-z
x,1/2-y,z
loop_
_atom_site_type_symbol
_atom_site_label
_atom_site_fract_x
_atom_site_fract_y
_atom_site_fract_z
Si Si1 0.628714 0.638463 0.466375
Si Si2 0.941711 0.434431 0.964358
Si Si3 0.331117 0.250000 0.508203
Si Si4 0.790545 0.148409 0.126430
Si Si5 0.360920 0.750000 0.761315
Si Si6 0.453139 0.931086 0.687768
Si Si7 0.285859 0.039292 0.734351
O O1 0.548630 0.695744 0.379136
O O2 0.400706 0.607363 0.513897
O O3 0.734886 0.592543 0.377481
O O4 0.898364 0.652512 0.678739
O O5 0.076312 0.452888 0.829467
O O6 0.631733 0.461710 0.897822
O O7 0.196642 0.442282 0.186206
O O8 0.858713 0.373898 0.960444
O O9 0.427595 0.250000 0.336736
O O10 0.975612 0.250000 0.417382
O O11 0.616100 0.199983 0.112083
O O12 0.621334 0.102909 0.171391
O O13 0.277440 0.984461 0.632549
#
# Coordination Sequence:
#
# PCOD9164074 Si02
#       7
#     4   4   2   4   2   4   4
#     4  10  24  40  64  95 121 162 212 263 307 369
#     4  11  25  42  61  91 128 173 203 246 314 382
#     4  10  20  40  64  87 121 160 203 258 316 363
#     4  10  22  41  67  92 120 161 216 259 307 367
#     4  10  20  38  66  93 113 156 215 268 298 353
#     4  11  22  41  66  92 126 166 213 257 304 372
#     4  12  26  39  62  94 134 166 201 254 320 376
#
# _framework density 25.95918
#
# number of rings (size 3 to 8) (size 9 to 14) (size 15 to 20)
#    0.000    1.333    3.333    1.500    7.000    0.667 
#    0.000    1.667    0.000    0.000    0.000    0.000 
#    0.000    0.000    0.000    0.000    0.000    0.000 
#
# Total GULP energy -134083.191107 kJ/mol
# GULP energy per Si atom -5586.799629 kJ/mol
# Density = 2.590010 g / cm^3
# Si number density = 25.959180 Si / 1000 Ang^3
#
#
#
# Elastic Constant Matrix: (Units=GPa)
#
#
# Indices 1 2 3 4 5 6 
#
# 1 134.7624 31.7166 11.4884 0.0000 -13.4421 0.0000
# 2 31.7166 251.9475 27.6742 0.0000 -22.6807 0.0000
# 3 11.4884 27.6742 21.6801 0.0000 -11.6411 0.0000
# 4 0.0000 0.0000 0.0000 32.7428 0.0000 -10.9533
# 5 -13.4421 -22.6807 -11.6411 0.0000 47.0639 0.0000
# 6 0.0000 0.0000 0.0000 -10.9533 0.0000 41.1126
#
#
#
# Elastic Compliance Matrix: (Units=1/GPa)
#
#
# Indices 1 2 3 4 5 6 
#
# 1 0.007922 -0.000577 -0.002763 0.000000 0.001301 0.000000
# 2 -0.000577 0.004690 -0.005254 0.000000 0.000796 0.000000
# 3 -0.002763 -0.005254 0.060556 0.000000 0.011657 0.000000
# 4 0.000000 0.000000 0.000000 0.033529 0.000000 0.008933
# 5 0.001301 0.000796 0.011657 0.000000 0.024886 0.000000
# 6 0.000000 0.000000 0.000000 0.008933 0.000000 0.026703
#
#
# Mechanical properties :
#
#
# Convention : Reuss Voigt Hill
#
# Bulk Modulus (GPa) = 17.86359 61.12759 39.49559
# Shear Modulus (GPa) = 25.75538 46.68457 36.21998
#
# Velocity S-wave (km/s) = 3.15326 4.24534 3.73938
# Velocity P-wave (km/s) = 4.48929 6.90139 5.82164
#
# Compressibility (1/GPa) = 0.05597979
#
# Stress axis : x y z
#
# Youngs Moduli (GPa) = 126.23866 213.19848 16.51377
#
# Poissons Ratio (x) = 0.12293 0.04563
# Poissons Ratio (y) = 0.07279 0.08677
# Poissons Ratio (z) = 0.34880 1.12021
#
# Static dielectric constant tensor:
#      x y z
#    x 2.055110 0.000000 0.015400 
#    y 0.000000 2.152210 0.000000 
#    z 0.015400 0.000000 2.143300 
# 
# From -- ./inp_files/10434.got.cif
#   From: 2010.05.17/outbox.cif.g08.bks.cpg/sg11_6_cif.got.tgz:10434.got - 2010.06.03 12:22:45.
