data_PCOD9164090
_publ_section_title
;
Structure prediction by ZEFSAII (Michael W. Deem and Ramdas Pophale) SiO2 
 PCOD9164090
Probable space group: P 21/M
;
_chemical_formula_sum "Si O2"
_cell_formula_units_Z 16
_cell_length_a 5.137408
_cell_length_b 8.275750
_cell_length_c 22.512604
_cell_angle_alpha 90.000000
_cell_angle_beta 141.378183
_cell_angle_gamma 90.000000
_cell_volume 597.427225
_symmetry_space_group_name_H-M "P 21/M"
_symmetry_group_IT_number 11
_symmetry_cell_setting 'monoclinic'
loop_
_space_group_symop_operation_xyz
x,y,z
-x,1/2+y,-z
-x,-y,-z
x,1/2-y,z
loop_
_atom_site_type_symbol
_atom_site_label
_atom_site_fract_x
_atom_site_fract_y
_atom_site_fract_z
Si Si1 0.431598 0.750000 0.762316
Si Si2 0.476906 0.750000 0.632689
Si Si3 0.597561 0.574092 0.203470
Si Si4 0.529854 0.435726 0.572492
Si Si5 0.538912 0.555653 0.939420
O O1 0.363125 0.750000 0.680582
O O2 0.649494 0.585429 0.820482
O O3 0.980185 0.750000 0.713414
O O4 0.349133 0.579549 0.580968
O O5 0.392387 0.750000 0.169453
O O6 0.732899 0.536952 0.159743
O O7 0.991416 0.576086 0.318318
O O8 0.500000 0.500000 0.500000
O O9 0.381320 0.250000 0.550031
O O10 0.494544 0.750000 0.926044
O O11 0.500000 0.500000 0.000000
O O12 0.000000 0.500000 0.000000
#
# Coordination Sequence:
#
# PCOD9164090 Si02
#       5
#     2   2   4   4   4
#     4  10  22  42  66  96 130 176 222 280 340 402
#     4  10  22  40  64  94 132 172 230 274 332 406
#     4  10  22  43  69 102 140 184 234 289 353 420
#     4  10  20  38  70 100 141 183 232 285 348 415
#     4  12  26  47  74 108 146 190 241 302 364 436
#
# _framework density 26.781506
#
# number of rings (size 3 to 8) (size 9 to 14) (size 15 to 20)
#    0.000    1.500    2.500    2.250    0.000    5.000 
#    0.000   10.000    0.000    0.000    0.000    0.000 
#    0.000    0.000    0.000    0.000    0.000    0.000 
#
# Total GULP energy -89633.195083 kJ/mol
# GULP energy per Si atom -5602.074693 kJ/mol
# Density = 2.672055 g / cm^3
# Si number density = 26.781506 Si / 1000 Ang^3
#
#
#
# Elastic Constant Matrix: (Units=GPa)
#
#
# Indices 1 2 3 4 5 6 
#
# 1 80.0068 38.7194 47.4168 0.0000 -20.6887 0.0000
# 2 38.7194 326.1364 70.6605 0.0000 -22.8892 0.0000
# 3 47.4168 70.6605 204.3147 0.0000 -35.3876 0.0000
# 4 0.0000 0.0000 0.0000 55.9258 0.0000 -5.4547
# 5 -20.6887 -22.8892 -35.3876 0.0000 54.4519 0.0000
# 6 0.0000 0.0000 0.0000 -5.4547 0.0000 43.8173
#
#
#
# Elastic Compliance Matrix: (Units=1/GPa)
#
#
# Indices 1 2 3 4 5 6 
#
# 1 0.015503 -0.001014 -0.002593 0.000000 0.003779 0.000000
# 2 -0.001014 0.003407 -0.000858 0.000000 0.000489 0.000000
# 3 -0.002593 -0.000858 0.006265 0.000000 0.002726 0.000000
# 4 0.000000 0.000000 0.000000 0.018101 0.000000 0.002253
# 5 0.003779 0.000489 0.002726 0.000000 0.021778 0.000000
# 6 0.000000 0.000000 0.000000 0.002253 0.000000 0.023103
#
#
# Mechanical properties :
#
#
# Convention : Reuss Voigt Hill
#
# Bulk Modulus (GPa) = 61.55403 102.67234 82.11318
# Shear Modulus (GPa) = 48.78002 61.08307 54.93155
#
# Velocity S-wave (km/s) = 4.27242 4.78095 4.53382
# Velocity P-wave (km/s) = 6.88272 8.30041 7.62459
#
# Compressibility (1/GPa) = 0.01624589
#
# Stress axis : x y z
#
# Youngs Moduli (GPa) = 64.50188 293.52894 159.61516
#
# Poissons Ratio (x) = 0.29751 0.41386
# Poissons Ratio (y) = 0.06538 0.13699
# Poissons Ratio (z) = 0.16725 0.25192
#
# Static dielectric constant tensor:
#      x y z
#    x 2.188660 0.000000 0.150550 
#    y 0.000000 2.123240 0.000000 
#    z 0.150550 0.000000 2.155040 
# 
# From -- ./inp_files/56698.got.cif
#   From: 2010.05.17/outbox.cif.g08.bks.cpg/sg11_29_cif.got.tgz:56698.got - 2010.06.03 12:22:45.
