data_PCOD9164967
_publ_section_title
;
Structure prediction by ZEFSAII (Michael W. Deem and Ramdas Pophale) SiO2 
 PCOD9164967
Probable space group: P 21/M
;
_chemical_formula_sum "Si O2"
_cell_formula_units_Z 28
_cell_length_a 20.572319
_cell_length_b 12.916673
_cell_length_c 5.555713
_cell_angle_alpha 90.000000
_cell_angle_beta 122.646499
_cell_angle_gamma 90.000000
_cell_volume 1243.063977
_symmetry_space_group_name_H-M "P 21/M"
_symmetry_group_IT_number 11
_symmetry_cell_setting 'monoclinic'
loop_
_space_group_symop_operation_xyz
x,y,z
-x,1/2+y,-z
-x,-y,-z
x,1/2-y,z
loop_
_atom_site_type_symbol
_atom_site_label
_atom_site_fract_x
_atom_site_fract_y
_atom_site_fract_z
Si Si1 0.154700 0.049390 0.851391
Si Si2 0.136038 0.633267 0.138118
Si Si3 0.977464 0.250000 0.807471
Si Si4 0.558810 0.952856 0.428317
Si Si5 0.707107 0.867212 0.584506
Si Si6 0.728445 0.048024 0.280139
Si Si7 0.069904 0.250000 0.492381
Si Si8 0.579164 0.362246 0.103019
O O1 0.113469 0.139081 0.614407
O O2 0.213575 0.979118 0.815720
O O3 0.208495 0.114397 0.140197
O O4 0.109724 0.962222 0.918047
O O5 0.137801 0.750000 0.028601
O O6 0.220048 0.606009 0.413618
O O7 0.077747 0.651550 0.245692
O O8 0.013554 0.250000 0.615935
O O9 0.035461 0.250000 0.153400
O O10 0.641028 0.901190 0.643549
O O11 0.500000 0.000000 0.500000
O O12 0.579394 0.049450 0.301478
O O13 0.504548 0.871038 0.183467
O O14 0.695129 0.750000 0.493719
O O15 0.701901 0.939863 0.342728
O O16 0.651082 0.111890 0.070890
O O17 0.591271 0.250000 0.233373
#
# Coordination Sequence:
#
# PCOD9164967 Si02
#       8
#     4   4   2   4   4   4   2   4
#     4  11  24  40  69  97 132 179 224 285 338 417
#     4   9  23  44  66  95 132 174 224 274 344 411
#     4  10  28  48  72 108 139 185 225 288 355 424
#     4  10  21  38  58  88 129 166 220 273 337 399
#     4  10  21  38  59  90 128 172 220 272 337 401
#     4  10  22  39  64  91 131 171 224 278 334 408
#     4  12  28  46  74 108 143 177 235 284 353 428
#     4  10  21  37  59  92 125 172 220 280 331 395
#
# _framework density 22.524986999999999
#
# number of rings (size 3 to 8) (size 9 to 14) (size 15 to 20)
#    0.429    1.429    0.714    1.714    7.000    3.429 
#    0.000    0.000    0.000    0.000    0.000    0.000 
#    0.000    0.000    0.000    0.000    0.000    0.000 
#
# Total GULP energy -156112.074606 kJ/mol
# GULP energy per Si atom -5575.431236 kJ/mol
# Density = 2.247372 g / cm^3
# Si number density = 22.524987 Si / 1000 Ang^3
#
#
#
# Elastic Constant Matrix: (Units=GPa)
#
#
# Indices 1 2 3 4 5 6 
#
# 1 70.0192 9.9319 0.3703 0.0000 -7.1651 0.0000
# 2 9.9319 90.1227 13.3509 0.0000 17.8244 0.0000
# 3 0.3703 13.3509 37.4887 0.0000 8.7748 0.0000
# 4 0.0000 0.0000 0.0000 43.9434 0.0000 21.2873
# 5 -7.1651 17.8244 8.7748 0.0000 28.3711 0.0000
# 6 0.0000 0.0000 0.0000 21.2873 0.0000 31.3383
#
#
#
# Elastic Compliance Matrix: (Units=1/GPa)
#
#
# Indices 1 2 3 4 5 6 
#
# 1 0.015260 -0.002739 -0.000518 0.000000 0.005735 0.000000
# 2 -0.002739 0.013452 -0.002828 0.000000 -0.008268 0.000000
# 3 -0.000518 -0.002828 0.029432 0.000000 -0.007457 0.000000
# 4 0.000000 0.000000 0.000000 0.033917 0.000000 -0.023039
# 5 0.005735 -0.008268 -0.007457 0.000000 0.044197 0.000000
# 6 0.000000 0.000000 0.000000 -0.023039 0.000000 0.047560
#
#
# Mechanical properties :
#
#
# Convention : Reuss Voigt Hill
#
# Bulk Modulus (GPa) = 21.75131 27.21523 24.48327
# Shear Modulus (GPa) = 23.66155 32.32906 27.99530
#
# Velocity S-wave (km/s) = 3.24459 3.79258 3.52924
# Velocity P-wave (km/s) = 4.86970 5.59345 5.24408
#
# Compressibility (1/GPa) = 0.04597424
#
# Stress axis : x y z
#
# Youngs Moduli (GPa) = 65.53106 74.33732 33.97613
#
# Poissons Ratio (x) = 0.20363 0.01758
# Poissons Ratio (y) = 0.17951 0.09610
# Poissons Ratio (z) = 0.03392 0.21025
#
# Static dielectric constant tensor:
#      x y z
#    x 1.936150 0.000000 -0.004420 
#    y 0.000000 1.826380 0.000000 
#    z -0.004420 0.000000 1.875490 
# 
# From -- ./inp_files/8857.got.cif
#   From: 2010.05.17/outbox.cif.g08.bks.cpg/sg11_5_cif.got.tgz:8857.got - 2010.06.03 12:22:45.
