data_PCOD9164008
_publ_section_title
;
Structure prediction by ZEFSAII (Michael W. Deem and Ramdas Pophale) SiO2 
 PCOD9164008
Probable space group: P 21/M
;
_chemical_formula_sum "Si O2"
_cell_formula_units_Z 28
_cell_length_a 28.577481
_cell_length_b 8.573159
_cell_length_c 10.091402
_cell_angle_alpha 90.000000
_cell_angle_beta 142.281643
_cell_angle_gamma 90.000000
_cell_volume 1512.557755
_symmetry_space_group_name_H-M "P 21/M"
_symmetry_group_IT_number 11
_symmetry_cell_setting 'monoclinic'
loop_
_space_group_symop_operation_xyz
x,y,z
-x,1/2+y,-z
-x,-y,-z
x,1/2-y,z
loop_
_atom_site_type_symbol
_atom_site_label
_atom_site_fract_x
_atom_site_fract_y
_atom_site_fract_z
Si Si1 0.450028 0.933972 0.769460
Si Si2 0.539052 0.063248 0.719937
Si Si3 0.870930 0.063646 0.053894
Si Si4 0.999178 0.563060 0.147997
Si Si5 0.871162 0.439214 0.357857
Si Si6 0.696850 0.437105 0.954759
Si Si7 0.297554 0.066063 0.322278
O O1 0.439858 0.750000 0.758706
O O2 0.498243 0.976703 0.747530
O O3 0.366847 0.011782 0.569630
O O4 0.500000 0.000000 0.000000
O O5 0.528265 0.250000 0.707967
O O6 0.500000 0.000000 0.500000
O O7 0.629666 0.031461 0.907981
O O8 0.879961 0.250000 0.069601
O O9 0.889513 0.010242 0.247399
O O10 0.924920 0.987470 0.065333
O O11 0.782553 0.020130 0.831692
O O12 0.002529 0.750000 0.148779
O O13 0.070535 0.506157 0.398931
O O14 0.000000 0.500000 0.000000
O O15 0.874708 0.250000 0.364265
O O16 0.782888 0.481779 0.188238
O O17 0.696538 0.250000 0.928262
O O18 0.679814 0.521029 0.777761
O O19 0.285996 0.250000 0.306435
#
# Coordination Sequence:
#
# PCOD9164008 Si02
#       7
#     4   4   4   4   4   4   4
#     4  12  25  42  60  83 119 161 204 248 297 351
#     4  11  21  35  60  89 120 156 198 244 296 352
#     4  10  20  38  63  88 113 148 193 240 293 351
#     4  11  22  38  58  84 120 156 192 238 291 352
#     4   8  17  35  60  86 113 148 193 239 286 342
#     4   9  18  35  59  87 116 150 194 243 294 348
#     4  11  21  36  60  89 119 150 193 243 296 353
#
# _framework density 18.511690999999999
#
# number of rings (size 3 to 8) (size 9 to 14) (size 15 to 20)
#    0.000    1.714    1.429    5.143    0.000    0.571 
#    2.571    6.429    0.000    0.000    0.000    0.000 
#    0.000    0.000    0.000    0.000    0.000    0.000 
#
# Total GULP energy -156351.912759 kJ/mol
# GULP energy per Si atom -5583.996884 kJ/mol
# Density = 1.846956 g / cm^3
# Si number density = 18.511691 Si / 1000 Ang^3
#
#
#
# Elastic Constant Matrix: (Units=GPa)
#
#
# Indices 1 2 3 4 5 6 
#
# 1 88.2820 12.1896 58.0626 0.0000 -3.0129 0.0000
# 2 12.1896 50.4295 15.4910 0.0000 -2.8811 0.0000
# 3 58.0626 15.4910 136.0813 0.0000 -7.5250 0.0000
# 4 0.0000 0.0000 0.0000 26.8235 0.0000 -0.7507
# 5 -3.0129 -2.8811 -7.5250 0.0000 23.7478 0.0000
# 6 0.0000 0.0000 0.0000 -0.7507 0.0000 32.6789
#
#
#
# Elastic Compliance Matrix: (Units=1/GPa)
#
#
# Indices 1 2 3 4 5 6 
#
# 1 0.015908 -0.001836 -0.006595 0.000000 -0.000294 0.000000
# 2 -0.001836 0.020835 -0.001487 0.000000 0.001823 0.000000
# 3 -0.006595 -0.001487 0.010459 0.000000 0.002297 0.000000
# 4 0.000000 0.000000 0.000000 0.037305 0.000000 0.000857
# 5 -0.000294 0.001823 0.002297 0.000000 0.043021 0.000000
# 6 0.000000 0.000000 0.000000 0.000857 0.000000 0.030621
#
#
# Mechanical properties :
#
#
# Convention : Reuss Voigt Hill
#
# Bulk Modulus (GPa) = 36.54372 49.58657 43.06515
# Shear Modulus (GPa) = 26.72275 29.25333 27.98804
#
# Velocity S-wave (km/s) = 3.80354 3.97956 3.89255
# Velocity P-wave (km/s) = 6.25084 6.92537 6.59673
#
# Compressibility (1/GPa) = 0.02736448
#
# Stress axis : x y z
#
# Youngs Moduli (GPa) = 62.86038 47.99709 95.61344
#
# Poissons Ratio (x) = 0.08813 0.63056
# Poissons Ratio (y) = 0.11543 0.14222
# Poissons Ratio (z) = 0.41456 0.07139
#
# Static dielectric constant tensor:
#      x y z
#    x 1.622670 0.000000 0.012570 
#    y 0.000000 1.631820 0.000000 
#    z 0.012570 0.000000 1.674930 
# 
# From -- ./inp_files/28636.got.cif
#   From: 2010.05.17/outbox.cif.g08.bks.cpg/sg11_15_cif.got.tgz:28636.got - 2010.06.03 12:22:45.
