data_PCOD9164119
_publ_section_title
;
Structure prediction by ZEFSAII (Michael W. Deem and Ramdas Pophale) SiO2 
 PCOD9164119
Probable space group: P 21/M
;
_chemical_formula_sum "Si O2"
_cell_formula_units_Z 24
_cell_length_a 9.146592
_cell_length_b 13.211880
_cell_length_c 18.111585
_cell_angle_alpha 90.000000
_cell_angle_beta 145.397911
_cell_angle_gamma 90.000000
_cell_volume 1242.888542
_symmetry_space_group_name_H-M "P 21/M"
_symmetry_group_IT_number 11
_symmetry_cell_setting 'monoclinic'
loop_
_space_group_symop_operation_xyz
x,y,z
-x,1/2+y,-z
-x,-y,-z
x,1/2-y,z
loop_
_atom_site_type_symbol
_atom_site_label
_atom_site_fract_x
_atom_site_fract_y
_atom_site_fract_z
Si Si1 0.906255 0.499839 0.206650
Si Si2 0.570869 0.130008 0.957455
Si Si3 0.296780 0.978007 0.137436
Si Si4 0.359139 0.868227 0.645850
Si Si5 0.441701 0.952945 0.357916
Si Si6 0.031438 0.134986 0.395243
O O1 0.702555 0.591053 0.125069
O O2 0.193657 0.533015 0.305181
O O3 0.913958 0.441973 0.287626
O O4 0.794842 0.422628 0.099003
O O5 0.592797 0.250000 0.968176
O O6 0.595503 0.085967 0.885313
O O7 0.343148 0.923252 0.235110
O O8 0.443265 0.084890 0.211593
O O9 0.000000 0.000000 0.000000
O O10 0.399859 0.750000 0.648694
O O11 0.082742 0.883032 0.570062
O O12 0.414973 0.938952 0.598683
O O13 0.662610 0.879653 0.477779
O O14 0.960615 0.250000 0.346212
#
# Coordination Sequence:
#
# PCOD9164119 Si02
#       6
#     4   4   4   4   4   4
#     4  11  22  41  61  87 129 160 201 248 302 363
#     4  11  23  40  64  90 121 163 203 246 304 361
#     4  10  20  39  61  90 119 150 199 256 300 348
#     4   9  20  38  62  87 117 160 204 244 300 359
#     4  10  22  37  63  88 120 156 204 255 295 355
#     4  11  22  39  60  87 124 165 204 244 302 361
#
# _framework density 19.309857999999998
#
# number of rings (size 3 to 8) (size 9 to 14) (size 15 to 20)
#    1.000    0.667    3.333    1.500    0.000    4.667 
#    0.000    2.500    0.000    0.000    0.000    0.000 
#    0.000    0.000    0.000    0.000    0.000    0.000 
#
# Total GULP energy -133821.664609 kJ/mol
# GULP energy per Si atom -5575.902692 kJ/mol
# Density = 1.926591 g / cm^3
# Si number density = 19.309858 Si / 1000 Ang^3
#
#
#
# Elastic Constant Matrix: (Units=GPa)
#
#
# Indices 1 2 3 4 5 6 
#
# 1 64.7819 9.4370 -14.6160 0.0000 19.5691 0.0000
# 2 9.4370 66.9438 -8.2505 0.0000 5.9697 0.0000
# 3 -14.6160 -8.2505 31.1312 0.0000 9.8572 0.0000
# 4 0.0000 0.0000 0.0000 12.9086 0.0000 0.1040
# 5 19.5691 5.9697 9.8572 0.0000 38.6535 0.0000
# 6 0.0000 0.0000 0.0000 0.1040 0.0000 8.6204
#
#
#
# Elastic Compliance Matrix: (Units=1/GPa)
#
#
# Indices 1 2 3 4 5 6 
#
# 1 0.024131 0.000108 0.016569 0.000000 -0.016459 0.000000
# 2 0.000108 0.015953 0.005522 0.000000 -0.003927 0.000000
# 3 0.016569 0.005522 0.048182 0.000000 -0.021528 0.000000
# 4 0.000000 0.000000 0.000000 0.077475 0.000000 -0.000935
# 5 -0.016459 -0.003927 -0.021528 0.000000 0.040300 0.000000
# 6 0.000000 0.000000 0.000000 -0.000935 0.000000 0.116015
#
#
# Mechanical properties :
#
#
# Convention : Reuss Voigt Hill
#
# Bulk Modulus (GPa) = 7.53777 15.11090 11.32433
# Shear Modulus (GPa) = 15.53383 23.78894 19.66138
#
# Velocity S-wave (km/s) = 2.83936 3.51373 3.19439
# Velocity P-wave (km/s) = 3.82901 4.92993 4.41393
#
# Compressibility (1/GPa) = 0.13266525
#
# Stress axis : x y z
#
# Youngs Moduli (GPa) = 41.44069 62.68253 20.75485
#
# Poissons Ratio (x) = -0.00678 -0.34390
# Poissons Ratio (y) = -0.00448 -0.11461
# Poissons Ratio (z) = -0.68665 -0.34614
#
# Static dielectric constant tensor:
#      x y z
#    x 1.698570 0.000000 -0.001820 
#    y 0.000000 1.642870 0.000000 
#    z -0.001820 0.000000 1.668440 
# 
# From -- ./inp_files/57989.got.cif
#   From: 2010.05.17/outbox.cif.g08.bks.cpg/sg11_29_cif.got.tgz:57989.got - 2010.06.03 12:22:45.
