data_PCOD9164665
_publ_section_title
;
Structure prediction by ZEFSAII (Michael W. Deem and Ramdas Pophale) SiO2 
 PCOD9164665
Probable space group: P 21/M
;
_chemical_formula_sum "Si O2"
_cell_formula_units_Z 28
_cell_length_a 13.689070
_cell_length_b 13.486138
_cell_length_c 12.691537
_cell_angle_alpha 90.000000
_cell_angle_beta 147.479103
_cell_angle_gamma 90.000000
_cell_volume 1259.623692
_symmetry_space_group_name_H-M "P 21/M"
_symmetry_group_IT_number 11
_symmetry_cell_setting 'monoclinic'
loop_
_space_group_symop_operation_xyz
x,y,z
-x,1/2+y,-z
-x,-y,-z
x,1/2-y,z
loop_
_atom_site_type_symbol
_atom_site_label
_atom_site_fract_x
_atom_site_fract_y
_atom_site_fract_z
Si Si1 0.571496 0.358065 0.638946
Si Si2 0.964474 0.479311 0.788068
Si Si3 0.543067 0.431659 0.388698
Si Si4 0.011323 0.360131 0.030343
Si Si5 0.621566 0.084960 0.242204
Si Si6 0.621269 0.859683 0.171648
Si Si7 0.024469 0.079564 0.614885
O O1 0.515073 0.250000 0.627949
O O2 0.490527 0.375588 0.447854
O O3 0.522517 0.455225 0.659853
O O4 0.790902 0.357630 0.830096
O O5 0.763023 0.435621 0.592055
O O6 0.064674 0.421398 0.974360
O O7 0.057173 0.470129 0.759085
O O8 0.936813 0.587011 0.813853
O O9 0.503368 0.388644 0.237620
O O10 0.081562 0.250000 0.087486
O O11 0.824990 0.127141 0.438228
O O12 0.629429 0.962688 0.246047
O O13 0.538398 0.121590 0.057734
O O14 0.601535 0.750000 0.204090
O O15 0.804794 0.859032 0.268693
O O16 0.000000 0.000000 0.500000
#
# Coordination Sequence:
#
# PCOD9164665 Si02
#       7
#     4   4   4   4   4   4   4
#     4   9  18  31  49  76 105 135 177 221 265 320
#     4   9  18  33  54  75 104 142 177 221 273 327
#     4   9  18  33  53  73 102 145 175 215 272 322
#     4   9  18  32  50  75 105 138 177 222 270 324
#     4   9  20  38  57  79 114 149 181 229 281 325
#     4  10  21  36  57  85 111 143 189 230 272 335
#     4   9  19  37  58  80 109 147 184 228 281 328
#
# _framework density 22.228860999999998
#
# number of rings (size 3 to 8) (size 9 to 14) (size 15 to 20)
#    0.000    2.857    0.000    0.000    2.000    2.857 
#    0.000    8.571    0.000    0.000    0.000    0.000 
#    0.000    0.000    0.000    0.000    0.000    0.000 
#
# Total GULP energy -156098.092150 kJ/mol
# GULP energy per Si atom -5574.931862 kJ/mol
# Density = 2.217827 g / cm^3
# Si number density = 22.228861 Si / 1000 Ang^3
#
#
#
# Elastic Constant Matrix: (Units=GPa)
#
#
# Indices 1 2 3 4 5 6 
#
# 1 68.8759 2.8940 12.7593 0.0000 -18.9981 0.0000
# 2 2.8940 84.6157 -1.3538 0.0000 -3.7026 0.0000
# 3 12.7593 -1.3538 54.9864 0.0000 -2.3842 0.0000
# 4 0.0000 0.0000 0.0000 1.7139 0.0000 3.8918
# 5 -18.9981 -3.7026 -2.3842 0.0000 30.1129 0.0000
# 6 0.0000 0.0000 0.0000 3.8918 0.0000 8.3960
#
#
#
# Elastic Compliance Matrix: (Units=1/GPa)
#
#
# Indices 1 2 3 4 5 6 
#
# 1 0.018326 -0.000195 -0.003770 0.000000 0.011239 0.000000
# 2 -0.000195 0.011891 0.000397 0.000000 0.001370 0.000000
# 3 -0.003770 0.000397 0.019035 0.000000 -0.000822 0.000000
# 4 0.000000 0.000000 0.000000-11.100444 0.000000 5.145475
# 5 0.011239 0.001370 -0.000822 0.000000 0.040402 0.000000
# 6 0.000000 0.000000 0.000000 5.145475 0.000000 -2.266017
#
#
# Mechanical properties :
#
#
# Convention : Reuss Voigt Hill
#
# Bulk Modulus (GPa) = 23.74360 26.34191 25.04275
# Shear Modulus (GPa) = -0.37720 20.98978 10.30629
#
# Velocity S-wave (km/s) = -0.41238 3.07621 2.15558
# Velocity P-wave (km/s) = 3.23695 4.94909 4.18159
#
# Compressibility (1/GPa) = 0.04211662
#
# Stress axis : x y z
#
# Youngs Moduli (GPa) = 54.56868 84.09627 52.53419
#
# Poissons Ratio (x) = 0.01642 0.19805
# Poissons Ratio (y) = 0.01066 -0.02088
# Poissons Ratio (z) = 0.20571 -0.03343
#
# Static dielectric constant tensor:
#      x y z
#    x 1.843240 0.000000 0.028000 
#    y 0.000000 1.907760 0.000000 
#    z 0.028000 0.000000 1.854450 
# 
# From -- ./inp_files/39472.got.cif
#   From: 2010.05.17/outbox.cif.g08.bks.cpg/sg11_20_cif.got.tgz:39472.got - 2010.06.03 12:22:45.
