data_PCOD9164846
_publ_section_title
;
Structure prediction by ZEFSAII (Michael W. Deem and Ramdas Pophale) SiO2 
 PCOD9164846
Probable space group: P 21/M
;
_chemical_formula_sum "Si O2"
_cell_formula_units_Z 28
_cell_length_a 16.918545
_cell_length_b 7.707086
_cell_length_c 12.447986
_cell_angle_alpha 90.000000
_cell_angle_beta 49.235435
_cell_angle_gamma 90.000000
_cell_volume 1229.354253
_symmetry_space_group_name_H-M "P 21/M"
_symmetry_group_IT_number 11
_symmetry_cell_setting 'monoclinic'
loop_
_space_group_symop_operation_xyz
x,y,z
-x,1/2+y,-z
-x,-y,-z
x,1/2-y,z
loop_
_atom_site_type_symbol
_atom_site_label
_atom_site_fract_x
_atom_site_fract_y
_atom_site_fract_z
Si Si1 0.667066 0.948905 0.831935
Si Si2 0.014414 0.959360 0.207249
Si Si3 0.644118 0.961383 0.097302
Si Si4 0.415457 0.952059 0.319194
Si Si5 0.827703 0.455342 0.098942
Si Si6 0.217032 0.542187 0.624500
Si Si7 0.106569 0.956740 0.345749
O O1 0.631953 0.750000 0.864398
O O2 0.606948 0.038222 0.788290
O O3 0.790388 0.958906 0.697857
O O4 0.656133 0.020196 0.962570
O O5 0.016953 0.750000 0.204405
O O6 0.086824 0.017345 0.241407
O O7 0.067362 0.025727 0.050718
O O8 0.895277 0.011807 0.329658
O O9 0.646906 0.750000 0.093473
O O10 0.530632 0.023946 0.237826
O O11 0.735192 0.021939 0.095049
O O12 0.421505 0.750000 0.343179
O O13 0.316636 0.028188 0.471091
O O14 0.844182 0.250000 0.100148
O O15 0.795914 0.528675 0.242819
O O16 0.230361 0.750000 0.618118
O O17 0.122708 0.750000 0.333263
O O18 0.000000 0.000000 0.500000
#
# Coordination Sequence:
#
# PCOD9164846 Si02
#       7
#     4   4   4   4   4   4   4
#     4  11  22  37  58  86 115 150 196 239 284 345
#     4  10  21  37  57  82 114 149 189 234 283 341
#     4  10  22  39  60  86 116 151 195 241 287 345
#     4  10  22  40  59  84 118 154 191 239 295 343
#     4  10  21  39  60  85 115 150 192 237 288 345
#     4  10  22  38  59  85 115 151 191 236 288 345
#     4  11  22  36  56  84 118 155 190 234 288 343
#
# _framework density 22.776185000000002
#
# number of rings (size 3 to 8) (size 9 to 14) (size 15 to 20)
#    0.000    1.714    1.429    2.571    0.000    6.857 
#    0.000    0.000    0.000    0.000    0.000    0.000 
#    0.000    0.000    0.000    0.000    0.000    0.000 
#
# Total GULP energy -156514.933624 kJ/mol
# GULP energy per Si atom -5589.819058 kJ/mol
# Density = 2.272435 g / cm^3
# Si number density = 22.776185 Si / 1000 Ang^3
#
#
#
# Elastic Constant Matrix: (Units=GPa)
#
#
# Indices 1 2 3 4 5 6 
#
# 1 45.5317 -18.1659 10.1960 0.0000 -15.5731 0.0000
# 2 -18.1659 39.5881 2.4496 0.0000 1.6171 0.0000
# 3 10.1960 2.4496 59.5138 0.0000 -13.3817 0.0000
# 4 0.0000 0.0000 0.0000 12.5024 0.0000 2.8387
# 5 -15.5731 1.6171 -13.3817 0.0000 39.5134 0.0000
# 6 0.0000 0.0000 0.0000 2.8387 0.0000 12.9175
#
#
#
# Elastic Compliance Matrix: (Units=1/GPa)
#
#
# Indices 1 2 3 4 5 6 
#
# 1 0.032356 0.014631 -0.003694 0.000000 0.010902 0.000000
# 2 0.014631 0.032023 -0.003055 0.000000 0.003421 0.000000
# 3 -0.003694 -0.003055 0.018685 0.000000 0.004997 0.000000
# 4 0.000000 0.000000 0.000000 0.084185 0.000000 -0.018500
# 5 0.010902 0.003421 0.004997 0.000000 0.031157 0.000000
# 6 0.000000 0.000000 0.000000 -0.018500 0.000000 0.081480
#
#
# Mechanical properties :
#
#
# Convention : Reuss Voigt Hill
#
# Bulk Modulus (GPa) = 10.11878 14.84368 12.48123
# Shear Modulus (GPa) = 16.83126 22.99691 19.91408
#
# Velocity S-wave (km/s) = 2.72138 3.18101 2.96013
# Velocity P-wave (km/s) = 3.78508 4.47472 4.14427
#
# Compressibility (1/GPa) = 0.09882617
#
# Stress axis : x y z
#
# Youngs Moduli (GPa) = 30.90608 31.22754 53.51871
#
# Poissons Ratio (x) = -0.45688 0.19770
# Poissons Ratio (y) = -0.45217 0.16352
# Poissons Ratio (z) = 0.11417 0.09541
#
# Static dielectric constant tensor:
#      x y z
#    x 1.800770 0.000000 0.001810 
#    y 0.000000 1.846650 0.000000 
#    z 0.001810 0.000000 1.902190 
# 
# From -- ./inp_files/37939.got.cif
#   From: 2010.05.17/outbox.cif.g08.bks.cpg/sg11_19_cif.got.tgz:37939.got - 2010.06.03 12:22:45.
