data_PCOD9164648
_publ_section_title
;
Structure prediction by ZEFSAII (Michael W. Deem and Ramdas Pophale) SiO2 
 PCOD9164648
Probable space group: P 21/M
;
_chemical_formula_sum "Si O2"
_cell_formula_units_Z 24
_cell_length_a 23.438785
_cell_length_b 9.646878
_cell_length_c 5.331303
_cell_angle_alpha 90.000000
_cell_angle_beta 97.390389
_cell_angle_gamma 90.000000
_cell_volume 1195.452672
_symmetry_space_group_name_H-M "P 21/M"
_symmetry_group_IT_number 11
_symmetry_cell_setting 'monoclinic'
loop_
_space_group_symop_operation_xyz
x,y,z
-x,1/2+y,-z
-x,-y,-z
x,1/2-y,z
loop_
_atom_site_type_symbol
_atom_site_label
_atom_site_fract_x
_atom_site_fract_y
_atom_site_fract_z
Si Si1 0.131937 0.584658 0.069951
Si Si2 0.410358 0.904687 0.482272
Si Si3 0.470105 0.403378 0.183560
Si Si4 0.940943 0.084219 0.471049
Si Si5 0.676726 0.913611 0.298033
Si Si6 0.248766 0.087177 0.156561
O O1 0.142618 0.750000 0.076460
O O2 0.094705 0.551805 0.296775
O O3 0.191750 0.504006 0.110020
O O4 0.096450 0.551401 0.797579
O O5 0.388055 0.750000 0.409473
O O6 0.477333 0.886038 0.591108
O O7 0.415347 0.019107 0.267525
O O8 0.375164 0.979658 0.681945
O O9 0.455412 0.250000 0.082064
O O10 0.500000 0.500000 0.000000
O O11 0.952247 0.250000 0.476027
O O12 0.000000 0.000000 0.500000
O O13 0.659649 0.750000 0.294020
O O14 0.718058 0.936185 0.562916
O O15 0.710655 0.940901 0.060443
O O16 0.233524 0.250000 0.136748
#
# Coordination Sequence:
#
# PCOD9164648 Si02
#       6
#     4   4   4   4   4   4
#     4  10  21  37  57  82 115 150 189 235 284 334
#     4  10  22  38  56  83 112 146 191 238 290 353
#     4  10  21  37  58  83 113 147 187 234 291 355
#     4  10  21  36  56  85 117 150 189 232 280 336
#     4  10  22  39  58  84 115 149 191 241 290 342
#     4  10  22  39  59  84 113 150 196 237 285 343
#
# _framework density 20.076077000000002
#
# number of rings (size 3 to 8) (size 9 to 14) (size 15 to 20)
#    0.000    2.000    0.000    2.500    2.333    4.667 
#    0.000    0.000    0.000    0.000    0.000    0.000 
#    0.000    0.000    0.000    0.000    0.000    0.000 
#
# Total GULP energy -134000.022196 kJ/mol
# GULP energy per Si atom -5583.334258 kJ/mol
# Density = 2.003038 g / cm^3
# Si number density = 20.076077 Si / 1000 Ang^3
#
#
#
# Elastic Constant Matrix: (Units=GPa)
#
#
# Indices 1 2 3 4 5 6 
#
# 1 125.3404 61.4414 55.7083 0.0000 -0.8457 0.0000
# 2 61.4414 103.7624 40.1738 0.0000 -12.9249 0.0000
# 3 55.7083 40.1738 129.8520 0.0000 -6.8847 0.0000
# 4 0.0000 0.0000 0.0000 12.3563 0.0000 -3.6293
# 5 -0.8457 -12.9249 -6.8847 0.0000 31.6510 0.0000
# 6 0.0000 0.0000 0.0000 -3.6293 0.0000 38.6900
#
#
#
# Elastic Compliance Matrix: (Units=1/GPa)
#
#
# Indices 1 2 3 4 5 6 
#
# 1 0.012779 -0.006554 -0.003620 0.000000 -0.003122 0.000000
# 2 -0.006554 0.014776 -0.001466 0.000000 0.005540 0.000000
# 3 -0.003620 -0.001466 0.009784 0.000000 0.001433 0.000000
# 4 0.000000 0.000000 0.000000 0.083224 0.000000 0.007807
# 5 -0.003122 0.005540 0.001433 0.000000 0.034085 0.000000
# 6 0.000000 0.000000 0.000000 0.007807 0.000000 0.026579
#
#
# Mechanical properties :
#
#
# Convention : Reuss Voigt Hill
#
# Bulk Modulus (GPa) = 71.13295 74.84464 72.98879
# Shear Modulus (GPa) = 23.90140 29.98154 26.94147
#
# Velocity S-wave (km/s) = 3.45417 3.86864 3.66726
# Velocity P-wave (km/s) = 7.17056 7.57077 7.37338
#
# Compressibility (1/GPa) = 0.01405818
#
# Stress axis : x y z
#
# Youngs Moduli (GPa) = 78.25274 67.67730 102.21129
#
# Poissons Ratio (x) = 0.44358 0.37002
# Poissons Ratio (y) = 0.51289 0.14982
# Poissons Ratio (z) = 0.28329 0.09920
#
# Static dielectric constant tensor:
#      x y z
#    x 1.683680 0.000000 0.032140 
#    y 0.000000 1.749310 0.000000 
#    z 0.032140 0.000000 1.760990 
# 
# From -- ./inp_files/9249.got.cif
#   From: 2010.05.17/outbox.cif.g08.bks.cpg/sg11_5_cif.got.tgz:9249.got - 2010.06.03 12:22:45.
