data_PCOD9164871
_publ_section_title
;
Structure prediction by ZEFSAII (Michael W. Deem and Ramdas Pophale) SiO2 
 PCOD9164871
Probable space group: P 21/M
;
_chemical_formula_sum "Si O2"
_cell_formula_units_Z 28
_cell_length_a 15.368944
_cell_length_b 8.766936
_cell_length_c 11.726227
_cell_angle_alpha 90.000000
_cell_angle_beta 114.523789
_cell_angle_gamma 90.000000
_cell_volume 1437.443719
_symmetry_space_group_name_H-M "P 21/M"
_symmetry_group_IT_number 11
_symmetry_cell_setting 'monoclinic'
loop_
_space_group_symop_operation_xyz
x,y,z
-x,1/2+y,-z
-x,-y,-z
x,1/2-y,z
loop_
_atom_site_type_symbol
_atom_site_label
_atom_site_fract_x
_atom_site_fract_y
_atom_site_fract_z
Si Si1 0.971332 0.430741 0.363191
Si Si2 0.645112 0.066293 0.527787
Si Si3 0.105535 0.930320 0.043892
Si Si4 0.198439 0.432751 0.869300
Si Si5 0.587307 0.565803 0.976117
Si Si6 0.545777 0.566076 0.696247
Si Si7 0.146012 0.569191 0.325250
O O1 0.965184 0.250000 0.367523
O O2 0.871803 0.496516 0.262311
O O3 0.000000 0.500000 0.500000
O O4 0.054848 0.479508 0.321146
O O5 0.646581 0.250000 0.536169
O O6 0.564411 0.023056 0.391854
O O7 0.753993 0.018158 0.564669
O O8 0.608683 0.002297 0.628713
O O9 0.098766 0.750000 0.015077
O O10 0.154919 0.948860 0.193838
O O11 0.160407 0.012830 0.971902
O O12 0.000000 0.000000 0.000000
O O13 0.192285 0.250000 0.860528
O O14 0.309063 0.479720 0.919414
O O15 0.582545 0.750000 0.975233
O O16 0.577804 0.516661 0.838843
O O17 0.500000 0.500000 0.000000
O O18 0.552578 0.750000 0.694204
O O19 0.130471 0.750000 0.339280
#
# Coordination Sequence:
#
# PCOD9164871 Si02
#       7
#     4   4   4   4   4   4   4
#     4  12  26  43  63  85 115 155 198 242 298 361
#     4   9  18  33  57  86 116 151 189 234 289 348
#     4  11  21  34  58  89 122 159 200 248 303 357
#     4  11  23  41  62  88 123 158 201 255 307 361
#     4  10  23  40  60  86 118 158 202 252 300 352
#     4   9  18  35  56  83 117 151 190 238 293 345
#     4  10  21  37  57  86 122 156 195 242 292 353
#
# _framework density 19.479023000000002
#
# number of rings (size 3 to 8) (size 9 to 14) (size 15 to 20)
#    0.000    1.714    1.429    3.000    0.000    4.000 
#    0.000    1.429    0.000    0.000    0.000    0.000 
#    0.000    0.000    0.000    0.000    0.000    0.000 
#
# Total GULP energy -156461.401905 kJ/mol
# GULP energy per Si atom -5587.907211 kJ/mol
# Density = 1.943469 g / cm^3
# Si number density = 19.479023 Si / 1000 Ang^3
#
#
#
# Elastic Constant Matrix: (Units=GPa)
#
#
# Indices 1 2 3 4 5 6 
#
# 1 112.8770 37.8124 64.2930 0.0000 33.7342 0.0000
# 2 37.8124 62.7702 50.0986 0.0000 13.4999 0.0000
# 3 64.2930 50.0986 130.8171 0.0000 23.0322 0.0000
# 4 0.0000 0.0000 0.0000 27.9010 0.0000 -5.5553
# 5 33.7342 13.4999 23.0322 0.0000 36.4068 0.0000
# 6 0.0000 0.0000 0.0000 -5.5553 0.0000 31.2062
#
#
#
# Elastic Compliance Matrix: (Units=1/GPa)
#
#
# Indices 1 2 3 4 5 6 
#
# 1 0.015762 -0.003655 -0.004517 0.000000 -0.010392 0.000000
# 2 -0.003655 0.024153 -0.007285 0.000000 -0.000961 0.000000
# 3 -0.004517 -0.007285 0.012876 0.000000 -0.001259 0.000000
# 4 0.000000 0.000000 0.000000 0.037158 0.000000 0.006615
# 5 -0.010392 -0.000961 -0.001259 0.000000 0.038249 0.000000
# 6 0.000000 0.000000 0.000000 0.006615 0.000000 0.033222
#
#
# Mechanical properties :
#
#
# Convention : Reuss Voigt Hill
#
# Bulk Modulus (GPa) = 45.70732 67.87468 56.79100
# Shear Modulus (GPa) = 25.04667 29.38684 27.21675
#
# Velocity S-wave (km/s) = 3.58973 3.88834 3.74201
# Velocity P-wave (km/s) = 6.37945 7.42156 6.92015
#
# Compressibility (1/GPa) = 0.02187833
#
# Stress axis : x y z
#
# Youngs Moduli (GPa) = 63.44261 41.40205 77.66502
#
# Poissons Ratio (x) = 0.15131 0.35085
# Poissons Ratio (y) = 0.23186 0.56575
# Poissons Ratio (z) = 0.28660 0.30159
#
# Static dielectric constant tensor:
#      x y z
#    x 1.663670 0.000000 0.024120 
#    y 0.000000 1.657140 0.000000 
#    z 0.024120 0.000000 1.694060 
# 
# From -- ./inp_files/38440.got.cif
#   From: 2010.05.17/outbox.cif.g08.bks.cpg/sg11_20_cif.got.tgz:38440.got - 2010.06.03 12:22:45.
