data_PCOD9164791
_publ_section_title
;
Structure prediction by ZEFSAII (Michael W. Deem and Ramdas Pophale) SiO2 
 PCOD9164791
Probable space group: P 21/M
;
_chemical_formula_sum "Si O2"
_cell_formula_units_Z 32
_cell_length_a 15.635513
_cell_length_b 8.976025
_cell_length_c 23.138220
_cell_angle_alpha 90.000000
_cell_angle_beta 28.531270
_cell_angle_gamma 90.000000
_cell_volume 1551.048197
_symmetry_space_group_name_H-M "P 21/M"
_symmetry_group_IT_number 11
_symmetry_cell_setting 'monoclinic'
loop_
_space_group_symop_operation_xyz
x,y,z
-x,1/2+y,-z
-x,-y,-z
x,1/2-y,z
loop_
_atom_site_type_symbol
_atom_site_label
_atom_site_fract_x
_atom_site_fract_y
_atom_site_fract_z
Si Si1 0.734745 0.927955 0.525491
Si Si2 0.046893 0.426102 0.411396
Si Si3 0.384236 0.926535 0.810128
Si Si4 0.531727 0.422064 0.542428
Si Si5 0.155579 0.071822 0.035215
Si Si6 0.257947 0.422616 0.099619
Si Si7 0.679314 0.420283 0.821588
Si Si8 0.175905 0.421861 0.831865
O O1 0.758346 0.750000 0.507872
O O2 0.575751 0.957639 0.666759
O O3 0.669314 0.992753 0.502993
O O4 0.909566 0.008058 0.445828
O O5 0.030943 0.250000 0.424778
O O6 0.243221 0.474068 0.273643
O O7 0.000000 0.500000 0.500000
O O8 0.368687 0.750000 0.827922
O O9 0.335586 0.012061 0.897588
O O10 0.239379 0.984237 0.849337
O O11 0.500000 0.500000 0.500000
O O12 0.587568 0.250000 0.501481
O O13 0.343790 0.423313 0.688455
O O14 0.148865 0.250000 0.033642
O O15 0.150163 0.035333 0.106367
O O16 0.991791 0.994643 0.100033
O O17 0.219693 0.250000 0.138138
O O18 0.237556 0.527041 0.166745
O O19 0.466426 0.429264 0.956700
O O20 0.727708 0.250000 0.779833
O O21 0.140134 0.250000 0.869545
#
# Coordination Sequence:
#
# PCOD9164791 Si02
#       8
#     4   4   4   4   4   4   4   4
#     4  10  22  41  62  89 120 156 202 251 306 368
#     4  12  26  43  65  93 126 163 206 256 310 370
#     4  10  21  37  58  83 116 153 192 239 293 350
#     4  10  21  38  61  87 118 160 202 248 300 359
#     4  11  22  35  56  85 116 152 196 241 290 348
#     4   9  21  40  61  88 119 159 201 245 303 361
#     4  10  21  41  65  89 120 157 199 251 305 359
#     4  10  21  37  55  80 114 152 194 237 290 346
#
# _framework density 20.631209999999999
#
# number of rings (size 3 to 8) (size 9 to 14) (size 15 to 20)
#    0.000    1.750    0.000    3.750    1.750    5.500 
#    0.000    2.500    0.000    0.000    0.000    0.000 
#    0.000    0.000    0.000    0.000    0.000    0.000 
#
# Total GULP energy -178959.870071 kJ/mol
# GULP energy per Si atom -5592.495940 kJ/mol
# Density = 2.058425 g / cm^3
# Si number density = 20.631210 Si / 1000 Ang^3
#
#
#
# Elastic Constant Matrix: (Units=GPa)
#
#
# Indices 1 2 3 4 5 6 
#
# 1 53.1545 20.2230 13.1405 0.0000 6.6495 0.0000
# 2 20.2230 101.6572 24.2267 0.0000 2.8132 0.0000
# 3 13.1405 24.2267 29.1936 0.0000 0.7261 0.0000
# 4 0.0000 0.0000 0.0000 33.0901 0.0000 3.9641
# 5 6.6495 2.8132 0.7261 0.0000 25.8643 0.0000
# 6 0.0000 0.0000 0.0000 3.9641 0.0000 34.7195
#
#
#
# Elastic Compliance Matrix: (Units=1/GPa)
#
#
# Indices 1 2 3 4 5 6 
#
# 1 0.022348 -0.002411 -0.007928 0.000000 -0.005261 0.000000
# 2 -0.002411 0.012551 -0.009318 0.000000 -0.000484 0.000000
# 3 -0.007928 -0.009318 0.045511 0.000000 0.001774 0.000000
# 4 0.000000 0.000000 0.000000 0.030640 0.000000 -0.003498
# 5 -0.005261 -0.000484 0.001774 0.000000 0.040019 0.000000
# 6 0.000000 0.000000 0.000000 -0.003498 0.000000 0.029202
#
#
# Mechanical properties :
#
#
# Convention : Reuss Voigt Hill
#
# Bulk Modulus (GPa) = 24.33294 33.24286 28.78790
# Shear Modulus (GPa) = 21.43328 27.16247 24.29788
#
# Velocity S-wave (km/s) = 3.22666 3.63240 3.43552
# Velocity P-wave (km/s) = 5.06967 5.80864 5.45169
#
# Compressibility (1/GPa) = 0.04109656
#
# Stress axis : x y z
#
# Youngs Moduli (GPa) = 44.74622 79.67722 21.97268
#
# Poissons Ratio (x) = 0.19210 0.17419
# Poissons Ratio (y) = 0.10788 0.20474
# Poissons Ratio (z) = 0.35473 0.74244
#
# Static dielectric constant tensor:
#      x y z
#    x 1.712260 0.000000 -0.002860 
#    y 0.000000 1.689170 0.000000 
#    z -0.002860 0.000000 1.773730 
# 
# From -- ./inp_files/69007.got.cif
#   From: 2010.05.17/outbox.cif.g08.bks.cpg/sg11_35_cif.got.tgz:69007.got - 2010.06.03 12:22:45.
