data_PCOD9164063
_publ_section_title
;
Structure prediction by ZEFSAII (Michael W. Deem and Ramdas Pophale) SiO2 
 PCOD9164063
Probable space group: P 21/M
;
_chemical_formula_sum "Si O2"
_cell_formula_units_Z 26
_cell_length_a 9.470561
_cell_length_b 19.121100
_cell_length_c 8.014970
_cell_angle_alpha 90.000000
_cell_angle_beta 46.160021
_cell_angle_gamma 90.000000
_cell_volume 1046.869683
_symmetry_space_group_name_H-M "P 21/M"
_symmetry_group_IT_number 11
_symmetry_cell_setting 'monoclinic'
loop_
_space_group_symop_operation_xyz
x,y,z
-x,1/2+y,-z
-x,-y,-z
x,1/2-y,z
loop_
_atom_site_type_symbol
_atom_site_label
_atom_site_fract_x
_atom_site_fract_y
_atom_site_fract_z
Si Si1 0.501470 0.898674 0.737963
Si Si2 0.603524 0.250000 0.772770
Si Si3 0.556933 0.899639 0.074519
Si Si4 0.771207 0.487498 0.504126
Si Si5 0.436250 0.250000 0.267865
Si Si6 0.945618 0.391461 0.799782
Si Si7 0.004596 0.750000 0.447201
Si Si8 0.052730 0.426376 0.046414
O O1 0.611483 0.959748 0.549921
O O2 0.536319 0.820095 0.648500
O O3 0.600118 0.897837 0.842163
O O4 0.274295 0.908821 0.961905
O O5 0.500602 0.322567 0.813915
O O6 0.833354 0.250000 0.540019
O O7 0.591257 0.250000 0.988628
O O8 0.367856 0.949672 0.249152
O O9 0.745645 0.924964 0.020029
O O10 0.950363 0.543009 0.379378
O O11 0.870848 0.423954 0.322162
O O12 0.228424 0.250000 0.341848
O O13 0.955996 0.322820 0.680575
O O14 0.051679 0.375567 0.889574
O O15 0.000000 0.500000 0.000000
#
# Coordination Sequence:
#
# PCOD9164063 Si02
#       8
#     4   2   4   4   2   4   2   4
#     4  11  22  40  65 100 131 172 223 276 327 392
#     4  10  24  45  65  92 137 164 217 289 329 390
#     4  11  24  43  65  95 134 174 222 274 338 395
#     4  11  23  40  66  96 133 174 214 267 331 401
#     4  10  20  38  65  98 129 172 213 280 333 382
#     4  11  23  40  67  95 133 171 223 276 327 389
#     4  12  20  43  66  98 122 170 226 281 328 394
#     4  10  25  43  61  93 133 177 210 271 325 392
#
# _framework density 24.835947999999998
#
# number of rings (size 3 to 8) (size 9 to 14) (size 15 to 20)
#    0.000    1.231    4.615    2.308    0.000   11.077 
#    0.000    0.769    0.000    0.000    0.000    0.000 
#    0.000    0.000    0.000    0.000    0.000    0.000 
#
# Total GULP energy -145156.551795 kJ/mol
# GULP energy per Si atom -5582.944300 kJ/mol
# Density = 2.477942 g / cm^3
# Si number density = 24.835948 Si / 1000 Ang^3
#
#
#
# Elastic Constant Matrix: (Units=GPa)
#
#
# Indices 1 2 3 4 5 6 
#
# 1 117.5736 25.8923 33.4687 0.0000 -20.8065 0.0000
# 2 25.8923 153.8730 28.4036 0.0000 -17.2867 0.0000
# 3 33.4687 28.4036 101.4726 0.0000 -42.0162 0.0000
# 4 0.0000 0.0000 0.0000 3.2666 0.0000 -9.0603
# 5 -20.8065 -17.2867 -42.0162 0.0000 37.8285 0.0000
# 6 0.0000 0.0000 0.0000 -9.0603 0.0000 33.1648
#
#
#
# Elastic Compliance Matrix: (Units=1/GPa)
#
#
# Indices 1 2 3 4 5 6 
#
# 1 0.009738 -0.000987 -0.001675 0.000000 0.003045 0.000000
# 2 -0.000987 0.007024 -0.000993 0.000000 0.001564 0.000000
# 3 -0.001675 -0.000993 0.018730 0.000000 0.019428 0.000000
# 4 0.000000 0.000000 0.000000 1.263570 0.000000 0.345195
# 5 0.003045 0.001564 0.019428 0.000000 0.050403 0.000000
# 6 0.000000 0.000000 0.000000 0.345195 0.000000 0.124457
#
#
# Mechanical properties :
#
#
# Convention : Reuss Voigt Hill
#
# Bulk Modulus (GPa) = 35.48392 60.93869 48.21130
# Shear Modulus (GPa) = 3.35429 33.86231 18.60830
#
# Velocity S-wave (km/s) = 1.16341 3.69648 2.74021
# Velocity P-wave (km/s) = 4.01535 6.54281 5.42823
#
# Compressibility (1/GPa) = 0.02818178
#
# Stress axis : x y z
#
# Youngs Moduli (GPa) = 102.68673 142.36913 53.39095
#
# Poissons Ratio (x) = 0.14058 0.08942
# Poissons Ratio (y) = 0.10140 0.05301
# Poissons Ratio (z) = 0.17199 0.14135
#
# Static dielectric constant tensor:
#      x y z
#    x 2.044600 0.000000 0.052100 
#    y 0.000000 2.026660 0.000000 
#    z 0.052100 0.000000 2.033280 
# 
# From -- ./inp_files/14530.got.cif
#   From: 2010.05.17/outbox.cif.g08.bks.cpg/sg11_8_cif.got.tgz:14530.got - 2010.06.03 12:22:45.
