data_PCOD9164808
_publ_section_title
;
Structure prediction by ZEFSAII (Michael W. Deem and Ramdas Pophale) SiO2 
 PCOD9164808
Probable space group: P 21/M
;
_chemical_formula_sum "Si O2"
_cell_formula_units_Z 32
_cell_length_a 28.915672
_cell_length_b 8.935308
_cell_length_c 22.156355
_cell_angle_alpha 90.000000
_cell_angle_beta 18.636354
_cell_angle_gamma 90.000000
_cell_volume 1829.339709
_symmetry_space_group_name_H-M "P 21/M"
_symmetry_group_IT_number 11
_symmetry_cell_setting 'monoclinic'
loop_
_space_group_symop_operation_xyz
x,y,z
-x,1/2+y,-z
-x,-y,-z
x,1/2-y,z
loop_
_atom_site_type_symbol
_atom_site_label
_atom_site_fract_x
_atom_site_fract_y
_atom_site_fract_z
Si Si1 0.770393 0.429473 0.794633
Si Si2 0.637775 0.082713 0.249822
Si Si3 0.002571 0.070597 0.403650
Si Si4 0.838196 0.069661 0.484676
Si Si5 0.528349 0.931128 0.898698
Si Si6 0.919793 0.924681 0.044034
Si Si7 0.634249 0.415007 0.400215
Si Si8 0.964549 0.429382 0.859098
O O1 0.773469 0.250000 0.796879
O O2 0.876041 0.470735 0.607961
O O3 0.848279 0.499652 0.756746
O O4 0.607327 0.472019 0.977159
O O5 0.609424 0.250000 0.260853
O O6 0.623930 0.093869 0.340047
O O7 0.516790 0.962338 0.383484
O O8 0.803012 0.039883 0.032804
O O9 0.017641 0.250000 0.386370
O O10 0.941755 0.027666 0.413346
O O11 0.824533 0.250000 0.501075
O O12 0.681034 0.995950 0.687517
O O13 0.915763 0.008763 0.329162
O O14 0.532890 0.750000 0.897132
O O15 0.500000 0.000000 0.000000
O O16 0.948806 0.750000 0.002954
O O17 0.751213 0.956933 0.265220
O O18 0.961592 0.007322 0.930429
O O19 0.000000 0.000000 0.000000
O O20 0.682603 0.250000 0.360846
O O21 0.982459 0.250000 0.837931
#
# Coordination Sequence:
#
# PCOD9164808 Si02
#       8
#     4   4   4   4   4   4   4   4
#     4   9  18  33  52  78 109 140 181 232 281 330
#     4   8  15  28  47  72 102 130 164 208 256 309
#     4   9  18  33  52  78 109 141 180 228 279 336
#     4  11  22  37  56  82 114 148 189 236 288 346
#     4  11  21  35  55  82 113 147 191 241 287 340
#     4  11  21  35  56  81 110 145 183 226 274 327
#     4   9  16  27  47  76 104 130 165 210 256 306
#     4  10  21  37  56  81 110 144 184 226 276 334
#
# _framework density 17.492652
#
# number of rings (size 3 to 8) (size 9 to 14) (size 15 to 20)
#    0.000    2.250    1.250    3.375    0.000    5.500 
#    0.000    0.000    2.750    0.000    0.000    0.000 
#    0.000    0.000    0.000    0.000    0.000    0.000 
#
# Total GULP energy -178344.548635 kJ/mol
# GULP energy per Si atom -5573.267145 kJ/mol
# Density = 1.745284 g / cm^3
# Si number density = 17.492652 Si / 1000 Ang^3
#
#
#
# Elastic Constant Matrix: (Units=GPa)
#
#
# Indices 1 2 3 4 5 6 
#
# 1 79.6350 35.3047 49.6161 0.0000 -18.1040 0.0000
# 2 35.3047 66.9160 46.4421 0.0000 -7.5563 0.0000
# 3 49.6161 46.4421 125.8362 0.0000 -6.3891 0.0000
# 4 0.0000 0.0000 0.0000 28.6531 0.0000 -4.6684
# 5 -18.1040 -7.5563 -6.3891 0.0000 22.0225 0.0000
# 6 0.0000 0.0000 0.0000 -4.6684 0.0000 25.4408
#
#
#
# Elastic Compliance Matrix: (Units=1/GPa)
#
#
# Indices 1 2 3 4 5 6 
#
# 1 0.022097 -0.006037 -0.005752 0.000000 0.014425 0.000000
# 2 -0.006037 0.022255 -0.005783 0.000000 0.000996 0.000000
# 3 -0.005752 -0.005783 0.012188 0.000000 -0.003177 0.000000
# 4 0.000000 0.000000 0.000000 0.035976 0.000000 0.006602
# 5 0.014425 0.000996 -0.003177 0.000000 0.056686 0.000000
# 6 0.000000 0.000000 0.000000 0.006602 0.000000 0.040518
#
#
# Mechanical properties :
#
#
# Convention : Reuss Voigt Hill
#
# Bulk Modulus (GPa) = 46.73814 59.45700 53.09757
# Shear Modulus (GPa) = 21.55210 24.62490 23.08850
#
# Velocity S-wave (km/s) = 3.51389 3.75604 3.63698
# Velocity P-wave (km/s) = 6.57571 7.27145 6.93231
#
# Compressibility (1/GPa) = 0.02139580
#
# Stress axis : x y z
#
# Youngs Moduli (GPa) = 45.25527 44.93339 82.04969
#
# Poissons Ratio (x) = 0.27127 0.47195
# Poissons Ratio (y) = 0.27322 0.47447
# Poissons Ratio (z) = 0.26031 0.25984
#
# Static dielectric constant tensor:
#      x y z
#    x 57.080070 0.000000 -16.777330 
#    y 0.000000 1.470570 0.000000 
#    z -16.777330 0.000000 6.669700 
# 
# From -- ./inp_files/67017.got.cif
#   From: 2010.05.17/outbox.cif.g08.bks.cpg/sg11_34_cif.got.tgz:67017.got - 2010.06.03 12:22:45.
