data_PCOD9164341
_publ_section_title
;
Structure prediction by ZEFSAII (Michael W. Deem and Ramdas Pophale) SiO2 
 PCOD9164341
Probable space group: P 21/M
;
_chemical_formula_sum "Si O2"
_cell_formula_units_Z 28
_cell_length_a 8.305687
_cell_length_b 20.304657
_cell_length_c 12.054796
_cell_angle_alpha 90.000000
_cell_angle_beta 144.666501
_cell_angle_gamma 90.000000
_cell_volume 1175.737392
_symmetry_space_group_name_H-M "P 21/M"
_symmetry_group_IT_number 11
_symmetry_cell_setting 'monoclinic'
loop_
_space_group_symop_operation_xyz
x,y,z
-x,1/2+y,-z
-x,-y,-z
x,1/2-y,z
loop_
_atom_site_type_symbol
_atom_site_label
_atom_site_fract_x
_atom_site_fract_y
_atom_site_fract_z
Si Si1 0.403002 0.510855 0.570489
Si Si2 0.369655 0.375040 0.692653
Si Si3 0.248302 0.675497 0.253131
Si Si4 0.818440 0.123903 0.285273
Si Si5 0.288548 0.124486 0.121513
Si Si6 0.173878 0.324873 0.294970
Si Si7 0.764209 0.523435 0.219617
O O1 0.500000 0.500000 0.500000
O O2 0.403389 0.441360 0.635823
O O3 0.604445 0.558860 0.754591
O O4 0.087522 0.536744 0.376662
O O5 0.613980 0.328430 0.792257
O O6 0.349292 0.407425 0.799514
O O7 0.072270 0.344542 0.496251
O O8 0.151415 0.750000 0.222263
O O9 0.515400 0.661313 0.481188
O O10 0.995568 0.624065 0.108958
O O11 0.528525 0.148594 0.172087
O O12 0.808598 0.045886 0.310559
O O13 0.939950 0.131656 0.227929
O O14 0.211205 0.168402 0.184660
O O15 0.104995 0.250000 0.285739
O O16 0.500000 0.500000 0.000000
#
# Coordination Sequence:
#
# PCOD9164341 Si02
#       7
#     4   4   4   4   4   4   4
#     4  11  22  38  61  94 132 169 211 263 333 400
#     4  10  20  42  61  87 129 165 206 263 326 387
#     4  10  24  42  63  93 125 167 225 272 318 390
#     4  10  21  42  64  91 126 168 213 269 324 396
#     4  12  22  41  68  95 131 169 218 271 332 390
#     4  10  24  45  65  89 127 174 220 272 330 388
#     4  11  22  37  60  95 133 164 209 266 329 393
#
# _framework density 23.814841000000001
#
# number of rings (size 3 to 8) (size 9 to 14) (size 15 to 20)
#    0.000    1.429    2.857    3.857    4.000    4.000 
#    0.000    0.000    0.000    3.429    0.000    0.000 
#    0.000    0.000    0.000    0.000    0.000    0.000 
#
# Total GULP energy -155974.121477 kJ/mol
# GULP energy per Si atom -5570.504338 kJ/mol
# Density = 2.376064 g / cm^3
# Si number density = 23.814841 Si / 1000 Ang^3
#
#
#
# Elastic Constant Matrix: (Units=GPa)
#
#
# Indices 1 2 3 4 5 6 
#
# 1 99.8288 3.9811 51.0167 0.0000 19.8810 0.0000
# 2 3.9811 59.6897 22.7386 0.0000 -0.8616 0.0000
# 3 51.0167 22.7386 132.5920 0.0000 33.7101 0.0000
# 4 0.0000 0.0000 0.0000 23.7555 0.0000 -3.3718
# 5 19.8810 -0.8616 33.7101 0.0000 31.2697 0.0000
# 6 0.0000 0.0000 0.0000 -3.3718 0.0000 19.9983
#
#
#
# Elastic Compliance Matrix: (Units=1/GPa)
#
#
# Indices 1 2 3 4 5 6 
#
# 1 0.012828 0.000654 -0.004104 0.000000 -0.003714 0.000000
# 2 0.000654 0.018605 -0.004776 0.000000 0.005245 0.000000
# 3 -0.004104 -0.004776 0.012825 0.000000 -0.011349 0.000000
# 4 0.000000 0.000000 0.000000 0.043128 0.000000 0.007272
# 5 -0.003714 0.005245 -0.011349 0.000000 0.046720 0.000000
# 6 0.000000 0.000000 0.000000 0.007272 0.000000 0.051230
#
#
# Mechanical properties :
#
#
# Convention : Reuss Voigt Hill
#
# Bulk Modulus (GPa) = 35.96224 49.73149 42.84687
# Shear Modulus (GPa) = 23.69047 29.29631 26.49339
#
# Velocity S-wave (km/s) = 3.15743 3.51118 3.33900
# Velocity P-wave (km/s) = 5.33161 6.11276 5.73550
#
# Compressibility (1/GPa) = 0.02780694
#
# Stress axis : x y z
#
# Youngs Moduli (GPa) = 77.95553 53.74973 77.97166
#
# Poissons Ratio (x) = -0.03516 0.31997
# Poissons Ratio (y) = -0.05099 0.37238
# Poissons Ratio (z) = 0.31990 0.25670
#
# Static dielectric constant tensor:
#      x y z
#    x 2.415980 0.000000 0.340620 
#    y 0.000000 1.810070 0.000000 
#    z 0.340620 0.000000 2.386780 
# 
# From -- ./inp_files/48334.got.cif
#   From: 2010.05.17/outbox.cif.g08.bks.cpg/sg11_25_cif.got.tgz:48334.got - 2010.06.03 12:22:45.
