data_PCOD9164209
_publ_section_title
;
Structure prediction by ZEFSAII (Michael W. Deem and Ramdas Pophale) SiO2 
 PCOD9164209
Probable space group: P 21/M
;
_chemical_formula_sum "Si O2"
_cell_formula_units_Z 20
_cell_length_a 11.235220
_cell_length_b 15.100813
_cell_length_c 17.944014
_cell_angle_alpha 90.000000
_cell_angle_beta 15.714309
_cell_angle_gamma 90.000000
_cell_volume 824.547526
_symmetry_space_group_name_H-M "P 21/M"
_symmetry_group_IT_number 11
_symmetry_cell_setting 'monoclinic'
loop_
_space_group_symop_operation_xyz
x,y,z
-x,1/2+y,-z
-x,-y,-z
x,1/2-y,z
loop_
_atom_site_type_symbol
_atom_site_label
_atom_site_fract_x
_atom_site_fract_y
_atom_site_fract_z
Si Si1 0.646257 0.078322 0.199883
Si Si2 0.888989 0.651424 0.953760
Si Si3 0.180210 0.850094 0.064226
Si Si4 0.845122 0.083672 0.493038
Si Si5 0.067108 0.478426 0.210682
O O1 0.791405 0.133298 0.041293
O O2 0.206224 0.020801 0.452143
O O3 0.683015 0.134841 0.252371
O O4 0.000000 0.000000 0.000000
O O5 0.880949 0.750000 0.928535
O O6 0.492911 0.637049 0.251819
O O7 0.843357 0.582528 0.914415
O O8 0.046245 0.750000 0.161984
O O9 0.687889 0.869451 0.780444
O O10 0.921328 0.927950 0.263114
O O11 0.763358 0.072526 0.453400
O O12 0.500000 0.500000 0.000000
#
# Coordination Sequence:
#
# PCOD9164209 Si02
#       5
#     4   4   4   4   4
#     4  10  20  39  66  88 126 171 209 257 327 376
#     4  11  23  42  65  96 130 168 214 267 320 380
#     4  11  21  39  64  96 128 169 221 265 308 378
#     4  10  22  41  68  90 124 171 216 256 324 374
#     4  10  23  39  65  92 128 168 209 265 323 374
#
# _framework density 24.255725999999999
#
# number of rings (size 3 to 8) (size 9 to 14) (size 15 to 20)
#    0.000    1.600    4.000    1.800    2.800    4.800 
#    0.000    2.000    0.000    0.000    0.000    0.000 
#    0.000    0.000    0.000    0.000    0.000    0.000 
#
# Total GULP energy -111709.471780 kJ/mol
# GULP energy per Si atom -5585.473589 kJ/mol
# Density = 2.420052 g / cm^3
# Si number density = 24.255726 Si / 1000 Ang^3
#
#
#
# Elastic Constant Matrix: (Units=GPa)
#
#
# Indices 1 2 3 4 5 6 
#
# 1 163.3434 57.6198 32.3403 0.0000 30.7770 0.0000
# 2 57.6198 173.7544 23.0561 0.0000 23.5337 0.0000
# 3 32.3403 23.0561 68.2988 0.0000 28.1777 0.0000
# 4 0.0000 0.0000 0.0000 18.3755 0.0000 -2.6623
# 5 30.7770 23.5337 28.1777 0.0000 41.9624 0.0000
# 6 0.0000 0.0000 0.0000 -2.6623 0.0000 10.9916
#
#
#
# Elastic Compliance Matrix: (Units=1/GPa)
#
#
# Indices 1 2 3 4 5 6 
#
# 1 0.007773 -0.001883 -0.001561 0.000000 -0.003597 0.000000
# 2 -0.001883 0.006726 -0.000543 0.000000 -0.002026 0.000000
# 3 -0.001561 -0.000543 0.020701 0.000000 -0.012451 0.000000
# 4 0.000000 0.000000 0.000000 0.056399 0.000000 0.013661
# 5 -0.003597 -0.002026 -0.012451 0.000000 0.035966 0.000000
# 6 0.000000 0.000000 0.000000 0.013661 0.000000 0.094287
#
#
# Mechanical properties :
#
#
# Convention : Reuss Voigt Hill
#
# Bulk Modulus (GPa) = 36.72973 70.15879 53.44426
# Shear Modulus (GPa) = 20.92896 33.75792 27.34344
#
# Velocity S-wave (km/s) = 2.94061 3.73466 3.36117
# Velocity P-wave (km/s) = 5.16770 6.89814 6.09465
#
# Compressibility (1/GPa) = 0.02722590
#
# Stress axis : x y z
#
# Youngs Moduli (GPa) = 128.64695 148.66976 48.30707
#
# Poissons Ratio (x) = 0.28001 0.07541
# Poissons Ratio (y) = 0.24230 0.02622
# Poissons Ratio (z) = 0.20082 0.08070
#
# Static dielectric constant tensor:
#      x y z
#    x 1.979210 0.000000 -0.078110 
#    y 0.000000 1.913830 0.000000 
#    z -0.078110 0.000000 2.100160 
# 
# From -- ./inp_files/59353.got.cif
#   From: 2010.05.17/outbox.cif.g08.bks.cpg/sg11_30_cif.got.tgz:59353.got - 2010.06.03 12:22:45.
