data_PCOD9164255
_publ_section_title
;
Structure prediction by ZEFSAII (Michael W. Deem and Ramdas Pophale) SiO2 
 PCOD9164255
Probable space group: P 21/M
;
_chemical_formula_sum "Si O2"
_cell_formula_units_Z 26
_cell_length_a 16.003483
_cell_length_b 14.997427
_cell_length_c 9.097744
_cell_angle_alpha 90.000000
_cell_angle_beta 147.951630
_cell_angle_gamma 90.000000
_cell_volume 1158.672989
_symmetry_space_group_name_H-M "P 21/M"
_symmetry_group_IT_number 11
_symmetry_cell_setting 'monoclinic'
loop_
_space_group_symop_operation_xyz
x,y,z
-x,1/2+y,-z
-x,-y,-z
x,1/2-y,z
loop_
_atom_site_type_symbol
_atom_site_label
_atom_site_fract_x
_atom_site_fract_y
_atom_site_fract_z
Si Si1 0.204910 0.906383 0.729307
Si Si2 0.675621 0.041594 0.401850
Si Si3 0.124171 0.601682 0.048732
Si Si4 0.761792 0.847839 0.464972
Si Si5 0.265799 0.750000 0.049797
Si Si6 0.389246 0.348443 0.080178
Si Si7 0.859118 0.563343 0.135147
O O1 0.311194 0.927577 0.746955
O O2 0.268129 0.828126 0.924510
O O3 0.025220 0.888389 0.408209
O O4 0.179717 0.995521 0.788223
O O5 0.821529 0.086145 0.704822
O O6 0.522015 0.079000 0.251024
O O7 0.683357 0.934830 0.417483
O O8 0.235094 0.670912 0.128712
O O9 0.132808 0.503416 0.988892
O O10 0.948161 0.637992 0.763486
O O11 0.715128 0.750000 0.452830
O O12 0.720635 0.848050 0.229864
O O13 0.460765 0.250000 0.196421
O O14 0.284348 0.368475 0.066400
#
# Coordination Sequence:
#
# PCOD9164255 Si02
#       7
#     4   4   4   4   2   4   4
#     4  10  21  37  68  96 129 167 241 275 324 407
#     4  12  25  43  68 107 141 179 223 298 346 403
#     4  11  23  41  71  99 142 175 224 289 356 397
#     4  11  22  42  68  97 135 186 230 279 341 411
#     4  10  22  38  62  98 132 180 216 278 336 406
#     4  11  25  41  69  96 141 185 233 278 346 412
#     4  10  20  40  63  95 128 180 221 281 337 408
#
# _framework density 22.439461000000001
#
# number of rings (size 3 to 8) (size 9 to 14) (size 15 to 20)
#    0.000    1.231    3.846    2.769    5.385    0.615 
#    0.000    0.769    0.000    0.000    0.000    0.000 
#    0.000    0.000    0.000    0.000    0.000    0.000 
#
# Total GULP energy -144842.131163 kJ/mol
# GULP energy per Si atom -5570.851199 kJ/mol
# Density = 2.238839 g / cm^3
# Si number density = 22.439461 Si / 1000 Ang^3
#
#
#
# Elastic Constant Matrix: (Units=GPa)
#
#
# Indices 1 2 3 4 5 6 
#
# 1 40.1108 28.1869 9.9181 0.0000 4.7709 0.0000
# 2 28.1869 151.6159 20.3302 0.0000 -4.8942 0.0000
# 3 9.9181 20.3302 50.5461 0.0000 -2.5372 0.0000
# 4 0.0000 0.0000 0.0000 13.8424 0.0000 -0.2811
# 5 4.7709 -4.8942 -2.5372 0.0000 24.8867 0.0000
# 6 0.0000 0.0000 0.0000 -0.2811 0.0000 28.5545
#
#
#
# Elastic Compliance Matrix: (Units=1/GPa)
#
#
# Indices 1 2 3 4 5 6 
#
# 1 0.030618 -0.005364 -0.004220 0.000000 -0.007355 0.000000
# 2 -0.005364 0.007941 -0.002022 0.000000 0.002384 0.000000
# 3 -0.004220 -0.002022 0.021556 0.000000 0.002609 0.000000
# 4 0.000000 0.000000 0.000000 0.072256 0.000000 0.000711
# 5 -0.007355 0.002384 0.002609 0.000000 0.042327 0.000000
# 6 0.000000 0.000000 0.000000 0.000711 0.000000 0.035028
#
#
# Mechanical properties :
#
#
# Convention : Reuss Voigt Hill
#
# Bulk Modulus (GPa) = 27.09681 39.90482 33.50082
# Shear Modulus (GPa) = 20.38832 25.71255 23.05043
#
# Velocity S-wave (km/s) = 3.01756 3.38873 3.20852
# Velocity P-wave (km/s) = 4.92368 5.75615 5.35611
#
# Compressibility (1/GPa) = 0.03690471
#
# Stress axis : x y z
#
# Youngs Moduli (GPa) = 32.66004 125.93095 46.39067
#
# Poissons Ratio (x) = 0.67548 0.19575
# Poissons Ratio (y) = 0.17518 0.09379
# Poissons Ratio (z) = 0.13782 0.25460
#
# Static dielectric constant tensor:
#      x y z
#    x 1.819520 0.000000 0.024010 
#    y 0.000000 1.826110 0.000000 
#    z 0.024010 0.000000 1.875580 
# 
# From -- ./inp_files/22440.got.cif
#   From: 2010.05.17/outbox.cif.g08.bks.cpg/sg11_12_cif.got.tgz:22440.got - 2010.06.03 12:22:45.
