data_PCOD9164279
_publ_section_title
;
Structure prediction by ZEFSAII (Michael W. Deem and Ramdas Pophale) SiO2 
 PCOD9164279
Probable space group: P 21/M
;
_chemical_formula_sum "Si O2"
_cell_formula_units_Z 30
_cell_length_a 10.611837
_cell_length_b 9.502332
_cell_length_c 20.543365
_cell_angle_alpha 90.000000
_cell_angle_beta 41.157564
_cell_angle_gamma 90.000000
_cell_volume 1363.343727
_symmetry_space_group_name_H-M "P 21/M"
_symmetry_group_IT_number 11
_symmetry_cell_setting 'monoclinic'
loop_
_space_group_symop_operation_xyz
x,y,z
-x,1/2+y,-z
-x,-y,-z
x,1/2-y,z
loop_
_atom_site_type_symbol
_atom_site_label
_atom_site_fract_x
_atom_site_fract_y
_atom_site_fract_z
Si Si1 0.265866 0.482760 0.911742
Si Si2 0.974703 0.914547 0.791675
Si Si3 0.598944 0.590296 0.595698
Si Si4 0.308402 0.915696 0.553289
Si Si5 0.329832 0.420170 0.194048
Si Si6 0.118314 0.409217 0.402905
Si Si7 0.015524 0.750000 0.967209
Si Si8 0.237600 0.088821 0.771805
O O1 0.469686 0.507547 0.866512
O O2 0.270719 0.416601 0.836417
O O3 0.158513 0.628513 0.941499
O O4 0.132516 0.372954 0.000226
O O5 0.982287 0.750000 0.809831
O O6 0.137473 0.926886 0.671428
O O7 0.772932 0.946200 0.835116
O O8 0.041868 0.022385 0.820894
O O9 0.578773 0.750000 0.578176
O O10 0.735195 0.496363 0.497083
O O11 0.680232 0.600677 0.636520
O O12 0.399543 0.510878 0.678703
O O13 0.346223 0.750000 0.528183
O O14 0.500000 0.000000 0.500000
O O15 0.350374 0.250000 0.192207
O O16 0.177429 0.463742 0.309428
O O17 0.039204 0.250000 0.427823
O O18 0.000000 0.500000 0.500000
O O19 0.255317 0.250000 0.743606
#
# Coordination Sequence:
#
# PCOD9164279 Si02
#       8
#     4   4   4   4   4   4   2   4
#     4  11  22  44  72 103 127 160 202 259 323 393
#     4  10  23  39  61  89 125 178 222 257 314 374
#     4  11  22  35  57  84 117 166 218 267 316 364
#     4  11  21  35  54  79 122 172 226 273 309 357
#     4  10  20  40  66  91 129 172 210 258 315 382
#     4  10  21  36  55  84 122 168 214 262 312 361
#     4  10  24  42  74 106 126 152 200 262 324 398
#     4  12  24  39  62  94 128 162 209 262 310 370
#
# _framework density 22.004721
#
# number of rings (size 3 to 8) (size 9 to 14) (size 15 to 20)
#    0.000    1.333    4.000    2.000    1.867    2.667 
#    2.400    0.000    0.000    4.800    0.000    0.000 
#    0.000    0.000    0.000    0.000    0.000    0.000 
#
# Total GULP energy -167025.198097 kJ/mol
# GULP energy per Si atom -5567.506603 kJ/mol
# Density = 2.195464 g / cm^3
# Si number density = 22.004721 Si / 1000 Ang^3
#
#
#
# Elastic Constant Matrix: (Units=GPa)
#
#
# Indices 1 2 3 4 5 6 
#
# 1 122.9864 32.2183 15.1612 0.0000 -26.0875 0.0000
# 2 32.2183 145.4197 25.1396 0.0000 -16.2549 0.0000
# 3 15.1612 25.1396 41.6208 0.0000 -12.1512 0.0000
# 4 0.0000 0.0000 0.0000 -6.9291 0.0000 12.8242
# 5 -26.0875 -16.2549 -12.1512 0.0000 37.9845 0.0000
# 6 0.0000 0.0000 0.0000 12.8242 0.0000 20.3974
#
#
#
# Elastic Compliance Matrix: (Units=1/GPa)
#
#
# Indices 1 2 3 4 5 6 
#
# 1 0.009856 -0.001345 -0.001070 0.000000 0.005852 0.000000
# 2 -0.001345 0.008000 -0.003985 0.000000 0.001225 0.000000
# 3 -0.001070 -0.003985 0.028800 0.000000 0.006773 0.000000
# 4 0.000000 0.000000 0.000000 -0.066703 0.000000 0.041937
# 5 0.005852 0.001225 0.006773 0.000000 0.033037 0.000000
# 6 0.000000 0.000000 0.000000 0.041937 0.000000 0.022659
#
#
# Mechanical properties :
#
#
# Convention : Reuss Voigt Hill
#
# Bulk Modulus (GPa) = 29.53449 50.56278 40.04864
# Shear Modulus (GPa) = 83.70282 26.12441 54.91361
#
# Velocity S-wave (km/s) = 6.17423 3.44934 5.00096
# Velocity P-wave (km/s) = 8.01743 6.23634 7.18231
#
# Compressibility (1/GPa) = 0.03385871
#
# Stress axis : x y z
#
# Youngs Moduli (GPa) = 101.45738 124.99349 34.72170
#
# Poissons Ratio (x) = 0.16808 0.03714
# Poissons Ratio (y) = 0.13643 0.13836
# Poissons Ratio (z) = 0.10854 0.49807
#
# Static dielectric constant tensor:
#      x y z
#    x 1.948230 0.000000 0.033160 
#    y 0.000000 2.810940 0.000000 
#    z 0.033160 0.000000 1.876330 
# 
# From -- ./inp_files/68428.got.cif
#   From: 2010.05.17/outbox.cif.g08.bks.cpg/sg11_35_cif.got.tgz:68428.got - 2010.06.03 12:22:45.
