data_PCOD9164695
_publ_section_title
;
Structure prediction by ZEFSAII (Michael W. Deem and Ramdas Pophale) SiO2 
 PCOD9164695
Probable space group: P 21/M
;
_chemical_formula_sum "Si O2"
_cell_formula_units_Z 28
_cell_length_a 20.601562
_cell_length_b 12.382911
_cell_length_c 6.730402
_cell_angle_alpha 90.000000
_cell_angle_beta 57.120743
_cell_angle_gamma 90.000000
_cell_volume 1441.943643
_symmetry_space_group_name_H-M "P 21/M"
_symmetry_group_IT_number 11
_symmetry_cell_setting 'monoclinic'
loop_
_space_group_symop_operation_xyz
x,y,z
-x,1/2+y,-z
-x,-y,-z
x,1/2-y,z
loop_
_atom_site_type_symbol
_atom_site_label
_atom_site_fract_x
_atom_site_fract_y
_atom_site_fract_z
Si Si1 0.511255 0.623205 0.082840
Si Si2 0.038403 0.449626 0.243110
Si Si3 0.333647 0.460701 0.038510
Si Si4 0.208715 0.373020 0.943533
Si Si5 0.083552 0.632178 0.852367
Si Si6 0.252450 0.554495 0.557434
Si Si7 0.382907 0.869409 0.632141
O O1 0.496172 0.750000 0.025735
O O2 0.456356 0.616482 0.366933
O O3 0.500000 0.500000 0.000000
O O4 0.601121 0.619822 0.991338
O O5 0.000000 0.500000 0.500000
O O6 0.974710 0.379394 0.234411
O O7 0.119195 0.390402 0.150142
O O8 0.060733 0.544669 0.053474
O O9 0.298145 0.524419 0.283499
O O10 0.264456 0.405770 0.031601
O O11 0.374953 0.542324 0.816175
O O12 0.221893 0.250000 0.866890
O O13 0.229597 0.448241 0.721743
O O14 0.076052 0.750000 0.955196
O O15 0.172028 0.612698 0.643256
O O16 0.308519 0.619744 0.611475
O O17 0.385151 0.750000 0.717525
#
# Coordination Sequence:
#
# PCOD9164695 Si02
#       7
#     4   4   4   4   4   4   4
#     4  11  23  42  65  93 126 164 210 259 314 375
#     4  10  21  39  58  84 118 152 195 247 294 357
#     4  11  22  40  62  89 120 161 205 251 307 369
#     4  10  22  38  58  86 119 157 198 248 300 362
#     4  10  21  36  58  86 116 154 196 243 296 355
#     4  10  21  39  59  85 124 153 202 248 304 360
#     4  10  22  39  61  90 124 160 205 257 309 367
#
# _framework density 19.418236
#
# number of rings (size 3 to 8) (size 9 to 14) (size 15 to 20)
#    0.000    1.714    1.429    2.571    0.000    4.000 
#    0.000    0.714    0.000    0.000    0.000    0.000 
#    0.000    0.000    0.000    0.000    0.000    0.000 
#
# Total GULP energy -156114.745189 kJ/mol
# GULP energy per Si atom -5575.526614 kJ/mol
# Density = 1.937404 g / cm^3
# Si number density = 19.418236 Si / 1000 Ang^3
#
#
#
# Elastic Constant Matrix: (Units=GPa)
#
#
# Indices 1 2 3 4 5 6 
#
# 1 87.7679 17.1621 11.4560 0.0000 -4.4405 0.0000
# 2 17.1621 100.8447 7.8829 0.0000 7.0632 0.0000
# 3 11.4560 7.8829 69.3703 0.0000 -8.1944 0.0000
# 4 0.0000 0.0000 0.0000 3.2580 0.0000 -1.6555
# 5 -4.4405 7.0632 -8.1944 0.0000 21.1076 0.0000
# 6 0.0000 0.0000 0.0000 -1.6555 0.0000 15.1070
#
#
#
# Elastic Compliance Matrix: (Units=1/GPa)
#
#
# Indices 1 2 3 4 5 6 
#
# 1 0.012138 -0.002143 -0.001441 0.000000 0.002711 0.000000
# 2 -0.002143 0.010712 -0.001404 0.000000 -0.004580 0.000000
# 3 -0.001441 -0.001404 0.015546 0.000000 0.006202 0.000000
# 4 0.000000 0.000000 0.000000 0.325032 0.000000 0.035618
# 5 0.002711 -0.004580 0.006202 0.000000 0.051887 0.000000
# 6 0.000000 0.000000 0.000000 0.035618 0.000000 0.070098
#
#
# Mechanical properties :
#
#
# Convention : Reuss Voigt Hill
#
# Bulk Modulus (GPa) = 35.18784 36.77608 35.98196
# Shear Modulus (GPa) = 9.90372 22.65999 16.28186
#
# Velocity S-wave (km/s) = 2.26082 3.41976 2.89880
# Velocity P-wave (km/s) = 4.99754 5.87989 5.45658
#
# Compressibility (1/GPa) = 0.02841891
#
# Stress axis : x y z
#
# Youngs Moduli (GPa) = 82.38625 93.35740 64.32729
#
# Poissons Ratio (x) = 0.20006 0.09268
# Poissons Ratio (y) = 0.17655 0.09034
# Poissons Ratio (z) = 0.11869 0.13111
#
# Static dielectric constant tensor:
#      x y z
#    x 1.708530 0.000000 0.003050 
#    y 0.000000 1.739940 0.000000 
#    z 0.003050 0.000000 1.623140 
# 
# From -- ./inp_files/8694.got.cif
#   From: 2010.05.17/outbox.cif.g08.bks.cpg/sg11_5_cif.got.tgz:8694.got - 2010.06.03 12:22:45.
