data_PCOD9164349
_publ_section_title
;
Structure prediction by ZEFSAII (Michael W. Deem and Ramdas Pophale) SiO2 
 PCOD9164349
Probable space group: P 21/M
;
_chemical_formula_sum "Si O2"
_cell_formula_units_Z 28
_cell_length_a 6.457817
_cell_length_b 15.979632
_cell_length_c 12.449692
_cell_angle_alpha 90.000000
_cell_angle_beta 116.656227
_cell_angle_gamma 90.000000
_cell_volume 1148.179716
_symmetry_space_group_name_H-M "P 21/M"
_symmetry_group_IT_number 11
_symmetry_cell_setting 'monoclinic'
loop_
_space_group_symop_operation_xyz
x,y,z
-x,1/2+y,-z
-x,-y,-z
x,1/2-y,z
loop_
_atom_site_type_symbol
_atom_site_label
_atom_site_fract_x
_atom_site_fract_y
_atom_site_fract_z
Si Si1 0.930303 0.905276 0.254893
Si Si2 0.265212 0.969911 0.629412
Si Si3 0.647717 0.345176 0.533155
Si Si4 0.124857 0.342539 0.389115
Si Si5 0.238018 0.000819 0.164876
Si Si6 0.980617 0.841315 0.883398
Si Si7 0.440150 0.655150 0.084142
O O1 0.146926 0.845884 0.332343
O O2 0.050554 0.977009 0.211752
O O3 0.710177 0.867863 0.140554
O O4 0.824474 0.942073 0.342104
O O5 0.299731 0.931287 0.519248
O O6 0.068589 0.907636 0.625340
O O7 0.520480 0.962669 0.736341
O O8 0.648913 0.250000 0.484406
O O9 0.377660 0.357567 0.498945
O O10 0.052036 0.250000 0.407104
O O11 0.131887 0.341873 0.260984
O O12 0.320089 0.915598 0.128629
O O13 0.121643 0.079270 0.077275
O O14 0.930085 0.750000 0.920896
O O15 0.261849 0.847104 0.941669
O O16 0.428222 0.750000 0.124519
#
# Coordination Sequence:
#
# PCOD9164349 Si02
#       7
#     4   4   4   4   4   4   4
#     4  11  24  41  61  89 126 165 211 257 317 373
#     4  11  21  39  62  91 123 160 206 257 314 376
#     4  11  23  39  61  87 123 164 208 261 312 374
#     4  10  21  38  62  92 125 159 203 256 316 371
#     4  11  23  42  67  95 128 168 210 262 316 379
#     4  10  20  42  66  93 130 163 207 264 317 375
#     4  10  24  43  65  92 126 168 216 263 311 374
#
# _framework density 24.386424999999999
#
# number of rings (size 3 to 8) (size 9 to 14) (size 15 to 20)
#    0.000    1.429    2.857    1.714    0.000    6.857 
#    2.571    1.429    0.000    0.000    0.000    0.000 
#    0.000    0.000    0.000    0.000    0.000    0.000 
#
# Total GULP energy -156045.514706 kJ/mol
# GULP energy per Si atom -5573.054097 kJ/mol
# Density = 2.433092 g / cm^3
# Si number density = 24.386425 Si / 1000 Ang^3
#
#
#
# Elastic Constant Matrix: (Units=GPa)
#
#
# Indices 1 2 3 4 5 6 
#
# 1 103.9012 53.6375 64.9655 0.0000 41.3254 0.0000
# 2 53.6375 131.9912 38.8104 0.0000 24.7210 0.0000
# 3 64.9655 38.8104 89.9779 0.0000 56.5710 0.0000
# 4 0.0000 0.0000 0.0000 19.3230 0.0000 7.3366
# 5 41.3254 24.7210 56.5710 0.0000 58.0946 0.0000
# 6 0.0000 0.0000 0.0000 7.3366 0.0000 19.6808
#
#
#
# Elastic Compliance Matrix: (Units=1/GPa)
#
#
# Indices 1 2 3 4 5 6 
#
# 1 0.019495 -0.004332 -0.011985 0.000000 -0.000354 0.000000
# 2 -0.004332 0.009640 -0.001002 0.000000 -0.000045 0.000000
# 3 -0.011985 -0.001002 0.037577 0.000000 -0.027640 0.000000
# 4 0.000000 0.000000 0.000000 0.060284 0.000000 -0.022473
# 5 -0.000354 -0.000045 -0.027640 0.000000 0.044399 0.000000
# 6 0.000000 0.000000 0.000000 -0.022473 0.000000 0.059188
#
#
# Mechanical properties :
#
#
# Convention : Reuss Voigt Hill
#
# Bulk Modulus (GPa) = 31.17779 71.18855 51.18317
# Shear Modulus (GPa) = 18.12166 30.65014 24.38590
#
# Velocity S-wave (km/s) = 2.72895 3.54906 3.16567
# Velocity P-wave (km/s) = 4.76888 6.78599 5.86481
#
# Compressibility (1/GPa) = 0.03207412
#
# Stress axis : x y z
#
# Youngs Moduli (GPa) = 51.29423 103.73781 26.61209
#
# Poissons Ratio (x) = 0.44940 0.31894
# Poissons Ratio (y) = 0.22221 0.02667
# Poissons Ratio (z) = 0.61475 0.10395
#
# Static dielectric constant tensor:
#      x y z
#    x 1.896140 0.000000 -0.025880 
#    y 0.000000 2.037650 0.000000 
#    z -0.025880 0.000000 2.029420 
# 
# From -- ./inp_files/46082.got.cif
#   From: 2010.05.17/outbox.cif.g08.bks.cpg/sg11_24_cif.got.tgz:46082.got - 2010.06.03 12:22:45.
