data_PCOD9164771
_publ_section_title
;
Structure prediction by ZEFSAII (Michael W. Deem and Ramdas Pophale) SiO2 
 PCOD9164771
Probable space group: P 21/M
;
_chemical_formula_sum "Si O2"
_cell_formula_units_Z 32
_cell_length_a 12.287507
_cell_length_b 7.866391
_cell_length_c 22.457538
_cell_angle_alpha 90.000000
_cell_angle_beta 133.317242
_cell_angle_gamma 90.000000
_cell_volume 1579.334238
_symmetry_space_group_name_H-M "P 21/M"
_symmetry_group_IT_number 11
_symmetry_cell_setting 'monoclinic'
loop_
_space_group_symop_operation_xyz
x,y,z
-x,1/2+y,-z
-x,-y,-z
x,1/2-y,z
loop_
_atom_site_type_symbol
_atom_site_label
_atom_site_fract_x
_atom_site_fract_y
_atom_site_fract_z
Si Si1 0.620171 0.443356 0.593611
Si Si2 0.875981 0.454750 0.291463
Si Si3 0.569513 0.050953 0.368621
Si Si4 0.972386 0.455925 0.895192
Si Si5 0.063092 0.954918 0.252974
Si Si6 0.760675 0.953507 0.921789
Si Si7 0.096210 0.046057 0.477839
Si Si8 0.563771 0.041587 0.228991
O O1 0.500000 0.500000 0.500000
O O2 0.648906 0.250000 0.588449
O O3 0.542643 0.458409 0.628930
O O4 0.783685 0.526633 0.660278
O O5 0.873652 0.250000 0.294336
O O6 0.713799 0.515856 0.252214
O O7 0.925958 0.504633 0.244538
O O8 0.002406 0.514589 0.385572
O O9 0.529719 0.250000 0.354540
O O10 0.565503 0.989714 0.298979
O O11 0.738867 0.030091 0.455332
O O12 0.976416 0.250000 0.896237
O O13 0.955974 0.517473 0.821647
O O14 0.835394 0.508448 0.885997
O O15 0.123305 0.518230 0.984934
O O16 0.075946 0.750000 0.253760
O O17 0.754530 0.750000 0.926122
O O18 0.590912 0.016646 0.858649
O O19 0.111471 0.250000 0.480659
O O20 0.000000 0.000000 0.500000
O O21 0.565441 0.250000 0.229714
#
# Coordination Sequence:
#
# PCOD9164771 Si02
#       8
#     4   4   4   4   4   4   4   4
#     4  11  23  38  54  76 106 141 179 222 271 321
#     4  10  21  37  54  74 104 141 182 222 257 310
#     4  11  21  35  55  79 109 139 175 224 271 319
#     4   9  18  34  55  81 110 136 168 215 266 317
#     4  10  22  38  54  75 108 144 177 217 269 320
#     4   9  17  32  58  83 105 136 172 212 263 321
#     4  11  21  35  54  77 106 142 182 223 266 313
#     4   9  18  34  53  78 107 136 173 217 266 312
#
# _framework density 20.261702
#
# number of rings (size 3 to 8) (size 9 to 14) (size 15 to 20)
#    0.000    2.000    1.250    2.625    0.000    4.500 
#    0.000    1.875    0.000    0.000    0.000    0.000 
#    0.000    0.000    0.000    0.000    0.000    0.000 
#
# Total GULP energy -178731.336918 kJ/mol
# GULP energy per Si atom -5585.354279 kJ/mol
# Density = 2.021559 g / cm^3
# Si number density = 20.261702 Si / 1000 Ang^3
#
#
#
# Elastic Constant Matrix: (Units=GPa)
#
#
# Indices 1 2 3 4 5 6 
#
# 1 97.8893 -13.9981 60.9048 0.0000 4.8131 0.0000
# 2 -13.9981 19.4582 6.7671 0.0000 -0.8259 0.0000
# 3 60.9048 6.7671 109.8749 0.0000 4.6851 0.0000
# 4 0.0000 0.0000 0.0000 14.9255 0.0000 -4.0524
# 5 4.8131 -0.8259 4.6851 0.0000 34.8280 0.0000
# 6 0.0000 0.0000 0.0000 -4.0524 0.0000 27.2303
#
#
#
# Elastic Compliance Matrix: (Units=1/GPa)
#
#
# Indices 1 2 3 4 5 6 
#
# 1 0.021033 0.019564 -0.012833 0.000000 -0.000716 0.000000
# 2 0.019564 0.070813 -0.015249 0.000000 0.001027 0.000000
# 3 -0.012833 -0.015249 0.017192 0.000000 -0.000901 0.000000
# 4 0.000000 0.000000 0.000000 0.069820 0.000000 0.010391
# 5 -0.000716 0.001027 -0.000901 0.000000 0.028957 0.000000
# 6 0.000000 0.000000 0.000000 0.010391 0.000000 0.038270
#
#
# Mechanical properties :
#
#
# Convention : Reuss Voigt Hill
#
# Bulk Modulus (GPa) = 10.86945 37.17443 24.02194
# Shear Modulus (GPa) = 17.01888 26.96667 21.99277
#
# Velocity S-wave (km/s) = 2.90134 3.65213 3.29817
# Velocity P-wave (km/s) = 4.07429 6.01424 5.13668
#
# Compressibility (1/GPa) = 0.09200101
#
# Stress axis : x y z
#
# Youngs Moduli (GPa) = 47.54431 14.12161 58.16507
#
# Poissons Ratio (x) = -0.27627 0.74644
# Poissons Ratio (y) = -0.93014 0.88699
# Poissons Ratio (z) = 0.61015 0.21535
#
# Static dielectric constant tensor:
#      x y z
#    x 1.692640 0.000000 0.020360 
#    y 0.000000 1.799910 0.000000 
#    z 0.020360 0.000000 1.742650 
# 
# From -- ./inp_files/64460.got.cif
#   From: 2010.05.17/outbox.cif.g08.bks.cpg/sg11_33_cif.got.tgz:64460.got - 2010.06.03 12:22:45.
