data_PCOD9164803
_publ_section_title
;
Structure prediction by ZEFSAII (Michael W. Deem and Ramdas Pophale) SiO2 
 PCOD9164803
Probable space group: P 21/M
;
_chemical_formula_sum "Si O2"
_cell_formula_units_Z 28
_cell_length_a 31.141731
_cell_length_b 9.322043
_cell_length_c 5.411251
_cell_angle_alpha 90.000000
_cell_angle_beta 126.968999
_cell_angle_gamma 90.000000
_cell_volume 1255.096503
_symmetry_space_group_name_H-M "P 21/M"
_symmetry_group_IT_number 11
_symmetry_cell_setting 'monoclinic'
loop_
_space_group_symop_operation_xyz
x,y,z
-x,1/2+y,-z
-x,-y,-z
x,1/2-y,z
loop_
_atom_site_type_symbol
_atom_site_label
_atom_site_fract_x
_atom_site_fract_y
_atom_site_fract_z
Si Si1 0.154859 0.093237 0.146101
Si Si2 0.784957 0.090279 0.968845
Si Si3 0.634711 0.582957 0.227347
Si Si4 0.523813 0.425007 0.832336
Si Si5 0.894343 0.093471 0.619523
Si Si6 0.296361 0.083946 0.030198
Si Si7 0.040266 0.409003 0.471744
O O1 0.162930 0.250000 0.290751
O O2 0.139415 0.969132 0.276651
O O3 0.099290 0.106000 0.800518
O O4 0.209205 0.042915 0.198904
O O5 0.766627 0.250000 0.826831
O O6 0.847988 0.104673 0.252933
O O7 0.750168 0.030905 0.074953
O O8 0.615385 0.750000 0.144135
O O9 0.665068 0.569282 0.594966
O O10 0.586272 0.470637 0.049708
O O11 0.672518 0.559632 0.118773
O O12 0.500000 0.500000 0.500000
O O13 0.516075 0.250000 0.805700
O O14 0.500000 0.500000 0.000000
O O15 0.915302 0.250000 0.741032
O O16 0.942753 0.990309 0.717300
O O17 0.277237 0.250000 0.963682
O O18 0.019255 0.250000 0.363450
O O19 0.000000 0.500000 0.500000
#
# Coordination Sequence:
#
# PCOD9164803 Si02
#       7
#     4   4   4   4   4   4   4
#     4  10  21  37  58  82 109 144 190 239 291 359
#     4  10  22  38  57  83 115 152 196 247 300 358
#     4  10  22  41  63  93 132 172 219 271 325 385
#     4  12  25  43  70 102 137 181 228 280 338 399
#     4  10  21  37  57  82 111 146 188 239 294 355
#     4  10  22  39  61  90 126 171 214 263 322 382
#     4  10  21  37  56  80 109 144 184 233 291 354
#
# _framework density 22.30904
#
# number of rings (size 3 to 8) (size 9 to 14) (size 15 to 20)
#    0.000    1.714    0.000    3.857    2.000    6.286 
#    0.000    0.000    0.000    0.000    0.000    0.000 
#    0.000    0.000    0.000    0.000    0.000    0.000 
#
# Total GULP energy -156188.533989 kJ/mol
# GULP energy per Si atom -5578.161928 kJ/mol
# Density = 2.225826 g / cm^3
# Si number density = 22.309040 Si / 1000 Ang^3
#
#
#
# Elastic Constant Matrix: (Units=GPa)
#
#
# Indices 1 2 3 4 5 6 
#
# 1 120.4851 58.2027 27.8178 0.0000 -10.3517 0.0000
# 2 58.2027 155.9017 28.0667 0.0000 3.6853 0.0000
# 3 27.8178 28.0667 92.1074 0.0000 2.8258 0.0000
# 4 0.0000 0.0000 0.0000 6.5553 0.0000 2.8668
# 5 -10.3517 3.6853 2.8258 0.0000 35.0129 0.0000
# 6 0.0000 0.0000 0.0000 2.8668 0.0000 37.3967
#
#
#
# Elastic Compliance Matrix: (Units=1/GPa)
#
#
# Indices 1 2 3 4 5 6 
#
# 1 0.010981 -0.003779 -0.002282 0.000000 0.003829 0.000000
# 2 -0.003779 0.008098 -0.001269 0.000000 -0.001867 0.000000
# 3 -0.002282 -0.001269 0.011979 0.000000 -0.001508 0.000000
# 4 0.000000 0.000000 0.000000 0.157841 0.000000 -0.012100
# 5 0.003829 -0.001867 -0.001508 0.000000 0.030011 0.000000
# 6 0.000000 0.000000 0.000000 -0.012100 0.000000 0.027668
#
#
# Mechanical properties :
#
#
# Convention : Reuss Voigt Hill
#
# Bulk Modulus (GPa) = 60.98590 66.29650 63.64120
# Shear Modulus (GPa) = 18.74731 32.75344 25.75038
#
# Velocity S-wave (km/s) = 2.90202 3.83583 3.40112
# Velocity P-wave (km/s) = 6.21491 7.02851 6.63419
#
# Compressibility (1/GPa) = 0.01639723
#
# Stress axis : x y z
#
# Youngs Moduli (GPa) = 91.06357 123.49067 83.47864
#
# Poissons Ratio (x) = 0.46670 0.19053
# Poissons Ratio (y) = 0.34415 0.10592
# Poissons Ratio (z) = 0.20784 0.15669
#
# Static dielectric constant tensor:
#      x y z
#    x 1.789880 0.000000 -0.021200 
#    y 0.000000 1.863490 0.000000 
#    z -0.021200 0.000000 1.977970 
# 
# From -- ./inp_files/9699.got.cif
#   From: 2010.05.17/outbox.cif.g08.bks.cpg/sg11_5_cif.got.tgz:9699.got - 2010.06.03 12:22:45.
