data_PCOD9164675
_publ_section_title
;
Structure prediction by ZEFSAII (Michael W. Deem and Ramdas Pophale) SiO2 
 PCOD9164675
Probable space group: P 21/M
;
_chemical_formula_sum "Si O2"
_cell_formula_units_Z 28
_cell_length_a 16.445243
_cell_length_b 14.433002
_cell_length_c 5.362415
_cell_angle_alpha 90.000000
_cell_angle_beta 93.582253
_cell_angle_gamma 90.000000
_cell_volume 1270.304987
_symmetry_space_group_name_H-M "P 21/M"
_symmetry_group_IT_number 11
_symmetry_cell_setting 'monoclinic'
loop_
_space_group_symop_operation_xyz
x,y,z
-x,1/2+y,-z
-x,-y,-z
x,1/2-y,z
loop_
_atom_site_type_symbol
_atom_site_label
_atom_site_fract_x
_atom_site_fract_y
_atom_site_fract_z
Si Si1 0.568570 0.034662 0.320872
Si Si2 0.218209 0.950804 0.032283
Si Si3 0.469205 0.352354 0.915821
Si Si4 0.862983 0.643087 0.966199
Si Si5 0.848375 0.353974 0.473877
Si Si6 0.357667 0.645325 0.285115
Si Si7 0.968313 0.894648 0.486521
O O1 0.585776 0.939909 0.171645
O O2 0.500000 0.000000 0.500000
O O3 0.644749 0.081156 0.471632
O O4 0.519048 0.113383 0.164989
O O5 0.178894 0.902970 0.273050
O O6 0.310145 0.912214 0.067261
O O7 0.204041 0.060945 0.046773
O O8 0.176550 0.913120 0.773441
O O9 0.432038 0.250000 0.932278
O O10 0.546292 0.345586 0.745366
O O11 0.833873 0.750000 0.962904
O O12 0.916687 0.628099 0.725142
O O13 0.917381 0.626573 0.226010
O O14 0.814518 0.250000 0.440477
O O15 0.945427 0.344615 0.499207
O O16 0.327000 0.750000 0.291997
O O17 0.000000 0.000000 0.500000
#
# Coordination Sequence:
#
# PCOD9164675 Si02
#       7
#     4   4   4   4   4   4   4
#     4   9  18  34  57  87 117 152 196 241 291 351
#     4  12  25  41  59  89 131 163 208 254 304 377
#     4   9  18  34  59  89 120 154 196 245 296 354
#     4  12  24  42  65  88 120 168 212 258 318 375
#     4  12  24  39  61  91 124 159 202 259 320 373
#     4  10  21  36  57  86 121 162 195 239 304 361
#     4  12  22  43  65  90 120 157 206 270 320 364
#
# _framework density 22.041948999999999
#
# number of rings (size 3 to 8) (size 9 to 14) (size 15 to 20)
#    0.000    1.143    2.857    4.286    2.000    0.571 
#    0.000    0.714    0.000    4.286    0.000    0.000 
#    0.000    0.000    0.000    0.000    0.000    0.000 
#
# Total GULP energy -156204.851825 kJ/mol
# GULP energy per Si atom -5578.744708 kJ/mol
# Density = 2.199178 g / cm^3
# Si number density = 22.041949 Si / 1000 Ang^3
#
#
#
# Elastic Constant Matrix: (Units=GPa)
#
#
# Indices 1 2 3 4 5 6 
#
# 1 32.0272 37.1049 11.4414 0.0000 -4.1420 0.0000
# 2 37.1049 214.8284 42.9681 0.0000 12.5651 0.0000
# 3 11.4414 42.9681 133.8450 0.0000 -1.9287 0.0000
# 4 0.0000 0.0000 0.0000 -3.2309 0.0000 -4.7179
# 5 -4.1420 12.5651 -1.9287 0.0000 28.6584 0.0000
# 6 0.0000 0.0000 0.0000 -4.7179 0.0000 15.0614
#
#
#
# Elastic Compliance Matrix: (Units=1/GPa)
#
#
# Indices 1 2 3 4 5 6 
#
# 1 0.041462 -0.007499 -0.001004 0.000000 0.009213 0.000000
# 2 -0.007499 0.006486 -0.001499 0.000000 -0.004028 0.000000
# 3 -0.001004 -0.001499 0.008054 0.000000 0.001054 0.000000
# 4 0.000000 0.000000 0.000000 -0.212371 0.000000 -0.066524
# 5 0.009213 -0.004028 0.001054 0.000000 0.038062 0.000000
# 6 0.000000 0.000000 0.000000 -0.066524 0.000000 0.045557
#
#
# Mechanical properties :
#
#
# Convention : Reuss Voigt Hill
#
# Bulk Modulus (GPa) = 27.78057 62.63658 45.20857
# Shear Modulus (GPa) = -122.70666 27.37687 -47.66490
#
# Velocity S-wave (km/s) = -7.46930 3.52807 -4.65527
# Velocity P-wave (km/s) = 7.85853 6.71380 2.88802
#
# Compressibility (1/GPa) = 0.03599639
#
# Stress axis : x y z
#
# Youngs Moduli (GPa) = 24.11849 154.18805 124.16831
#
# Poissons Ratio (x) = 1.15630 0.12467
# Poissons Ratio (y) = 0.18087 0.18613
# Poissons Ratio (z) = 0.02422 0.23114
#
# Static dielectric constant tensor:
#      x y z
#    x 1.885760 0.000000 -0.076770 
#    y 0.000000 2.238630 0.000000 
#    z -0.076770 0.000000 1.890460 
# 
# From -- ./inp_files/7945.got.cif
#   From: 2010.05.17/outbox.cif.g08.bks.cpg/sg11_4_cif.got.tgz:7945.got - 2010.06.03 12:22:45.
