data_PCOD9164135
_publ_section_title
;
Structure prediction by ZEFSAII (Michael W. Deem and Ramdas Pophale) SiO2 
 PCOD9164135
Probable space group: P 21/M
;
_chemical_formula_sum "Si O2"
_cell_formula_units_Z 20
_cell_length_a 7.479504
_cell_length_b 21.348657
_cell_length_c 5.551944
_cell_angle_alpha 90.000000
_cell_angle_beta 120.817724
_cell_angle_gamma 90.000000
_cell_volume 761.344490
_symmetry_space_group_name_H-M "P 21/M"
_symmetry_group_IT_number 11
_symmetry_cell_setting 'monoclinic'
loop_
_space_group_symop_operation_xyz
x,y,z
-x,1/2+y,-z
-x,-y,-z
x,1/2-y,z
loop_
_atom_site_type_symbol
_atom_site_label
_atom_site_fract_x
_atom_site_fract_y
_atom_site_fract_z
Si Si1 0.965028 0.608333 0.832348
Si Si2 0.221876 0.498313 0.514249
Si Si3 0.397162 0.639834 0.623103
Si Si4 0.532450 0.109245 0.830201
Si Si5 0.944437 0.820069 0.316564
O O1 0.904985 0.639320 0.532137
O O2 0.842846 0.542476 0.764200
O O3 0.215861 0.599687 0.992446
O O4 0.916067 0.647789 0.035947
O O5 0.310559 0.567615 0.549114
O O6 0.406190 0.455427 0.747303
O O7 0.000000 0.500000 0.500000
O O8 0.507213 0.646719 0.443924
O O9 0.197156 0.682941 0.498236
O O10 0.516388 0.645166 0.956708
O O11 0.859709 0.750000 0.272398
#
# Coordination Sequence:
#
# PCOD9164135 Si02
#       5
#     4   4   4   4   4
#     4  10  23  38  61  91 116 162 200 241 317 351
#     4  12  22  38  63  94 130 157 197 246 308 377
#     4  10  22  39  59  91 120 163 198 242 312 353
#     4  10  22  39  56  87 125 155 191 241 292 366
#     4  10  20  39  63  85 115 159 211 251 292 357
#
# _framework density 26.269318999999999
#
# number of rings (size 3 to 8) (size 9 to 14) (size 15 to 20)
#    0.000    1.600    4.000    1.800    0.000    6.400 
#    0.000    0.000    0.000   28.800    0.000    0.000 
#    0.000    0.000    0.000    0.000    0.000    0.000 
#
# Total GULP energy -111883.753826 kJ/mol
# GULP energy per Si atom -5594.187691 kJ/mol
# Density = 2.620953 g / cm^3
# Si number density = 26.269319 Si / 1000 Ang^3
#
#
#
# Elastic Constant Matrix: (Units=GPa)
#
#
# Indices 1 2 3 4 5 6 
#
# 1 163.5188 24.8579 30.0990 0.0000 -10.6195 0.0000
# 2 24.8579 115.2674 46.2264 0.0000 -6.8435 0.0000
# 3 30.0990 46.2264 203.3496 0.0000 -46.7220 0.0000
# 4 0.0000 0.0000 0.0000 23.3759 0.0000 6.4388
# 5 -10.6195 -6.8435 -46.7220 0.0000 41.3243 0.0000
# 6 0.0000 0.0000 0.0000 6.4388 0.0000 28.8845
#
#
#
# Elastic Compliance Matrix: (Units=1/GPa)
#
#
# Indices 1 2 3 4 5 6 
#
# 1 0.006437 -0.001140 -0.000482 0.000000 0.000920 0.000000
# 2 -0.001140 0.009790 -0.002366 0.000000 -0.001347 0.000000
# 3 -0.000482 -0.002366 0.007306 0.000000 0.007745 0.000000
# 4 0.000000 0.000000 0.000000 0.045578 0.000000 -0.010160
# 5 0.000920 -0.001347 0.007745 0.000000 0.032969 0.000000
# 6 0.000000 0.000000 0.000000 -0.010160 0.000000 0.036886
#
#
# Mechanical properties :
#
#
# Convention : Reuss Voigt Hill
#
# Bulk Modulus (GPa) = 64.28109 76.05581 70.16845
# Shear Modulus (GPa) = 32.86680 44.11378 38.49029
#
# Velocity S-wave (km/s) = 3.54099 4.10236 3.83197
# Velocity P-wave (km/s) = 6.42194 7.17317 6.80792
#
# Compressibility (1/GPa) = 0.01555668
#
# Stress axis : x y z
#
# Youngs Moduli (GPa) = 155.34311 102.14107 136.86553
#
# Poissons Ratio (x) = 0.11646 0.06599
# Poissons Ratio (y) = 0.17713 0.32387
# Poissons Ratio (z) = 0.07490 0.24170
#
# Static dielectric constant tensor:
#      x y z
#    x 2.115330 0.000000 0.024110 
#    y 0.000000 2.014660 0.000000 
#    z 0.024110 0.000000 2.165290 
# 
# From -- ./inp_files/2466.got.cif
#   From: 2010.05.17/outbox.cif.g08.bks.cpg/sg11_2_cif.got.tgz:2466.got - 2010.06.03 12:22:45.
