data_PCOD9164678
_publ_section_title
;
Structure prediction by ZEFSAII (Michael W. Deem and Ramdas Pophale) SiO2 
 PCOD9164678
Probable space group: P 21/M
;
_chemical_formula_sum "Si O2"
_cell_formula_units_Z 30
_cell_length_a 16.738040
_cell_length_b 16.734845
_cell_length_c 15.954789
_cell_angle_alpha 90.000000
_cell_angle_beta 17.811494
_cell_angle_gamma 90.000000
_cell_volume 1367.027944
_symmetry_space_group_name_H-M "P 21/M"
_symmetry_group_IT_number 11
_symmetry_cell_setting 'monoclinic'
loop_
_space_group_symop_operation_xyz
x,y,z
-x,1/2+y,-z
-x,-y,-z
x,1/2-y,z
loop_
_atom_site_type_symbol
_atom_site_label
_atom_site_fract_x
_atom_site_fract_y
_atom_site_fract_z
Si Si1 0.354502 0.156771 0.841848
Si Si2 0.718559 0.517347 0.391784
Si Si3 0.777952 0.084288 0.021429
Si Si4 0.858958 0.342699 0.418064
Si Si5 0.706630 0.427875 0.723643
Si Si6 0.791536 0.031514 0.818261
Si Si7 0.944502 0.879085 0.026469
Si Si8 0.817197 0.250000 0.080723
O O1 0.396111 0.250000 0.821354
O O2 0.634959 0.120656 0.582912
O O3 0.136812 0.119290 0.119693
O O4 0.229490 0.154645 0.875393
O O5 0.434057 0.529760 0.716478
O O6 0.842334 0.437743 0.227414
O O7 0.935216 0.552381 0.239466
O O8 0.739568 0.576131 0.290729
O O9 0.750385 0.176256 0.080583
O O10 0.747633 0.071664 0.952053
O O11 0.895830 0.250000 0.360510
O O12 0.767813 0.353903 0.603049
O O13 0.746061 0.412362 0.782325
O O14 0.919776 0.494202 0.481191
O O15 0.422465 0.462506 0.986583
O O16 0.093090 0.817891 0.938069
#
# Coordination Sequence:
#
# PCOD9164678 Si02
#       8
#     4   4   4   4   4   4   4   2
#     4  10  21  36  57  87 122 160 204 250 309 376
#     4  10  25  40  65  88 130 156 226 255 320 355
#     4  11  24  45  64  99 120 176 204 275 306 392
#     4  10  22  37  57  91 125 157 203 253 321 376
#     4  10  21  40  64  94 123 166 195 269 304 381
#     4  10  22  39  66  93 126 155 218 245 321 371
#     4  10  22  43  60  94 120 175 206 271 306 382
#     4  10  24  44  68  86 138 162 220 258 326 366
#
# _framework density 21.945418
#
# number of rings (size 3 to 8) (size 9 to 14) (size 15 to 20)
#    0.000    1.867    0.667    1.600    5.600    9.067 
#    3.600    0.000    0.000    0.000    0.000    0.000 
#    0.000    0.000    0.000    0.000    0.000    0.000 
#
# Total GULP energy -167061.454129 kJ/mol
# GULP energy per Si atom -5568.715138 kJ/mol
# Density = 2.189547 g / cm^3
# Si number density = 21.945418 Si / 1000 Ang^3
#
#
#
# Elastic Constant Matrix: (Units=GPa)
#
#
# Indices 1 2 3 4 5 6 
#
# 1 147.6313 16.7901 36.7945 0.0000 17.0844 0.0000
# 2 16.7901 64.8531 4.7113 0.0000 -3.1154 0.0000
# 3 36.7945 4.7113 94.8813 0.0000 2.0917 0.0000
# 4 0.0000 0.0000 0.0000 9.1694 0.0000 0.7207
# 5 17.0844 -3.1154 2.0917 0.0000 38.7768 0.0000
# 6 0.0000 0.0000 0.0000 0.7207 0.0000 36.6415
#
#
#
# Elastic Compliance Matrix: (Units=1/GPa)
#
#
# Indices 1 2 3 4 5 6 
#
# 1 0.008171 -0.002072 -0.002986 0.000000 -0.003605 0.000000
# 2 -0.002072 0.016065 -0.000043 0.000000 0.002206 0.000000
# 3 -0.002986 -0.000043 0.011685 0.000000 0.000682 0.000000
# 4 0.000000 0.000000 0.000000 0.109227 0.000000 -0.002148
# 5 -0.003605 0.002206 0.000682 0.000000 0.027517 0.000000
# 6 0.000000 0.000000 0.000000 -0.002148 0.000000 0.027334
#
#
# Mechanical properties :
#
#
# Convention : Reuss Voigt Hill
#
# Bulk Modulus (GPa) = 38.88231 47.10640 42.99435
# Shear Modulus (GPa) = 22.85478 33.52220 28.18849
#
# Velocity S-wave (km/s) = 3.23063 3.91260 3.58785
# Velocity P-wave (km/s) = 5.62780 6.47480 6.06610
#
# Compressibility (1/GPa) = 0.02571864
#
# Stress axis : x y z
#
# Youngs Moduli (GPa) = 122.38840 62.24760 85.58251
#
# Poissons Ratio (x) = 0.12895 0.25557
# Poissons Ratio (y) = 0.25354 0.00368
# Poissons Ratio (z) = 0.36548 0.00267
#
# Static dielectric constant tensor:
#      x y z
#    x 1.809440 0.000000 -0.002280 
#    y 0.000000 1.851700 0.000000 
#    z -0.002280 0.000000 1.859060 
# 
# From -- ./inp_files/52655.got.cif
#   From: 2010.05.17/outbox.cif.g08.bks.cpg/sg11_27_cif.got.tgz:52655.got - 2010.06.03 12:22:45.
