data_PCOD9164805
_publ_section_title
;
Structure prediction by ZEFSAII (Michael W. Deem and Ramdas Pophale) SiO2 
 PCOD9164805
Probable space group: P 21/M
;
_chemical_formula_sum "Si O2"
_cell_formula_units_Z 24
_cell_length_a 11.927262
_cell_length_b 8.928553
_cell_length_c 12.808878
_cell_angle_alpha 90.000000
_cell_angle_beta 90.767460
_cell_angle_gamma 90.000000
_cell_volume 1363.935924
_symmetry_space_group_name_H-M "P 21/M"
_symmetry_group_IT_number 11
_symmetry_cell_setting 'monoclinic'
loop_
_space_group_symop_operation_xyz
x,y,z
-x,1/2+y,-z
-x,-y,-z
x,1/2-y,z
loop_
_atom_site_type_symbol
_atom_site_label
_atom_site_fract_x
_atom_site_fract_y
_atom_site_fract_z
Si Si1 0.263422 0.929656 0.711151
Si Si2 0.144586 0.071150 0.901897
Si Si3 0.119895 0.427723 0.524881
Si Si4 0.116017 0.571509 0.124525
Si Si5 0.254993 0.427830 0.312092
Si Si6 0.498648 0.069557 0.384724
O O1 0.254826 0.750000 0.713121
O O2 0.388805 0.971180 0.675944
O O3 0.229149 0.996550 0.821889
O O4 0.178464 0.995564 0.624213
O O5 0.157411 0.250000 0.902307
O O6 0.016453 0.035678 0.864945
O O7 0.155792 0.007196 0.018552
O O8 0.108405 0.250000 0.543390
O O9 0.197546 0.449878 0.424105
O O10 0.000000 0.500000 0.500000
O O11 0.125630 0.750000 0.113690
O O12 0.186453 0.514308 0.223329
O O13 0.250648 0.250000 0.288781
O O14 0.384467 0.475048 0.324593
O O15 0.496052 0.250000 0.395580
O O16 0.500000 0.000000 0.500000
#
# Coordination Sequence:
#
# PCOD9164805 Si02
#       6
#     4   4   4   4   4   4
#     4  11  22  36  57  84 114 147 189 236 281 334
#     4  10  21  38  60  84 114 150 186 229 284 341
#     4  11  22  35  54  81 115 149 185 231 283 339
#     4  10  21  37  59  86 113 145 187 233 282 336
#     4  10  21  37  56  80 112 149 188 230 280 335
#     4  10  21  38  58  81 111 151 193 235 280 332
#
# _framework density 17.596133999999999
#
# number of rings (size 3 to 8) (size 9 to 14) (size 15 to 20)
#    0.000    1.667    1.667    3.000    0.000    7.333 
#    0.000    0.833    0.000    0.000    0.000    0.000 
#    0.000    0.000    0.000    0.000    0.000    0.000 
#
# Total GULP energy -134103.360818 kJ/mol
# GULP energy per Si atom -5587.640034 kJ/mol
# Density = 1.755608 g / cm^3
# Si number density = 17.596134 Si / 1000 Ang^3
#
#
#
# Elastic Constant Matrix: (Units=GPa)
#
#
# Indices 1 2 3 4 5 6 
#
# 1 53.7259 22.3916 6.5145 0.0000 -23.0899 0.0000
# 2 22.3916 46.6933 30.8670 0.0000 -16.4525 0.0000
# 3 6.5145 30.8670 62.1293 0.0000 -19.2195 0.0000
# 4 0.0000 0.0000 0.0000 39.3315 0.0000 1.3916
# 5 -23.0899 -16.4525 -19.2195 0.0000 31.8858 0.0000
# 6 0.0000 0.0000 0.0000 1.3916 0.0000 25.5761
#
#
#
# Elastic Compliance Matrix: (Units=1/GPa)
#
#
# Indices 1 2 3 4 5 6 
#
# 1 0.033664 -0.015447 0.011333 0.000000 0.023238 0.000000
# 2 -0.015447 0.040963 -0.019241 0.000000 -0.001648 0.000000
# 3 0.011333 -0.019241 0.029420 0.000000 0.016012 0.000000
# 4 0.000000 0.000000 0.000000 0.025474 0.000000 -0.001386
# 5 0.023238 -0.001648 0.016012 0.000000 0.056991 0.000000
# 6 0.000000 0.000000 0.000000 -0.001386 0.000000 0.039174
#
#
# Mechanical properties :
#
#
# Convention : Reuss Voigt Hill
#
# Bulk Modulus (GPa) = 17.44090 31.34385 24.39238
# Shear Modulus (GPa) = 17.15213 26.21037 21.68125
#
# Velocity S-wave (km/s) = 3.12551 3.86366 3.51402
# Velocity P-wave (km/s) = 4.79149 6.14454 5.50971
#
# Compressibility (1/GPa) = 0.05733649
#
# Stress axis : x y z
#
# Youngs Moduli (GPa) = 29.70525 24.41222 33.99075
#
# Poissons Ratio (x) = 0.37711 -0.38523
# Poissons Ratio (y) = 0.45887 0.65402
# Poissons Ratio (z) = -0.33666 0.46972
#
# Static dielectric constant tensor:
#      x y z
#    x 1.593520 0.000000 -0.009090 
#    y 0.000000 1.587390 0.000000 
#    z -0.009090 0.000000 1.561260 
# 
# From -- ./inp_files/33775.got.cif
#   From: 2010.05.17/outbox.cif.g08.bks.cpg/sg11_17_cif.got.tgz:33775.got - 2010.06.03 12:22:45.
