data_PCOD9164446
_publ_section_title
;
Structure prediction by ZEFSAII (Michael W. Deem and Ramdas Pophale) SiO2 
 PCOD9164446
Probable space group: P 21/M
;
_chemical_formula_sum "Si O2"
_cell_formula_units_Z 32
_cell_length_a 19.330374
_cell_length_b 7.473840
_cell_length_c 12.913243
_cell_angle_alpha 90.000000
_cell_angle_beta 40.685853
_cell_angle_gamma 90.000000
_cell_volume 1216.207881
_symmetry_space_group_name_H-M "P 21/M"
_symmetry_group_IT_number 11
_symmetry_cell_setting 'monoclinic'
loop_
_space_group_symop_operation_xyz
x,y,z
-x,1/2+y,-z
-x,-y,-z
x,1/2-y,z
loop_
_atom_site_type_symbol
_atom_site_label
_atom_site_fract_x
_atom_site_fract_y
_atom_site_fract_z
Si Si1 0.832640 0.537409 0.913325
Si Si2 0.794229 0.039603 0.372299
Si Si3 0.659770 0.032753 0.341221
Si Si4 0.468401 0.458187 0.702889
Si Si5 0.977073 0.965022 0.906542
Si Si6 0.708084 0.950001 0.682811
Si Si7 0.647330 0.970350 0.971585
Si Si8 0.053752 0.958615 0.547485
O O1 0.809813 0.750000 0.943612
O O2 0.751089 0.468795 0.919687
O O3 0.863915 0.463345 0.991889
O O4 0.952079 0.510791 0.734886
O O5 0.807930 0.250000 0.340070
O O6 0.752417 0.965646 0.311349
O O7 0.910170 0.967304 0.268754
O O8 0.713428 0.024486 0.560250
O O9 0.658558 0.250000 0.339368
O O10 0.559038 0.966807 0.525943
O O11 0.637672 0.972069 0.248723
O O12 0.493276 0.250000 0.687258
O O13 0.445916 0.527160 0.843675
O O14 0.970909 0.750000 0.899222
O O15 0.000000 0.000000 0.000000
O O16 0.666950 0.750000 0.719341
O O17 0.650825 0.033399 0.848733
O O18 0.833182 0.946301 0.572244
O O19 0.648180 0.750000 0.966255
O O20 0.082101 0.750000 0.527016
O O21 0.000000 0.000000 0.500000
#
# Coordination Sequence:
#
# PCOD9164446 Si02
#       8
#     4   4   4   4   4   4   4   4
#     4   9  17  31  49  69  99 138 172 207 256 306
#     4  10  21  38  55  73 108 148 177 214 271 325
#     4   9  19  36  58  82 106 135 173 219 271 324
#     4   9  18  35  60  83 104 134 173 218 270 326
#     4  10  21  35  50  71 103 142 176 214 261 312
#     4  11  21  34  53  78 107 141 185 227 261 313
#     4   9  18  32  52  79 108 136 173 221 270 313
#     4  11  19  32  51  72 103 141 179 216 258 305
#
# _framework density 26.311292000000002
#
# number of rings (size 3 to 8) (size 9 to 14) (size 15 to 20)
#    0.000    2.250    2.500    0.750    1.750    1.000 
#    0.000    1.875    0.000    0.000    0.000    0.000 
#    0.000    0.000    0.000    0.000    0.000    0.000 
#
# Total GULP energy -178532.479189 kJ/mol
# GULP energy per Si atom -5579.139975 kJ/mol
# Density = 2.625141 g / cm^3
# Si number density = 26.311292 Si / 1000 Ang^3
#
#
#
# Elastic Constant Matrix: (Units=GPa)
#
#
# Indices 1 2 3 4 5 6 
#
# 1 42.4965 -10.2442 -0.3501 0.0000 6.4550 0.0000
# 2 -10.2442 62.6927 -0.2188 0.0000 -3.6433 0.0000
# 3 -0.3501 -0.2188 119.7289 0.0000 31.4972 0.0000
# 4 0.0000 0.0000 0.0000 15.3213 0.0000 7.6374
# 5 6.4550 -3.6433 31.4972 0.0000 41.9676 0.0000
# 6 0.0000 0.0000 0.0000 7.6374 0.0000 15.3560
#
#
#
# Elastic Compliance Matrix: (Units=1/GPa)
#
#
# Indices 1 2 3 4 5 6 
#
# 1 0.025151 0.003854 0.001259 0.000000 -0.004479 0.000000
# 2 0.003854 0.016639 -0.000227 0.000000 0.001022 0.000000
# 3 0.001259 -0.000227 0.010481 0.000000 -0.008079 0.000000
# 4 0.000000 0.000000 0.000000 0.086785 0.000000 -0.043163
# 5 -0.004479 0.001022 -0.008079 0.000000 0.030669 0.000000
# 6 0.000000 0.000000 0.000000 -0.043163 0.000000 0.086589
#
#
# Mechanical properties :
#
#
# Convention : Reuss Voigt Hill
#
# Bulk Modulus (GPa) = 16.11813 22.58799 19.35306
# Shear Modulus (GPa) = 18.71092 30.24439 24.47765
#
# Velocity S-wave (km/s) = 2.66961 3.39408 3.05341
# Velocity P-wave (km/s) = 3.95495 4.89523 4.44999
#
# Compressibility (1/GPa) = 0.06204193
#
# Stress axis : x y z
#
# Youngs Moduli (GPa) = 39.75982 60.09911 95.41150
#
# Poissons Ratio (x) = -0.23162 -0.12010
# Poissons Ratio (y) = -0.15323 0.02168
# Poissons Ratio (z) = -0.05005 0.01366
#
# Static dielectric constant tensor:
#      x y z
#    x 2.184120 0.000000 0.044280 
#    y 0.000000 1.955740 0.000000 
#    z 0.044280 0.000000 2.303370 
# 
# From -- ./inp_files/42819.got.cif
#   From: 2010.05.17/outbox.cif.g08.bks.cpg/sg11_22_cif.got.tgz:42819.got - 2010.06.03 12:22:45.
