data_PCOD9164883
_publ_section_title
;
Structure prediction by ZEFSAII (Michael W. Deem and Ramdas Pophale) SiO2 
 PCOD9164883
Probable space group: P 21/M
;
_chemical_formula_sum "Si O2"
_cell_formula_units_Z 32
_cell_length_a 16.008273
_cell_length_b 8.671878
_cell_length_c 21.835961
_cell_angle_alpha 90.000000
_cell_angle_beta 32.659354
_cell_angle_gamma 90.000000
_cell_volume 1635.824353
_symmetry_space_group_name_H-M "P 21/M"
_symmetry_group_IT_number 11
_symmetry_cell_setting 'monoclinic'
loop_
_space_group_symop_operation_xyz
x,y,z
-x,1/2+y,-z
-x,-y,-z
x,1/2-y,z
loop_
_atom_site_type_symbol
_atom_site_label
_atom_site_fract_x
_atom_site_fract_y
_atom_site_fract_z
Si Si1 0.713204 0.434044 0.411240
Si Si2 0.378144 0.561427 0.884702
Si Si3 0.715470 0.937857 0.631963
Si Si4 0.162890 0.426214 0.318591
Si Si5 0.371179 0.065558 0.666271
Si Si6 0.171701 0.564794 0.901362
Si Si7 0.483398 0.576369 0.945085
Si Si8 0.903938 0.933496 0.398221
O O1 0.711173 0.250000 0.404932
O O2 0.710151 0.512332 0.346632
O O3 0.551917 0.479800 0.545089
O O4 0.855808 0.485948 0.365171
O O5 0.380713 0.750000 0.886098
O O6 0.540161 0.513720 0.753179
O O7 0.241435 0.515440 0.924093
O O8 0.381205 0.505536 0.953131
O O9 0.718712 0.750000 0.632569
O O10 0.825827 0.991552 0.619393
O O11 0.780387 0.983828 0.526507
O O12 0.102876 0.250000 0.356578
O O13 0.342863 0.418744 0.188876
O O14 0.065987 0.520655 0.329143
O O15 0.363938 0.250000 0.676175
O O16 0.286200 0.991741 0.776850
O O17 0.168034 0.750000 0.902099
O O18 0.000000 0.500000 0.000000
O O19 0.426757 0.750000 0.990150
O O20 0.500000 0.500000 0.000000
O O21 0.895567 0.750000 0.395468
#
# Coordination Sequence:
#
# PCOD9164883 Si02
#       8
#     4   4   4   4   4   4   4   4
#     4  10  21  37  58  83 112 148 186 228 282 344
#     4   8  16  33  56  79 103 139 184 224 273 331
#     4   8  15  29  51  76 103 138 180 223 270 324
#     4   9  18  33  50  71 105 142 176 220 273 328
#     4  10  21  39  61  84 111 143 186 236 286 341
#     4  11  22  38  60  85 116 153 192 240 292 342
#     4   9  18  35  57  78 101 137 182 228 274 323
#     4  11  20  30  49  80 112 142 179 220 266 326
#
# _framework density 19.562003000000001
#
# number of rings (size 3 to 8) (size 9 to 14) (size 15 to 20)
#    0.000    2.500    0.000    4.125    0.000    3.000 
#    2.250    1.875    0.000    3.000    0.000    0.000 
#    0.000    0.000    0.000    0.000    0.000    0.000 
#
# Total GULP energy -178475.804848 kJ/mol
# GULP energy per Si atom -5577.368901 kJ/mol
# Density = 1.951748 g / cm^3
# Si number density = 19.562003 Si / 1000 Ang^3
#
#
#
# Elastic Constant Matrix: (Units=GPa)
#
#
# Indices 1 2 3 4 5 6 
#
# 1 171.2416 26.1306 34.0069 0.0000 4.9796 0.0000
# 2 26.1306 31.9559 12.2688 0.0000 5.1105 0.0000
# 3 34.0069 12.2688 30.5544 0.0000 9.9581 0.0000
# 4 0.0000 0.0000 0.0000 25.8741 0.0000 0.3525
# 5 4.9796 5.1105 9.9581 0.0000 29.2901 0.0000
# 6 0.0000 0.0000 0.0000 0.3525 0.0000 25.3398
#
#
#
# Elastic Compliance Matrix: (Units=1/GPa)
#
#
# Indices 1 2 3 4 5 6 
#
# 1 0.007940 -0.003748 -0.007991 0.000000 0.002021 0.000000
# 2 -0.003748 0.038831 -0.010594 0.000000 -0.002536 0.000000
# 3 -0.007991 -0.010594 0.050417 0.000000 -0.013934 0.000000
# 4 0.000000 0.000000 0.000000 0.038656 0.000000 -0.000538
# 5 0.002021 -0.002536 -0.013934 0.000000 0.038977 0.000000
# 6 0.000000 0.000000 0.000000 -0.000538 0.000000 0.039471
#
#
# Mechanical properties :
#
#
# Convention : Reuss Voigt Hill
#
# Bulk Modulus (GPa) = 19.03947 42.06274 30.55110
# Shear Modulus (GPa) = 18.08546 26.85718 22.47132
#
# Velocity S-wave (km/s) = 3.04389 3.70932 3.39296
# Velocity P-wave (km/s) = 4.70188 6.31620 5.56786
#
# Compressibility (1/GPa) = 0.05252247
#
# Stress axis : x y z
#
# Youngs Moduli (GPa) = 125.94989 25.75284 19.83440
#
# Poissons Ratio (x) = 0.09651 0.15849
# Poissons Ratio (y) = 0.47202 0.21013
# Poissons Ratio (z) = 1.00641 0.27284
#
# Static dielectric constant tensor:
#      x y z
#    x 1.712360 0.000000 0.010200 
#    y 0.000000 1.696430 0.000000 
#    z 0.010200 0.000000 1.690570 
# 
# From -- ./inp_files/65211.got.cif
#   From: 2010.05.17/outbox.cif.g08.bks.cpg/sg11_33_cif.got.tgz:65211.got - 2010.06.03 12:22:45.
