data_PCOD9164485
_publ_section_title
;
Structure prediction by ZEFSAII (Michael W. Deem and Ramdas Pophale) SiO2 
 PCOD9164485
Probable space group: P 21/M
;
_chemical_formula_sum "Si O2"
_cell_formula_units_Z 24
_cell_length_a 22.106208
_cell_length_b 7.782765
_cell_length_c 12.146963
_cell_angle_alpha 90.000000
_cell_angle_beta 28.552708
_cell_angle_gamma 90.000000
_cell_volume 998.881102
_symmetry_space_group_name_H-M "P 21/M"
_symmetry_group_IT_number 11
_symmetry_cell_setting 'monoclinic'
loop_
_space_group_symop_operation_xyz
x,y,z
-x,1/2+y,-z
-x,-y,-z
x,1/2-y,z
loop_
_atom_site_type_symbol
_atom_site_label
_atom_site_fract_x
_atom_site_fract_y
_atom_site_fract_z
Si Si1 0.513676 0.450110 0.658443
Si Si2 0.758173 0.038779 0.682471
Si Si3 0.901423 0.051947 0.251286
Si Si4 0.681291 0.950718 0.210243
Si Si5 0.611125 0.453806 0.719509
Si Si6 0.857088 0.454157 0.754536
O O1 0.481234 0.250000 0.724769
O O2 0.412331 0.524699 0.735187
O O3 0.645150 0.459908 0.380873
O O4 0.528530 0.533325 0.754008
O O5 0.756162 0.250000 0.685989
O O6 0.877509 0.980217 0.414206
O O7 0.636152 0.980368 0.804118
O O8 0.775030 0.980374 0.780270
O O9 0.930533 0.250000 0.223957
O O10 0.756609 0.033736 0.440962
O O11 0.000000 0.000000 0.000000
O O12 0.654897 0.750000 0.268793
O O13 0.815098 0.971179 0.938576
O O14 0.585806 0.250000 0.768231
O O15 0.842454 0.250000 0.782948
O O16 0.000000 0.500000 0.500000
#
# Coordination Sequence:
#
# PCOD9164485 Si02
#       6
#     4   4   4   4   4   4
#     4   9  17  34  59  82 106 138 180 223 266 316
#     4   7  15  31  50  71  99 131 167 212 259 311
#     4   8  14  26  44  67  94 124 160 203 252 300
#     4  10  21  35  53  80 112 143 177 222 267 314
#     4   7  13  28  51  74  97 128 167 212 261 309
#     4  11  22  38  57  76 105 145 184 220 265 320
#
# _framework density 24.026883000000002
#
# number of rings (size 3 to 8) (size 9 to 14) (size 15 to 20)
#    1.000    2.333    0.000    1.000    0.000    2.000 
#    0.000    6.667    0.000    0.000    0.000    0.000 
#    0.000    0.000    0.000    0.000    0.000    0.000 
#
# Total GULP energy -133604.552995 kJ/mol
# GULP energy per Si atom -5566.856375 kJ/mol
# Density = 2.397220 g / cm^3
# Si number density = 24.026883 Si / 1000 Ang^3
#
#
#
# Elastic Constant Matrix: (Units=GPa)
#
#
# Indices 1 2 3 4 5 6 
#
# 1 97.6998 0.7931 17.1517 0.0000 19.2289 0.0000
# 2 0.7931 41.3536 -4.9582 0.0000 -10.2706 0.0000
# 3 17.1517 -4.9582 112.6713 0.0000 29.5649 0.0000
# 4 0.0000 0.0000 0.0000 30.7599 0.0000 0.1402
# 5 19.2289 -10.2706 29.5649 0.0000 23.9886 0.0000
# 6 0.0000 0.0000 0.0000 0.1402 0.0000 8.3945
#
#
#
# Elastic Compliance Matrix: (Units=1/GPa)
#
#
# Indices 1 2 3 4 5 6 
#
# 1 0.012637 -0.003384 0.001427 0.000000 -0.013338 0.000000
# 2 -0.003384 0.028547 -0.003174 0.000000 0.018846 0.000000
# 3 0.001427 -0.003174 0.013561 0.000000 -0.019216 0.000000
# 4 0.000000 0.000000 0.000000 0.032512 0.000000 -0.000543
# 5 -0.013338 0.018846 -0.019216 0.000000 0.084129 0.000000
# 6 0.000000 0.000000 0.000000 -0.000543 0.000000 0.119134
#
#
# Mechanical properties :
#
#
# Convention : Reuss Voigt Hill
#
# Bulk Modulus (GPa) = 22.48019 30.85532 26.66775
# Shear Modulus (GPa) = 15.84233 28.54447 22.19340
#
# Velocity S-wave (km/s) = 2.57058 3.45051 3.04252
# Velocity P-wave (km/s) = 4.26463 5.36140 4.84415
#
# Compressibility (1/GPa) = 0.04448362
#
# Stress axis : x y z
#
# Youngs Moduli (GPa) = 79.13005 35.03026 73.74266
#
# Poissons Ratio (x) = 0.11854 -0.10524
# Poissons Ratio (y) = 0.26776 0.23405
# Poissons Ratio (z) = -0.11293 0.11118
#
# Static dielectric constant tensor:
#      x y z
#    x 1.978290 0.000000 -0.009590 
#    y 0.000000 1.875160 0.000000 
#    z -0.009590 0.000000 2.049830 
# 
# From -- ./inp_files/43880.got.cif
#   From: 2010.05.17/outbox.cif.g08.bks.cpg/sg11_22_cif.got.tgz:43880.got - 2010.06.03 12:22:45.
