data_PCOD9164621
_publ_section_title
;
Structure prediction by ZEFSAII (Michael W. Deem and Ramdas Pophale) SiO2 
 PCOD9164621
Probable space group: P 21/M
;
_chemical_formula_sum "Si O2"
_cell_formula_units_Z 20
_cell_length_a 7.556480
_cell_length_b 8.957017
_cell_length_c 24.110088
_cell_angle_alpha 90.000000
_cell_angle_beta 39.100938
_cell_angle_gamma 90.000000
_cell_volume 1029.192592
_symmetry_space_group_name_H-M "P 21/M"
_symmetry_group_IT_number 11
_symmetry_cell_setting 'monoclinic'
loop_
_space_group_symop_operation_xyz
x,y,z
-x,1/2+y,-z
-x,-y,-z
x,1/2-y,z
loop_
_atom_site_type_symbol
_atom_site_label
_atom_site_fract_x
_atom_site_fract_y
_atom_site_fract_z
Si Si1 0.684234 0.916945 0.409983
Si Si2 0.276504 0.572674 0.770464
Si Si3 0.138635 0.931134 0.218152
Si Si4 0.263352 0.571667 0.904863
Si Si5 0.263538 0.918589 0.408732
O O1 0.738030 0.750000 0.417631
O O2 0.490797 0.909288 0.402585
O O3 0.973071 0.980564 0.314782
O O4 0.500000 0.000000 0.500000
O O5 0.267730 0.750000 0.761897
O O6 0.235844 0.545814 0.845466
O O7 0.577910 0.508692 0.677747
O O8 0.038735 0.493069 0.790872
O O9 0.136560 0.750000 0.217580
O O10 0.449740 0.995757 0.144130
O O11 0.274435 0.750000 0.911380
O O12 0.000000 0.500000 0.000000
O O13 0.193533 0.750000 0.408300
O O14 0.000000 0.000000 0.500000
#
# Coordination Sequence:
#
# PCOD9164621 Si02
#       5
#     4   4   4   4   4
#     4   9  20  35  53  82 116 154 198 240 291 352
#     4  10  22  41  63  90 123 161 205 253 307 366
#     4  10  22  41  63  90 124 163 205 252 308 368
#     4  11  25  43  66  94 122 159 207 258 312 370
#     4  10  21  36  55  84 119 159 203 245 297 359
#
# _framework density 19.432708000000002
#
# number of rings (size 3 to 8) (size 9 to 14) (size 15 to 20)
#    0.000    2.000    0.000    3.600    2.800    8.800 
#    0.000    0.000    0.000    0.000    0.000    0.000 
#    0.000    0.000    0.000    0.000    0.000    0.000 
#
# Total GULP energy -111668.139146 kJ/mol
# GULP energy per Si atom -5583.406957 kJ/mol
# Density = 1.938848 g / cm^3
# Si number density = 19.432708 Si / 1000 Ang^3
#
#
#
# Elastic Constant Matrix: (Units=GPa)
#
#
# Indices 1 2 3 4 5 6 
#
# 1 85.3287 54.6323 62.9633 0.0000 -8.1984 0.0000
# 2 54.6323 118.4195 93.1326 0.0000 4.6530 0.0000
# 3 62.9633 93.1326 201.4343 0.0000 -13.8161 0.0000
# 4 0.0000 0.0000 0.0000 38.2592 0.0000 -1.5752
# 5 -8.1984 4.6530 -13.8161 0.0000 35.9349 0.0000
# 6 0.0000 0.0000 0.0000 -1.5752 0.0000 25.4988
#
#
#
# Elastic Compliance Matrix: (Units=1/GPa)
#
#
# Indices 1 2 3 4 5 6 
#
# 1 0.018095 -0.006733 -0.002259 0.000000 0.004131 0.000000
# 2 -0.006733 0.016418 -0.005893 0.000000 -0.005928 0.000000
# 3 -0.002259 -0.005893 0.008640 0.000000 0.003569 0.000000
# 4 0.000000 0.000000 0.000000 0.026204 0.000000 0.001619
# 5 0.004131 -0.005928 0.003569 0.000000 0.030911 0.000000
# 6 0.000000 0.000000 0.000000 0.001619 0.000000 0.039318
#
#
# Mechanical properties :
#
#
# Convention : Reuss Voigt Hill
#
# Bulk Modulus (GPa) = 74.72840 91.84876 83.28858
# Shear Modulus (GPa) = 28.76589 32.90220 30.83404
#
# Velocity S-wave (km/s) = 3.85162 4.11924 3.98767
# Velocity P-wave (km/s) = 7.63665 8.36611 8.00969
#
# Compressibility (1/GPa) = 0.01338179
#
# Stress axis : x y z
#
# Youngs Moduli (GPa) = 55.26538 60.90740 115.73985
#
# Poissons Ratio (x) = 0.41010 0.26151
# Poissons Ratio (y) = 0.37211 0.68205
# Poissons Ratio (z) = 0.12487 0.35892
#
# Static dielectric constant tensor:
#      x y z
#    x 1.675370 0.000000 -0.001390 
#    y 0.000000 1.676870 0.000000 
#    z -0.001390 0.000000 1.676660 
# 
# From -- ./inp_files/20162.got.cif
#   From: 2010.05.17/outbox.cif.g08.bks.cpg/sg11_11_cif.got.tgz:20162.got - 2010.06.03 12:22:45.
