data_PCOD9164040
_publ_section_title
;
Structure prediction by ZEFSAII (Michael W. Deem and Ramdas Pophale) SiO2 
 PCOD9164040
Probable space group: P 21/M
;
_chemical_formula_sum "Si O2"
_cell_formula_units_Z 32
_cell_length_a 19.490362
_cell_length_b 13.949452
_cell_length_c 12.677597
_cell_angle_alpha 90.000000
_cell_angle_beta 26.209095
_cell_angle_gamma 90.000000
_cell_volume 1522.265952
_symmetry_space_group_name_H-M "P 21/M"
_symmetry_group_IT_number 11
_symmetry_cell_setting 'monoclinic'
loop_
_space_group_symop_operation_xyz
x,y,z
-x,1/2+y,-z
-x,-y,-z
x,1/2-y,z
loop_
_atom_site_type_symbol
_atom_site_label
_atom_site_fract_x
_atom_site_fract_y
_atom_site_fract_z
Si Si1 0.853072 0.864052 0.958288
Si Si2 0.463639 0.044579 0.663315
Si Si3 0.614029 0.030748 0.018697
Si Si4 0.094811 0.363296 0.877637
Si Si5 0.258438 0.861930 0.589474
Si Si6 0.730571 0.539671 0.556853
Si Si7 0.203012 0.364277 0.318245
Si Si8 0.930289 0.364447 0.528146
O O1 0.875889 0.750000 0.933623
O O2 0.979937 0.900329 0.700011
O O3 0.683635 0.886699 0.148073
O O4 0.866673 0.901840 0.058438
O O5 0.608460 0.098477 0.517027
O O6 0.500000 0.000000 0.500000
O O7 0.414561 0.964501 0.816745
O O8 0.454011 0.060603 0.184730
O O9 0.764306 0.088427 0.775306
O O10 0.656658 0.920178 0.933174
O O11 0.131410 0.250000 0.823301
O O12 0.190982 0.414575 0.654646
O O13 0.909469 0.373624 0.123878
O O14 0.279325 0.750000 0.537057
O O15 0.258033 0.926294 0.483916
O O16 0.806057 0.586633 0.554978
O O17 0.226954 0.250000 0.291907
O O18 0.048366 0.382155 0.462505
O O19 0.911692 0.250000 0.545486
#
# Coordination Sequence:
#
# PCOD9164040 Si02
#       8
#     4   4   4   4   4   4   4   4
#     4  10  20  38  64  92 125 170 220 268 326 394
#     4  11  23  40  65  96 129 169 219 274 340 393
#     4  11  24  42  63  95 131 170 222 270 332 399
#     4  10  22  41  65  96 133 176 221 273 339 396
#     4  10  23  42  65  99 135 173 224 276 328 397
#     4  11  24  42  66  97 134 175 220 276 338 394
#     4  11  24  43  66  94 131 177 223 273 333 397
#     4  10  23  42  66  97 129 174 223 271 329 398
#
# _framework density 21.021294000000001
#
# number of rings (size 3 to 8) (size 9 to 14) (size 15 to 20)
#    0.000    1.500    1.250    3.375    1.750    4.000 
#    0.000    2.500    0.000    0.000    0.000    0.000 
#    0.000    0.000    0.000    0.000    0.000    0.000 
#
# Total GULP energy -178951.647989 kJ/mol
# GULP energy per Si atom -5592.239000 kJ/mol
# Density = 2.097345 g / cm^3
# Si number density = 21.021294 Si / 1000 Ang^3
#
#
#
# Elastic Constant Matrix: (Units=GPa)
#
#
# Indices 1 2 3 4 5 6 
#
# 1 131.3613 50.2185 64.4397 0.0000 13.0389 0.0000
# 2 50.2185 83.4715 41.0138 0.0000 4.0645 0.0000
# 3 64.4397 41.0138 117.7120 0.0000 3.0169 0.0000
# 4 0.0000 0.0000 0.0000 24.1162 0.0000 -1.0068
# 5 13.0389 4.0645 3.0169 0.0000 39.6500 0.0000
# 6 0.0000 0.0000 0.0000 -1.0068 0.0000 23.4296
#
#
#
# Elastic Compliance Matrix: (Units=1/GPa)
#
#
# Indices 1 2 3 4 5 6 
#
# 1 0.012149 -0.004739 -0.004919 0.000000 -0.003135 0.000000
# 2 -0.004739 0.016352 -0.003106 0.000000 0.000119 0.000000
# 3 -0.004919 -0.003106 0.012245 0.000000 0.001004 0.000000
# 4 0.000000 0.000000 0.000000 0.041541 0.000000 0.001785
# 5 -0.003135 0.000119 0.001004 0.000000 0.026163 0.000000
# 6 0.000000 0.000000 0.000000 0.001785 0.000000 0.042758
#
#
# Mechanical properties :
#
#
# Convention : Reuss Voigt Hill
#
# Bulk Modulus (GPa) = 65.71793 71.54320 68.63056
# Shear Modulus (GPa) = 27.50176 29.23067 28.36621
#
# Velocity S-wave (km/s) = 3.62094 3.73302 3.67741
# Velocity P-wave (km/s) = 6.98656 7.25866 7.12391
#
# Compressibility (1/GPa) = 0.01521655
#
# Stress axis : x y z
#
# Youngs Moduli (GPa) = 82.31433 61.15555 81.66907
#
# Poissons Ratio (x) = 0.28984 0.40172
# Poissons Ratio (y) = 0.39011 0.25366
# Poissons Ratio (z) = 0.40490 0.18994
#
# Static dielectric constant tensor:
#      x y z
#    x 1.776410 0.000000 0.006000 
#    y 0.000000 1.767590 0.000000 
#    z 0.006000 0.000000 1.741180 
# 
# From -- ./inp_files/41662.got.cif
#   From: 2010.05.17/outbox.cif.g08.bks.cpg/sg11_21_cif.got.tgz:41662.got - 2010.06.03 12:22:45.
