data_PCOD9164153
_publ_section_title
;
Structure prediction by ZEFSAII (Michael W. Deem and Ramdas Pophale) SiO2 
 PCOD9164153
Probable space group: P 21/M
;
_chemical_formula_sum "Si O2"
_cell_formula_units_Z 26
_cell_length_a 8.527214
_cell_length_b 19.609455
_cell_length_c 7.640863
_cell_angle_alpha 90.000000
_cell_angle_beta 53.451762
_cell_angle_gamma 90.000000
_cell_volume 1026.415083
_symmetry_space_group_name_H-M "P 21/M"
_symmetry_group_IT_number 11
_symmetry_cell_setting 'monoclinic'
loop_
_space_group_symop_operation_xyz
x,y,z
-x,1/2+y,-z
-x,-y,-z
x,1/2-y,z
loop_
_atom_site_type_symbol
_atom_site_label
_atom_site_fract_x
_atom_site_fract_y
_atom_site_fract_z
Si Si1 0.891958 0.001793 0.884905
Si Si2 0.319262 0.171326 0.288232
Si Si3 0.022731 0.250000 0.032472
Si Si4 0.408573 0.674742 0.186217
Si Si5 0.864753 0.378293 0.341992
Si Si6 0.439976 0.948476 0.696001
Si Si7 0.029346 0.846958 0.255119
O O1 0.962753 0.072098 0.756184
O O2 0.661598 0.008440 0.079905
O O3 0.976678 0.937163 0.727720
O O4 0.000000 0.000000 0.000000
O O5 0.390942 0.250000 0.279114
O O6 0.404918 0.107451 0.341883
O O7 0.094752 0.173421 0.493010
O O8 0.389118 0.158296 0.042798
O O9 0.962733 0.309212 0.214182
O O10 0.058379 0.309762 0.855539
O O11 0.432568 0.750000 0.250327
O O12 0.299323 0.628581 0.398332
O O13 0.252063 0.676662 0.132023
O O14 0.733727 0.402366 0.264779
O O15 0.500000 0.000000 0.500000
#
# Coordination Sequence:
#
# PCOD9164153 Si02
#       7
#     4   4   2   4   4   4   4
#     4  10  20  39  63  90 125 164 214 261 317 371
#     4  11  23  39  67  94 125 173 218 259 321 391
#     4  12  20  38  72  96 118 166 222 266 322 378
#     4  11  23  42  65  95 135 169 211 266 328 391
#     4  11  24  41  67  96 130 171 211 273 331 374
#     4  11  23  40  64  96 131 167 220 271 312 382
#     4  12  22  42  69  95 125 172 218 263 322 394
#
# _framework density 25.330883
#
# number of rings (size 3 to 8) (size 9 to 14) (size 15 to 20)
#    0.000    0.923    6.923    1.846    3.231    0.615 
#    2.769    1.538    3.385    0.000    0.000    0.000 
#    0.000    0.000    0.000    0.000    0.000    0.000 
#
# Total GULP energy -144864.105612 kJ/mol
# GULP energy per Si atom -5571.696370 kJ/mol
# Density = 2.527323 g / cm^3
# Si number density = 25.330883 Si / 1000 Ang^3
#
#
#
# Elastic Constant Matrix: (Units=GPa)
#
#
# Indices 1 2 3 4 5 6 
#
# 1 34.2215 5.2349 13.7954 0.0000 -7.7943 0.0000
# 2 5.2349 203.5260 80.9110 0.0000 -1.4113 0.0000
# 3 13.7954 80.9110 203.7953 0.0000 -7.3362 0.0000
# 4 0.0000 0.0000 0.0000 -22.2887 0.0000 102.5594
# 5 -7.7943 -1.4113 -7.3362 0.0000 38.7537 0.0000
# 6 0.0000 0.0000 0.0000 102.5594 0.0000 -109.5412
#
#
#
# Elastic Compliance Matrix: (Units=1/GPa)
#
#
# Indices 1 2 3 4 5 6 
#
# 1 0.031344 -0.000008 -0.001905 0.000000 0.005943 0.000000
# 2 -0.000008 0.005836 -0.002325 0.000000 -0.000229 0.000000
# 3 -0.001905 -0.002325 0.005983 0.000000 0.000665 0.000000
# 4 0.000000 0.000000 0.000000 0.013562 0.000000 0.012698
# 5 0.005943 -0.000229 0.000665 0.000000 0.027117 0.000000
# 6 0.000000 0.000000 0.000000 0.012698 0.000000 0.002760
#
#
# Mechanical properties :
#
#
# Convention : Reuss Voigt Hill
#
# Bulk Modulus (GPa) = 28.82813 71.26948 50.04880
# Shear Modulus (GPa) = 46.88714 4.15820 25.52267
#
# Velocity S-wave (km/s) = 4.30698 1.28262 3.17767
# Velocity P-wave (km/s) = 6.01155 5.51271 5.76753
#
# Compressibility (1/GPa) = 0.03468834
#
# Stress axis : x y z
#
# Youngs Moduli (GPa) = 31.90403 171.34400 167.14715
#
# Poissons Ratio (x) = 0.00133 0.31837
# Poissons Ratio (y) = 0.00025 0.38859
# Poissons Ratio (z) = 0.06077 0.39834
#
# Static dielectric constant tensor:
#      x y z
#    x 2.089900 0.000000 0.042140 
#    y 0.000000 2.038200 0.000000 
#    z 0.042140 0.000000 2.028460 
# 
# From -- ./inp_files/19283.got.cif
#   From: 2010.05.17/outbox.cif.g08.bks.cpg/sg11_10_cif.got.tgz:19283.got - 2010.06.03 12:22:45.
