data_PCOD9164145
_publ_section_title
;
Structure prediction by ZEFSAII (Michael W. Deem and Ramdas Pophale) SiO2 
 PCOD9164145
Probable space group: P 21/M
;
_chemical_formula_sum "Si O2"
_cell_formula_units_Z 32
_cell_length_a 12.948750
_cell_length_b 13.627790
_cell_length_c 17.778656
_cell_angle_alpha 90.000000
_cell_angle_beta 153.871323
_cell_angle_gamma 90.000000
_cell_volume 1381.618878
_symmetry_space_group_name_H-M "P 21/M"
_symmetry_group_IT_number 11
_symmetry_cell_setting 'monoclinic'
loop_
_space_group_symop_operation_xyz
x,y,z
-x,1/2+y,-z
-x,-y,-z
x,1/2-y,z
loop_
_atom_site_type_symbol
_atom_site_label
_atom_site_fract_x
_atom_site_fract_y
_atom_site_fract_z
Si Si1 0.075045 0.636702 0.521305
Si Si2 0.693473 0.366737 0.478677
Si Si3 0.120098 0.131372 0.455966
Si Si4 0.610630 0.049579 0.733564
Si Si5 0.766509 0.464324 0.679498
Si Si6 0.587582 0.638374 0.936403
Si Si7 0.787279 0.448327 0.011135
Si Si8 0.365751 0.632190 0.939692
O O1 0.000457 0.750000 0.461844
O O2 0.129206 0.601508 0.472573
O O3 0.328184 0.637021 0.729180
O O4 0.900263 0.593984 0.470271
O O5 0.651468 0.250000 0.444457
O O6 0.460454 0.433559 0.315191
O O7 0.797867 0.394072 0.628369
O O8 0.115209 0.250000 0.456611
O O9 0.354392 0.098816 0.567924
O O10 0.886774 0.101295 0.258651
O O11 0.768083 0.077348 0.765304
O O12 0.729190 0.079407 0.889017
O O13 0.500000 0.500000 0.500000
O O14 0.939743 0.557569 0.790895
O O15 0.670307 0.750000 0.989951
O O16 0.557326 0.602065 0.002859
O O17 0.743773 0.564378 0.992510
O O18 0.624437 0.399926 0.967811
O O19 0.372229 0.750000 0.941955
#
# Coordination Sequence:
#
# PCOD9164145 Si02
#       8
#     4   4   4   4   4   4   4   4
#     4   8  15  33  60  90 119 154 198 240 291 357
#     4  10  20  39  63  88 119 157 200 246 298 358
#     4   9  19  38  63  87 121 162 202 246 294 355
#     4  11  23  39  61  91 120 158 199 257 299 354
#     4  10  24  43  59  81 114 156 207 255 293 348
#     4   9  18  35  59  89 126 158 192 240 299 364
#     4  12  22  38  61  88 121 159 200 247 310 357
#     4   9  19  37  59  86 123 165 200 239 293 364
#
# _framework density 23.161235000000001
#
# number of rings (size 3 to 8) (size 9 to 14) (size 15 to 20)
#    0.000    2.250    1.250    3.750    0.000    2.000 
#    4.500    3.750    0.000    4.500    0.000    0.000 
#    0.000    0.000    0.000    0.000    0.000    0.000 
#
# Total GULP energy -178690.182411 kJ/mol
# GULP energy per Si atom -5584.068200 kJ/mol
# Density = 2.310852 g / cm^3
# Si number density = 23.161235 Si / 1000 Ang^3
#
#
#
# Elastic Constant Matrix: (Units=GPa)
#
#
# Indices 1 2 3 4 5 6 
#
# 1 200.5696 20.2461 8.1869 0.0000 -30.6231 0.0000
# 2 20.2461 45.9883 -0.4043 0.0000 -4.0034 0.0000
# 3 8.1869 -0.4043 44.4264 0.0000 -12.0524 0.0000
# 4 0.0000 0.0000 0.0000 14.4814 0.0000 -3.0996
# 5 -30.6231 -4.0034 -12.0524 0.0000 35.0387 0.0000
# 6 0.0000 0.0000 0.0000 -3.0996 0.0000 20.6151
#
#
#
# Elastic Compliance Matrix: (Units=1/GPa)
#
#
# Indices 1 2 3 4 5 6 
#
# 1 0.005967 -0.002185 0.000251 0.000000 0.005052 0.000000
# 2 -0.002185 0.022801 0.000881 0.000000 0.000999 0.000000
# 3 0.000251 0.000881 0.024879 0.000000 0.008878 0.000000
# 4 0.000000 0.000000 0.000000 0.071350 0.000000 0.010728
# 5 0.005052 0.000999 0.008878 0.000000 0.036123 0.000000
# 6 0.000000 0.000000 0.000000 0.010728 0.000000 0.050121
#
#
# Mechanical properties :
#
#
# Convention : Reuss Voigt Hill
#
# Bulk Modulus (GPa) = 19.40164 38.56020 28.98092
# Shear Modulus (GPa) = 21.68922 31.55743 26.62332
#
# Velocity S-wave (km/s) = 3.06346 3.69522 3.39407
# Velocity P-wave (km/s) = 4.57253 5.90686 5.28200
#
# Compressibility (1/GPa) = 0.05154204
#
# Stress axis : x y z
#
# Youngs Moduli (GPa) = 167.57458 43.85714 40.19397
#
# Poissons Ratio (x) = 0.09583 -0.01009
# Poissons Ratio (y) = 0.36617 -0.03541
# Poissons Ratio (z) = -0.04206 -0.03864
#
# Static dielectric constant tensor:
#      x y z
#    x 1.925120 0.000000 -0.007710 
#    y 0.000000 1.882960 0.000000 
#    z -0.007710 0.000000 1.929800 
# 
# From -- ./inp_files/59532.got.cif
#   From: 2010.05.17/outbox.cif.g08.bks.cpg/sg11_30_cif.got.tgz:59532.got - 2010.06.03 12:22:45.
