data_PCOD9164218
_publ_section_title
;
Structure prediction by ZEFSAII (Michael W. Deem and Ramdas Pophale) SiO2 
 PCOD9164218
Probable space group: P 21/M
;
_chemical_formula_sum "Si O2"
_cell_formula_units_Z 14
_cell_length_a 6.611441
_cell_length_b 11.913307
_cell_length_c 7.657967
_cell_angle_alpha 90.000000
_cell_angle_beta 115.282677
_cell_angle_gamma 90.000000
_cell_volume 545.396167
_symmetry_space_group_name_H-M "P 21/M"
_symmetry_group_IT_number 11
_symmetry_cell_setting 'monoclinic'
loop_
_space_group_symop_operation_xyz
x,y,z
-x,1/2+y,-z
-x,-y,-z
x,1/2-y,z
loop_
_atom_site_type_symbol
_atom_site_label
_atom_site_fract_x
_atom_site_fract_y
_atom_site_fract_z
Si Si1 0.567407 0.750000 0.474620
Si Si2 0.196068 0.930262 0.250961
Si Si3 0.906608 0.378868 0.169244
Si Si4 0.835151 0.750000 0.235229
Si Si5 0.548778 0.250000 0.188314
O O1 0.413767 0.859854 0.378686
O O2 0.590418 0.750000 0.689789
O O3 0.772236 0.750000 0.415736
O O4 0.195490 0.937361 0.039884
O O5 0.986136 0.855452 0.238020
O O6 0.126760 0.051919 0.298204
O O7 0.946686 0.250000 0.127714
O O8 0.714945 0.358082 0.242253
O O9 0.607088 0.750000 0.039056
#
# Coordination Sequence:
#
# PCOD9164218 Si02
#       5
#     2   4   4   2   2
#     4  11  21  41  60  90 124 155 195 245 296 352
#     4  10  20  39  67  84 119 162 195 241 304 347
#     4   9  18  41  61  88 115 162 195 246 294 351
#     4  11  20  41  59  91 118 161 194 244 296 353
#     4  10  21  38  61  89 126 150 199 247 290 355
#
# _framework density 25.669414
#
# number of rings (size 3 to 8) (size 9 to 14) (size 15 to 20)
#    0.857    1.143    5.714    0.000    0.000    2.286 
#   10.286    1.429    0.000    0.000    0.000    0.000 
#    0.000    0.000    0.000    0.000    0.000    0.000 
#
# Total GULP energy -78303.570490 kJ/mol
# GULP energy per Si atom -5593.112178 kJ/mol
# Density = 2.561099 g / cm^3
# Si number density = 25.669414 Si / 1000 Ang^3
#
#
#
# Elastic Constant Matrix: (Units=GPa)
#
#
# Indices 1 2 3 4 5 6 
#
# 1 123.3983 11.9608 31.5626 0.0000 -20.0956 0.0000
# 2 11.9608 91.4799 -1.9530 0.0000 -6.1391 0.0000
# 3 31.5626 -1.9530 78.5285 0.0000 -23.0956 0.0000
# 4 0.0000 0.0000 0.0000 20.5422 0.0000 -5.5425
# 5 -20.0956 -6.1391 -23.0956 0.0000 52.8701 0.0000
# 6 0.0000 0.0000 0.0000 -5.5425 0.0000 15.3022
#
#
#
# Elastic Compliance Matrix: (Units=1/GPa)
#
#
# Indices 1 2 3 4 5 6 
#
# 1 0.009364 -0.001156 -0.003196 0.000000 0.002029 0.000000
# 2 -0.001156 0.011198 0.001143 0.000000 0.001360 0.000000
# 3 -0.003196 0.001143 0.015753 0.000000 0.005799 0.000000
# 4 0.000000 0.000000 0.000000 0.053953 0.000000 0.019542
# 5 0.002029 0.001360 0.005799 0.000000 0.022377 0.000000
# 6 0.000000 0.000000 0.000000 0.019542 0.000000 0.072428
#
#
# Mechanical properties :
#
#
# Convention : Reuss Voigt Hill
#
# Bulk Modulus (GPa) = 33.44768 41.83860 37.64314
# Shear Modulus (GPa) = 24.81937 34.53197 29.67567
#
# Velocity S-wave (km/s) = 3.11285 3.67175 3.40379
# Velocity P-wave (km/s) = 5.09689 5.85748 5.49037
#
# Compressibility (1/GPa) = 0.02989744
#
# Stress axis : x y z
#
# Youngs Moduli (GPa) = 106.79558 89.29975 63.48117
#
# Poissons Ratio (x) = 0.10326 0.20286
# Poissons Ratio (y) = 0.12349 -0.07258
# Poissons Ratio (z) = 0.34127 -0.10210
#
# Static dielectric constant tensor:
#      x y z
#    x 1.972750 0.000000 0.054700 
#    y 0.000000 2.084470 0.000000 
#    z 0.054700 0.000000 2.017030 
# 
# From -- ./inp_files/11401.got.cif
#   From: 2010.05.17/outbox.cif.g08.bks.cpg/sg11_6_cif.got.tgz:11401.got - 2010.06.03 12:22:45.
