data_PCOD9164033
_publ_section_title
;
Structure prediction by ZEFSAII (Michael W. Deem and Ramdas Pophale) SiO2 
 PCOD9164033
Probable space group: P 21/M
;
_chemical_formula_sum "Si O2"
_cell_formula_units_Z 24
_cell_length_a 15.494899
_cell_length_b 14.755681
_cell_length_c 9.231420
_cell_angle_alpha 90.000000
_cell_angle_beta 36.716099
_cell_angle_gamma 90.000000
_cell_volume 1261.853820
_symmetry_space_group_name_H-M "P 21/M"
_symmetry_group_IT_number 11
_symmetry_cell_setting 'monoclinic'
loop_
_space_group_symop_operation_xyz
x,y,z
-x,1/2+y,-z
-x,-y,-z
x,1/2-y,z
loop_
_atom_site_type_symbol
_atom_site_label
_atom_site_fract_x
_atom_site_fract_y
_atom_site_fract_z
Si Si1 0.361936 0.642641 0.371388
Si Si2 0.183868 0.150552 0.441376
Si Si3 0.487428 0.852157 0.896590
Si Si4 0.429425 0.488554 0.753012
Si Si5 0.918432 0.028564 0.253257
Si Si6 0.106002 0.437232 0.258920
O O1 0.351324 0.750000 0.410226
O O2 0.497173 0.599424 0.272854
O O3 0.221255 0.586090 0.601859
O O4 0.381921 0.626880 0.172116
O O5 0.130277 0.250000 0.560391
O O6 0.353973 0.146834 0.246150
O O7 0.152761 0.137881 0.312830
O O8 0.120468 0.065396 0.613064
O O9 0.459110 0.750000 0.881578
O O10 0.474588 0.925983 0.790306
O O11 0.500000 0.500000 0.500000
O O12 0.255722 0.481273 0.999754
O O13 0.014315 0.085230 0.239273
O O14 0.000000 0.000000 0.000000
O O15 0.000000 0.500000 0.500000
#
# Coordination Sequence:
#
# PCOD9164033 Si02
#       6
#     4   4   4   4   4   4
#     4  11  23  41  67  92 122 168 221 265 311 380
#     4  10  20  38  64  90 120 165 216 261 307 374
#     4  10  20  38  65  92 119 164 215 262 312 370
#     4  12  23  39  64  94 129 167 209 271 321 379
#     4  11  23  41  62  94 132 170 205 258 334 386
#     4  10  22  38  60  90 125 166 210 258 314 375
#
# _framework density 19.019636999999999
#
# number of rings (size 3 to 8) (size 9 to 14) (size 15 to 20)
#    0.000    1.333    3.333    3.500    0.000    2.000 
#    0.000    5.000    0.000    0.000    0.000    0.000 
#    0.000    0.000    0.000    0.000    0.000    0.000 
#
# Total GULP energy -133897.563895 kJ/mol
# GULP energy per Si atom -5579.065162 kJ/mol
# Density = 1.897635 g / cm^3
# Si number density = 19.019637 Si / 1000 Ang^3
#
#
#
# Elastic Constant Matrix: (Units=GPa)
#
#
# Indices 1 2 3 4 5 6 
#
# 1 38.4386 11.1957 27.4617 0.0000 -11.0419 0.0000
# 2 11.1957 93.8436 47.4235 0.0000 10.3183 0.0000
# 3 27.4617 47.4235 122.9292 0.0000 2.6195 0.0000
# 4 0.0000 0.0000 0.0000 12.6823 0.0000 -1.5418
# 5 -11.0419 10.3183 2.6195 0.0000 31.9304 0.0000
# 6 0.0000 0.0000 0.0000 -1.5418 0.0000 -3.7882
#
#
#
# Elastic Compliance Matrix: (Units=1/GPa)
#
#
# Indices 1 2 3 4 5 6 
#
# 1 0.035915 -0.001971 -0.007554 0.000000 0.013677 0.000000
# 2 -0.001971 0.013839 -0.004797 0.000000 -0.004760 0.000000
# 3 -0.007554 -0.004797 0.011716 0.000000 -0.002023 0.000000
# 4 0.000000 0.000000 0.000000 0.075133 0.000000 -0.030578
# 5 0.013677 -0.004760 -0.002023 0.000000 0.037752 0.000000
# 6 0.000000 0.000000 0.000000 -0.030578 0.000000 -0.251531
#
#
# Mechanical properties :
#
#
# Convention : Reuss Voigt Hill
#
# Bulk Modulus (GPa) = 30.46406 47.48590 38.97498
# Shear Modulus (GPa) = -133.01363 19.44026 -56.78668
#
# Velocity S-wave (km/s) = -8.37178 3.20052 -5.47007
# Velocity P-wave (km/s) = 8.79756 6.21923 4.39990
#
# Compressibility (1/GPa) = 0.03282557
#
# Stress axis : x y z
#
# Youngs Moduli (GPa) = 27.84317 72.26138 85.35313
#
# Poissons Ratio (x) = 0.14243 0.64479
# Poissons Ratio (y) = 0.05488 0.40943
# Poissons Ratio (z) = 0.21034 0.34663
#
# Static dielectric constant tensor:
#      x y z
#    x 1.665500 0.000000 -0.024540 
#    y 0.000000 1.657880 0.000000 
#    z -0.024540 0.000000 1.672360 
# 
# From -- ./inp_files/22012.got.cif
#   From: 2010.05.17/outbox.cif.g08.bks.cpg/sg11_12_cif.got.tgz:22012.got - 2010.06.03 12:22:45.
