data_PCOD9164809
_publ_section_title
;
Structure prediction by ZEFSAII (Michael W. Deem and Ramdas Pophale) SiO2 
 PCOD9164809
Probable space group: P 21/M
;
_chemical_formula_sum "Si O2"
_cell_formula_units_Z 32
_cell_length_a 7.446662
_cell_length_b 7.629457
_cell_length_c 25.526368
_cell_angle_alpha 90.000000
_cell_angle_beta 120.278910
_cell_angle_gamma 90.000000
_cell_volume 1252.412745
_symmetry_space_group_name_H-M "P 21/M"
_symmetry_group_IT_number 11
_symmetry_cell_setting 'monoclinic'
loop_
_space_group_symop_operation_xyz
x,y,z
-x,1/2+y,-z
-x,-y,-z
x,1/2-y,z
loop_
_atom_site_type_symbol
_atom_site_label
_atom_site_fract_x
_atom_site_fract_y
_atom_site_fract_z
Si Si1 0.614699 0.541750 0.390490
Si Si2 0.514384 0.460102 0.735648
Si Si3 0.136055 0.962455 0.354576
Si Si4 0.739108 0.456246 0.519215
Si Si5 0.345505 0.547236 0.908924
Si Si6 0.012398 0.963263 0.225486
Si Si7 0.381293 0.040441 0.138601
Si Si8 0.944958 0.460310 0.051321
O O1 0.631705 0.750000 0.389145
O O2 0.628069 0.472103 0.333011
O O3 0.376718 0.501966 0.373294
O O4 0.759663 0.497313 0.460885
O O5 0.505202 0.250000 0.732524
O O6 0.752987 0.511284 0.757735
O O7 0.479195 0.507687 0.790438
O O8 0.110810 0.750000 0.351811
O O9 0.121274 0.029383 0.412320
O O10 0.000833 0.021044 0.284945
O O11 0.500000 0.500000 0.500000
O O12 0.762570 0.250000 0.526195
O O13 0.399026 0.750000 0.926110
O O14 0.154853 0.540729 0.838971
O O15 0.529112 0.463895 0.902169
O O16 0.259000 0.467917 0.949981
O O17 0.994128 0.750000 0.221033
O O18 0.369004 0.250000 0.130876
O O19 0.148311 0.973671 0.112288
O O20 0.000000 0.000000 0.000000
O O21 0.932330 0.250000 0.054543
#
# Coordination Sequence:
#
# PCOD9164809 Si02
#       8
#     4   4   4   4   4   4   4   4
#     4   8  14  24  37  58  91 128 167 215 266 315
#     4   9  17  30  50  75 104 138 178 224 270 319
#     4   7  12  22  36  57  89 127 166 211 261 310
#     4   9  14  21  33  53  87 128 170 217 267 318
#     4  10  21  37  56  81 112 143 177 218 263 311
#     4   9  16  29  50  74 101 137 179 221 266 317
#     4  10  21  37  57  81 111 145 178 216 263 314
#     4  10  22  40  60  83 113 145 176 214 258 306
#
# _framework density 25.550682999999999
#
# number of rings (size 3 to 8) (size 9 to 14) (size 15 to 20)
#    0.000    3.000    1.250    2.625    0.000    2.500 
#    0.000    5.625    0.000    0.000    0.000    0.875 
#    0.000    0.000    0.000    0.000    0.000    0.000 
#
# Total GULP energy -178595.338648 kJ/mol
# GULP energy per Si atom -5581.104333 kJ/mol
# Density = 2.549253 g / cm^3
# Si number density = 25.550683 Si / 1000 Ang^3
#
#
#
# Elastic Constant Matrix: (Units=GPa)
#
#
# Indices 1 2 3 4 5 6 
#
# 1 130.8340 -14.8038 42.5262 0.0000 -27.9047 0.0000
# 2 -14.8038 62.8235 -1.6101 0.0000 6.5886 0.0000
# 3 42.5262 -1.6101 159.5372 0.0000 -35.4453 0.0000
# 4 0.0000 0.0000 0.0000 27.7300 0.0000 -7.3800
# 5 -27.9047 6.5886 -35.4453 0.0000 57.0687 0.0000
# 6 0.0000 0.0000 0.0000 -7.3800 0.0000 0.4998
#
#
#
# Elastic Compliance Matrix: (Units=1/GPa)
#
#
# Indices 1 2 3 4 5 6 
#
# 1 0.009071 0.001761 -0.001694 0.000000 0.003180 0.000000
# 2 0.001761 0.016466 -0.000620 0.000000 -0.001425 0.000000
# 3 -0.001694 -0.000620 0.007593 0.000000 0.003959 0.000000
# 4 0.000000 0.000000 0.000000 -0.012308 0.000000 -0.181747
# 5 0.003180 -0.001425 0.003959 0.000000 0.021702 0.000000
# 6 0.000000 0.000000 0.000000 -0.181747 0.000000 -0.682910
#
#
# Mechanical properties :
#
#
# Convention : Reuss Voigt Hill
#
# Bulk Modulus (GPa) = 31.22578 45.04659 38.13619
# Shear Modulus (GPa) = -7.95412 38.86518 15.45553
#
# Velocity S-wave (km/s) = -1.76631 3.90436 2.46213
# Velocity P-wave (km/s) = 2.84392 6.16392 4.80009
#
# Compressibility (1/GPa) = 0.03202482
#
# Stress axis : x y z
#
# Youngs Moduli (GPa) = 110.23758 60.73097 131.69977
#
# Poissons Ratio (x) = -0.10692 0.22306
# Poissons Ratio (y) = -0.19409 0.08162
# Poissons Ratio (z) = 0.18671 0.03764
#
# Static dielectric constant tensor:
#      x y z
#    x 2.072380 0.000000 -0.023850 
#    y 0.000000 1.915750 0.000000 
#    z -0.023850 0.000000 2.108020 
# 
# From -- ./inp_files/42176.got.cif
#   From: 2010.05.17/outbox.cif.g08.bks.cpg/sg11_22_cif.got.tgz:42176.got - 2010.06.03 12:22:45.
