data_PCOD9164414
_publ_section_title
;
Structure prediction by ZEFSAII (Michael W. Deem and Ramdas Pophale) SiO2 
 PCOD9164414
Probable space group: P 21/M
;
_chemical_formula_sum "Si O2"
_cell_formula_units_Z 32
_cell_length_a 11.272758
_cell_length_b 31.189555
_cell_length_c 9.016639
_cell_angle_alpha 90.000000
_cell_angle_beta 28.750569
_cell_angle_gamma 90.000000
_cell_volume 1524.849008
_symmetry_space_group_name_H-M "P 21/M"
_symmetry_group_IT_number 11
_symmetry_cell_setting 'monoclinic'
loop_
_space_group_symop_operation_xyz
x,y,z
-x,1/2+y,-z
-x,-y,-z
x,1/2-y,z
loop_
_atom_site_type_symbol
_atom_site_label
_atom_site_fract_x
_atom_site_fract_y
_atom_site_fract_z
Si Si1 0.066407 0.116345 0.212743
Si Si2 0.570581 0.204141 0.414449
Si Si3 0.788620 0.204706 0.495184
Si Si4 0.774961 0.630158 0.269712
Si Si5 0.637275 0.836763 0.886262
Si Si6 0.968168 0.049841 0.568083
Si Si7 0.447464 0.086009 0.220456
Si Si8 0.993652 0.800191 0.259947
O O1 0.311135 0.130804 0.033944
O O2 0.918774 0.160609 0.387911
O O3 0.965481 0.077204 0.418778
O O4 0.081271 0.107929 0.021671
O O5 0.434783 0.250000 0.567152
O O6 0.748136 0.205192 0.362275
O O7 0.405699 0.163107 0.613915
O O8 0.716354 0.201387 0.098754
O O9 0.911219 0.250000 0.401698
O O10 0.531282 0.200506 0.864240
O O11 0.631537 0.596150 0.525840
O O12 0.909587 0.663049 0.234755
O O13 0.510731 0.867513 0.902956
O O14 0.878911 0.817387 0.538927
O O15 0.205620 0.065912 0.403807
O O16 0.701505 0.059912 0.932600
O O17 0.000000 0.000000 0.500000
O O18 0.914084 0.750000 0.326770
#
# Coordination Sequence:
#
# PCOD9164414 Si02
#       8
#     4   4   4   4   4   4   4   4
#     4  11  23  39  60  91 122 172 211 269 327 388
#     4  10  21  34  54  84 123 174 222 265 316 374
#     4  11  21  34  55  87 124 165 219 272 315 378
#     4  11  22  37  60  84 127 166 211 272 321 384
#     4  10  21  38  55  86 123 162 213 261 321 376
#     4  11  24  48  73 100 132 166 210 270 336 403
#     4  10  24  41  71  99 128 165 210 258 325 396
#     4  10  21  35  52  80 118 166 218 266 319 372
#
# _framework density 20.985685
#
# number of rings (size 3 to 8) (size 9 to 14) (size 15 to 20)
#    0.000    1.500    3.750    1.125    5.250    1.500 
#    0.000    3.750    0.000    0.000    0.000    0.000 
#    0.000    0.000    0.000    0.000    0.000    0.000 
#
# Total GULP energy -178391.854513 kJ/mol
# GULP energy per Si atom -5574.745454 kJ/mol
# Density = 2.093792 g / cm^3
# Si number density = 20.985685 Si / 1000 Ang^3
#
#
#
# Elastic Constant Matrix: (Units=GPa)
#
#
# Indices 1 2 3 4 5 6 
#
# 1 59.2314 27.8554 28.6144 0.0000 17.0909 0.0000
# 2 27.8554 119.6741 31.9471 0.0000 9.0644 0.0000
# 3 28.6144 31.9471 97.2302 0.0000 26.6180 0.0000
# 4 0.0000 0.0000 0.0000 34.8133 0.0000 7.0125
# 5 17.0909 9.0644 26.6180 0.0000 36.5484 0.0000
# 6 0.0000 0.0000 0.0000 7.0125 0.0000 25.4809
#
#
#
# Elastic Compliance Matrix: (Units=1/GPa)
#
#
# Indices 1 2 3 4 5 6 
#
# 1 0.022323 -0.003753 -0.003414 0.000000 -0.007021 0.000000
# 2 -0.003753 0.009791 -0.002408 0.000000 0.001081 0.000000
# 3 -0.003414 -0.002408 0.014339 0.000000 -0.008249 0.000000
# 4 0.000000 0.000000 0.000000 0.030411 0.000000 -0.008369
# 5 -0.007021 0.001081 -0.008249 0.000000 0.036384 0.000000
# 6 0.000000 0.000000 0.000000 -0.008369 0.000000 0.041548
#
#
# Mechanical properties :
#
#
# Convention : Reuss Voigt Hill
#
# Bulk Modulus (GPa) = 36.62688 50.32996 43.47842
# Shear Modulus (GPa) = 27.31525 31.88312 29.59918
#
# Velocity S-wave (km/s) = 3.61170 3.90202 3.75967
# Velocity P-wave (km/s) = 5.90624 6.65854 6.29364
#
# Compressibility (1/GPa) = 0.02730235
#
# Stress axis : x y z
#
# Youngs Moduli (GPa) = 44.79640 102.13917 69.73797
#
# Poissons Ratio (x) = 0.38330 0.23811
# Poissons Ratio (y) = 0.16811 0.16795
# Poissons Ratio (z) = 0.15295 0.24599
#
# Static dielectric constant tensor:
#      x y z
#    x 1.843670 0.000000 -0.059270 
#    y 0.000000 1.724170 0.000000 
#    z -0.059270 0.000000 1.817990 
# 
# From -- ./inp_files/19869.got.cif
#   From: 2010.05.17/outbox.cif.g08.bks.cpg/sg11_10_cif.got.tgz:19869.got - 2010.06.03 12:22:45.
