data_PCOD9164676
_publ_section_title
;
Structure prediction by ZEFSAII (Michael W. Deem and Ramdas Pophale) SiO2 
 PCOD9164676
Probable space group: P 21/M
;
_chemical_formula_sum "Si O2"
_cell_formula_units_Z 28
_cell_length_a 26.516886
_cell_length_b 8.944461
_cell_length_c 9.764184
_cell_angle_alpha 90.000000
_cell_angle_beta 37.995409
_cell_angle_gamma 90.000000
_cell_volume 1425.640700
_symmetry_space_group_name_H-M "P 21/M"
_symmetry_group_IT_number 11
_symmetry_cell_setting 'monoclinic'
loop_
_space_group_symop_operation_xyz
x,y,z
-x,1/2+y,-z
-x,-y,-z
x,1/2-y,z
loop_
_atom_site_type_symbol
_atom_site_label
_atom_site_fract_x
_atom_site_fract_y
_atom_site_fract_z
Si Si1 0.868107 0.929334 0.540976
Si Si2 0.571157 0.070691 0.254355
Si Si3 0.035657 0.929420 0.062930
Si Si4 0.254311 0.569939 0.988479
Si Si5 0.308154 0.574475 0.578460
Si Si6 0.193982 0.071746 0.629244
Si Si7 0.499136 0.925165 0.149590
O O1 0.861080 0.750000 0.564894
O O2 0.826524 0.974294 0.483568
O O3 0.965041 0.965857 0.324058
O O4 0.820658 0.003661 0.766717
O O5 0.564337 0.250000 0.273408
O O6 0.660562 0.028153 0.119039
O O7 0.500000 0.000000 0.500000
O O8 0.556530 0.009905 0.133483
O O9 0.040698 0.750000 0.041582
O O10 0.125556 0.998677 0.875353
O O11 0.000000 0.000000 0.000000
O O12 0.249266 0.750000 0.999507
O O13 0.262024 0.521892 0.814182
O O14 0.290256 0.750000 0.593474
O O15 0.279573 0.484225 0.506653
O O16 0.404725 0.562825 0.400688
O O17 0.187534 0.250000 0.648248
O O18 0.520321 0.750000 0.097547
O O19 0.500000 0.000000 0.000000
#
# Coordination Sequence:
#
# PCOD9164676 Si02
#       7
#     4   4   4   4   4   4   4
#     4   9  20  36  56  86 116 143 185 235 279 331
#     4  11  22  40  62  86 114 154 198 239 289 346
#     4   9  17  33  56  83 115 149 186 231 282 335
#     4  10  22  39  58  82 113 150 192 231 281 342
#     4  10  22  41  58  79 115 153 188 233 287 340
#     4  10  21  36  57  87 116 147 190 235 283 339
#     4  11  24  42  61  86 118 152 194 244 293 347
#
# _framework density 19.640291000000001
#
# number of rings (size 3 to 8) (size 9 to 14) (size 15 to 20)
#    0.000    2.000    1.429    2.571    2.000    6.286 
#    0.000    0.714    0.000    0.000    0.000    0.000 
#    0.000    0.000    0.000    0.000    0.000    0.000 
#
# Total GULP energy -156315.863961 kJ/mol
# GULP energy per Si atom -5582.709427 kJ/mol
# Density = 1.959559 g / cm^3
# Si number density = 19.640291 Si / 1000 Ang^3
#
#
#
# Elastic Constant Matrix: (Units=GPa)
#
#
# Indices 1 2 3 4 5 6 
#
# 1 41.3001 4.8153 -18.4913 0.0000 10.6412 0.0000
# 2 4.8153 40.9110 13.4912 0.0000 2.2090 0.0000
# 3 -18.4913 13.4912 73.2830 0.0000 16.5172 0.0000
# 4 0.0000 0.0000 0.0000 34.4556 0.0000 -0.7648
# 5 10.6412 2.2090 16.5172 0.0000 26.0404 0.0000
# 6 0.0000 0.0000 0.0000 -0.7648 0.0000 29.2720
#
#
#
# Elastic Compliance Matrix: (Units=1/GPa)
#
#
# Indices 1 2 3 4 5 6 
#
# 1 0.040316 -0.009210 0.017975 0.000000 -0.027095 0.000000
# 2 -0.009210 0.028148 -0.009120 0.000000 0.007160 0.000000
# 3 0.017975 -0.009120 0.024902 0.000000 -0.022367 0.000000
# 4 0.000000 0.000000 0.000000 0.029040 0.000000 0.000759
# 5 -0.027095 0.007160 -0.022367 0.000000 0.063054 0.000000
# 6 0.000000 0.000000 0.000000 0.000759 0.000000 0.034182
#
#
# Mechanical properties :
#
#
# Convention : Reuss Voigt Hill
#
# Bulk Modulus (GPa) = 10.79247 17.23605 14.01426
# Shear Modulus (GPa) = 19.90157 28.33220 24.11689
#
# Velocity S-wave (km/s) = 3.18670 3.80222 3.50798
# Velocity P-wave (km/s) = 4.36429 5.29818 4.85375
#
# Compressibility (1/GPa) = 0.09265720
#
# Stress axis : x y z
#
# Youngs Moduli (GPa) = 24.80385 35.52627 40.15806
#
# Poissons Ratio (x) = 0.32720 -0.72186
# Poissons Ratio (y) = 0.22845 0.36624
# Poissons Ratio (z) = -0.44586 0.32399
#
# Static dielectric constant tensor:
#      x y z
#    x 1.025190 0.000000 0.094440 
#    y 0.000000 1.651680 0.000000 
#    z 0.094440 0.000000 1.707680 
# 
# From -- ./inp_files/28232.got.cif
#   From: 2010.05.17/outbox.cif.g08.bks.cpg/sg11_15_cif.got.tgz:28232.got - 2010.06.03 12:22:45.
