data_PCOD9164501
_publ_section_title
;
Structure prediction by ZEFSAII (Michael W. Deem and Ramdas Pophale) SiO2 
 PCOD9164501
Probable space group: P 21/M
;
_chemical_formula_sum "Si O2"
_cell_formula_units_Z 26
_cell_length_a 12.060641
_cell_length_b 16.442103
_cell_length_c 7.222568
_cell_angle_alpha 90.000000
_cell_angle_beta 59.850444
_cell_angle_gamma 90.000000
_cell_volume 1238.493006
_symmetry_space_group_name_H-M "P 21/M"
_symmetry_group_IT_number 11
_symmetry_cell_setting 'monoclinic'
loop_
_space_group_symop_operation_xyz
x,y,z
-x,1/2+y,-z
-x,-y,-z
x,1/2-y,z
loop_
_atom_site_type_symbol
_atom_site_label
_atom_site_fract_x
_atom_site_fract_y
_atom_site_fract_z
Si Si1 0.957733 0.920736 0.784794
Si Si2 0.651542 0.484189 0.377713
Si Si3 0.890334 0.579386 0.278088
Si Si4 0.588909 0.099263 0.767105
Si Si5 0.982251 0.250000 0.794635
Si Si6 0.679944 0.535732 0.961120
Si Si7 0.731013 0.250000 0.751327
Si Si8 0.082957 0.750000 0.712297
O O1 0.020954 0.834206 0.690567
O O2 0.935789 0.920657 0.025304
O O3 0.040600 0.002403 0.681173
O O4 0.817982 0.926493 0.810751
O O5 0.500000 0.500000 0.500000
O O6 0.740098 0.556038 0.387616
O O7 0.656547 0.407607 0.509953
O O8 0.695553 0.477339 0.128683
O O9 0.934979 0.667773 0.309878
O O10 0.643959 0.171099 0.842551
O O11 0.434219 0.097922 0.889268
O O12 0.630531 0.016071 0.831856
O O13 0.854562 0.250000 0.777943
O O14 0.935983 0.250000 0.049731
O O15 0.779591 0.250000 0.498309
#
# Coordination Sequence:
#
# PCOD9164501 Si02
#       8
#     4   4   4   4   2   4   2   2
#     4   9  17  32  56  79 105 142 180 225 278 328
#     4   9  18  35  57  80 108 143 183 228 276 331
#     4   9  17  32  56  81 106 144 187 223 274 336
#     4  10  21  35  55  80 110 145 185 227 274 335
#     4  10  22  38  54  80 118 149 183 235 279 328
#     4   9  19  37  57  78 105 145 187 226 277 330
#     4  12  24  35  53  85 113 143 185 227 275 336
#     4  10  22  37  53  81 113 140 180 232 282 336
#
# _framework density 20.993254
#
# number of rings (size 3 to 8) (size 9 to 14) (size 15 to 20)
#    0.000    2.462    0.000    1.846    0.000    5.538 
#    0.000    7.692    0.000    7.385    0.000    2.154 
#    0.000    0.000    0.000    0.000    0.000    0.000 
#
# Total GULP energy -144916.800226 kJ/mol
# GULP energy per Si atom -5573.723086 kJ/mol
# Density = 2.094547 g / cm^3
# Si number density = 20.993254 Si / 1000 Ang^3
#
#
#
# Elastic Constant Matrix: (Units=GPa)
#
#
# Indices 1 2 3 4 5 6 
#
# 1 126.5260 63.2912 13.4346 0.0000 -15.5633 0.0000
# 2 63.2912 130.7653 16.9117 0.0000 -23.8898 0.0000
# 3 13.4346 16.9117 53.2304 0.0000 1.7745 0.0000
# 4 0.0000 0.0000 0.0000 8.9982 0.0000 -10.4460
# 5 -15.5633 -23.8898 1.7745 0.0000 26.5001 0.0000
# 6 0.0000 0.0000 0.0000 -10.4460 0.0000 26.1827
#
#
#
# Elastic Compliance Matrix: (Units=1/GPa)
#
#
# Indices 1 2 3 4 5 6 
#
# 1 0.010591 -0.004556 -0.001299 0.000000 0.002199 0.000000
# 2 -0.004556 0.011690 -0.002832 0.000000 0.008052 0.000000
# 3 -0.001299 -0.002832 0.020170 0.000000 -0.004667 0.000000
# 4 0.000000 0.000000 0.000000 0.207014 0.000000 0.082591
# 5 0.002199 0.008052 -0.004667 0.000000 0.046599 0.000000
# 6 0.000000 0.000000 0.000000 0.082591 0.000000 0.071144
#
#
# Mechanical properties :
#
#
# Convention : Reuss Voigt Hill
#
# Bulk Modulus (GPa) = 39.87971 55.31075 47.59523
# Shear Modulus (GPa) = 12.72453 26.79514 19.75983
#
# Velocity S-wave (km/s) = 2.46463 3.57651 3.07130
# Velocity P-wave (km/s) = 5.20931 6.59237 5.94122
#
# Compressibility (1/GPa) = 0.02507541
#
# Stress axis : x y z
#
# Youngs Moduli (GPa) = 94.41817 85.54299 49.57979
#
# Poissons Ratio (x) = 0.38977 0.06439
# Poissons Ratio (y) = 0.43021 0.14043
# Poissons Ratio (z) = 0.12263 0.24230
#
# Static dielectric constant tensor:
#      x y z
#    x 1.763140 0.000000 0.029120 
#    y 0.000000 1.756840 0.000000 
#    z 0.029120 0.000000 1.815900 
# 
# From -- ./inp_files/17659.got.cif
#   From: 2010.05.17/outbox.cif.g08.bks.cpg/sg11_9_cif.got.tgz:17659.got - 2010.06.03 12:22:45.
