data_PCOD9164780
_publ_section_title
;
Structure prediction by ZEFSAII (Michael W. Deem and Ramdas Pophale) SiO2 
 PCOD9164780
Probable space group: P 21/M
;
_chemical_formula_sum "Si O2"
_cell_formula_units_Z 32
_cell_length_a 28.373503
_cell_length_b 8.512951
_cell_length_c 16.070698
_cell_angle_alpha 90.000000
_cell_angle_beta 151.883198
_cell_angle_gamma 90.000000
_cell_volume 1829.355571
_symmetry_space_group_name_H-M "P 21/M"
_symmetry_group_IT_number 11
_symmetry_cell_setting 'monoclinic'
loop_
_space_group_symop_operation_xyz
x,y,z
-x,1/2+y,-z
-x,-y,-z
x,1/2-y,z
loop_
_atom_site_type_symbol
_atom_site_label
_atom_site_fract_x
_atom_site_fract_y
_atom_site_fract_z
Si Si1 0.424882 0.558926 0.200114
Si Si2 0.353303 0.437265 0.441725
Si Si3 0.116511 0.559342 0.794849
Si Si4 0.773338 0.439835 0.199844
Si Si5 0.091175 0.437797 0.450849
Si Si6 0.147021 0.937506 0.185912
Si Si7 0.682896 0.060219 0.798011
Si Si8 0.043806 0.937631 0.196966
O O1 0.424843 0.750000 0.199164
O O2 0.537405 0.506030 0.358349
O O3 0.389456 0.514999 0.238143
O O4 0.337659 0.508840 0.001021
O O5 0.348539 0.250000 0.443923
O O6 0.259257 0.511598 0.341835
O O7 0.344099 0.480308 0.330140
O O8 0.113659 0.750000 0.788119
O O9 0.152282 0.507436 0.759136
O O10 0.009305 0.502312 0.658588
O O11 0.205174 0.518507 0.997078
O O12 0.774224 0.250000 0.202417
O O13 0.814328 0.502075 0.350269
O O14 0.089748 0.250000 0.450408
O O15 0.084629 0.493356 0.345987
O O16 0.139255 0.750000 0.169023
O O17 0.108215 0.988816 0.216589
O O18 0.069350 0.007960 0.998216
O O19 0.678778 0.250000 0.781851
O O20 0.046224 0.750000 0.205047
#
# Coordination Sequence:
#
# PCOD9164780 Si02
#       8
#     4   4   4   4   4   4   4   4
#     4   8  17  32  49  69  97 135 175 213 248 285
#     4  11  20  30  48  75 102 130 168 208 249 297
#     4   8  16  29  46  68  97 133 166 197 236 286
#     4   9  17  33  51  66  93 135 176 207 239 281
#     4  11  20  30  48  76 105 130 161 202 248 294
#     4  10  21  37  55  76 102 129 158 197 246 296
#     4   9  16  30  49  69  98 136 172 204 245 292
#     4  10  21  37  56  77 100 128 161 196 240 297
#
# _framework density 17.492498000000001
#
# number of rings (size 3 to 8) (size 9 to 14) (size 15 to 20)
#    0.000    2.500    0.000    4.500    0.000    2.500 
#    0.000    5.625    0.000    0.750    0.000    0.000 
#    0.000    0.000    0.000    0.000    0.000    0.000 
#
# Total GULP energy -178551.410316 kJ/mol
# GULP energy per Si atom -5579.731572 kJ/mol
# Density = 1.745268 g / cm^3
# Si number density = 17.492498 Si / 1000 Ang^3
#
#
#
# Elastic Constant Matrix: (Units=GPa)
#
#
# Indices 1 2 3 4 5 6 
#
# 1 73.4735 13.9440 74.8761 0.0000 0.5140 0.0000
# 2 13.9440 19.0683 16.7726 0.0000 -3.0472 0.0000
# 3 74.8761 16.7726 124.1313 0.0000 -3.0983 0.0000
# 4 0.0000 0.0000 0.0000 21.2216 0.0000 -4.0979
# 5 0.5140 -3.0472 -3.0983 0.0000 31.8954 0.0000
# 6 0.0000 0.0000 0.0000 -4.0979 0.0000 22.7817
#
#
#
# Elastic Compliance Matrix: (Units=1/GPa)
#
#
# Indices 1 2 3 4 5 6 
#
# 1 0.036828 -0.008935 -0.021094 0.000000 -0.003496 0.000000
# 2 -0.008935 0.062464 -0.002905 0.000000 0.005829 0.000000
# 3 -0.021094 -0.002905 0.021226 0.000000 0.002124 0.000000
# 4 0.000000 0.000000 0.000000 0.048817 0.000000 0.008781
# 5 -0.003496 0.005829 0.002124 0.000000 0.032172 0.000000
# 6 0.000000 0.000000 0.000000 0.008781 0.000000 0.045474
#
#
# Mechanical properties :
#
#
# Convention : Reuss Voigt Hill
#
# Bulk Modulus (GPa) = 18.29877 47.53982 32.91930
# Shear Modulus (GPa) = 15.10273 22.58510 18.84391
#
# Velocity S-wave (km/s) = 2.94153 3.59713 3.28572
# Velocity P-wave (km/s) = 4.69259 6.66999 5.76668
#
# Compressibility (1/GPa) = 0.05464849
#
# Stress axis : x y z
#
# Youngs Moduli (GPa) = 27.15352 16.00927 47.11263
#
# Poissons Ratio (x) = 0.14304 0.99382
# Poissons Ratio (y) = 0.24261 0.13687
# Poissons Ratio (z) = 0.57279 0.04651
#
# Static dielectric constant tensor:
#      x y z
#    x 1.589940 0.000000 0.014660 
#    y 0.000000 1.593400 0.000000 
#    z 0.014660 0.000000 1.596440 
# 
# From -- ./inp_files/56154.got.cif
#   From: 2010.05.17/outbox.cif.g08.bks.cpg/sg11_29_cif.got.tgz:56154.got - 2010.06.03 12:22:45.
