data_PCOD9164387
_publ_section_title
;
Structure prediction by ZEFSAII (Michael W. Deem and Ramdas Pophale) SiO2 
 PCOD9164387
Probable space group: P 21/M
;
_chemical_formula_sum "Si O2"
_cell_formula_units_Z 30
_cell_length_a 14.553860
_cell_length_b 9.714285
_cell_length_c 11.737667
_cell_angle_alpha 90.000000
_cell_angle_beta 82.239305
_cell_angle_gamma 90.000000
_cell_volume 1644.275778
_symmetry_space_group_name_H-M "P 21/M"
_symmetry_group_IT_number 11
_symmetry_cell_setting 'monoclinic'
loop_
_space_group_symop_operation_xyz
x,y,z
-x,1/2+y,-z
-x,-y,-z
x,1/2-y,z
loop_
_atom_site_type_symbol
_atom_site_label
_atom_site_fract_x
_atom_site_fract_y
_atom_site_fract_z
Si Si1 0.275273 0.087521 0.846695
Si Si2 0.869517 0.911560 0.321255
Si Si3 0.560543 0.492520 0.336592
Si Si4 0.515892 0.250000 0.508824
Si Si5 0.228349 0.411489 0.107925
Si Si6 0.638277 0.910585 0.699566
Si Si7 0.781781 0.087514 0.535481
Si Si8 0.085719 0.910871 0.269512
O O1 0.300437 0.250000 0.845790
O O2 0.179824 0.076031 0.792387
O O3 0.353569 0.010382 0.761906
O O4 0.261679 0.040590 0.978607
O O5 0.861602 0.750000 0.358408
O O6 0.977918 0.947443 0.297691
O O7 0.816574 0.009465 0.418133
O O8 0.568867 0.369888 0.424871
O O9 0.540473 0.630280 0.410241
O O10 0.467278 0.457964 0.281060
O O11 0.203155 0.250000 0.103526
O O12 0.309901 0.421439 0.188425
O O13 0.142493 0.497199 0.171319
O O14 0.640106 0.750000 0.660502
O O15 0.694490 0.007279 0.603557
O O16 0.762826 0.250000 0.523562
O O17 0.862703 0.074443 0.617581
O O18 0.091787 0.750000 0.236058
#
# Coordination Sequence:
#
# PCOD9164387 Si02
#       8
#     4   4   4   2   4   4   4   4
#     4  10  22  39  57  82 110 148 187 230 276 325
#     4  10  21  35  57  81 114 149 182 222 285 340
#     4  11  22  38  58  84 117 151 182 226 274 331
#     4  10  24  36  58  84 118 150 178 226 276 336
#     4   9  20  40  61  78 107 145 193 232 270 330
#     4  10  21  37  58  81 107 152 189 224 278 333
#     4  10  21  33  55  85 116 142 184 230 275 331
#     4   9  19  38  56  82 113 146 180 230 282 328
#
# _framework density 18.245114000000001
#
# number of rings (size 3 to 8) (size 9 to 14) (size 15 to 20)
#    0.000    2.133    1.333    0.800    4.667    2.133 
#    1.200    0.000    0.000    0.000    0.000    0.000 
#    0.000    0.000    0.000    0.000    0.000    0.000 
#
# Total GULP energy -167009.648392 kJ/mol
# GULP energy per Si atom -5566.988280 kJ/mol
# Density = 1.820359 g / cm^3
# Si number density = 18.245114 Si / 1000 Ang^3
#
#
#
# Elastic Constant Matrix: (Units=GPa)
#
#
# Indices 1 2 3 4 5 6 
#
# 1 73.8600 18.5305 9.6415 0.0000 -1.0375 0.0000
# 2 18.5305 100.6695 48.2272 0.0000 4.9452 0.0000
# 3 9.6415 48.2272 96.6346 0.0000 -5.2981 0.0000
# 4 0.0000 0.0000 0.0000 23.7828 0.0000 -4.7734
# 5 -1.0375 4.9452 -5.2981 0.0000 6.1719 0.0000
# 6 0.0000 0.0000 0.0000 -4.7734 0.0000 16.6893
#
#
#
# Elastic Compliance Matrix: (Units=1/GPa)
#
#
# Indices 1 2 3 4 5 6 
#
# 1 0.014335 -0.003084 0.000395 0.000000 0.005220 0.000000
# 2 -0.003084 0.015632 -0.008614 0.000000 -0.020438 0.000000
# 3 0.000395 -0.008614 0.015730 0.000000 0.020472 0.000000
# 4 0.000000 0.000000 0.000000 0.044608 0.000000 0.012759
# 5 0.005220 -0.020438 0.020472 0.000000 0.196851 0.000000
# 6 0.000000 0.000000 0.000000 0.012759 0.000000 0.063568
#
#
# Mechanical properties :
#
#
# Convention : Reuss Voigt Hill
#
# Bulk Modulus (GPa) = 43.30819 47.10695 45.20757
# Shear Modulus (GPa) = 13.12241 22.31313 17.71777
#
# Velocity S-wave (km/s) = 2.68475 3.50089 3.11962
# Velocity P-wave (km/s) = 5.77918 6.49743 6.14880
#
# Compressibility (1/GPa) = 0.02309032
#
# Stress axis : x y z
#
# Youngs Moduli (GPa) = 69.76073 63.97124 63.57164
#
# Poissons Ratio (x) = 0.19732 -0.02513
# Poissons Ratio (y) = 0.21518 0.54762
# Poissons Ratio (z) = -0.02758 0.55106
#
# Static dielectric constant tensor:
#      x y z
#    x 1.651960 0.000000 0.035740 
#    y 0.000000 1.616390 0.000000 
#    z 0.035740 0.000000 1.596430 
# 
# From -- ./inp_files/38040.got.cif
#   From: 2010.05.17/outbox.cif.g08.bks.cpg/sg11_20_cif.got.tgz:38040.got - 2010.06.03 12:22:45.
