data_PCOD9164231
_publ_section_title
;
Structure prediction by ZEFSAII (Michael W. Deem and Ramdas Pophale) SiO2 
 PCOD9164231
Probable space group: P 21/M
;
_chemical_formula_sum "Si O2"
_cell_formula_units_Z 24
_cell_length_a 5.161585
_cell_length_b 12.725593
_cell_length_c 18.081639
_cell_angle_alpha 90.000000
_cell_angle_beta 62.842377
_cell_angle_gamma 90.000000
_cell_volume 1056.741973
_symmetry_space_group_name_H-M "P 21/M"
_symmetry_group_IT_number 11
_symmetry_cell_setting 'monoclinic'
loop_
_space_group_symop_operation_xyz
x,y,z
-x,1/2+y,-z
-x,-y,-z
x,1/2-y,z
loop_
_atom_site_type_symbol
_atom_site_label
_atom_site_fract_x
_atom_site_fract_y
_atom_site_fract_z
Si Si1 0.136262 0.417540 0.089514
Si Si2 0.781789 0.137626 0.991708
Si Si3 0.183123 0.629662 0.261920
Si Si4 0.089293 0.050410 0.564964
Si Si5 0.412143 0.627956 0.597868
Si Si6 0.320436 0.504666 0.749282
O O1 0.451300 0.370824 0.064767
O O2 0.006264 0.373967 0.029884
O O3 0.892307 0.411965 0.183561
O O4 0.180107 0.541741 0.068785
O O5 0.823037 0.250000 0.949692
O O6 0.239756 0.750000 0.233208
O O7 0.463775 0.552946 0.220921
O O8 0.114047 0.623337 0.359278
O O9 0.896990 0.582250 0.258856
O O10 0.369198 0.115961 0.500395
O O11 0.154599 0.948684 0.606451
O O12 0.000000 0.000000 0.500000
O O13 0.349415 0.750000 0.617814
O O14 0.496691 0.568831 0.663303
#
# Coordination Sequence:
#
# PCOD9164231 Si02
#       6
#     4   4   4   4   4   4
#     4  10  22  40  62  91 126 156 193 254 292 347
#     4  10  21  39  64  91 119 160 202 236 295 360
#     4  11  23  39  62  87 119 162 202 247 300 352
#     4  10  20  40  56  82 116 154 206 255 290 354
#     4  10  22  37  58  84 116 159 201 247 303 353
#     4  11  23  42  59  90 127 152 199 247 299 359
#
# _framework density 22.711316
#
# number of rings (size 3 to 8) (size 9 to 14) (size 15 to 20)
#    0.000    1.667    1.667    2.500    0.000    4.000 
#    0.000    0.000    0.000    0.000    0.000    0.000 
#    0.000    0.000    0.000    0.000    0.000    0.000 
#
# Total GULP energy -133901.179898 kJ/mol
# GULP energy per Si atom -5579.215829 kJ/mol
# Density = 2.265962 g / cm^3
# Si number density = 22.711316 Si / 1000 Ang^3
#
#
#
# Elastic Constant Matrix: (Units=GPa)
#
#
# Indices 1 2 3 4 5 6 
#
# 1 62.2917 16.8599 -6.6638 0.0000 -13.2326 0.0000
# 2 16.8599 149.0952 -6.2930 0.0000 7.9377 0.0000
# 3 -6.6638 -6.2930 49.0437 0.0000 -9.2196 0.0000
# 4 0.0000 0.0000 0.0000 -3.5932 0.0000 -0.8738
# 5 -13.2326 7.9377 -9.2196 0.0000 26.2263 0.0000
# 6 0.0000 0.0000 0.0000 -0.8738 0.0000 -7.1838
#
#
#
# Elastic Compliance Matrix: (Units=1/GPa)
#
#
# Indices 1 2 3 4 5 6 
#
# 1 0.019965 -0.002727 0.004724 0.000000 0.012559 0.000000
# 2 -0.002727 0.007202 -0.000123 0.000000 -0.003599 0.000000
# 3 0.004724 -0.000123 0.022990 0.000000 0.010503 0.000000
# 4 0.000000 0.000000 0.000000 -0.286785 0.000000 0.034881
# 5 0.012559 -0.003599 0.010503 0.000000 0.049248 0.000000
# 6 0.000000 0.000000 0.000000 0.034881 0.000000 -0.143444
#
#
# Mechanical properties :
#
#
# Convention : Reuss Voigt Hill
#
# Bulk Modulus (GPa) = 18.55112 29.80408 24.17760
# Shear Modulus (GPa) = -15.79262 20.19169 2.19953
#
# Velocity S-wave (km/s) = -2.63984 2.98494 0.98518
# Velocity P-wave (km/s) = 1.05152 5.00313 3.45873
#
# Compressibility (1/GPa) = 0.05390511
#
# Stress axis : x y z
#
# Youngs Moduli (GPa) = 50.08794 138.85232 43.49637
#
# Poissons Ratio (x) = 0.37864 -0.20547
# Poissons Ratio (y) = 0.13659 0.00535
# Poissons Ratio (z) = -0.23661 0.01707
#
# Static dielectric constant tensor:
#      x y z
#    x 1.922730 0.000000 -0.009140 
#    y 0.000000 1.904190 0.000000 
#    z -0.009140 0.000000 1.944790 
# 
# From -- ./inp_files/56774.got.cif
#   From: 2010.05.17/outbox.cif.g08.bks.cpg/sg11_29_cif.got.tgz:56774.got - 2010.06.03 12:22:45.
