data_PCOD9164308
_publ_section_title
;
Structure prediction by ZEFSAII (Michael W. Deem and Ramdas Pophale) SiO2 
 PCOD9164308
Probable space group: P 21/M
;
_chemical_formula_sum "Si O2"
_cell_formula_units_Z 24
_cell_length_a 8.965243
_cell_length_b 15.045235
_cell_length_c 14.869611
_cell_angle_alpha 90.000000
_cell_angle_beta 140.348840
_cell_angle_gamma 90.000000
_cell_volume 1279.845010
_symmetry_space_group_name_H-M "P 21/M"
_symmetry_group_IT_number 11
_symmetry_cell_setting 'monoclinic'
loop_
_space_group_symop_operation_xyz
x,y,z
-x,1/2+y,-z
-x,-y,-z
x,1/2-y,z
loop_
_atom_site_type_symbol
_atom_site_label
_atom_site_fract_x
_atom_site_fract_y
_atom_site_fract_z
Si Si1 0.065612 0.250000 0.948224
Si Si2 0.620176 0.250000 0.201039
Si Si3 0.997391 0.565387 0.079176
Si Si4 0.470959 0.945008 0.894841
Si Si5 0.235910 0.750000 0.364579
Si Si6 0.226324 0.060552 0.624195
Si Si7 0.567099 0.066278 0.609299
Si Si8 0.980661 0.250000 0.537473
O O1 0.938995 0.163160 0.925920
O O2 0.993829 0.250000 0.808233
O O3 0.341986 0.250000 0.097387
O O4 0.650047 0.346086 0.163888
O O5 0.792831 0.250000 0.367559
O O6 0.180203 0.536323 0.237692
O O7 0.738656 0.574418 0.994981
O O8 0.000000 0.500000 0.000000
O O9 0.358463 0.009697 0.767110
O O10 0.500000 0.000000 0.000000
O O11 0.387816 0.664004 0.409652
O O12 0.154244 0.750000 0.429625
O O13 0.390412 0.064236 0.611666
O O14 0.136095 0.160152 0.604176
O O15 0.000000 0.000000 0.500000
O O16 0.500000 0.000000 0.500000
#
# Coordination Sequence:
#
# PCOD9164308 Si02
#       8
#     2   2   4   4   2   4   4   2
#     4   8  20  35  63  85 124 154 221 264 318 387
#     4  10  22  43  62  91 131 170 217 270 331 399
#     4  10  20  41  62  90 121 171 214 269 328 379
#     4  11  25  42  69  96 133 173 230 277 336 401
#     4  10  23  43  65  96 125 180 222 268 337 399
#     4  12  25  42  65 102 137 176 223 281 338 396
#     4  11  24  41  66  93 135 171 225 273 329 401
#     4  12  25  39  70  96 142 176 222 274 350 401
#
# _framework density 18.752269999999999
#
# number of rings (size 3 to 8) (size 9 to 14) (size 15 to 20)
#    0.000    1.333    3.333    1.500    9.333    0.000 
#    0.000    0.833    0.000    0.000    0.000    0.000 
#    0.000    0.000    0.000    0.000    0.000    0.000 
#
# Total GULP energy -133752.238533 kJ/mol
# GULP energy per Si atom -5573.009939 kJ/mol
# Density = 1.870959 g / cm^3
# Si number density = 18.752270 Si / 1000 Ang^3
#
#
#
# Elastic Constant Matrix: (Units=GPa)
#
#
# Indices 1 2 3 4 5 6 
#
# 1 96.1067 64.0262 46.2745 0.0000 -17.6861 0.0000
# 2 64.0262 180.6950 91.9973 0.0000 -27.6524 0.0000
# 3 46.2745 91.9973 148.6447 0.0000 -8.7518 0.0000
# 4 0.0000 0.0000 0.0000 35.8045 0.0000 1.4963
# 5 -17.6861 -27.6524 -8.7518 0.0000 30.9203 0.0000
# 6 0.0000 0.0000 0.0000 1.4963 0.0000 29.1905
#
#
#
# Elastic Compliance Matrix: (Units=1/GPa)
#
#
# Indices 1 2 3 4 5 6 
#
# 1 0.014539 -0.003306 -0.002201 0.000000 0.004736 0.000000
# 2 -0.003306 0.010055 -0.004856 0.000000 0.005726 0.000000
# 3 -0.002201 -0.004856 0.010259 0.000000 -0.002698 0.000000
# 4 0.000000 0.000000 0.000000 0.027989 0.000000 -0.001435
# 5 0.004736 0.005726 -0.002698 0.000000 0.039408 0.000000
# 6 0.000000 0.000000 0.000000 -0.001435 0.000000 0.034331
#
#
# Mechanical properties :
#
#
# Convention : Reuss Voigt Hill
#
# Bulk Modulus (GPa) = 70.79288 92.22694 81.50991
# Shear Modulus (GPa) = 30.86085 34.05961 32.46023
#
# Velocity S-wave (km/s) = 4.06114 4.26642 4.16505
# Velocity P-wave (km/s) = 7.73460 8.57661 8.16647
#
# Compressibility (1/GPa) = 0.01412571
#
# Stress axis : x y z
#
# Youngs Moduli (GPa) = 68.77994 99.45738 97.47093
#
# Poissons Ratio (x) = 0.32883 0.21454
# Poissons Ratio (y) = 0.22740 0.47336
# Poissons Ratio (z) = 0.15139 0.48301
#
# Static dielectric constant tensor:
#      x y z
#    x 1.558680 0.000000 0.066050 
#    y 0.000000 1.757530 0.000000 
#    z 0.066050 0.000000 1.607630 
# 
# From -- ./inp_files/12654.got.cif
#   From: 2010.05.17/outbox.cif.g08.bks.cpg/sg11_7_cif.got.tgz:12654.got - 2010.06.03 12:22:45.
