data_PCOD9164532
_publ_section_title
;
Structure prediction by ZEFSAII (Michael W. Deem and Ramdas Pophale) SiO2 
 PCOD9164532
Probable space group: P 21/M
;
_chemical_formula_sum "Si O2"
_cell_formula_units_Z 28
_cell_length_a 15.404867
_cell_length_b 17.037197
_cell_length_c 5.204271
_cell_angle_alpha 90.000000
_cell_angle_beta 110.952423
_cell_angle_gamma 90.000000
_cell_volume 1275.575002
_symmetry_space_group_name_H-M "P 21/M"
_symmetry_group_IT_number 11
_symmetry_cell_setting 'monoclinic'
loop_
_space_group_symop_operation_xyz
x,y,z
-x,1/2+y,-z
-x,-y,-z
x,1/2-y,z
loop_
_atom_site_type_symbol
_atom_site_label
_atom_site_fract_x
_atom_site_fract_y
_atom_site_fract_z
Si Si1 0.871451 0.080760 0.964228
Si Si2 0.205544 0.660519 0.616094
Si Si3 0.182995 0.161960 0.693706
Si Si4 0.385781 0.585506 0.970909
Si Si5 0.435721 0.449351 0.624866
Si Si6 0.270988 0.039952 0.127964
Si Si7 0.059190 0.339645 0.065195
O O1 0.820502 0.133766 0.696317
O O2 0.827657 0.994246 0.881544
O O3 0.848007 0.107817 0.229805
O O4 0.979134 0.097209 0.027591
O O5 0.179131 0.750000 0.630410
O O6 0.315660 0.647948 0.778675
O O7 0.223467 0.250000 0.754326
O O8 0.138718 0.152787 0.366704
O O9 0.251740 0.094033 0.861674
O O10 0.101798 0.157926 0.824807
O O11 0.402883 0.514022 0.793392
O O12 0.488448 0.609552 0.172152
O O13 0.325594 0.541073 0.124935
O O14 0.500000 0.500000 0.500000
O O15 0.343717 0.416778 0.391087
O O16 0.020745 0.250000 0.059153
#
# Coordination Sequence:
#
# PCOD9164532 Si02
#       7
#     4   4   4   4   4   4   4
#     4  11  22  36  58  86 112 152 193 230 286 334
#     4  11  21  35  56  87 120 148 185 234 282 338
#     4  10  23  39  58  81 113 154 192 236 286 329
#     4   9  19  34  57  83 111 150 186 223 282 338
#     4   9  17  35  57  80 110 145 185 224 279 338
#     4  10  21  35  59  84 114 144 194 240 275 336
#     4  10  21  38  55  78 114 153 190 231 287 341
#
# _framework density 21.950886000000001
#
# number of rings (size 3 to 8) (size 9 to 14) (size 15 to 20)
#    0.000    2.000    1.429    2.143    2.000    2.286 
#    0.000    0.714    0.000    7.714    0.000    0.000 
#    0.000    0.000    0.000    0.000    0.000    0.000 
#
# Total GULP energy -156202.125019 kJ/mol
# GULP energy per Si atom -5578.647322 kJ/mol
# Density = 2.190092 g / cm^3
# Si number density = 21.950886 Si / 1000 Ang^3
#
#
#
# Elastic Constant Matrix: (Units=GPa)
#
#
# Indices 1 2 3 4 5 6 
#
# 1 65.2823 12.4727 14.1476 0.0000 2.9866 0.0000
# 2 12.4727 60.0618 4.8353 0.0000 17.5576 0.0000
# 3 14.1476 4.8353 61.7232 0.0000 17.5765 0.0000
# 4 0.0000 0.0000 0.0000 29.4981 0.0000 1.1367
# 5 2.9866 17.5576 17.5765 0.0000 38.3899 0.0000
# 6 0.0000 0.0000 0.0000 1.1367 0.0000 21.0560
#
#
#
# Elastic Compliance Matrix: (Units=1/GPa)
#
#
# Indices 1 2 3 4 5 6 
#
# 1 0.016866 -0.003862 -0.004246 0.000000 0.002398 0.000000
# 2 -0.003862 0.020174 0.002123 0.000000 -0.009898 0.000000
# 3 -0.004246 0.002123 0.019768 0.000000 -0.009691 0.000000
# 4 0.000000 0.000000 0.000000 0.033971 0.000000 -0.001834
# 5 0.002398 -0.009898 -0.009691 0.000000 0.034826 0.000000
# 6 0.000000 0.000000 0.000000 -0.001834 0.000000 0.047591
#
#
# Mechanical properties :
#
#
# Convention : Reuss Voigt Hill
#
# Bulk Modulus (GPa) = 22.30189 27.77539 25.03864
# Shear Modulus (GPa) = 24.98590 28.16292 26.57441
#
# Velocity S-wave (km/s) = 3.37748 3.58578 3.48319
# Velocity P-wave (km/s) = 5.03902 5.46120 5.25435
#
# Compressibility (1/GPa) = 0.04483925
#
# Stress axis : x y z
#
# Youngs Moduli (GPa) = 59.28932 49.56866 50.58655
#
# Poissons Ratio (x) = 0.19142 0.21481
# Poissons Ratio (y) = 0.22896 -0.10742
# Poissons Ratio (z) = 0.25176 -0.10526
#
# Static dielectric constant tensor:
#      x y z
#    x 1.913910 0.000000 0.019560 
#    y 0.000000 1.771350 0.000000 
#    z 0.019560 0.000000 1.847510 
# 
# From -- ./inp_files/6706.got.cif
#   From: 2010.05.17/outbox.cif.g08.bks.cpg/sg11_4_cif.got.tgz:6706.got - 2010.06.03 12:22:45.
