data_PCOD9164953
_publ_section_title
;
Structure prediction by ZEFSAII (Michael W. Deem and Ramdas Pophale) SiO2 
 PCOD9164953
Probable space group: P 21/M
;
_chemical_formula_sum "Si O2"
_cell_formula_units_Z 32
_cell_length_a 9.971288
_cell_length_b 27.687250
_cell_length_c 14.479507
_cell_angle_alpha 90.000000
_cell_angle_beta 26.043479
_cell_angle_gamma 90.000000
_cell_volume 1755.100046
_symmetry_space_group_name_H-M "P 21/M"
_symmetry_group_IT_number 11
_symmetry_cell_setting 'monoclinic'
loop_
_space_group_symop_operation_xyz
x,y,z
-x,1/2+y,-z
-x,-y,-z
x,1/2-y,z
loop_
_atom_site_type_symbol
_atom_site_label
_atom_site_fract_x
_atom_site_fract_y
_atom_site_fract_z
Si Si1 0.432239 0.385078 0.303408
Si Si2 0.426132 0.306403 0.815795
Si Si3 0.137921 0.623763 0.793043
Si Si4 0.235310 0.694182 0.024414
Si Si5 0.485144 0.194632 0.570146
Si Si6 0.238535 0.853108 0.222345
Si Si7 0.282972 0.058873 0.067060
Si Si8 0.279095 0.475961 0.272552
O O1 0.666019 0.394392 0.242118
O O2 0.397479 0.430686 0.257874
O O3 0.102614 0.371726 0.548855
O O4 0.561840 0.340179 0.164759
O O5 0.340087 0.250000 0.876930
O O6 0.567082 0.313079 0.626793
O O7 0.651750 0.321623 0.758176
O O8 0.133766 0.341067 0.004899
O O9 0.349593 0.656513 0.596657
O O10 0.985225 0.581214 0.828392
O O11 0.326578 0.750000 0.958794
O O12 0.257211 0.676992 0.116623
O O13 0.880504 0.690151 0.213848
O O14 0.566334 0.250000 0.494468
O O15 0.466821 0.898657 0.074486
O O16 0.454670 0.014934 0.910249
O O17 0.179054 0.041706 0.232530
O O18 0.000000 0.500000 0.500000
#
# Coordination Sequence:
#
# PCOD9164953 Si02
#       8
#     4   4   4   4   4   4   4   4
#     4  12  24  40  66  93 125 167 211 258 315 377
#     4  10  22  38  58  89 126 164 209 256 305 367
#     4  11  23  39  63  92 125 163 207 260 313 371
#     4  11  23  39  60  93 132 167 209 258 304 367
#     4  10  21  37  59  87 126 170 207 250 309 370
#     4  11  22  40  63  94 123 165 208 260 312 372
#     4  10  24  42  67  93 124 158 206 263 323 376
#     4  11  23  44  69  92 122 164 208 263 325 383
#
# _framework density 18.232579000000001
#
# number of rings (size 3 to 8) (size 9 to 14) (size 15 to 20)
#    0.000    1.250    5.000    0.750    1.750    2.000 
#    0.000    3.125    0.000    0.000    0.000    0.000 
#    0.000    0.000    0.000    0.000    0.000    0.000 
#
# Total GULP energy -178834.755441 kJ/mol
# GULP energy per Si atom -5588.586108 kJ/mol
# Density = 1.819108 g / cm^3
# Si number density = 18.232579 Si / 1000 Ang^3
#
#
#
# Elastic Constant Matrix: (Units=GPa)
#
#
# Indices 1 2 3 4 5 6 
#
# 1 138.8253 57.6973 56.1877 0.0000 10.4935 0.0000
# 2 57.6973 115.4876 57.0228 0.0000 16.0498 0.0000
# 3 56.1877 57.0228 80.3306 0.0000 12.2886 0.0000
# 4 0.0000 0.0000 0.0000 14.7923 0.0000 -17.9512
# 5 10.4935 16.0498 12.2886 0.0000 25.3140 0.0000
# 6 0.0000 0.0000 0.0000 -17.9512 0.0000 0.1766
#
#
#
# Elastic Compliance Matrix: (Units=1/GPa)
#
#
# Indices 1 2 3 4 5 6 
#
# 1 0.010494 -0.002485 -0.005565 0.000000 -0.000073 0.000000
# 2 -0.002485 0.014340 -0.007786 0.000000 -0.004282 0.000000
# 3 -0.005565 -0.007786 0.022425 0.000000 -0.003643 0.000000
# 4 0.000000 0.000000 0.000000 -0.000552 0.000000 -0.056162
# 5 -0.000073 -0.004282 -0.003643 0.000000 0.044018 0.000000
# 6 0.000000 0.000000 0.000000 -0.056162 0.000000 -0.046279
#
#
# Mechanical properties :
#
#
# Convention : Reuss Voigt Hill
#
# Bulk Modulus (GPa) = 64.15514 75.16211 69.65863
# Shear Modulus (GPa) = 61.49094 18.97229 40.23161
#
# Velocity S-wave (km/s) = 5.81370 3.22929 4.70252
# Velocity P-wave (km/s) = 8.96264 7.43088 8.23246
#
# Compressibility (1/GPa) = 0.01558722
#
# Stress axis : x y z
#
# Youngs Moduli (GPa) = 95.29360 69.73548 44.59263
#
# Poissons Ratio (x) = 0.17328 0.24816
# Poissons Ratio (y) = 0.23679 0.34720
# Poissons Ratio (z) = 0.53031 0.54297
#
# Static dielectric constant tensor:
#      x y z
#    x 1.612690 0.000000 0.003020 
#    y 0.000000 1.603380 0.000000 
#    z 0.003020 0.000000 1.600230 
# 
# From -- ./inp_files/19868.got.cif
#   From: 2010.05.17/outbox.cif.g08.bks.cpg/sg11_10_cif.got.tgz:19868.got - 2010.06.03 12:22:45.
