data_PCOD9164683
_publ_section_title
;
Structure prediction by ZEFSAII (Michael W. Deem and Ramdas Pophale) SiO2 
 PCOD9164683
Probable space group: P 21/M
;
_chemical_formula_sum "Si O2"
_cell_formula_units_Z 32
_cell_length_a 9.981693
_cell_length_b 13.403216
_cell_length_c 26.038935
_cell_angle_alpha 90.000000
_cell_angle_beta 154.413186
_cell_angle_gamma 90.000000
_cell_volume 1504.519134
_symmetry_space_group_name_H-M "P 21/M"
_symmetry_group_IT_number 11
_symmetry_cell_setting 'monoclinic'
loop_
_space_group_symop_operation_xyz
x,y,z
-x,1/2+y,-z
-x,-y,-z
x,1/2-y,z
loop_
_atom_site_type_symbol
_atom_site_label
_atom_site_fract_x
_atom_site_fract_y
_atom_site_fract_z
Si Si1 0.529613 0.131911 0.615656
Si Si2 0.686364 0.629648 0.346802
Si Si3 0.796507 0.069414 0.998951
Si Si4 0.204791 0.130896 0.398750
Si Si5 0.966082 0.865538 0.812254
Si Si6 0.072907 0.635592 0.069621
Si Si7 0.340005 0.868196 0.532890
Si Si8 0.137936 0.013762 0.791133
O O1 0.589817 0.250000 0.640297
O O2 0.410525 0.095574 0.629782
O O3 0.278229 0.117777 0.483721
O O4 0.841688 0.078947 0.704914
O O5 0.716877 0.750000 0.361793
O O6 0.405307 0.612061 0.210497
O O7 0.012495 0.589375 0.438134
O O8 0.896555 0.120595 0.980748
O O9 0.432148 0.082230 0.882655
O O10 0.994264 0.109497 0.114737
O O11 0.846001 0.950235 0.011052
O O12 0.140263 0.250000 0.367277
O O13 0.511901 0.104277 0.470916
O O14 0.947019 0.057826 0.286324
O O15 0.040986 0.750000 0.828916
O O16 0.619133 0.882116 0.670061
O O17 0.184215 0.938014 0.854658
O O18 0.989661 0.750000 0.053221
O O19 0.290869 0.750000 0.511530
#
# Coordination Sequence:
#
# PCOD9164683 Si02
#       8
#     4   4   4   4   4   4   4   4
#     4  10  21  36  57  90 127 158 201 257 309 368
#     4   9  18  36  60  87 117 154 199 246 308 367
#     4  11  24  41  61  91 120 159 221 255 298 376
#     4   9  19  37  59  87 122 159 201 250 307 372
#     4  10  21  40  63  90 125 160 202 258 313 370
#     4  10  23  43  63  84 123 164 203 262 317 365
#     4   8  16  33  60  87 115 155 196 242 304 369
#     4  11  22  38  60  88 122 159 206 255 312 368
#
# _framework density 21.269255999999999
#
# number of rings (size 3 to 8) (size 9 to 14) (size 15 to 20)
#    0.000    2.250    0.000    3.000    1.750    2.000 
#    4.500    4.375    0.000    0.000    0.000    0.000 
#    0.000    0.000    0.000    0.000    0.000    0.000 
#
# Total GULP energy -178761.318393 kJ/mol
# GULP energy per Si atom -5586.291200 kJ/mol
# Density = 2.122085 g / cm^3
# Si number density = 21.269256 Si / 1000 Ang^3
#
#
#
# Elastic Constant Matrix: (Units=GPa)
#
#
# Indices 1 2 3 4 5 6 
#
# 1 53.8478 -6.0951 27.9397 0.0000 -26.3178 0.0000
# 2 -6.0951 72.6995 -5.2306 0.0000 -2.5680 0.0000
# 3 27.9397 -5.2306 37.2111 0.0000 -16.4375 0.0000
# 4 0.0000 0.0000 0.0000 23.8763 0.0000 1.7020
# 5 -26.3178 -2.5680 -16.4375 0.0000 39.0845 0.0000
# 6 0.0000 0.0000 0.0000 1.7020 0.0000 15.2750
#
#
#
# Elastic Compliance Matrix: (Units=1/GPa)
#
#
# Indices 1 2 3 4 5 6 
#
# 1 0.037777 0.002286 -0.020560 0.000000 0.016941 0.000000
# 2 0.002286 0.014180 0.001680 0.000000 0.003178 0.000000
# 3 -0.020560 0.001680 0.044804 0.000000 0.005109 0.000000
# 4 0.000000 0.000000 0.000000 0.042218 0.000000 -0.004704
# 5 0.016941 0.003178 0.005109 0.000000 0.039351 0.000000
# 6 0.000000 0.000000 0.000000 -0.004704 0.000000 0.065991
#
#
# Mechanical properties :
#
#
# Convention : Reuss Voigt Hill
#
# Bulk Modulus (GPa) = 15.72944 21.88738 18.80841
# Shear Modulus (GPa) = 16.73925 25.45675 21.09800
#
# Velocity S-wave (km/s) = 2.80842 3.46335 3.15294
# Velocity P-wave (km/s) = 4.23412 5.12894 4.70286
#
# Compressibility (1/GPa) = 0.06357505
#
# Stress axis : x y z
#
# Youngs Moduli (GPa) = 26.47087 70.52136 22.31933
#
# Poissons Ratio (x) = -0.16124 0.45889
# Poissons Ratio (y) = -0.06052 -0.03750
# Poissons Ratio (z) = 0.54424 -0.11850
#
# Static dielectric constant tensor:
#      x y z
#    x 1.753660 0.000000 -0.006640 
#    y 0.000000 1.799390 0.000000 
#    z -0.006640 0.000000 1.751370 
# 
# From -- ./inp_files/68146.got.cif
#   From: 2010.05.17/outbox.cif.g08.bks.cpg/sg11_35_cif.got.tgz:68146.got - 2010.06.03 12:22:45.
