data_PCOD9164948
_publ_section_title
;
Structure prediction by ZEFSAII (Michael W. Deem and Ramdas Pophale) SiO2 
 PCOD9164948
Probable space group: P 21/M
;
_chemical_formula_sum "Si O2"
_cell_formula_units_Z 32
_cell_length_a 21.187739
_cell_length_b 16.345195
_cell_length_c 11.224609
_cell_angle_alpha 90.000000
_cell_angle_beta 24.092933
_cell_angle_gamma 90.000000
_cell_volume 1586.857579
_symmetry_space_group_name_H-M "P 21/M"
_symmetry_group_IT_number 11
_symmetry_cell_setting 'monoclinic'
loop_
_space_group_symop_operation_xyz
x,y,z
-x,1/2+y,-z
-x,-y,-z
x,1/2-y,z
loop_
_atom_site_type_symbol
_atom_site_label
_atom_site_fract_x
_atom_site_fract_y
_atom_site_fract_z
Si Si1 0.047520 0.154822 0.882916
Si Si2 0.198495 0.840172 0.228085
Si Si3 0.668534 0.023466 0.159952
Si Si4 0.250817 0.074809 0.349018
Si Si5 0.446640 0.659452 0.234023
Si Si6 0.167361 0.890293 0.549842
Si Si7 0.231647 0.844465 0.822608
Si Si8 0.903733 0.916917 0.639684
O O1 0.055541 0.250000 0.898198
O O2 0.989860 0.110845 0.102020
O O3 0.913954 0.143109 0.013350
O O4 0.199260 0.125776 0.553507
O O5 0.264283 0.750000 0.091003
O O6 0.163033 0.849362 0.428833
O O7 0.029562 0.849683 0.457933
O O8 0.310492 0.914375 0.990018
O O9 0.754051 0.081367 0.109912
O O10 0.500000 0.000000 0.500000
O O11 0.754715 0.938683 0.977275
O O12 0.427307 0.092738 0.014285
O O13 0.153360 0.094138 0.396868
O O14 0.217107 0.982390 0.440604
O O15 0.516898 0.750000 0.099474
O O16 0.298294 0.652174 0.404503
O O17 0.381455 0.651435 0.479373
O O18 0.222399 0.750000 0.884916
O O19 0.000000 0.000000 0.500000
#
# Coordination Sequence:
#
# PCOD9164948 Si02
#       8
#     4   4   4   4   4   4   4   4
#     4  10  21  37  59  87 116 150 194 249 298 350
#     4  11  23  41  65  87 122 170 203 240 308 373
#     4  11  21  37  59  87 122 155 197 257 301 353
#     4  12  21  37  62  92 117 151 202 256 303 342
#     4  10  22  39  59  86 120 157 198 250 301 356
#     4  11  22  40  61  85 123 162 201 237 299 374
#     4   9  19  35  58  82 113 154 197 237 293 358
#     4  10  21  39  60  90 122 154 203 253 297 354
#
# _framework density 20.165641000000001
#
# number of rings (size 3 to 8) (size 9 to 14) (size 15 to 20)
#    0.000    1.500    2.500    5.625    0.000    2.000 
#    0.000    1.250    0.000    0.000    0.000    0.000 
#    0.000    0.000    0.000    0.000    0.000    0.000 
#
# Total GULP energy -178504.148728 kJ/mol
# GULP energy per Si atom -5578.254648 kJ/mol
# Density = 2.011974 g / cm^3
# Si number density = 20.165641 Si / 1000 Ang^3
#
#
#
# Elastic Constant Matrix: (Units=GPa)
#
#
# Indices 1 2 3 4 5 6 
#
# 1 61.2206 5.3998 9.8328 0.0000 24.7658 0.0000
# 2 5.3998 51.0031 4.6123 0.0000 13.0098 0.0000
# 3 9.8328 4.6123 101.4642 0.0000 18.7130 0.0000
# 4 0.0000 0.0000 0.0000 33.3022 0.0000 -2.4830
# 5 24.7658 13.0098 18.7130 0.0000 27.9155 0.0000
# 6 0.0000 0.0000 0.0000 -2.4830 0.0000 10.9143
#
#
#
# Elastic Compliance Matrix: (Units=1/GPa)
#
#
# Indices 1 2 3 4 5 6 
#
# 1 0.026453 0.003816 0.002190 0.000000 -0.026715 0.000000
# 2 0.003816 0.022897 0.001348 0.000000 -0.014960 0.000000
# 3 0.002190 0.001348 0.011475 0.000000 -0.010264 0.000000
# 4 0.000000 0.000000 0.000000 0.030546 0.000000 0.006949
# 5 -0.026715 -0.014960 -0.010264 0.000000 0.073375 0.000000
# 6 0.000000 0.000000 0.000000 0.006949 0.000000 0.093204
#
#
# Mechanical properties :
#
#
# Convention : Reuss Voigt Hill
#
# Bulk Modulus (GPa) = 13.23920 28.15308 20.69614
# Shear Modulus (GPa) = 18.62752 27.34925 22.98838
#
# Velocity S-wave (km/s) = 3.04258 3.68670 3.38002
# Velocity P-wave (km/s) = 4.35001 5.66688 5.05154
#
# Compressibility (1/GPa) = 0.07553327
#
# Stress axis : x y z
#
# Youngs Moduli (GPa) = 37.80266 43.67445 87.14525
#
# Poissons Ratio (x) = -0.16665 -0.19085
# Poissons Ratio (y) = -0.14424 -0.11751
# Poissons Ratio (z) = -0.08279 -0.05889
#
# Static dielectric constant tensor:
#      x y z
#    x 1.732560 0.000000 0.018370 
#    y 0.000000 1.762130 0.000000 
#    z 0.018370 0.000000 1.758370 
# 
# From -- ./inp_files/44344.got.cif
#   From: 2010.05.17/outbox.cif.g08.bks.cpg/sg11_23_cif.got.tgz:44344.got - 2010.06.03 12:22:45.
