data_PCOD9164972
_publ_section_title
;
Structure prediction by ZEFSAII (Michael W. Deem and Ramdas Pophale) SiO2 
 PCOD9164972
Probable space group: P 21/M
;
_chemical_formula_sum "Si O2"
_cell_formula_units_Z 24
_cell_length_a 11.235459
_cell_length_b 21.223311
_cell_length_c 5.115014
_cell_angle_alpha 90.000000
_cell_angle_beta 68.777021
_cell_angle_gamma 90.000000
_cell_volume 1136.972489
_symmetry_space_group_name_H-M "P 21/M"
_symmetry_group_IT_number 11
_symmetry_cell_setting 'monoclinic'
loop_
_space_group_symop_operation_xyz
x,y,z
-x,1/2+y,-z
-x,-y,-z
x,1/2-y,z
loop_
_atom_site_type_symbol
_atom_site_label
_atom_site_fract_x
_atom_site_fract_y
_atom_site_fract_z
Si Si1 0.097117 0.071554 0.199695
Si Si2 0.764621 0.616735 0.424227
Si Si3 0.176238 0.566452 0.351724
Si Si4 0.412880 0.497231 0.321315
Si Si5 0.353274 0.673033 0.028863
Si Si6 0.517967 0.824144 0.401488
O O1 0.153090 0.120643 0.374378
O O2 0.946187 0.074768 0.368004
O O3 0.143236 0.998502 0.215363
O O4 0.143154 0.090344 0.875567
O O5 0.662182 0.566972 0.606002
O O6 0.666081 0.663349 0.356373
O O7 0.301007 0.547719 0.414046
O O8 0.226274 0.630023 0.168624
O O9 0.500000 0.500000 0.500000
O O10 0.500000 0.500000 0.000000
O O11 0.329761 0.750000 0.054339
O O12 0.460103 0.657116 0.166923
O O13 0.421882 0.654008 0.705207
O O14 0.504979 0.750000 0.414754
#
# Coordination Sequence:
#
# PCOD9164972 Si02
#       6
#     4   4   4   4   4   4
#     4  10  24  37  58  82 113 159 189 227 290 336
#     4  11  21  38  55  83 113 143 193 228 271 350
#     4  10  22  40  57  82 120 151 190 239 282 341
#     4  11  21  32  54  82 106 138 177 228 283 322
#     4  10  21  37  60  85 111 148 188 233 290 342
#     4  10  21  38  60  85 115 149 185 237 294 337
#
# _framework density 21.108688999999998
#
# number of rings (size 3 to 8) (size 9 to 14) (size 15 to 20)
#    0.000    1.667    0.000    5.000    0.000   11.333 
#    0.000    1.667    0.000    0.000    0.000    0.000 
#    0.000    0.000    0.000    0.000    0.000    0.000 
#
# Total GULP energy -133754.201291 kJ/mol
# GULP energy per Si atom -5573.091720 kJ/mol
# Density = 2.106064 g / cm^3
# Si number density = 21.108689 Si / 1000 Ang^3
#
#
#
# Elastic Constant Matrix: (Units=GPa)
#
#
# Indices 1 2 3 4 5 6 
#
# 1 88.0157 13.8361 34.0629 0.0000 -13.3933 0.0000
# 2 13.8361 47.7777 4.9010 0.0000 -5.2102 0.0000
# 3 34.0629 4.9010 120.6745 0.0000 5.5764 0.0000
# 4 0.0000 0.0000 0.0000 17.2567 0.0000 -5.3141
# 5 -13.3933 -5.2102 5.5764 0.0000 35.9442 0.0000
# 6 0.0000 0.0000 0.0000 -5.3141 0.0000 29.6596
#
#
#
# Elastic Compliance Matrix: (Units=1/GPa)
#
#
# Indices 1 2 3 4 5 6 
#
# 1 0.014304 -0.003112 -0.004167 0.000000 0.005525 0.000000
# 2 -0.003112 0.022067 -0.000113 0.000000 0.002056 0.000000
# 3 -0.004167 -0.000113 0.009609 0.000000 -0.003060 0.000000
# 4 0.000000 0.000000 0.000000 0.061332 0.000000 0.010989
# 5 0.005525 0.002056 -0.003060 0.000000 0.030652 0.000000
# 6 0.000000 0.000000 0.000000 0.010989 0.000000 0.035685
#
#
# Mechanical properties :
#
#
# Convention : Reuss Voigt Hill
#
# Bulk Modulus (GPa) = 32.05442 40.22976 36.14209
# Shear Modulus (GPa) = 25.14683 30.14999 27.64841
#
# Velocity S-wave (km/s) = 3.45527 3.78341 3.62306
# Velocity P-wave (km/s) = 5.58004 6.17943 5.88737
#
# Compressibility (1/GPa) = 0.03119695
#
# Stress axis : x y z
#
# Youngs Moduli (GPa) = 69.90978 45.31568 104.07119
#
# Poissons Ratio (x) = 0.14104 0.43362
# Poissons Ratio (y) = 0.21759 0.01173
# Poissons Ratio (z) = 0.29128 0.00511
#
# Static dielectric constant tensor:
#      x y z
#    x 1.527830 0.000000 0.050110 
#    y 0.000000 1.843760 0.000000 
#    z 0.050110 0.000000 1.752070 
# 
# From -- ./inp_files/4823.got.cif
#   From: 2010.05.17/outbox.cif.g08.bks.cpg/sg11_3_cif.got.tgz:4823.got - 2010.06.03 12:22:45.
