data_PCOD9164353
_publ_section_title
;
Structure prediction by ZEFSAII (Michael W. Deem and Ramdas Pophale) SiO2 
 PCOD9164353
Probable space group: P 21/M
;
_chemical_formula_sum "Si O2"
_cell_formula_units_Z 30
_cell_length_a 23.449616
_cell_length_b 9.033086
_cell_length_c 14.848295
_cell_angle_alpha 90.000000
_cell_angle_beta 151.442768
_cell_angle_gamma 90.000000
_cell_volume 1503.520657
_symmetry_space_group_name_H-M "P 21/M"
_symmetry_group_IT_number 11
_symmetry_cell_setting 'monoclinic'
loop_
_space_group_symop_operation_xyz
x,y,z
-x,1/2+y,-z
-x,-y,-z
x,1/2-y,z
loop_
_atom_site_type_symbol
_atom_site_label
_atom_site_fract_x
_atom_site_fract_y
_atom_site_fract_z
Si Si1 0.776247 0.571521 0.046743
Si Si2 0.470263 0.571844 0.363226
Si Si3 0.437133 0.925863 0.996280
Si Si4 0.996449 0.577816 0.691299
Si Si5 0.881937 0.986184 0.721724
Si Si6 0.826996 0.071374 0.311395
Si Si7 0.968825 0.750000 0.990640
Si Si8 0.377170 0.072361 0.595100
O O1 0.772830 0.750000 0.043098
O O2 0.813550 0.504942 0.195597
O O3 0.879390 0.509796 0.123824
O O4 0.649247 0.503319 0.841814
O O5 0.500000 0.500000 0.500000
O O6 0.453275 0.750000 0.345347
O O7 0.580752 0.545344 0.448386
O O8 0.446484 0.750000 0.000041
O O9 0.509862 0.967612 0.186576
O O10 0.298628 0.960843 0.813897
O O11 0.500000 0.000000 0.000000
O O12 0.020630 0.750000 0.704052
O O13 0.916978 0.570626 0.671222
O O14 0.928235 0.499763 0.513937
O O15 0.911494 0.874929 0.843448
O O16 0.740145 0.011624 0.534607
O O17 0.964895 0.124024 0.856650
O O18 0.841577 0.250000 0.323016
O O19 0.356183 0.250000 0.576099
#
# Coordination Sequence:
#
# PCOD9164353 Si02
#       8
#     4   4   4   4   4   4   2   4
#     4  12  26  46  69  99 138 179 227 279 337 403
#     4  11  24  46  70 100 136 179 230 282 336 399
#     4  10  21  38  63  95 131 175 216 267 330 393
#     4  12  25  43  70 100 134 178 227 278 338 412
#     4  11  23  45  67  99 133 175 224 277 341 402
#     4  11  23  43  68  97 138 176 221 279 340 404
#     4  10  24  42  66  92 136 176 220 276 336 392
#     4  10  20  42  69  92 132 176 214 270 331 396
#
# _framework density 19.953167000000001
#
# number of rings (size 3 to 8) (size 9 to 14) (size 15 to 20)
#    0.000    1.067    2.667    3.600    1.867    4.267 
#    6.000    0.000    0.000    0.000    0.000    0.000 
#    0.000    0.000    0.000    0.000    0.000    0.000 
#
# Total GULP energy -167081.279429 kJ/mol
# GULP energy per Si atom -5569.375981 kJ/mol
# Density = 1.990775 g / cm^3
# Si number density = 19.953167 Si / 1000 Ang^3
#
#
#
# Elastic Constant Matrix: (Units=GPa)
#
#
# Indices 1 2 3 4 5 6 
#
# 1 99.9565 15.1781 31.9297 0.0000 16.2575 0.0000
# 2 15.1781 93.3436 29.6151 0.0000 6.9309 0.0000
# 3 31.9297 29.6151 83.7833 0.0000 3.0263 0.0000
# 4 0.0000 0.0000 0.0000 0.4871 0.0000 21.8954
# 5 16.2575 6.9309 3.0263 0.0000 28.5115 0.0000
# 6 0.0000 0.0000 0.0000 21.8954 0.0000 -136.8140
#
#
#
# Elastic Compliance Matrix: (Units=1/GPa)
#
#
# Indices 1 2 3 4 5 6 
#
# 1 0.012539 -0.000119 -0.004497 0.000000 -0.006644 0.000000
# 2 -0.000119 0.012246 -0.004194 0.000000 -0.002464 0.000000
# 3 -0.004497 -0.004194 0.015060 0.000000 0.001985 0.000000
# 4 0.000000 0.000000 0.000000 0.250556 0.000000 0.040098
# 5 -0.006644 -0.002464 0.001985 0.000000 0.039250 0.000000
# 6 0.000000 0.000000 0.000000 0.040098 0.000000 -0.000892
#
#
# Mechanical properties :
#
#
# Convention : Reuss Voigt Hill
#
# Bulk Modulus (GPa) = 44.99309 47.83656 46.41482
# Shear Modulus (GPa) = 14.13275 -8.20573 2.96351
#
# Velocity S-wave (km/s) = 2.66427 -2.03013 1.22002
# Velocity P-wave (km/s) = 5.66240 4.30479 5.02961
#
# Compressibility (1/GPa) = 0.02222564
#
# Stress axis : x y z
#
# Youngs Moduli (GPa) = 79.74850 81.65844 66.40053
#
# Poissons Ratio (x) = 0.00972 0.29858
# Poissons Ratio (y) = 0.00949 0.27851
# Poissons Ratio (z) = 0.35861 0.34250
#
# Static dielectric constant tensor:
#      x y z
#    x 1.663870 0.000000 -0.016910 
#    y 0.000000 1.828550 0.000000 
#    z -0.016910 0.000000 1.686090 
# 
# From -- ./inp_files/55427.got.cif
#   From: 2010.05.17/outbox.cif.g08.bks.cpg/sg11_28_cif.got.tgz:55427.got - 2010.06.03 12:22:45.
