data_PCOD9164186
_publ_section_title
;
Structure prediction by ZEFSAII (Michael W. Deem and Ramdas Pophale) SiO2 
 PCOD9164186
Probable space group: P 21/M
;
_chemical_formula_sum "Si O2"
_cell_formula_units_Z 28
_cell_length_a 26.898107
_cell_length_b 8.637892
_cell_length_c 10.278581
_cell_angle_alpha 90.000000
_cell_angle_beta 37.975227
_cell_angle_gamma 90.000000
_cell_volume 1469.481688
_symmetry_space_group_name_H-M "P 21/M"
_symmetry_group_IT_number 11
_symmetry_cell_setting 'monoclinic'
loop_
_space_group_symop_operation_xyz
x,y,z
-x,1/2+y,-z
-x,-y,-z
x,1/2-y,z
loop_
_atom_site_type_symbol
_atom_site_label
_atom_site_fract_x
_atom_site_fract_y
_atom_site_fract_z
Si Si1 0.059257 0.435594 0.768195
Si Si2 0.764608 0.934990 0.489023
Si Si3 0.754611 0.438516 0.967184
Si Si4 0.522704 0.564176 0.810747
Si Si5 0.353869 0.936684 0.051017
Si Si6 0.303467 0.935737 0.628500
Si Si7 0.937803 0.435906 0.522614
O O1 0.053866 0.250000 0.774391
O O2 0.150574 0.479203 0.620503
O O3 0.040894 0.504245 0.664777
O O4 0.000000 0.500000 0.000000
O O5 0.760182 0.750000 0.490124
O O6 0.693256 0.996294 0.727971
O O7 0.753976 0.004683 0.368069
O O8 0.754181 0.250000 0.967614
O O9 0.692205 0.489528 0.983949
O O10 0.845906 0.487027 0.745210
O O11 0.726891 0.488692 0.167375
O O12 0.651785 0.250000 0.931323
O O13 0.607028 0.496617 0.587798
O O14 0.500000 0.500000 0.000000
O O15 0.447975 0.522687 0.870158
O O16 0.528796 0.750000 0.805981
O O17 0.304457 0.750000 0.624444
O O18 0.939682 0.250000 0.520213
O O19 0.000000 0.500000 0.500000
#
# Coordination Sequence:
#
# PCOD9164186 Si02
#       7
#     4   4   4   4   4   4   4
#     4  11  25  43  64  95 127 163 207 259 314 372
#     4  11  23  39  61  91 123 156 205 258 303 358
#     4   9  21  41  63  88 119 161 207 246 301 370
#     4  11  22  36  59  91 123 158 204 257 307 361
#     4  10  20  39  65  87 116 161 206 247 304 368
#     4  11  23  39  61  89 123 165 205 249 304 367
#     4  11  23  42  66  93 126 166 208 257 308 372
#
# _framework density 19.054338000000001
#
# number of rings (size 3 to 8) (size 9 to 14) (size 15 to 20)
#    0.000    1.429    2.857    2.143    2.000    2.857 
#    0.000    3.571    0.000    0.000    0.000    0.000 
#    0.000    0.000    0.000    0.000    0.000    0.000 
#
# Total GULP energy -156514.197954 kJ/mol
# GULP energy per Si atom -5589.792784 kJ/mol
# Density = 1.901097 g / cm^3
# Si number density = 19.054338 Si / 1000 Ang^3
#
#
#
# Elastic Constant Matrix: (Units=GPa)
#
#
# Indices 1 2 3 4 5 6 
#
# 1 167.9615 40.6474 58.5752 0.0000 16.8472 0.0000
# 2 40.6474 35.3543 21.0217 0.0000 0.1201 0.0000
# 3 58.5752 21.0217 109.7613 0.0000 22.0928 0.0000
# 4 0.0000 0.0000 0.0000 20.4086 0.0000 -2.1980
# 5 16.8472 0.1201 22.0928 0.0000 37.1988 0.0000
# 6 0.0000 0.0000 0.0000 -2.1980 0.0000 31.4270
#
#
#
# Elastic Compliance Matrix: (Units=1/GPa)
#
#
# Indices 1 2 3 4 5 6 
#
# 1 0.009382 -0.009154 -0.002731 0.000000 -0.002598 0.000000
# 2 -0.009154 0.041387 -0.004371 0.000000 0.006608 0.000000
# 3 -0.002731 -0.004371 0.012668 0.000000 -0.006273 0.000000
# 4 0.000000 0.000000 0.000000 0.049371 0.000000 0.003453
# 5 -0.002598 0.006608 -0.006273 0.000000 0.031763 0.000000
# 6 0.000000 0.000000 0.000000 0.003453 0.000000 0.032061
#
#
# Mechanical properties :
#
#
# Convention : Reuss Voigt Hill
#
# Bulk Modulus (GPa) = 32.33753 61.50732 46.92242
# Shear Modulus (GPa) = 22.78407 30.66242 26.72324
#
# Velocity S-wave (km/s) = 3.46170 4.01585 3.74903
# Velocity P-wave (km/s) = 5.74334 7.33844 6.58933
#
# Compressibility (1/GPa) = 0.03092382
#
# Stress axis : x y z
#
# Youngs Moduli (GPa) = 106.58787 24.16245 78.94075
#
# Poissons Ratio (x) = 0.22118 0.21556
# Poissons Ratio (y) = 0.97571 0.34508
# Poissons Ratio (z) = 0.29106 0.10562
#
# Static dielectric constant tensor:
#      x y z
#    x 1.664350 0.000000 -0.009510 
#    y 0.000000 1.650200 0.000000 
#    z -0.009510 0.000000 1.627400 
# 
# From -- ./inp_files/28377.got.cif
#   From: 2010.05.17/outbox.cif.g08.bks.cpg/sg11_15_cif.got.tgz:28377.got - 2010.06.03 12:22:45.
