data_PCOD9164330
_publ_section_title
;
Structure prediction by ZEFSAII (Michael W. Deem and Ramdas Pophale) SiO2 
 PCOD9164330
Probable space group: P 21/M
;
_chemical_formula_sum "Si O2"
_cell_formula_units_Z 20
_cell_length_a 7.671046
_cell_length_b 16.524550
_cell_length_c 6.448423
_cell_angle_alpha 90.000000
_cell_angle_beta 86.650042
_cell_angle_gamma 90.000000
_cell_volume 816.009114
_symmetry_space_group_name_H-M "P 21/M"
_symmetry_group_IT_number 11
_symmetry_cell_setting 'monoclinic'
loop_
_space_group_symop_operation_xyz
x,y,z
-x,1/2+y,-z
-x,-y,-z
x,1/2-y,z
loop_
_atom_site_type_symbol
_atom_site_label
_atom_site_fract_x
_atom_site_fract_y
_atom_site_fract_z
Si Si1 0.563523 0.411605 0.666861
Si Si2 0.395413 0.750000 0.086611
Si Si3 0.130838 0.250000 0.665272
Si Si4 0.630196 0.750000 0.718675
Si Si5 0.711862 0.930639 0.676446
Si Si6 0.069336 0.617603 0.584428
Si Si7 0.044399 0.750000 0.937267
O O1 0.546258 0.332605 0.808444
O O2 0.393216 0.424646 0.535839
O O3 0.614774 0.493406 0.785797
O O4 0.735044 0.400258 0.505094
O O5 0.188127 0.750000 0.104853
O O6 0.443865 0.750000 0.839287
O O7 0.313720 0.250000 0.526616
O O8 0.029270 0.171914 0.582502
O O9 0.131603 0.250000 0.912459
O O10 0.695457 0.840688 0.772687
O O11 0.918557 0.947743 0.647165
O O12 0.073837 0.673433 0.788894
#
# Coordination Sequence:
#
# PCOD9164330 Si02
#       7
#     4   2   2   2   4   4   2
#     4  11  22  42  71  97 140 175 225 282 335 405
#     4  12  23  40  70 103 131 186 223 274 350 395
#     4   9  19  40  63  98 129 174 229 268 325 410
#     4  10  22  42  61  90 139 167 224 273 330 391
#     4  10  23  43  66 100 134 181 224 278 339 398
#     4  10  20  41  68  95 136 174 220 287 330 400
#     4  11  20  38  72  99 133 177 232 269 341 410
#
# _framework density 24.509530999999999
#
# number of rings (size 3 to 8) (size 9 to 14) (size 15 to 20)
#    0.000    1.600    2.000    3.600    0.000    0.800 
#   28.800    1.000    0.000    0.000    0.000    0.000 
#    0.000    0.000    0.000    0.000    0.000    0.000 
#
# Total GULP energy -111464.244139 kJ/mol
# GULP energy per Si atom -5573.212207 kJ/mol
# Density = 2.445375 g / cm^3
# Si number density = 24.509531 Si / 1000 Ang^3
#
#
#
# Elastic Constant Matrix: (Units=GPa)
#
#
# Indices 1 2 3 4 5 6 
#
# 1 93.1981 4.3671 40.5207 0.0000 -13.5599 0.0000
# 2 4.3671 134.9187 29.6365 0.0000 -2.9245 0.0000
# 3 40.5207 29.6365 105.6869 0.0000 -28.4591 0.0000
# 4 0.0000 0.0000 0.0000 -22.1822 0.0000 3.6966
# 5 -13.5599 -2.9245 -28.4591 0.0000 44.4671 0.0000
# 6 0.0000 0.0000 0.0000 3.6966 0.0000 42.9547
#
#
#
# Elastic Compliance Matrix: (Units=1/GPa)
#
#
# Indices 1 2 3 4 5 6 
#
# 1 0.012966 0.000683 -0.004937 0.000000 0.000839 0.000000
# 2 0.000683 0.007978 -0.002781 0.000000 -0.001047 0.000000
# 3 -0.004937 -0.002781 0.014112 0.000000 0.007343 0.000000
# 4 0.000000 0.000000 0.000000 -0.044444 0.000000 0.003825
# 5 0.000839 -0.001047 0.007343 0.000000 0.027375 0.000000
# 6 0.000000 0.000000 0.000000 0.003825 0.000000 0.022951
#
#
# Mechanical properties :
#
#
# Convention : Reuss Voigt Hill
#
# Bulk Modulus (GPa) = 47.64940 53.65026 50.64983
# Shear Modulus (GPa) = 80.63970 30.33321 55.48645
#
# Velocity S-wave (km/s) = 5.74219 3.52178 4.76318
# Velocity P-wave (km/s) = 7.96537 6.20277 7.13868
#
# Compressibility (1/GPa) = 0.02098662
#
# Stress axis : x y z
#
# Youngs Moduli (GPa) = 77.12239 125.34589 70.86209
#
# Poissons Ratio (x) = -0.08560 0.34984
# Poissons Ratio (y) = -0.05267 0.19706
# Poissons Ratio (z) = 0.38074 0.34857
#
# Static dielectric constant tensor:
#      x y z
#    x 1.970710 0.000000 -0.034740 
#    y 0.000000 1.996950 0.000000 
#    z -0.034740 0.000000 1.925020 
# 
# From -- ./inp_files/1974.got.cif
#   From: 2010.05.17/outbox.cif.g08.bks.cpg/sg11_1_cif.got.tgz:1974.got - 2010.06.03 12:22:45.
