data_PCOD9164280
_publ_section_title
;
Structure prediction by ZEFSAII (Michael W. Deem and Ramdas Pophale) SiO2 
 PCOD9164280
Probable space group: P 21/M
;
_chemical_formula_sum "Si O2"
_cell_formula_units_Z 24
_cell_length_a 7.211871
_cell_length_b 11.263058
_cell_length_c 21.488092
_cell_angle_alpha 90.000000
_cell_angle_beta 145.166478
_cell_angle_gamma 90.000000
_cell_volume 996.978253
_symmetry_space_group_name_H-M "P 21/M"
_symmetry_group_IT_number 11
_symmetry_cell_setting 'monoclinic'
loop_
_space_group_symop_operation_xyz
x,y,z
-x,1/2+y,-z
-x,-y,-z
x,1/2-y,z
loop_
_atom_site_type_symbol
_atom_site_label
_atom_site_fract_x
_atom_site_fract_y
_atom_site_fract_z
Si Si1 0.540658 0.250000 0.865184
Si Si2 0.317456 0.250000 0.694048
Si Si3 0.982208 0.489752 0.392048
Si Si4 0.037782 0.001536 0.818478
Si Si5 0.121157 0.250000 0.493794
Si Si6 0.856958 0.250000 0.702879
Si Si7 0.637367 0.888070 0.617323
Si Si8 0.267185 0.987692 0.020796
O O1 0.667005 0.250000 0.830049
O O2 0.152854 0.250000 0.732692
O O3 0.608231 0.356932 0.928234
O O4 0.192575 0.250000 0.586838
O O5 0.269590 0.402797 0.683241
O O6 0.942682 0.367869 0.420087
O O7 0.095841 0.446986 0.354871
O O8 0.302747 0.548465 0.510253
O O9 0.924509 0.130586 0.760311
O O10 0.104216 0.005045 0.909538
O O11 0.380202 0.950400 0.884702
O O12 0.758230 0.913970 0.719634
O O13 0.502298 0.250000 0.574992
O O14 0.608724 0.750000 0.597156
O O15 0.000000 0.000000 0.000000
#
# Coordination Sequence:
#
# PCOD9164280 Si02
#       8
#     2   2   4   4   2   2   4   4
#     4  10  24  42  66  94 126 171 221 276 336 400
#     4  12  26  42  69  94 139 177 223 283 340 412
#     4  11  23  41  65 100 132 178 228 270 332 412
#     4  10  22  41  67  96 129 175 224 269 342 401
#     4  12  24  40  65  99 138 177 224 275 336 403
#     4  10  20  40  66  93 121 177 218 264 324 411
#     4  11  22  38  68  96 132 175 222 276 337 399
#     4  10  23  42  65  95 131 166 222 281 330 401
#
# _framework density 24.072741000000001
#
# number of rings (size 3 to 8) (size 9 to 14) (size 15 to 20)
#    0.000    1.333    3.333    2.500    5.833    0.000 
#    3.000    0.000    0.000    0.000    0.000    0.000 
#    0.000    0.000    0.000    0.000    0.000    0.000 
#
# Total GULP energy -133720.719655 kJ/mol
# GULP energy per Si atom -5571.696652 kJ/mol
# Density = 2.401795 g / cm^3
# Si number density = 24.072741 Si / 1000 Ang^3
#
#
#
# Elastic Constant Matrix: (Units=GPa)
#
#
# Indices 1 2 3 4 5 6 
#
# 1 67.3775 19.6130 23.6213 0.0000 12.1689 0.0000
# 2 19.6130 156.0690 39.5138 0.0000 -10.8125 0.0000
# 3 23.6213 39.5138 131.8959 0.0000 -21.3829 0.0000
# 4 0.0000 0.0000 0.0000 23.5554 0.0000 -10.9980
# 5 12.1689 -10.8125 -21.3829 0.0000 31.3750 0.0000
# 6 0.0000 0.0000 0.0000 -10.9980 0.0000 4.3379
#
#
#
# Elastic Compliance Matrix: (Units=1/GPa)
#
#
# Indices 1 2 3 4 5 6 
#
# 1 0.019086 -0.002003 -0.004643 0.000000 -0.011257 0.000000
# 2 -0.002003 0.007177 -0.001422 0.000000 0.002281 0.000000
# 3 -0.004643 -0.001422 0.010176 0.000000 0.008246 0.000000
# 4 0.000000 0.000000 0.000000 -0.231044 0.000000 -0.585775
# 5 -0.011257 0.002281 0.008246 0.000000 0.042645 0.000000
# 6 0.000000 0.000000 0.000000 -0.585775 0.000000 -1.254612
#
#
# Mechanical properties :
#
#
# Convention : Reuss Voigt Hill
#
# Bulk Modulus (GPa) = 49.25181 57.87094 53.56138
# Shear Modulus (GPa) = -3.61358 30.02660 13.20651
#
# Velocity S-wave (km/s) = -1.22653 3.53558 2.34478
# Velocity P-wave (km/s) = 4.30095 6.38431 5.44323
#
# Compressibility (1/GPa) = 0.02030382
#
# Stress axis : x y z
#
# Youngs Moduli (GPa) = 52.39548 139.33223 98.27037
#
# Poissons Ratio (x) = 0.27906 0.45627
# Poissons Ratio (y) = 0.10494 0.13970
# Poissons Ratio (z) = 0.24327 0.19807
#
# Static dielectric constant tensor:
#      x y z
#    x 2.246470 0.000000 0.092490 
#    y 0.000000 1.910030 0.000000 
#    z 0.092490 0.000000 1.891550 
# 
# From -- ./inp_files/68066.got.cif
#   From: 2010.05.17/outbox.cif.g08.bks.cpg/sg11_35_cif.got.tgz:68066.got - 2010.06.03 12:22:45.
