data_PCOD9164574
_publ_section_title
;
Structure prediction by ZEFSAII (Michael W. Deem and Ramdas Pophale) SiO2 
 PCOD9164574
Probable space group: P 21/M
;
_chemical_formula_sum "Si O2"
_cell_formula_units_Z 28
_cell_length_a 7.856850
_cell_length_b 9.429793
_cell_length_c 27.417720
_cell_angle_alpha 90.000000
_cell_angle_beta 136.074290
_cell_angle_gamma 90.000000
_cell_volume 1409.189369
_symmetry_space_group_name_H-M "P 21/M"
_symmetry_group_IT_number 11
_symmetry_cell_setting 'monoclinic'
loop_
_space_group_symop_operation_xyz
x,y,z
-x,1/2+y,-z
-x,-y,-z
x,1/2-y,z
loop_
_atom_site_type_symbol
_atom_site_label
_atom_site_fract_x
_atom_site_fract_y
_atom_site_fract_z
Si Si1 0.876888 0.589084 0.431993
Si Si2 0.651194 0.085560 0.143061
Si Si3 0.991315 0.587413 0.278186
Si Si4 0.081539 0.088355 0.148052
Si Si5 0.403855 0.589468 0.280080
Si Si6 0.718126 0.410302 0.567879
Si Si7 0.666302 0.078484 0.993526
O O1 0.818954 0.750000 0.437122
O O2 0.631763 0.525927 0.357016
O O3 0.000000 0.500000 0.500000
O O4 0.073640 0.597762 0.429790
O O5 0.585036 0.250000 0.136892
O O6 0.866423 0.084021 0.145501
O O7 0.428308 0.992405 0.075628
O O8 0.771272 0.011755 0.214915
O O9 0.912030 0.750000 0.272728
O O10 0.180130 0.595266 0.272064
O O11 0.149217 0.532141 0.356368
O O12 0.165420 0.250000 0.162133
O O13 0.301179 0.991949 0.212265
O O14 0.942620 0.050391 0.069235
O O15 0.474924 0.750000 0.281308
O O16 0.500000 0.500000 0.500000
O O17 0.632231 0.250000 0.561847
O O18 0.628583 0.250000 0.986326
O O19 0.500000 0.000000 0.000000
#
# Coordination Sequence:
#
# PCOD9164574 Si02
#       7
#     4   4   4   4   4   4   4
#     4  10  21  36  53  75 100 128 162 201 244 293
#     4   9  16  25  39  62  91 123 158 197 239 285
#     4   9  17  30  47  67  93 127 161 196 240 290
#     4   8  15  25  38  60  90 122 156 192 233 279
#     4   9  17  29  46  67  93 124 159 196 237 285
#     4  10  21  36  54  75 100 129 163 202 246 295
#     4   9  15  23  36  58  90 125 159 196 237 283
#
# _framework density 19.869579999999999
#
# number of rings (size 3 to 8) (size 9 to 14) (size 15 to 20)
#    0.000    2.857    0.000    2.571    0.000    6.857 
#    0.000    2.857    0.000    0.000    0.000    1.000 
#    0.000    0.000    0.000    0.000    0.000    0.000 
#
# Total GULP energy -156060.529622 kJ/mol
# GULP energy per Si atom -5573.590344 kJ/mol
# Density = 1.982436 g / cm^3
# Si number density = 19.869580 Si / 1000 Ang^3
#
#
#
# Elastic Constant Matrix: (Units=GPa)
#
#
# Indices 1 2 3 4 5 6 
#
# 1 21.1584 4.9561 4.8908 0.0000 -1.6522 0.0000
# 2 4.9561 93.3384 110.3671 0.0000 0.9444 0.0000
# 3 4.8908 110.3671 239.0130 0.0000 -6.9677 0.0000
# 4 0.0000 0.0000 0.0000 40.7456 0.0000 0.2183
# 5 -1.6522 0.9444 -6.9677 0.0000 13.2731 0.0000
# 6 0.0000 0.0000 0.0000 0.2183 0.0000 6.7819
#
#
#
# Elastic Compliance Matrix: (Units=1/GPa)
#
#
# Indices 1 2 3 4 5 6 
#
# 1 0.048455 -0.003752 0.000939 0.000000 0.006791 0.000000
# 2 -0.003752 0.024651 -0.011548 0.000000 -0.008283 0.000000
# 3 0.000939 -0.011548 0.009672 0.000000 0.006016 0.000000
# 4 0.000000 0.000000 0.000000 0.024547 0.000000 -0.000790
# 5 0.006791 -0.008283 0.006016 0.000000 0.079933 0.000000
# 6 0.000000 0.000000 0.000000 -0.000790 0.000000 0.147477
#
#
# Mechanical properties :
#
#
# Convention : Reuss Voigt Hill
#
# Bulk Modulus (GPa) = 18.49899 65.99310 42.24604
# Shear Modulus (GPa) = 13.10701 27.71317 20.41009
#
# Velocity S-wave (km/s) = 2.57116 3.73869 3.20848
# Velocity P-wave (km/s) = 4.25968 7.20571 5.91892
#
# Compressibility (1/GPa) = 0.05405701
#
# Stress axis : x y z
#
# Youngs Moduli (GPa) = 20.63788 40.56609 103.38801
#
# Poissons Ratio (x) = 0.15219 -0.09707
# Poissons Ratio (y) = 0.07743 1.19389
# Poissons Ratio (z) = -0.01938 0.46844
#
# Static dielectric constant tensor:
#      x y z
#    x 1.742740 0.000000 -0.009920 
#    y 0.000000 1.691370 0.000000 
#    z -0.009920 0.000000 1.718360 
# 
# From -- ./inp_files/29071.got.cif
#   From: 2010.05.17/outbox.cif.g08.bks.cpg/sg11_15_cif.got.tgz:29071.got - 2010.06.03 12:22:45.
