data_PCOD9164941
_publ_section_title
;
Structure prediction by ZEFSAII (Michael W. Deem and Ramdas Pophale) SiO2 
 PCOD9164941
Probable space group: P 21/M
;
_chemical_formula_sum "Si O2"
_cell_formula_units_Z 24
_cell_length_a 9.961087
_cell_length_b 8.685503
_cell_length_c 14.358835
_cell_angle_alpha 90.000000
_cell_angle_beta 79.965607
_cell_angle_gamma 90.000000
_cell_volume 1223.281263
_symmetry_space_group_name_H-M "P 21/M"
_symmetry_group_IT_number 11
_symmetry_cell_setting 'monoclinic'
loop_
_space_group_symop_operation_xyz
x,y,z
-x,1/2+y,-z
-x,-y,-z
x,1/2-y,z
loop_
_atom_site_type_symbol
_atom_site_label
_atom_site_fract_x
_atom_site_fract_y
_atom_site_fract_z
Si Si1 0.793562 0.064304 0.067253
Si Si2 0.151202 0.932544 0.488963
Si Si3 0.616960 0.933288 0.417945
Si Si4 0.071865 0.064748 0.130430
Si Si5 0.549046 0.065311 0.224143
Si Si6 0.240014 0.434882 0.284836
O O1 0.795054 0.250000 0.059668
O O2 0.651544 0.015571 0.130326
O O3 0.918920 0.017968 0.120308
O O4 0.829355 0.995665 0.962759
O O5 0.146266 0.750000 0.500798
O O6 0.239093 0.004986 0.561447
O O7 0.224940 0.979060 0.383932
O O8 0.000000 0.000000 0.500000
O O9 0.613251 0.750000 0.423953
O O10 0.500000 0.000000 0.500000
O O11 0.589561 0.988827 0.316725
O O12 0.076373 0.250000 0.129122
O O13 0.125670 0.015550 0.224662
O O14 0.564663 0.250000 0.233271
O O15 0.389966 0.035414 0.225318
O O16 0.228007 0.250000 0.302806
#
# Coordination Sequence:
#
# PCOD9164941 Si02
#       6
#     4   4   4   4   4   4
#     4   9  19  36  57  83 113 152 196 243 299 356
#     4  12  26  43  63  90 123 160 203 251 303 360
#     4  12  24  41  63  90 123 162 203 248 300 358
#     4   9  19  36  57  82 114 153 194 245 300 353
#     4  10  21  37  59  86 118 157 200 246 298 354
#     4  10  21  38  59  85 119 156 198 247 300 354
#
# _framework density 19.619363
#
# number of rings (size 3 to 8) (size 9 to 14) (size 15 to 20)
#    0.000    1.667    1.667    3.000    2.333    2.000 
#    0.000    0.000    0.000    0.000    0.000    0.000 
#    0.000    0.000    0.000    0.000    0.000    0.000 
#
# Total GULP energy -134125.060151 kJ/mol
# GULP energy per Si atom -5588.544173 kJ/mol
# Density = 1.957471 g / cm^3
# Si number density = 19.619363 Si / 1000 Ang^3
#
#
#
# Elastic Constant Matrix: (Units=GPa)
#
#
# Indices 1 2 3 4 5 6 
#
# 1 52.9559 14.6516 -15.7606 0.0000 -4.4502 0.0000
# 2 14.6516 39.5570 -3.7550 0.0000 -1.4576 0.0000
# 3 -15.7606 -3.7550 11.4004 0.0000 0.4794 0.0000
# 4 0.0000 0.0000 0.0000 33.6625 0.0000 -1.2894
# 5 -4.4502 -1.4576 0.4794 0.0000 43.2411 0.0000
# 6 0.0000 0.0000 0.0000 -1.2894 0.0000 23.9736
#
#
#
# Elastic Compliance Matrix: (Units=1/GPa)
#
#
# Indices 1 2 3 4 5 6 
#
# 1 0.035022 -0.008551 0.045481 0.000000 0.002812 0.000000
# 2 -0.008551 0.028210 -0.002534 0.000000 0.000099 0.000000
# 3 0.045481 -0.002534 0.149635 0.000000 0.002936 0.000000
# 4 0.000000 0.000000 0.000000 0.029768 0.000000 0.001601
# 5 0.002812 0.000099 0.002936 0.000000 0.023386 0.000000
# 6 0.000000 0.000000 0.000000 0.001601 0.000000 0.041799
#
#
# Mechanical properties :
#
#
# Convention : Reuss Voigt Hill
#
# Bulk Modulus (GPa) = 3.55037 10.46504 7.00770
# Shear Modulus (GPa) = 15.01897 27.42723 21.22310
#
# Velocity S-wave (km/s) = 2.76980 3.74300 3.29255
# Velocity P-wave (km/s) = 3.47025 4.90160 4.24666
#
# Compressibility (1/GPa) = 0.28166112
#
# Stress axis : x y z
#
# Youngs Moduli (GPa) = 28.55368 35.44814 6.68294
#
# Poissons Ratio (x) = 0.30311 -0.30395
# Poissons Ratio (y) = 0.24416 0.01693
# Poissons Ratio (z) = -1.29866 0.08981
#
# Static dielectric constant tensor:
#      x y z
#    x 1.718500 0.000000 -0.023630 
#    y 0.000000 1.660130 0.000000 
#    z -0.023630 0.000000 1.661890 
# 
# From -- ./inp_files/46467.got.cif
#   From: 2010.05.17/outbox.cif.g08.bks.cpg/sg11_24_cif.got.tgz:46467.got - 2010.06.03 12:22:45.
