data_PCOD9164503
_publ_section_title
;
Structure prediction by ZEFSAII (Michael W. Deem and Ramdas Pophale) SiO2 
 PCOD9164503
Probable space group: P 21/M
;
_chemical_formula_sum "Si O2"
_cell_formula_units_Z 28
_cell_length_a 14.543752
_cell_length_b 8.227642
_cell_length_c 16.036804
_cell_angle_alpha 90.000000
_cell_angle_beta 144.777357
_cell_angle_gamma 90.000000
_cell_volume 1106.779710
_symmetry_space_group_name_H-M "P 21/M"
_symmetry_group_IT_number 11
_symmetry_cell_setting 'monoclinic'
loop_
_space_group_symop_operation_xyz
x,y,z
-x,1/2+y,-z
-x,-y,-z
x,1/2-y,z
loop_
_atom_site_type_symbol
_atom_site_label
_atom_site_fract_x
_atom_site_fract_y
_atom_site_fract_z
Si Si1 0.084212 0.498553 0.878687
Si Si2 0.268164 0.930632 0.338373
Si Si3 0.630317 0.556754 0.410026
Si Si4 0.395451 0.563304 0.045333
Si Si5 0.281060 0.059788 0.162911
Si Si6 0.969676 0.933145 0.608674
Si Si7 0.708000 0.559078 0.203700
O O1 0.919580 0.416087 0.779919
O O2 0.032117 0.578153 0.751742
O O3 0.261607 0.441252 0.981499
O O4 0.149223 0.551888 0.018150
O O5 0.338395 0.750000 0.385232
O O6 0.343534 0.024438 0.471940
O O7 0.282957 0.019922 0.261964
O O8 0.623961 0.750000 0.391332
O O9 0.459619 0.480476 0.263062
O O10 0.793274 0.492844 0.487630
O O11 0.364882 0.750000 0.051556
O O12 0.584012 0.529388 0.187117
O O13 0.353984 0.555768 0.916278
O O14 0.240457 0.250000 0.121967
O O15 0.954829 0.750000 0.565338
O O16 0.104021 0.024795 0.655251
O O17 0.688028 0.750000 0.169129
#
# Coordination Sequence:
#
# PCOD9164503 Si02
#       7
#     4   4   4   4   4   4   4
#     4  10  21  35  55  81 111 143 180 221 267 321
#     4  11  23  40  60  81 107 141 182 226 273 322
#     4  10  22  40  60  81 108 144 184 224 269 321
#     4   9  18  31  48  75 111 147 179 216 267 321
#     4  12  25  39  56  81 111 142 181 226 274 325
#     4   9  19  36  58  83 111 145 183 222 269 323
#     4   9  16  27  49  80 110 141 179 222 265 313
#
# _framework density 25.298618000000001
#
# number of rings (size 3 to 8) (size 9 to 14) (size 15 to 20)
#    0.000    2.000    0.000    4.286    0.000   12.571 
#    0.000    0.000    0.000    0.857    0.000    0.000 
#    0.000    0.000    0.000    0.000    0.000    0.000 
#
# Total GULP energy -156019.725556 kJ/mol
# GULP energy per Si atom -5572.133056 kJ/mol
# Density = 2.524104 g / cm^3
# Si number density = 25.298618 Si / 1000 Ang^3
#
#
#
# Elastic Constant Matrix: (Units=GPa)
#
#
# Indices 1 2 3 4 5 6 
#
# 1 92.4168 33.2684 23.8770 0.0000 30.2463 0.0000
# 2 33.2684 84.3215 14.8615 0.0000 17.7793 0.0000
# 3 23.8770 14.8615 170.3883 0.0000 6.8389 0.0000
# 4 0.0000 0.0000 0.0000 9.0754 0.0000 0.4564
# 5 30.2463 17.7793 6.8389 0.0000 32.5192 0.0000
# 6 0.0000 0.0000 0.0000 0.4564 0.0000 16.7411
#
#
#
# Elastic Compliance Matrix: (Units=1/GPa)
#
#
# Indices 1 2 3 4 5 6 
#
# 1 0.016897 -0.003563 -0.001517 0.000000 -0.013448 0.000000
# 2 -0.003563 0.014289 -0.000571 0.000000 -0.004378 0.000000
# 3 -0.001517 -0.000571 0.006114 0.000000 0.000438 0.000000
# 4 0.000000 0.000000 0.000000 0.110339 0.000000 -0.003008
# 5 -0.013448 -0.004378 0.000438 0.000000 0.045561 0.000000
# 6 0.000000 0.000000 0.000000 -0.003008 0.000000 0.059815
#
#
# Mechanical properties :
#
#
# Convention : Reuss Voigt Hill
#
# Bulk Modulus (GPa) = 38.46772 54.57114 46.51943
# Shear Modulus (GPa) = 18.31609 30.00845 24.16227
#
# Velocity S-wave (km/s) = 2.69364 3.44782 3.09379
# Velocity P-wave (km/s) = 4.99126 6.12107 5.58481
#
# Compressibility (1/GPa) = 0.02599582
#
# Stress axis : x y z
#
# Youngs Moduli (GPa) = 59.18309 69.98369 163.56403
#
# Poissons Ratio (x) = 0.24938 0.24816
# Poissons Ratio (y) = 0.21090 0.09343
# Poissons Ratio (z) = 0.08979 0.03998
#
# Static dielectric constant tensor:
#      x y z
#    x 2.083050 0.000000 -0.029710 
#    y 0.000000 2.270720 0.000000 
#    z -0.029710 0.000000 2.030520 
# 
# From -- ./inp_files/66021.got.cif
#   From: 2010.05.17/outbox.cif.g08.bks.cpg/sg11_34_cif.got.tgz:66021.got - 2010.06.03 12:22:45.
