data_PCOD9164721
_publ_section_title
;
Structure prediction by ZEFSAII (Michael W. Deem and Ramdas Pophale) SiO2 
 PCOD9164721
Probable space group: P 21/M
;
_chemical_formula_sum "Si O2"
_cell_formula_units_Z 20
_cell_length_a 9.036050
_cell_length_b 10.144933
_cell_length_c 10.084314
_cell_angle_alpha 90.000000
_cell_angle_beta 100.673293
_cell_angle_gamma 90.000000
_cell_volume 908.436941
_symmetry_space_group_name_H-M "P 21/M"
_symmetry_group_IT_number 11
_symmetry_cell_setting 'monoclinic'
loop_
_space_group_symop_operation_xyz
x,y,z
-x,1/2+y,-z
-x,-y,-z
x,1/2-y,z
loop_
_atom_site_type_symbol
_atom_site_label
_atom_site_fract_x
_atom_site_fract_y
_atom_site_fract_z
Si Si1 0.761660 0.098369 0.087310
Si Si2 0.661844 0.399137 0.781381
Si Si3 0.815559 0.890441 0.482402
Si Si4 0.411891 0.903332 0.662400
Si Si5 0.021058 0.967728 0.276454
O O1 0.811701 0.250000 0.079468
O O2 0.657077 0.092955 0.200134
O O3 0.904922 0.008593 0.143526
O O4 0.674730 0.063685 0.938888
O O5 0.599478 0.250000 0.759406
O O6 0.561870 0.509117 0.692839
O O7 0.832034 0.399071 0.756119
O O8 0.734369 0.750000 0.470248
O O9 0.914306 0.907646 0.630549
O O10 0.708466 0.016411 0.445330
O O11 0.927710 0.893325 0.374943
O O12 0.429597 0.750000 0.627208
#
# Coordination Sequence:
#
# PCOD9164721 Si02
#       5
#     4   4   4   4   4
#     4   9  19  37  59  85 117 152 187 229 282 339
#     4  11  22  37  59  87 118 149 188 235 282 337
#     4  10  21  39  62  84 112 152 193 234 283 339
#     4  10  22  39  59  84 116 153 192 233 281 336
#     4  10  21  36  59  88 117 146 187 236 286 337
#
# _framework density 22.015837000000001
#
# number of rings (size 3 to 8) (size 9 to 14) (size 15 to 20)
#    0.000    2.000    0.000    3.000    0.000    8.000 
#    0.000    5.000    0.000    0.000    0.000    0.000 
#    0.000    0.000    0.000    0.000    0.000    0.000 
#
# Total GULP energy -111746.421430 kJ/mol
# GULP energy per Si atom -5587.321072 kJ/mol
# Density = 2.196573 g / cm^3
# Si number density = 22.015837 Si / 1000 Ang^3
#
#
#
# Elastic Constant Matrix: (Units=GPa)
#
#
# Indices 1 2 3 4 5 6 
#
# 1 87.5527 48.5700 10.6409 0.0000 7.7088 0.0000
# 2 48.5700 151.5376 24.9773 0.0000 18.8751 0.0000
# 3 10.6409 24.9773 58.4541 0.0000 -7.9116 0.0000
# 4 0.0000 0.0000 0.0000 -9.1046 0.0000 9.1443
# 5 7.7088 18.8751 -7.9116 0.0000 27.2851 0.0000
# 6 0.0000 0.0000 0.0000 9.1443 0.0000 18.4150
#
#
#
# Elastic Compliance Matrix: (Units=1/GPa)
#
#
# Indices 1 2 3 4 5 6 
#
# 1 0.013958 -0.004149 -0.000951 0.000000 -0.001349 0.000000
# 2 -0.004149 0.009432 -0.004163 0.000000 -0.006560 0.000000
# 3 -0.000951 -0.004163 0.020281 0.000000 0.009029 0.000000
# 4 0.000000 0.000000 0.000000 -0.073285 0.000000 0.036391
# 5 -0.001349 -0.006560 0.009029 0.000000 0.044187 0.000000
# 6 0.000000 0.000000 0.000000 0.036391 0.000000 0.036233
#
#
# Mechanical properties :
#
#
# Convention : Reuss Voigt Hill
#
# Bulk Modulus (GPa) = 39.76733 51.76896 45.76815
# Shear Modulus (GPa) = 64.33919 21.54283 42.94101
#
# Velocity S-wave (km/s) = 5.41179 3.13152 4.42119
# Velocity P-wave (km/s) = 7.55991 6.05315 6.84810
#
# Compressibility (1/GPa) = 0.02514627
#
# Stress axis : x y z
#
# Youngs Moduli (GPa) = 71.64548 106.02187 49.30646
#
# Poissons Ratio (x) = 0.43988 0.04687
# Poissons Ratio (y) = 0.29725 0.20526
# Poissons Ratio (z) = 0.06810 0.44135
#
# Static dielectric constant tensor:
#      x y z
#    x 1.809320 0.000000 -0.017730 
#    y 0.000000 1.905760 0.000000 
#    z -0.017730 0.000000 1.802350 
# 
# From -- ./inp_files/15912.got.cif
#   From: 2010.05.17/outbox.cif.g08.bks.cpg/sg11_8_cif.got.tgz:15912.got - 2010.06.03 12:22:45.
