data_PCOD9164711
_publ_section_title
;
Structure prediction by ZEFSAII (Michael W. Deem and Ramdas Pophale) SiO2 
 PCOD9164711
Probable space group: P 21/M
;
_chemical_formula_sum "Si O2"
_cell_formula_units_Z 32
_cell_length_a 14.208467
_cell_length_b 13.313731
_cell_length_c 21.231079
_cell_angle_alpha 90.000000
_cell_angle_beta 157.748347
_cell_angle_gamma 90.000000
_cell_volume 1520.848898
_symmetry_space_group_name_H-M "P 21/M"
_symmetry_group_IT_number 11
_symmetry_cell_setting 'monoclinic'
loop_
_space_group_symop_operation_xyz
x,y,z
-x,1/2+y,-z
-x,-y,-z
x,1/2-y,z
loop_
_atom_site_type_symbol
_atom_site_label
_atom_site_fract_x
_atom_site_fract_y
_atom_site_fract_z
Si Si1 0.120972 0.365098 0.948135
Si Si2 0.931559 0.865295 0.659905
Si Si3 0.719086 0.541415 0.828089
Si Si4 0.696677 0.438103 0.008277
Si Si5 0.919829 0.138295 0.456083
Si Si6 0.578605 0.037407 0.618061
Si Si7 0.173802 0.491355 0.706962
Si Si8 0.477418 0.358683 0.746331
O O1 0.145814 0.250000 0.942696
O O2 0.223179 0.450200 0.963802
O O3 0.830413 0.396602 0.774144
O O4 0.260850 0.378601 0.102693
O O5 0.950097 0.750000 0.650520
O O6 0.650982 0.896773 0.499685
O O7 0.089747 0.884580 0.820692
O O8 0.054331 0.939643 0.685317
O O9 0.632419 0.553194 0.701947
O O10 0.545333 0.451859 0.745620
O O11 0.000000 0.500000 0.000000
O O12 0.438909 0.444020 0.887575
O O13 0.633930 0.376072 0.906679
O O14 0.816809 0.250000 0.394371
O O15 0.190539 0.141789 0.589736
O O16 0.772422 0.060730 0.321546
O O17 0.981119 0.091870 0.562021
O O18 0.500000 0.000000 0.500000
O O19 0.537299 0.250000 0.755076
#
# Coordination Sequence:
#
# PCOD9164711 Si02
#       8
#     4   4   4   4   4   4   4   4
#     4  10  21  41  64  87 118 164 207 244 303 367
#     4  12  24  39  63  90 118 158 205 252 306 368
#     4   9  20  34  56  87 119 153 194 250 304 357
#     4  10  21  39  57  87 124 161 194 248 302 362
#     4   9  18  35  59  87 117 155 199 245 300 362
#     4  11  22  42  65  87 125 157 200 260 313 358
#     4  10  21  36  58  89 124 156 196 250 307 358
#     4   9  17  33  59  86 115 151 200 250 296 350
#
# _framework density 21.040880000000001
#
# number of rings (size 3 to 8) (size 9 to 14) (size 15 to 20)
#    0.000    2.000    1.250    2.250    0.000    6.000 
#    0.000    1.875    0.000    0.000    0.000    0.000 
#    0.000    0.000    0.000    0.000    0.000    0.000 
#
# Total GULP energy -178670.421607 kJ/mol
# GULP energy per Si atom -5583.450675 kJ/mol
# Density = 2.099299 g / cm^3
# Si number density = 21.040880 Si / 1000 Ang^3
#
#
#
# Elastic Constant Matrix: (Units=GPa)
#
#
# Indices 1 2 3 4 5 6 
#
# 1 55.6273 -3.3665 18.7774 0.0000 -6.4022 0.0000
# 2 -3.3665 74.2088 3.3915 0.0000 3.0978 0.0000
# 3 18.7774 3.3915 107.6120 0.0000 -11.6242 0.0000
# 4 0.0000 0.0000 0.0000 15.8588 0.0000 4.1944
# 5 -6.4022 3.0978 -11.6242 0.0000 41.0750 0.0000
# 6 0.0000 0.0000 0.0000 4.1944 0.0000 15.6732
#
#
#
# Elastic Compliance Matrix: (Units=1/GPa)
#
#
# Indices 1 2 3 4 5 6 
#
# 1 0.019343 0.000938 -0.003184 0.000000 0.002043 0.000000
# 2 0.000938 0.013595 -0.000709 0.000000 -0.001080 0.000000
# 3 -0.003184 -0.000709 0.010132 0.000000 0.002425 0.000000
# 4 0.000000 0.000000 0.000000 0.067859 0.000000 -0.018160
# 5 0.002043 -0.001080 0.002425 0.000000 0.025432 0.000000
# 6 0.000000 0.000000 0.000000 -0.018160 0.000000 0.068663
#
#
# Mechanical properties :
#
#
# Convention : Reuss Voigt Hill
#
# Bulk Modulus (GPa) = 26.90977 30.56145 28.73561
# Shear Modulus (GPa) = 22.38909 29.09780 25.74344
#
# Velocity S-wave (km/s) = 3.26556 3.72279 3.50165
# Velocity P-wave (km/s) = 5.19957 5.74763 5.48046
#
# Compressibility (1/GPa) = 0.03716123
#
# Stress axis : x y z
#
# Youngs Moduli (GPa) = 51.69696 73.55375 98.69243
#
# Poissons Ratio (x) = -0.06897 0.31425
# Poissons Ratio (y) = -0.04848 0.06995
# Poissons Ratio (z) = 0.16461 0.05213
#
# Static dielectric constant tensor:
#      x y z
#    x 1.805060 0.000000 -0.005800 
#    y 0.000000 1.754020 0.000000 
#    z -0.005800 0.000000 1.794950 
# 
# From -- ./inp_files/65791.got.cif
#   From: 2010.05.17/outbox.cif.g08.bks.cpg/sg11_33_cif.got.tgz:65791.got - 2010.06.03 12:22:45.
