data_PCOD9164271
_publ_section_title
;
Structure prediction by ZEFSAII (Michael W. Deem and Ramdas Pophale) SiO2 
 PCOD9164271
Probable space group: P 21/M
;
_chemical_formula_sum "Si O2"
_cell_formula_units_Z 32
_cell_length_a 11.881742
_cell_length_b 14.822064
_cell_length_c 16.687937
_cell_angle_alpha 90.000000
_cell_angle_beta 145.887068
_cell_angle_gamma 90.000000
_cell_volume 1648.236392
_symmetry_space_group_name_H-M "P 21/M"
_symmetry_group_IT_number 11
_symmetry_cell_setting 'monoclinic'
loop_
_space_group_symop_operation_xyz
x,y,z
-x,1/2+y,-z
-x,-y,-z
x,1/2-y,z
loop_
_atom_site_type_symbol
_atom_site_label
_atom_site_fract_x
_atom_site_fract_y
_atom_site_fract_z
Si Si1 0.962917 0.149686 0.662221
Si Si2 0.352665 0.857851 0.893381
Si Si3 0.122718 0.407734 0.583504
Si Si4 0.932475 0.486454 0.051390
Si Si5 0.079614 0.148523 0.382377
Si Si6 0.288174 0.145959 0.994082
Si Si7 0.434469 0.858324 0.125871
Si Si8 0.729845 0.990823 0.610473
O O1 0.874375 0.250000 0.613531
O O2 0.041978 0.132085 0.619315
O O3 0.152727 0.147769 0.834071
O O4 0.810176 0.076556 0.607383
O O5 0.333212 0.750000 0.867444
O O6 0.131949 0.898603 0.763845
O O7 0.497376 0.891007 0.909107
O O8 0.438609 0.867908 0.032167
O O9 0.081220 0.351385 0.478806
O O10 0.364915 0.408877 0.727187
O O11 0.000000 0.500000 0.500000
O O12 0.119063 0.476899 0.224236
O O13 0.815726 0.577540 0.007642
O O14 0.000000 0.500000 0.000000
O O15 0.771425 0.404901 0.965853
O O16 0.084080 0.250000 0.353606
O O17 0.248503 0.091956 0.438394
O O18 0.303595 0.250000 0.031530
O O19 0.442490 0.750000 0.148977
O O20 0.500000 0.000000 0.500000
#
# Coordination Sequence:
#
# PCOD9164271 Si02
#       8
#     4   4   4   4   4   4   4   4
#     4  10  20  40  65  91 124 167 212 258 316 389
#     4   9  18  36  64  94 121 156 202 253 320 390
#     4  12  24  38  64 100 136 167 204 262 328 395
#     4  11  26  41  64  92 122 170 226 270 313 375
#     4  11  23  40  63  97 133 165 207 265 329 391
#     4   9  19  38  65  93 124 161 207 260 319 383
#     4  11  23  42  68  95 129 172 215 265 327 394
#     4  11  25  44  62  88 128 172 222 269 319 382
#
# _framework density 19.414691000000001
#
# number of rings (size 3 to 8) (size 9 to 14) (size 15 to 20)
#    0.000    1.500    3.750    1.125    3.500    1.500 
#    0.000    0.000    0.000    0.000    0.000    0.000 
#    0.000    0.000    0.000    0.000    0.000    0.000 
#
# Total GULP energy -178585.773667 kJ/mol
# GULP energy per Si atom -5580.805427 kJ/mol
# Density = 1.937050 g / cm^3
# Si number density = 19.414691 Si / 1000 Ang^3
#
#
#
# Elastic Constant Matrix: (Units=GPa)
#
#
# Indices 1 2 3 4 5 6 
#
# 1 137.5922 57.9451 32.6121 0.0000 12.5207 0.0000
# 2 57.9451 106.7295 36.5944 0.0000 12.4014 0.0000
# 3 32.6121 36.5944 81.6633 0.0000 21.2847 0.0000
# 4 0.0000 0.0000 0.0000 16.9772 0.0000 -5.2087
# 5 12.5207 12.4014 21.2847 0.0000 36.5297 0.0000
# 6 0.0000 0.0000 0.0000 -5.2087 0.0000 13.0738
#
#
#
# Elastic Compliance Matrix: (Units=1/GPa)
#
#
# Indices 1 2 3 4 5 6 
#
# 1 0.009657 -0.004606 -0.001577 0.000000 -0.000827 0.000000
# 2 -0.004606 0.013300 -0.003956 0.000000 -0.000631 0.000000
# 3 -0.001577 -0.003956 0.016692 0.000000 -0.007842 0.000000
# 4 0.000000 0.000000 0.000000 0.067105 0.000000 0.026735
# 5 -0.000827 -0.000631 -0.007842 0.000000 0.032442 0.000000
# 6 0.000000 0.000000 0.000000 0.026735 0.000000 0.087140
#
#
# Mechanical properties :
#
#
# Convention : Reuss Voigt Hill
#
# Bulk Modulus (GPa) = 51.62309 64.47647 58.04978
# Shear Modulus (GPa) = 19.75739 26.57170 23.16455
#
# Velocity S-wave (km/s) = 3.19353 3.70353 3.45794
# Velocity P-wave (km/s) = 6.34394 7.18125 6.77554
#
# Compressibility (1/GPa) = 0.01937118
#
# Stress axis : x y z
#
# Youngs Moduli (GPa) = 103.55609 75.18869 59.90983
#
# Poissons Ratio (x) = 0.34632 0.09446
# Poissons Ratio (y) = 0.47698 0.23700
# Poissons Ratio (z) = 0.16327 0.29744
#
# Static dielectric constant tensor:
#      x y z
#    x 1.642190 0.000000 0.001130 
#    y 0.000000 1.715880 0.000000 
#    z 0.001130 0.000000 1.724090 
# 
# From -- ./inp_files/59539.got.cif
#   From: 2010.05.17/outbox.cif.g08.bks.cpg/sg11_30_cif.got.tgz:59539.got - 2010.06.03 12:22:45.
