data_PCOD9164508
_publ_section_title
;
Structure prediction by ZEFSAII (Michael W. Deem and Ramdas Pophale) SiO2 
 PCOD9164508
Probable space group: P 21/M
;
_chemical_formula_sum "Si O2"
_cell_formula_units_Z 28
_cell_length_a 10.661656
_cell_length_b 10.863050
_cell_length_c 15.592560
_cell_angle_alpha 90.000000
_cell_angle_beta 125.489885
_cell_angle_gamma 90.000000
_cell_volume 1470.396904
_symmetry_space_group_name_H-M "P 21/M"
_symmetry_group_IT_number 11
_symmetry_cell_setting 'monoclinic'
loop_
_space_group_symop_operation_xyz
x,y,z
-x,1/2+y,-z
-x,-y,-z
x,1/2-y,z
loop_
_atom_site_type_symbol
_atom_site_label
_atom_site_fract_x
_atom_site_fract_y
_atom_site_fract_z
Si Si1 0.890985 0.614726 0.854645
Si Si2 0.869124 0.506643 0.665657
Si Si3 0.831598 0.607286 0.293866
Si Si4 0.506242 0.888543 0.068640
Si Si5 0.563086 0.109416 0.585408
Si Si6 0.277470 0.395801 0.568873
Si Si7 0.782774 0.111627 0.920329
O O1 0.831955 0.750000 0.857266
O O2 0.882427 0.601908 0.748887
O O3 0.802500 0.500987 0.862937
O O4 0.066942 0.606024 0.958073
O O5 0.745966 0.407494 0.653180
O O6 0.799728 0.556379 0.548822
O O7 0.036202 0.456753 0.708092
O O8 0.879028 0.750000 0.322417
O O9 0.669347 0.605326 0.181152
O O10 0.798486 0.551711 0.375218
O O11 0.492145 0.750000 0.024606
O O12 0.368995 0.900800 0.082689
O O13 0.500000 0.000000 0.000000
O O14 0.525484 0.250000 0.542817
O O15 0.463012 0.088307 0.632198
O O16 0.500000 0.000000 0.500000
O O17 0.253679 0.250000 0.563472
O O18 0.781872 0.250000 0.880381
#
# Coordination Sequence:
#
# PCOD9164508 Si02
#       7
#     4   4   4   4   4   4   4
#     4  10  21  36  57  85 116 149 188 240 296 343
#     4  11  20  33  56  85 115 149 191 239 286 341
#     4  10  21  35  55  83 115 151 195 236 282 341
#     4  10  21  38  61  84 114 153 194 238 287 342
#     4   9  19  34  55  79 108 146 189 233 280 332
#     4   9  19  36  55  78 111 153 191 233 285 342
#     4   9  20  38  58  83 113 151 196 240 287 346
#
# _framework density 19.042477000000002
#
# number of rings (size 3 to 8) (size 9 to 14) (size 15 to 20)
#    0.000    2.286    0.000    2.143    2.000    2.286 
#    0.000    3.571    0.000    2.571    0.000    0.000 
#    0.000    0.000    0.000    0.000    0.000    0.000 
#
# Total GULP energy -156014.919053 kJ/mol
# GULP energy per Si atom -5571.961395 kJ/mol
# Density = 1.899914 g / cm^3
# Si number density = 19.042477 Si / 1000 Ang^3
#
#
#
# Elastic Constant Matrix: (Units=GPa)
#
#
# Indices 1 2 3 4 5 6 
#
# 1 119.8626 71.6565 27.9635 0.0000 10.3848 0.0000
# 2 71.6565 118.3034 35.4806 0.0000 -7.7094 0.0000
# 3 27.9635 35.4806 49.3403 0.0000 -13.3471 0.0000
# 4 0.0000 0.0000 0.0000 22.3443 0.0000 -6.3128
# 5 10.3848 -7.7094 -13.3471 0.0000 25.8299 0.0000
# 6 0.0000 0.0000 0.0000 -6.3128 0.0000 26.3113
#
#
#
# Elastic Compliance Matrix: (Units=1/GPa)
#
#
# Indices 1 2 3 4 5 6 
#
# 1 0.016000 -0.008640 -0.006152 0.000000 -0.012191 0.000000
# 2 -0.008640 0.015462 -0.004689 0.000000 0.005666 0.000000
# 3 -0.006152 -0.004689 0.031872 0.000000 0.017543 0.000000
# 4 0.000000 0.000000 0.000000 0.048008 0.000000 0.011519
# 5 -0.012191 0.005666 0.017543 0.000000 0.054372 0.000000
# 6 0.000000 0.000000 0.000000 0.011519 0.000000 0.040770
#
#
# Mechanical properties :
#
#
# Convention : Reuss Voigt Hill
#
# Bulk Modulus (GPa) = 41.03412 61.96750 51.50081
# Shear Modulus (GPa) = 19.71838 25.05747 22.38793
#
# Velocity S-wave (km/s) = 3.22140 3.63143 3.43254
# Velocity P-wave (km/s) = 5.95249 7.08487 6.54322
#
# Compressibility (1/GPa) = 0.02436996
#
# Stress axis : x y z
#
# Youngs Moduli (GPa) = 62.50105 64.67538 31.37578
#
# Poissons Ratio (x) = 0.55882 0.19303
# Poissons Ratio (y) = 0.54003 0.14712
# Poissons Ratio (z) = 0.38452 0.30327
#
# Static dielectric constant tensor:
#      x y z
#    x 1.665150 0.000000 0.007860 
#    y 0.000000 1.682300 0.000000 
#    z 0.007860 0.000000 1.690010 
# 
# From -- ./inp_files/47271.got.cif
#   From: 2010.05.17/outbox.cif.g08.bks.cpg/sg11_24_cif.got.tgz:47271.got - 2010.06.03 12:22:45.
