data_PCOD9164440
_publ_section_title
;
Structure prediction by ZEFSAII (Michael W. Deem and Ramdas Pophale) SiO2 
 PCOD9164440
Probable space group: P 21/M
;
_chemical_formula_sum "Si O2"
_cell_formula_units_Z 28
_cell_length_a 21.093889
_cell_length_b 7.439279
_cell_length_c 22.947798
_cell_angle_alpha 90.000000
_cell_angle_beta 160.393584
_cell_angle_gamma 90.000000
_cell_volume 1208.355996
_symmetry_space_group_name_H-M "P 21/M"
_symmetry_group_IT_number 11
_symmetry_cell_setting 'monoclinic'
loop_
_space_group_symop_operation_xyz
x,y,z
-x,1/2+y,-z
-x,-y,-z
x,1/2-y,z
loop_
_atom_site_type_symbol
_atom_site_label
_atom_site_fract_x
_atom_site_fract_y
_atom_site_fract_z
Si Si1 0.788307 0.962366 0.292787
Si Si2 0.769264 0.966359 0.041869
Si Si3 0.186659 0.963550 0.052300
Si Si4 0.045865 0.470565 0.679717
Si Si5 0.496466 0.545278 0.398802
Si Si6 0.640857 0.457214 0.284936
Si Si7 0.213916 0.469947 0.258260
O O1 0.755061 0.750000 0.263614
O O2 0.802515 0.027217 0.238553
O O3 0.653140 0.040367 0.225131
O O4 0.000000 0.000000 0.500000
O O5 0.762791 0.750000 0.041232
O O6 0.894897 0.028711 0.204883
O O7 0.555677 0.037267 0.864293
O O8 0.840845 0.009939 0.039814
O O9 0.193831 0.750000 0.069312
O O10 0.386037 0.038145 0.248581
O O11 0.001959 0.030747 0.926245
O O12 0.043917 0.250000 0.675644
O O13 0.836840 0.533820 0.479794
O O14 0.548362 0.750000 0.428736
O O15 0.335052 0.541244 0.309306
O O16 0.678346 0.469130 0.589332
O O17 0.640480 0.250000 0.303414
O O18 0.222200 0.250000 0.263209
#
# Coordination Sequence:
#
# PCOD9164440 Si02
#       7
#     4   4   4   4   4   4   4
#     4   9  16  29  51  75  98 125 158 200 250 296
#     4  10  21  35  50  69  95 132 171 199 233 286
#     4  10  21  35  49  70 102 132 159 198 242 281
#     4   8  16  32  50  69  96 125 156 200 246 285
#     4   9  18  33  53  76 101 127 156 196 243 284
#     4   9  18  33  51  71  97 126 159 203 248 288
#     4   9  18  33  53  76 100 126 158 196 239 286
#
# _framework density 23.171979
#
# number of rings (size 3 to 8) (size 9 to 14) (size 15 to 20)
#    0.000    2.857    0.000    1.714    0.000    3.429 
#    0.000    3.571    0.000    0.000    0.000    0.000 
#    0.000    0.000    0.000    0.000    0.000    0.000 
#
# Total GULP energy -156234.994809 kJ/mol
# GULP energy per Si atom -5579.821243 kJ/mol
# Density = 2.311924 g / cm^3
# Si number density = 23.171979 Si / 1000 Ang^3
#
#
#
# Elastic Constant Matrix: (Units=GPa)
#
#
# Indices 1 2 3 4 5 6 
#
# 1 61.6936 -16.0129 12.0593 0.0000 -19.8939 0.0000
# 2 -16.0129 79.2125 1.6705 0.0000 -2.9493 0.0000
# 3 12.0593 1.6705 73.3002 0.0000 -17.9655 0.0000
# 4 0.0000 0.0000 0.0000 -3.1284 0.0000 -0.7507
# 5 -19.8939 -2.9493 -17.9655 0.0000 44.7728 0.0000
# 6 0.0000 0.0000 0.0000 -0.7507 0.0000 22.2498
#
#
#
# Elastic Compliance Matrix: (Units=1/GPa)
#
#
# Indices 1 2 3 4 5 6 
#
# 1 0.020495 0.004501 -0.001297 0.000000 0.008883 0.000000
# 2 0.004501 0.013644 -0.000378 0.000000 0.002747 0.000000
# 3 -0.001297 -0.000378 0.015213 0.000000 0.005503 0.000000
# 4 0.000000 0.000000 0.000000 -0.317082 0.000000 -0.010698
# 5 0.008883 0.002747 0.005503 0.000000 0.028671 0.000000
# 6 0.000000 0.000000 0.000000 -0.010698 0.000000 0.044583
#
#
# Mechanical properties :
#
#
# Convention : Reuss Voigt Hill
#
# Bulk Modulus (GPa) = 18.18029 23.29334 20.73681
# Shear Modulus (GPa) = -27.50406 27.21147 -0.14630
#
# Velocity S-wave (km/s) = -3.44896 3.43056 -0.25154
# Velocity P-wave (km/s) = 2.82800 5.07601 2.98063
#
# Compressibility (1/GPa) = 0.05500462
#
# Stress axis : x y z
#
# Youngs Moduli (GPa) = 48.79143 73.28978 65.73165
#
# Poissons Ratio (x) = -0.32990 0.08528
# Poissons Ratio (y) = -0.21962 0.02486
# Poissons Ratio (z) = 0.06330 0.02772
#
# Static dielectric constant tensor:
#      x y z
#    x 1.860140 0.000000 -0.034720 
#    y 0.000000 1.896330 0.000000 
#    z -0.034720 0.000000 1.887480 
# 
# From -- ./inp_files/69828.got.cif
#   From: 2010.05.17/outbox.cif.g08.bks.cpg/sg11_35_cif.got.tgz:69828.got - 2010.06.03 12:22:45.
