data_PCOD9164456
_publ_section_title
;
Structure prediction by ZEFSAII (Michael W. Deem and Ramdas Pophale) SiO2 
 PCOD9164456
Probable space group: P 21/M
;
_chemical_formula_sum "Si O2"
_cell_formula_units_Z 32
_cell_length_a 20.446667
_cell_length_b 13.786511
_cell_length_c 18.394513
_cell_angle_alpha 90.000000
_cell_angle_beta 159.377096
_cell_angle_gamma 90.000000
_cell_volume 1826.308064
_symmetry_space_group_name_H-M "P 21/M"
_symmetry_group_IT_number 11
_symmetry_cell_setting 'monoclinic'
loop_
_space_group_symop_operation_xyz
x,y,z
-x,1/2+y,-z
-x,-y,-z
x,1/2-y,z
loop_
_atom_site_type_symbol
_atom_site_label
_atom_site_fract_x
_atom_site_fract_y
_atom_site_fract_z
Si Si1 0.526701 0.634641 0.028580
Si Si2 0.584841 0.635509 0.921846
Si Si3 0.185704 0.977761 0.647814
Si Si4 0.973298 0.634641 0.971420
Si Si5 0.084841 0.135509 0.921847
Si Si6 0.022475 0.634395 0.342775
Si Si7 0.522477 0.134395 0.342776
Si Si8 0.314296 0.977761 0.352186
O O1 0.541928 0.750000 0.052338
O O2 0.693961 0.575389 0.239001
O O3 0.543243 0.605821 0.960216
O O4 0.323372 0.593935 0.835907
O O5 0.546873 0.750000 0.880380
O O6 0.471390 0.597649 0.734288
O O7 0.804362 0.625033 0.136395
O O8 0.132804 0.924894 0.517690
O O9 0.000000 0.000000 0.500000
O O10 0.958073 0.750000 0.947664
O O11 0.956755 0.605821 0.039782
O O12 0.176627 0.593935 0.164093
O O13 0.806038 0.575389 0.760998
O O14 0.046871 0.250000 0.880379
O O15 0.971392 0.097649 0.734290
O O16 0.304363 0.125034 0.136395
O O17 0.069772 0.750000 0.395779
O O18 0.569776 0.250000 0.395783
O O19 0.632804 0.075106 0.517690
O O20 0.500000 0.000000 0.500000
#
# Coordination Sequence:
#
# PCOD9164456 Si02
#       8
#     4   4   4   4   4   4   4   4
#     4  10  21  35  51  76 107 135 170 211 249 303
#     4   8  15  29  50  76 106 133 160 202 258 309
#     4  11  21  32  50  76 105 138 173 203 252 304
#     4  10  21  35  51  76 107 135 170 211 249 303
#     4   8  15  29  50  76 106 133 160 202 258 309
#     4   9  16  29  51  78 108 136 160 200 255 306
#     4   9  16  29  51  78 108 136 160 200 255 306
#     4  11  21  32  50  76 105 138 173 203 252 304
#
# _framework density 17.521688000000001
#
# number of rings (size 3 to 8) (size 9 to 14) (size 15 to 20)
#    0.000    2.500    2.500    2.250    0.000    2.000 
#    0.000    3.750    0.000    0.000    0.000   19.250 
#    0.000    0.250    0.000    0.000    0.000    0.000 
#
# Total GULP energy -178283.311888 kJ/mol
# GULP energy per Si atom -5571.353496 kJ/mol
# Density = 1.748181 g / cm^3
# Si number density = 17.521688 Si / 1000 Ang^3
#
#
#
# Elastic Constant Matrix: (Units=GPa)
#
#
# Indices 1 2 3 4 5 6 
#
# 1 43.5322 24.4478 32.7952 0.0000 -5.3212 0.0000
# 2 24.4478 110.2911 61.0114 0.0000 -9.7207 0.0000
# 3 32.7952 61.0114 126.0685 0.0000 -5.4044 0.0000
# 4 0.0000 0.0000 0.0000 37.6966 0.0000 -10.3765
# 5 -5.3212 -9.7207 -5.4044 0.0000 28.9952 0.0000
# 6 0.0000 0.0000 0.0000 -10.3765 0.0000 15.1267
#
#
#
# Elastic Compliance Matrix: (Units=1/GPa)
#
#
# Indices 1 2 3 4 5 6 
#
# 1 0.029643 -0.002855 -0.006187 0.000000 0.003330 0.000000
# 2 -0.002855 0.012932 -0.005395 0.000000 0.002806 0.000000
# 3 -0.006187 -0.005395 0.012123 0.000000 -0.000685 0.000000
# 4 0.000000 0.000000 0.000000 0.032703 0.000000 0.022433
# 5 0.003330 0.002806 -0.000685 0.000000 0.035913 0.000000
# 6 0.000000 0.000000 0.000000 0.022433 0.000000 0.081496
#
#
# Mechanical properties :
#
#
# Convention : Reuss Voigt Hill
#
# Bulk Modulus (GPa) = 38.72427 57.37784 48.05105
# Shear Modulus (GPa) = 20.63631 27.13952 23.88791
#
# Velocity S-wave (km/s) = 3.43557 3.93989 3.69634
# Velocity P-wave (km/s) = 6.15518 7.31538 6.76022
#
# Compressibility (1/GPa) = 0.02582360
#
# Stress axis : x y z
#
# Youngs Moduli (GPa) = 33.73519 77.32931 82.48499
#
# Poissons Ratio (x) = 0.22076 0.51032
# Poissons Ratio (y) = 0.09631 0.44504
# Poissons Ratio (z) = 0.20871 0.41722
#
# Static dielectric constant tensor:
#      x y z
#    x 1.669380 0.000000 0.027300 
#    y 0.000000 1.588550 0.000000 
#    z 0.027300 0.000000 1.660690 
# 
# From -- ./inp_files/61613.got.cif
#   From: 2010.05.17/outbox.cif.g08.bks.cpg/sg11_31_cif.got.tgz:61613.got - 2010.06.03 12:22:45.
