data_PCOD9164405
_publ_section_title
;
Structure prediction by ZEFSAII (Michael W. Deem and Ramdas Pophale) SiO2 
 PCOD9164405
Probable space group: P 21/M
;
_chemical_formula_sum "Si O2"
_cell_formula_units_Z 30
_cell_length_a 14.000627
_cell_length_b 9.642507
_cell_length_c 11.638546
_cell_angle_alpha 90.000000
_cell_angle_beta 95.964702
_cell_angle_gamma 90.000000
_cell_volume 1562.710616
_symmetry_space_group_name_H-M "P 21/M"
_symmetry_group_IT_number 11
_symmetry_cell_setting 'monoclinic'
loop_
_space_group_symop_operation_xyz
x,y,z
-x,1/2+y,-z
-x,-y,-z
x,1/2-y,z
loop_
_atom_site_type_symbol
_atom_site_label
_atom_site_fract_x
_atom_site_fract_y
_atom_site_fract_z
Si Si1 0.214467 0.909358 0.225168
Si Si2 0.130487 0.911062 0.591951
Si Si3 0.488103 0.250000 0.994781
Si Si4 0.643313 0.488642 0.959964
Si Si5 0.370443 0.597477 0.439623
Si Si6 0.574952 0.590362 0.351010
Si Si7 0.088039 0.412585 0.361758
Si Si8 0.304375 0.913805 0.790187
O O1 0.187496 0.750000 0.192390
O O2 0.279966 0.903296 0.347439
O O3 0.127160 0.005937 0.255551
O O4 0.284062 0.971813 0.137034
O O5 0.141080 0.750000 0.553795
O O6 0.215396 0.938519 0.693369
O O7 0.027302 0.921990 0.640895
O O8 0.127347 0.013499 0.482973
O O9 0.415303 0.370297 0.036201
O O10 0.562790 0.369027 0.953177
O O11 0.707695 0.466368 0.082795
O O12 0.378405 0.750000 0.498960
O O13 0.463717 0.582839 0.370726
O O14 0.372272 0.476393 0.532496
O O15 0.600543 0.750000 0.332934
O O16 0.605003 0.496298 0.249017
O O17 0.114955 0.250000 0.362477
O O18 0.325287 0.750000 0.795894
#
# Coordination Sequence:
#
# PCOD9164405 Si02
#       8
#     4   4   2   4   4   4   4   4
#     4  11  22  37  58  83 116 153 196 240 290 352
#     4   9  20  40  63  87 118 155 193 240 300 361
#     4  10  24  42  62  82 118 160 206 246 278 334
#     4  11  24  41  61  88 117 158 202 242 290 340
#     4   9  20  35  50  73 109 150 183 224 284 346
#     4  10  21  34  51  78 111 145 185 235 285 339
#     4  10  21  38  62  90 118 151 195 246 299 353
#     4  11  22  37  59  83 113 151 194 237 289 352
#
# _framework density 19.197410999999999
#
# number of rings (size 3 to 8) (size 9 to 14) (size 15 to 20)
#    0.000    1.867    1.333    1.600    5.600    5.333 
#    0.000    0.667    0.000    0.000    0.000    0.000 
#    0.000    0.000    0.000    0.000    0.000    0.000 
#
# Total GULP energy -167006.818722 kJ/mol
# GULP energy per Si atom -5566.893957 kJ/mol
# Density = 1.915372 g / cm^3
# Si number density = 19.197411 Si / 1000 Ang^3
#
#
#
# Elastic Constant Matrix: (Units=GPa)
#
#
# Indices 1 2 3 4 5 6 
#
# 1 79.7934 55.3774 40.0019 0.0000 -27.5645 0.0000
# 2 55.3774 137.2951 32.9706 0.0000 -19.7308 0.0000
# 3 40.0019 32.9706 53.7463 0.0000 -27.2564 0.0000
# 4 0.0000 0.0000 0.0000 0.0732 0.0000 -9.0309
# 5 -27.5645 -19.7308 -27.2564 0.0000 34.3312 0.0000
# 6 0.0000 0.0000 0.0000 -9.0309 0.0000 18.4891
#
#
#
# Elastic Compliance Matrix: (Units=1/GPa)
#
#
# Indices 1 2 3 4 5 6 
#
# 1 0.025101 -0.006407 -0.010711 0.000000 0.007967 0.000000
# 2 -0.006407 0.010210 -0.001888 0.000000 -0.000775 0.000000
# 3 -0.010711 -0.001888 0.038208 0.000000 0.020650 0.000000
# 4 0.000000 0.000000 0.000000 -0.230524 0.000000 -0.112598
# 5 0.007967 -0.000775 0.020650 0.000000 0.051474 0.000000
# 6 0.000000 0.000000 0.000000 -0.112598 0.000000 -0.000912
#
#
# Mechanical properties :
#
#
# Convention : Reuss Voigt Hill
#
# Bulk Modulus (GPa) = 28.16340 58.61496 43.38918
# Shear Modulus (GPa) = -88.34462 20.07769 -34.13347
#
# Velocity S-wave (km/s) = -6.79109 3.23747 -4.22124
# Velocity P-wave (km/s) = 6.84030 6.67638 1.05253
#
# Compressibility (1/GPa) = 0.03550708
#
# Stress axis : x y z
#
# Youngs Moduli (GPa) = 39.83911 97.94530 26.17269
#
# Poissons Ratio (x) = 0.62755 0.28033
# Poissons Ratio (y) = 0.25526 0.04940
# Poissons Ratio (z) = 0.42672 0.18488
#
# Static dielectric constant tensor:
#      x y z
#    x 1.674280 0.000000 0.011110 
#    y 0.000000 1.648990 0.000000 
#    z 0.011110 0.000000 1.710870 
# 
# From -- ./inp_files/37621.got.cif
#   From: 2010.05.17/outbox.cif.g08.bks.cpg/sg11_19_cif.got.tgz:37621.got - 2010.06.03 12:22:45.
