data_PCOD9164358
_publ_section_title
;
Structure prediction by ZEFSAII (Michael W. Deem and Ramdas Pophale) SiO2 
 PCOD9164358
Probable space group: P 21/M
;
_chemical_formula_sum "Si O2"
_cell_formula_units_Z 20
_cell_length_a 8.408545
_cell_length_b 14.518166
_cell_length_c 8.405746
_cell_angle_alpha 90.000000
_cell_angle_beta 50.770289
_cell_angle_gamma 90.000000
_cell_volume 794.869251
_symmetry_space_group_name_H-M "P 21/M"
_symmetry_group_IT_number 11
_symmetry_cell_setting 'monoclinic'
loop_
_space_group_symop_operation_xyz
x,y,z
-x,1/2+y,-z
-x,-y,-z
x,1/2-y,z
loop_
_atom_site_type_symbol
_atom_site_label
_atom_site_fract_x
_atom_site_fract_y
_atom_site_fract_z
Si Si1 0.993791 0.250000 0.865334
Si Si2 0.908673 0.250000 0.548174
Si Si3 0.622574 0.750000 0.870082
Si Si4 0.907305 0.447140 0.407603
Si Si5 0.335927 0.093201 0.635282
Si Si6 0.352345 0.438351 0.982662
Si Si7 0.389749 0.750000 0.688777
O O1 0.891507 0.250000 0.751617
O O2 0.140958 0.161646 0.776490
O O3 0.850072 0.250000 0.113636
O O4 0.150871 0.250000 0.350723
O O5 0.836425 0.345793 0.512806
O O6 0.590275 0.836522 0.000609
O O7 0.480983 0.750000 0.807751
O O8 0.108707 0.444196 0.169046
O O9 0.000000 0.500000 0.500000
O O10 0.741650 0.512937 0.431328
O O11 0.515861 0.159439 0.454323
O O12 0.379553 0.050692 0.779337
O O13 0.500000 0.500000 0.000000
#
# Coordination Sequence:
#
# PCOD9164358 Si02
#       7
#     2   2   2   4   4   4   2
#     4  11  22  43  83 114 148 213 259 316 400 464
#     4  10  20  42  75 109 155 204 258 320 401 466
#     4  10  20  44  71 104 153 201 247 327 384 455
#     4  11  22  45  77 114 154 209 255 327 398 462
#     4  11  23  49  77 117 163 199 262 331 382 471
#     4  11  26  46  77 112 156 208 259 318 389 469
#     4  11  24  45  83 115 152 200 266 327 393 467
#
# _framework density 25.161373000000001
#
# number of rings (size 3 to 8) (size 9 to 14) (size 15 to 20)
#    0.000    1.200    4.000    3.000    2.800    0.000 
#    3.600    4.000    8.800    0.000    0.000    0.000 
#    0.000    0.000    0.000    0.000    0.000    0.000 
#
# Total GULP energy -112131.425755 kJ/mol
# GULP energy per Si atom -5606.571288 kJ/mol
# Density = 2.510410 g / cm^3
# Si number density = 25.161373 Si / 1000 Ang^3
#
#
#
# Elastic Constant Matrix: (Units=GPa)
#
#
# Indices 1 2 3 4 5 6 
#
# 1 136.4818 77.5849 83.5943 0.0000 38.4818 0.0000
# 2 77.5849 213.2462 80.5154 0.0000 5.9842 0.0000
# 3 83.5943 80.5154 202.3230 0.0000 -5.3546 0.0000
# 4 0.0000 0.0000 0.0000-2158.6186 0.0000 2239.0567
# 5 38.4818 5.9842 -5.3546 0.0000 47.6606 0.0000
# 6 0.0000 0.0000 0.0000 2239.0567 0.0000-2241.0024
#
#
#
# Elastic Compliance Matrix: (Units=1/GPa)
#
#
# Indices 1 2 3 4 5 6 
#
# 1 0.016856 -0.003503 -0.005936 0.000000 -0.013837 0.000000
# 2 -0.003503 0.006289 -0.001005 0.000000 0.001926 0.000000
# 3 -0.005936 -0.001005 0.007949 0.000000 0.005812 0.000000
# 4 0.000000 0.000000 0.000000 0.012740 0.000000 0.012729
# 5 -0.013837 0.001926 0.005812 0.000000 0.032565 0.000000
# 6 0.000000 0.000000 0.000000 0.012729 0.000000 0.012271
#
#
# Mechanical properties :
#
#
# Convention : Reuss Voigt Hill
#
# Bulk Modulus (GPa) = 97.98205 115.04892 106.51549
# Shear Modulus (GPa) = 44.26372 -849.70165 -402.71897
#
# Velocity S-wave (km/s) = 4.19882 -18.39657 -12.66499
# Velocity P-wave (km/s) = 7.90777 20.13508 13.09368
#
# Compressibility (1/GPa) = 0.01020595
#
# Stress axis : x y z
#
# Youngs Moduli (GPa) = 59.32760 159.00589 125.80227
#
# Poissons Ratio (x) = 0.55696 0.74682
# Poissons Ratio (y) = 0.20781 0.12637
# Poissons Ratio (z) = 0.35220 0.15973
#
# Static dielectric constant tensor:
#      x y z
#    x 1.984080 0.000000 -0.089220 
#    y 0.000000 1.950130 0.000000 
#    z -0.089220 0.000000 2.101330 
# 
# From -- ./inp_files/13084.got.cif
#   From: 2010.05.17/outbox.cif.g08.bks.cpg/sg11_7_cif.got.tgz:13084.got - 2010.06.03 12:22:45.
