data_PCOD9164998
_publ_section_title
;
Structure prediction by ZEFSAII (Michael W. Deem and Ramdas Pophale) SiO2 
 PCOD9164998
Probable space group: P 21/M
;
_chemical_formula_sum "Si O2"
_cell_formula_units_Z 28
_cell_length_a 12.184979
_cell_length_b 14.185414
_cell_length_c 6.965347
_cell_angle_alpha 90.000000
_cell_angle_beta 113.216933
_cell_angle_gamma 90.000000
_cell_volume 1106.455593
_symmetry_space_group_name_H-M "P 21/M"
_symmetry_group_IT_number 11
_symmetry_cell_setting 'monoclinic'
loop_
_space_group_symop_operation_xyz
x,y,z
-x,1/2+y,-z
-x,-y,-z
x,1/2-y,z
loop_
_atom_site_type_symbol
_atom_site_label
_atom_site_fract_x
_atom_site_fract_y
_atom_site_fract_z
Si Si1 0.274658 0.085126 0.632862
Si Si2 0.582305 0.077092 0.447933
Si Si3 0.932557 0.142530 0.282911
Si Si4 0.934436 0.856962 0.269229
Si Si5 0.490211 0.855372 0.996105
Si Si6 0.710241 0.414223 0.894381
Si Si7 0.136953 0.415979 0.185878
O O1 0.165138 0.078065 0.702591
O O2 0.319846 0.983320 0.599011
O O3 0.381809 0.135407 0.816278
O O4 0.227301 0.131688 0.401642
O O5 0.510114 0.130542 0.233267
O O6 0.649751 0.132578 0.664014
O O7 0.500000 0.000000 0.500000
O O8 0.976703 0.250000 0.273078
O O9 0.945623 0.131307 0.522117
O O10 0.805972 0.136119 0.094763
O O11 0.022281 0.067433 0.244754
O O12 0.893182 0.750000 0.281281
O O13 0.927234 0.866867 0.037763
O O14 0.443107 0.750000 0.001726
O O15 0.403134 0.929355 0.043781
O O16 0.783473 0.501817 0.854310
#
# Coordination Sequence:
#
# PCOD9164998 Si02
#       7
#     4   4   4   4   4   4   4
#     4  10  22  40  63  93 127 167 217 271 320 391
#     4  11  24  44  67  90 128 176 222 262 323 390
#     4  10  22  41  61  92 133 169 216 275 329 383
#     4  10  21  37  60  90 125 166 212 271 332 385
#     4  12  26  41  64  99 135 170 216 273 338 395
#     4  11  24  42  67  94 132 174 220 268 328 393
#     4  10  22  39  68  95 123 174 225 269 321 391
#
# _framework density 25.306031000000001
#
# number of rings (size 3 to 8) (size 9 to 14) (size 15 to 20)
#    0.000    1.429    1.429    3.000    4.000    4.571 
#    0.000    0.000    0.000    0.000    0.000    0.000 
#    0.000    0.000    0.000    0.000    0.000    0.000 
#
# Total GULP energy -156388.418408 kJ/mol
# GULP energy per Si atom -5585.300657 kJ/mol
# Density = 2.524843 g / cm^3
# Si number density = 25.306031 Si / 1000 Ang^3
#
#
#
# Elastic Constant Matrix: (Units=GPa)
#
#
# Indices 1 2 3 4 5 6 
#
# 1 85.4923 11.2471 64.2256 0.0000 19.2040 0.0000
# 2 11.2471 57.5992 40.7904 0.0000 4.4615 0.0000
# 3 64.2256 40.7904 317.8483 0.0000 26.4245 0.0000
# 4 0.0000 0.0000 0.0000 15.9624 0.0000 0.6527
# 5 19.2040 4.4615 26.4245 0.0000 45.5975 0.0000
# 6 0.0000 0.0000 0.0000 0.6527 0.0000 21.8705
#
#
#
# Elastic Compliance Matrix: (Units=1/GPa)
#
#
# Indices 1 2 3 4 5 6 
#
# 1 0.014717 -0.000749 -0.002488 0.000000 -0.004683 0.000000
# 2 -0.000749 0.019145 -0.002286 0.000000 -0.000233 0.000000
# 3 -0.002488 -0.002286 0.004031 0.000000 -0.001064 0.000000
# 4 0.000000 0.000000 0.000000 0.062724 0.000000 -0.001872
# 5 -0.004683 -0.000233 -0.001064 0.000000 0.024543 0.000000
# 6 0.000000 0.000000 0.000000 -0.001872 0.000000 0.045780
#
#
# Mechanical properties :
#
#
# Convention : Reuss Voigt Hill
#
# Bulk Modulus (GPa) = 37.25010 77.05176 57.15093
# Shear Modulus (GPa) = 26.18718 39.66455 32.92586
#
# Velocity S-wave (km/s) = 3.22035 3.96333 3.61100
# Velocity P-wave (km/s) = 5.34597 7.17343 6.32603
#
# Compressibility (1/GPa) = 0.02684557
#
# Stress axis : x y z
#
# Youngs Moduli (GPa) = 67.95010 52.23393 248.08807
#
# Poissons Ratio (x) = 0.03911 0.61732
# Poissons Ratio (y) = 0.05088 0.56718
# Poissons Ratio (z) = 0.16908 0.11942
#
# Static dielectric constant tensor:
#      x y z
#    x 1.966720 0.000000 0.016520 
#    y 0.000000 2.154870 0.000000 
#    z 0.016520 0.000000 2.024530 
# 
# From -- ./inp_files/6876.got.cif
#   From: 2010.05.17/outbox.cif.g08.bks.cpg/sg11_4_cif.got.tgz:6876.got - 2010.06.03 12:22:45.
