data_PCOD9164638
_publ_section_title
;
Structure prediction by ZEFSAII (Michael W. Deem and Ramdas Pophale) SiO2 
 PCOD9164638
Probable space group: P 21/M
;
_chemical_formula_sum "Si O2"
_cell_formula_units_Z 20
_cell_length_a 7.542468
_cell_length_b 17.989389
_cell_length_c 12.689380
_cell_angle_alpha 90.000000
_cell_angle_beta 150.073921
_cell_angle_gamma 90.000000
_cell_volume 858.950943
_symmetry_space_group_name_H-M "P 21/M"
_symmetry_group_IT_number 11
_symmetry_cell_setting 'monoclinic'
loop_
_space_group_symop_operation_xyz
x,y,z
-x,1/2+y,-z
-x,-y,-z
x,1/2-y,z
loop_
_atom_site_type_symbol
_atom_site_label
_atom_site_fract_x
_atom_site_fract_y
_atom_site_fract_z
Si Si1 0.503428 0.333508 0.626053
Si Si2 0.001966 0.612124 0.306572
Si Si3 0.205803 0.988472 0.950091
Si Si4 0.431338 0.011439 0.647478
Si Si5 0.308586 0.670681 0.039530
O O1 0.343979 0.250000 0.539860
O O2 0.752850 0.345926 0.652438
O O3 0.274941 0.409250 0.527440
O O4 0.725623 0.334112 0.851395
O O5 0.239960 0.560848 0.504597
O O6 0.757913 0.550701 0.120116
O O7 0.727396 0.664016 0.226856
O O8 0.826391 0.012835 0.803540
O O9 0.137999 0.900837 0.898528
O O10 0.506103 0.992723 0.195506
O O11 0.168457 0.750000 0.931711
#
# Coordination Sequence:
#
# PCOD9164638 Si02
#       5
#     4   4   4   4   4
#     4   9  18  33  53  78 110 142 174 220 272 318
#     4  11  20  36  61  82 107 148 187 223 272 326
#     4   9  18  35  57  82 111 142 183 228 271 324
#     4   9  19  35  58  84 109 144 187 224 269 328
#     4  10  21  36  56  83 113 145 183 228 277 325
#
# _framework density 23.284217000000002
#
# number of rings (size 3 to 8) (size 9 to 14) (size 15 to 20)
#    0.000    2.400    0.000    4.800    0.000    3.200 
#    0.000    7.000    0.000   19.200    0.000    0.000 
#    0.000    0.000    0.000    0.000    0.000    0.000 
#
# Total GULP energy -111556.990619 kJ/mol
# GULP energy per Si atom -5577.849531 kJ/mol
# Density = 2.323122 g / cm^3
# Si number density = 23.284217 Si / 1000 Ang^3
#
#
#
# Elastic Constant Matrix: (Units=GPa)
#
#
# Indices 1 2 3 4 5 6 
#
# 1 83.6191 38.4447 22.2861 0.0000 -8.2115 0.0000
# 2 38.4447 173.7420 20.9664 0.0000 -17.9140 0.0000
# 3 22.2861 20.9664 57.6006 0.0000 -27.9846 0.0000
# 4 0.0000 0.0000 0.0000 20.3945 0.0000 4.6812
# 5 -8.2115 -17.9140 -27.9846 0.0000 25.6730 0.0000
# 6 0.0000 0.0000 0.0000 4.6812 0.0000 23.6446
#
#
#
# Elastic Compliance Matrix: (Units=1/GPa)
#
#
# Indices 1 2 3 4 5 6 
#
# 1 0.014690 -0.002917 -0.007075 0.000000 -0.005049 0.000000
# 2 -0.002917 0.006784 0.001075 0.000000 0.004973 0.000000
# 3 -0.007075 0.001075 0.040330 0.000000 0.042449 0.000000
# 4 0.000000 0.000000 0.000000 0.051367 0.000000 -0.010170
# 5 -0.005049 0.004973 0.042449 0.000000 0.087078 0.000000
# 6 0.000000 0.000000 0.000000 -0.010170 0.000000 0.044306
#
#
# Mechanical properties :
#
#
# Convention : Reuss Voigt Hill
#
# Bulk Modulus (GPa) = 22.74227 53.15067 37.94647
# Shear Modulus (GPa) = 18.04761 29.49340 23.77050
#
# Velocity S-wave (km/s) = 2.78708 3.56289 3.19860
# Velocity P-wave (km/s) = 4.48838 6.30889 5.47483
#
# Compressibility (1/GPa) = 0.04397098
#
# Stress axis : x y z
#
# Youngs Moduli (GPa) = 68.07353 147.40212 24.79547
#
# Poissons Ratio (x) = 0.43002 0.17542
# Poissons Ratio (y) = 0.19859 -0.02666
# Poissons Ratio (z) = 0.48159 -0.15851
#
# Static dielectric constant tensor:
#      x y z
#    x 1.997370 0.000000 0.015680 
#    y 0.000000 1.951540 0.000000 
#    z 0.015680 0.000000 1.866940 
# 
# From -- ./inp_files/13094.got.cif
#   From: 2010.05.17/outbox.cif.g08.bks.cpg/sg11_7_cif.got.tgz:13094.got - 2010.06.03 12:22:45.
