data_PCOD9164192
_publ_section_title
;
Structure prediction by ZEFSAII (Michael W. Deem and Ramdas Pophale) SiO2 
 PCOD9164192
Probable space group: P 21/M
;
_chemical_formula_sum "Si O2"
_cell_formula_units_Z 32
_cell_length_a 20.296078
_cell_length_b 8.537434
_cell_length_c 25.900718
_cell_angle_alpha 90.000000
_cell_angle_beta 158.090668
_cell_angle_gamma 90.000000
_cell_volume 1674.641351
_symmetry_space_group_name_H-M "P 21/M"
_symmetry_group_IT_number 11
_symmetry_cell_setting 'monoclinic'
loop_
_space_group_symop_operation_xyz
x,y,z
-x,1/2+y,-z
-x,-y,-z
x,1/2-y,z
loop_
_atom_site_type_symbol
_atom_site_label
_atom_site_fract_x
_atom_site_fract_y
_atom_site_fract_z
Si Si1 0.963614 0.937679 0.916249
Si Si2 0.673265 0.439107 0.874847
Si Si3 0.664015 0.063261 0.085934
Si Si4 0.548193 0.564895 0.893277
Si Si5 0.167899 0.438122 0.591395
Si Si6 0.058612 0.059633 0.396313
Si Si7 0.397439 0.059071 0.584348
Si Si8 0.579972 0.437780 0.611141
O O1 0.951922 0.750000 0.909266
O O2 0.780789 0.006896 0.763391
O O3 0.131710 0.979300 0.003293
O O4 0.000000 0.000000 0.000000
O O5 0.659915 0.250000 0.870141
O O6 0.631200 0.513512 0.899216
O O7 0.532359 0.486877 0.728261
O O8 0.663655 0.250000 0.091383
O O9 0.857524 0.003517 0.244257
O O10 0.500000 0.000000 0.000000
O O11 0.635850 0.018435 0.005929
O O12 0.561486 0.750000 0.909820
O O13 0.344135 0.513872 0.741812
O O14 0.181191 0.250000 0.604520
O O15 0.139571 0.480732 0.510819
O O16 0.000000 0.500000 0.500000
O O17 0.052285 0.250000 0.389483
O O18 0.199914 0.007710 0.455945
O O19 0.397803 0.250000 0.584014
O O20 0.470522 0.006749 0.582113
O O21 0.500000 0.500000 0.500000
O O22 0.574942 0.250000 0.607409
#
# Coordination Sequence:
#
# PCOD9164192 Si02
#       8
#     4   4   4   4   4   4   4   4
#     4  11  22  38  63  93 124 165 212 260 316 381
#     4  10  20  39  65  90 119 161 208 257 314 371
#     4  11  23  41  64  90 122 164 205 255 315 376
#     4  12  25  40  59  90 126 163 206 256 307 366
#     4  11  21  37  62  91 122 155 198 254 308 367
#     4   9  19  36  62  88 111 149 203 251 302 363
#     4   9  17  36  63  88 117 155 201 253 308 369
#     4  11  23  40  62  92 128 167 208 259 313 373
#
# _framework density 19.108568999999999
#
# number of rings (size 3 to 8) (size 9 to 14) (size 15 to 20)
#    0.000    1.500    2.500    3.375    0.000    3.000 
#    0.000    4.375    0.000    0.000    0.000    0.000 
#    0.000    0.000    0.000    0.000    0.000    0.000 
#
# Total GULP energy -178829.438747 kJ/mol
# GULP energy per Si atom -5588.419961 kJ/mol
# Density = 1.906508 g / cm^3
# Si number density = 19.108569 Si / 1000 Ang^3
#
#
#
# Elastic Constant Matrix: (Units=GPa)
#
#
# Indices 1 2 3 4 5 6 
#
# 1 82.1194 11.2353 13.1271 0.0000 11.0933 0.0000
# 2 11.2353 32.3023 9.2730 0.0000 7.2016 0.0000
# 3 13.1271 9.2730 96.0676 0.0000 6.0838 0.0000
# 4 0.0000 0.0000 0.0000 27.6528 0.0000 2.8894
# 5 11.0933 7.2016 6.0838 0.0000 38.7754 0.0000
# 6 0.0000 0.0000 0.0000 2.8894 0.0000 30.3066
#
#
#
# Elastic Compliance Matrix: (Units=1/GPa)
#
#
# Indices 1 2 3 4 5 6 
#
# 1 0.013269 -0.003595 -0.001281 0.000000 -0.002928 0.000000
# 2 -0.003595 0.034013 -0.002482 0.000000 -0.004899 0.000000
# 3 -0.001281 -0.002482 0.010880 0.000000 -0.000880 0.000000
# 4 0.000000 0.000000 0.000000 0.036527 0.000000 -0.003482
# 5 -0.002928 -0.004899 -0.000880 0.000000 0.027675 0.000000
# 6 0.000000 0.000000 0.000000 -0.003482 0.000000 0.033328
#
#
# Mechanical properties :
#
#
# Convention : Reuss Voigt Hill
#
# Bulk Modulus (GPa) = 23.01660 30.86223 26.93942
# Shear Modulus (GPa) = 27.04334 31.13724 29.09029
#
# Velocity S-wave (km/s) = 3.76606 4.04107 3.90599
# Velocity P-wave (km/s) = 5.56617 6.16115 5.87120
#
# Compressibility (1/GPa) = 0.04344690
#
# Stress axis : x y z
#
# Youngs Moduli (GPa) = 75.36096 29.40088 91.91521
#
# Poissons Ratio (x) = 0.10570 0.11772
# Poissons Ratio (y) = 0.27092 0.22810
# Poissons Ratio (z) = 0.09652 0.07296
#
# Static dielectric constant tensor:
#      x y z
#    x 1.649860 0.000000 0.008950 
#    y 0.000000 1.658020 0.000000 
#    z 0.008950 0.000000 1.765170 
# 
# From -- ./inp_files/72116.got.cif
#   From: 2010.05.17/outbox.cif.g08.bks.cpg/sg11_37_cif.got.tgz:72116.got - 2010.06.03 12:22:45.
