data_PCOD9164645
_publ_section_title
;
Structure prediction by ZEFSAII (Michael W. Deem and Ramdas Pophale) SiO2 
 PCOD9164645
Probable space group: P 21/M
;
_chemical_formula_sum "Si O2"
_cell_formula_units_Z 20
_cell_length_a 5.071924
_cell_length_b 11.254214
_cell_length_c 15.548623
_cell_angle_alpha 90.000000
_cell_angle_beta 83.227610
_cell_angle_gamma 90.000000
_cell_volume 881.330717
_symmetry_space_group_name_H-M "P 21/M"
_symmetry_group_IT_number 11
_symmetry_cell_setting 'monoclinic'
loop_
_space_group_symop_operation_xyz
x,y,z
-x,1/2+y,-z
-x,-y,-z
x,1/2-y,z
loop_
_atom_site_type_symbol
_atom_site_label
_atom_site_fract_x
_atom_site_fract_y
_atom_site_fract_z
Si Si1 0.673560 0.965970 0.612011
Si Si2 0.714271 0.967297 0.797438
Si Si3 0.179955 0.384726 0.840762
Si Si4 0.675880 0.618447 0.981404
Si Si5 0.189074 0.117255 0.577489
O O1 0.721283 0.909246 0.703366
O O2 0.383120 0.024140 0.616516
O O3 0.888750 0.071846 0.594692
O O4 0.723817 0.887230 0.526212
O O5 0.426266 0.027714 0.817363
O O6 0.931001 0.071405 0.796590
O O7 0.773230 0.889115 0.879564
O O8 0.253478 0.250000 0.816823
O O9 0.121069 0.387178 0.946174
O O10 0.544328 0.750000 0.996687
O O11 0.500000 0.500000 0.000000
O O12 0.219771 0.250000 0.609471
#
# Coordination Sequence:
#
# PCOD9164645 Si02
#       5
#     4   4   4   4   4
#     4  10  22  36  56  85 110 142 192 235 283 349
#     4  11  21  36  57  85 115 147 192 242 288 341
#     4  10  21  36  56  83 117 154 192 236 289 346
#     4   9  20  39  61  87 121 161 199 240 291 344
#     4  10  21  39  58  78 112 150 184 234 294 347
#
# _framework density 22.692955000000001
#
# number of rings (size 3 to 8) (size 9 to 14) (size 15 to 20)
#    0.000    2.000    0.000    3.000    0.000    6.400 
#    0.000    8.000    0.000    9.600    0.000    0.000 
#    0.000    0.000    0.000    0.000    0.000    0.000 
#
# Total GULP energy -111652.756698 kJ/mol
# GULP energy per Si atom -5582.637835 kJ/mol
# Density = 2.264131 g / cm^3
# Si number density = 22.692955 Si / 1000 Ang^3
#
#
#
# Elastic Constant Matrix: (Units=GPa)
#
#
# Indices 1 2 3 4 5 6 
#
# 1 56.4673 -8.5470 1.3068 0.0000 3.4704 0.0000
# 2 -8.5470 78.2886 -1.8706 0.0000 -1.1727 0.0000
# 3 1.3068 -1.8706 161.0925 0.0000 27.3933 0.0000
# 4 0.0000 0.0000 0.0000 -21.8864 0.0000 5.2152
# 5 3.4704 -1.1727 27.3933 0.0000 24.8298 0.0000
# 6 0.0000 0.0000 0.0000 5.2152 0.0000 10.0557
#
#
#
# Elastic Compliance Matrix: (Units=1/GPa)
#
#
# Indices 1 2 3 4 5 6 
#
# 1 0.018171 0.001950 0.000359 0.000000 -0.002843 0.000000
# 2 0.001950 0.012992 0.000095 0.000000 0.000236 0.000000
# 3 0.000359 0.000095 0.007648 0.000000 -0.008484 0.000000
# 4 0.000000 0.000000 0.000000 -0.040665 0.000000 0.021090
# 5 -0.002843 0.000236 -0.008484 0.000000 0.050042 0.000000
# 6 0.000000 0.000000 0.000000 0.021090 0.000000 0.088508
#
#
# Mechanical properties :
#
#
# Convention : Reuss Voigt Hill
#
# Bulk Modulus (GPa) = 22.92633 30.84743 26.88688
# Shear Modulus (GPa) = 34.14619 22.93043 28.53831
#
# Velocity S-wave (km/s) = 3.88326 3.18223 3.55009
# Velocity P-wave (km/s) = 5.49828 5.20817 5.35519
#
# Compressibility (1/GPa) = 0.04361797
#
# Stress axis : x y z
#
# Youngs Moduli (GPa) = 55.03295 76.97097 130.74561
#
# Poissons Ratio (x) = -0.15007 -0.04691
# Poissons Ratio (y) = -0.10730 -0.01240
# Poissons Ratio (z) = -0.01974 -0.00730
#
# Static dielectric constant tensor:
#      x y z
#    x 1.781400 0.000000 -0.036830 
#    y 0.000000 1.723820 0.000000 
#    z -0.036830 0.000000 1.942880 
# 
# From -- ./inp_files/6120.got.cif
#   From: 2010.05.17/outbox.cif.g08.bks.cpg/sg11_4_cif.got.tgz:6120.got - 2010.06.03 12:22:45.
