data_PCOD9164053
_publ_section_title
;
Structure prediction by ZEFSAII (Michael W. Deem and Ramdas Pophale) SiO2 
 PCOD9164053
Probable space group: P 21/M
;
_chemical_formula_sum "Si O2"
_cell_formula_units_Z 32
_cell_length_a 8.536215
_cell_length_b 26.912387
_cell_length_c 12.219337
_cell_angle_alpha 90.000000
_cell_angle_beta 32.203675
_cell_angle_gamma 90.000000
_cell_volume 1496.014572
_symmetry_space_group_name_H-M "P 21/M"
_symmetry_group_IT_number 11
_symmetry_cell_setting 'monoclinic'
loop_
_space_group_symop_operation_xyz
x,y,z
-x,1/2+y,-z
-x,-y,-z
x,1/2-y,z
loop_
_atom_site_type_symbol
_atom_site_label
_atom_site_fract_x
_atom_site_fract_y
_atom_site_fract_z
Si Si1 0.483580 0.977743 0.629900
Si Si2 0.395764 0.305593 0.218403
Si Si3 0.176249 0.546462 0.447299
Si Si4 0.906627 0.082920 0.725030
Si Si5 0.948376 0.662412 0.180153
Si Si6 0.491106 0.694951 0.607200
Si Si7 0.981100 0.391081 0.083826
Si Si8 0.278395 0.401969 0.135667
O O1 0.209623 0.941763 0.813754
O O2 0.791703 0.947795 0.452289
O O3 0.500000 0.000000 0.500000
O O4 0.516349 0.023246 0.695999
O O5 0.303085 0.250000 0.237596
O O6 0.317424 0.312304 0.393607
O O7 0.304928 0.351130 0.192461
O O8 0.751783 0.307634 0.014593
O O9 0.167575 0.587936 0.359069
O O10 0.000000 0.500000 0.500000
O O11 0.990940 0.566506 0.657989
O O12 0.980476 0.128572 0.757435
O O13 0.585895 0.067385 0.963223
O O14 0.675582 0.692919 0.386320
O O15 0.893540 0.628105 0.106409
O O16 0.358438 0.750000 0.695450
O O17 0.258458 0.650940 0.742793
O O18 0.204084 0.392667 0.053014
#
# Coordination Sequence:
#
# PCOD9164053 Si02
#       8
#     4   4   4   4   4   4   4   4
#     4  11  22  43  61  88 127 171 209 267 309 379
#     4   9  20  37  63  93 121 158 204 253 311 372
#     4  10  23  39  63  86 124 157 217 261 307 358
#     4  10  23  39  64  87 120 164 208 256 309 366
#     4  10  20  38  65  89 128 159 208 250 306 382
#     4  10  20  39  67  91 119 163 204 249 308 375
#     4  11  24  40  60  94 133 159 204 256 320 363
#     4  11  23  41  62  93 126 164 202 261 315 369
#
# _framework density 21.390166000000001
#
# number of rings (size 3 to 8) (size 9 to 14) (size 15 to 20)
#    0.000    1.750    2.500    1.125    8.750    5.000 
#    0.000    1.250    0.000    0.000    0.000    0.000 
#    0.000    0.000    0.000    0.000    0.000    0.000 
#
# Total GULP energy -178307.645600 kJ/mol
# GULP energy per Si atom -5572.113925 kJ/mol
# Density = 2.134148 g / cm^3
# Si number density = 21.390166 Si / 1000 Ang^3
#
#
#
# Elastic Constant Matrix: (Units=GPa)
#
#
# Indices 1 2 3 4 5 6 
#
# 1 85.4087 22.3849 20.4976 0.0000 11.1479 0.0000
# 2 22.3849 31.0588 13.2092 0.0000 2.8985 0.0000
# 3 20.4976 13.2092 76.0609 0.0000 15.2606 0.0000
# 4 0.0000 0.0000 0.0000 14.9424 0.0000 10.5148
# 5 11.1479 2.8985 15.2606 0.0000 35.5012 0.0000
# 6 0.0000 0.0000 0.0000 10.5148 0.0000 27.0099
#
#
#
# Elastic Compliance Matrix: (Units=1/GPa)
#
#
# Indices 1 2 3 4 5 6 
#
# 1 0.015127 -0.009872 -0.001719 0.000000 -0.003205 0.000000
# 2 -0.009872 0.041210 -0.004863 0.000000 0.001826 0.000000
# 3 -0.001719 -0.004863 0.015614 0.000000 -0.005775 0.000000
# 4 0.000000 0.000000 0.000000 0.092174 0.000000 -0.035883
# 5 -0.003205 0.001826 -0.005775 0.000000 0.031508 0.000000
# 6 0.000000 0.000000 0.000000 -0.035883 0.000000 0.050992
#
#
# Mechanical properties :
#
#
# Convention : Reuss Voigt Hill
#
# Bulk Modulus (GPa) = 25.61285 33.85688 29.73486
# Shear Modulus (GPa) = 17.09134 24.58648 20.83891
#
# Velocity S-wave (km/s) = 2.82977 3.39400 3.12465
# Velocity P-wave (km/s) = 4.76203 5.58763 5.19127
#
# Compressibility (1/GPa) = 0.03904291
#
# Stress axis : x y z
#
# Youngs Moduli (GPa) = 66.10842 24.26608 64.04614
#
# Poissons Ratio (x) = 0.23956 0.11010
# Poissons Ratio (y) = 0.65262 0.31143
# Poissons Ratio (z) = 0.11364 0.11800
#
# Static dielectric constant tensor:
#      x y z
#    x 1.791550 0.000000 0.007000 
#    y 0.000000 1.812540 0.000000 
#    z 0.007000 0.000000 1.802420 
# 
# From -- ./inp_files/33204.got.cif
#   From: 2010.05.17/outbox.cif.g08.bks.cpg/sg11_17_cif.got.tgz:33204.got - 2010.06.03 12:22:45.
