data_PCOD9164726
_publ_section_title
;
Structure prediction by ZEFSAII (Michael W. Deem and Ramdas Pophale) SiO2 
 PCOD9164726
Probable space group: P 21/M
;
_chemical_formula_sum "Si O2"
_cell_formula_units_Z 24
_cell_length_a 11.141423
_cell_length_b 8.690449
_cell_length_c 12.288082
_cell_angle_alpha 90.000000
_cell_angle_beta 73.458064
_cell_angle_gamma 90.000000
_cell_volume 1140.537738
_symmetry_space_group_name_H-M "P 21/M"
_symmetry_group_IT_number 11
_symmetry_cell_setting 'monoclinic'
loop_
_space_group_symop_operation_xyz
x,y,z
-x,1/2+y,-z
-x,-y,-z
x,1/2-y,z
loop_
_atom_site_type_symbol
_atom_site_label
_atom_site_fract_x
_atom_site_fract_y
_atom_site_fract_z
Si Si1 0.547338 0.567631 0.374051
Si Si2 0.980458 0.071809 0.844671
Si Si3 0.647911 0.566105 0.745155
Si Si4 0.245787 0.931877 0.821054
Si Si5 0.914407 0.428887 0.615221
Si Si6 0.713780 0.567803 0.967723
O O1 0.500000 0.500000 0.500000
O O2 0.558456 0.750000 0.379206
O O3 0.449586 0.520431 0.305550
O O4 0.678259 0.496230 0.301090
O O5 0.960842 0.250000 0.882910
O O6 0.985818 0.066688 0.712257
O O7 0.108653 0.006902 0.858462
O O8 0.859403 0.973062 0.907590
O O9 0.629266 0.750000 0.742558
O O10 0.786082 0.521879 0.666280
O O11 0.644109 0.521477 0.874126
O O12 0.235586 0.750000 0.817486
O O13 0.317171 0.979744 0.913516
O O14 0.884744 0.250000 0.599361
O O15 0.000000 0.500000 0.500000
O O16 0.698681 0.750000 0.987634
#
# Coordination Sequence:
#
# PCOD9164726 Si02
#       6
#     4   4   4   4   4   4
#     4  12  27  47  68  91 124 165 211 260 312 372
#     4  10  21  38  60  91 129 167 208 258 314 372
#     4  10  22  42  66  92 125 162 207 259 313 371
#     4  12  25  41  64  93 127 169 213 258 312 373
#     4  10  21  36  59  89 123 164 209 257 312 372
#     4  10  21  40  66  96 129 165 207 259 315 373
#
# _framework density 21.042705999999999
#
# number of rings (size 3 to 8) (size 9 to 14) (size 15 to 20)
#    0.000    1.333    0.000    5.500    2.333    4.667 
#    0.000    0.000    0.000    0.000    0.000    0.000 
#    0.000    0.000    0.000    0.000    0.000    0.000 
#
# Total GULP energy -134308.401954 kJ/mol
# GULP energy per Si atom -5596.183415 kJ/mol
# Density = 2.099481 g / cm^3
# Si number density = 21.042706 Si / 1000 Ang^3
#
#
#
# Elastic Constant Matrix: (Units=GPa)
#
#
# Indices 1 2 3 4 5 6 
#
# 1 56.9353 -7.8802 -1.1907 0.0000 16.3435 0.0000
# 2 -7.8802 71.4320 2.6468 0.0000 12.5881 0.0000
# 3 -1.1907 2.6468 87.1571 0.0000 0.1062 0.0000
# 4 0.0000 0.0000 0.0000 37.6033 0.0000 1.0603
# 5 16.3435 12.5881 0.1062 0.0000 17.5272 0.0000
# 6 0.0000 0.0000 0.0000 1.0603 0.0000 32.7713
#
#
#
# Elastic Compliance Matrix: (Units=1/GPa)
#
#
# Indices 1 2 3 4 5 6 
#
# 1 0.028150 0.008845 0.000156 0.000000 -0.032602 0.000000
# 2 0.008845 0.018827 -0.000424 0.000000 -0.021766 0.000000
# 3 0.000156 -0.000424 0.011488 0.000000 0.000090 0.000000
# 4 0.000000 0.000000 0.000000 0.026618 0.000000 -0.000861
# 5 -0.032602 -0.021766 0.000090 0.000000 0.103086 0.000000
# 6 0.000000 0.000000 0.000000 -0.000861 0.000000 0.030542
#
#
# Mechanical properties :
#
#
# Convention : Reuss Voigt Hill
#
# Bulk Modulus (GPa) = 13.22447 22.51958 17.87203
# Shear Modulus (GPa) = 22.04930 32.37694 27.21312
#
# Velocity S-wave (km/s) = 3.24054 3.92679 3.60006
# Velocity P-wave (km/s) = 4.50552 5.59327 5.07860
#
# Compressibility (1/GPa) = 0.07561739
#
# Stress axis : x y z
#
# Youngs Moduli (GPa) = 35.52421 53.11644 87.04407
#
# Poissons Ratio (x) = -0.46981 -0.01355
# Poissons Ratio (y) = -0.31421 0.03694
# Poissons Ratio (z) = -0.00553 0.02254
#
# Static dielectric constant tensor:
#      x y z
#    x 1.829000 0.000000 -0.049750 
#    y 0.000000 1.702380 0.000000 
#    z -0.049750 0.000000 1.800500 
# 
# From -- ./inp_files/33738.got.cif
#   From: 2010.05.17/outbox.cif.g08.bks.cpg/sg11_17_cif.got.tgz:33738.got - 2010.06.03 12:22:45.
