data_PCOD9164175
_publ_section_title
;
Structure prediction by ZEFSAII (Michael W. Deem and Ramdas Pophale) SiO2 
 PCOD9164175
Probable space group: P 21/M
;
_chemical_formula_sum "Si O2"
_cell_formula_units_Z 32
_cell_length_a 14.433944
_cell_length_b 11.216794
_cell_length_c 9.358458
_cell_angle_alpha 90.000000
_cell_angle_beta 89.984348
_cell_angle_gamma 90.000000
_cell_volume 1515.158405
_symmetry_space_group_name_H-M "P 21/M"
_symmetry_group_IT_number 11
_symmetry_cell_setting 'monoclinic'
loop_
_space_group_symop_operation_xyz
x,y,z
-x,1/2+y,-z
-x,-y,-z
x,1/2-y,z
loop_
_atom_site_type_symbol
_atom_site_label
_atom_site_fract_x
_atom_site_fract_y
_atom_site_fract_z
Si Si1 0.355593 0.118776 0.786735
Si Si2 0.443190 0.388207 0.066504
Si Si3 0.749942 0.383512 0.651367
Si Si4 0.804027 0.991568 0.377733
Si Si5 0.948252 0.877923 0.549725
Si Si6 0.075406 0.387553 0.858773
Si Si7 0.458596 0.970380 0.344423
Si Si8 0.890474 0.975264 0.836743
O O1 0.319823 0.250000 0.752399
O O2 0.294020 0.028602 0.697161
O O3 0.461213 0.106578 0.732797
O O4 0.355375 0.106142 0.958687
O O5 0.477310 0.250000 0.050924
O O6 0.439143 0.419739 0.234262
O O7 0.500000 0.500000 0.000000
O O8 0.766801 0.250000 0.698978
O O9 0.793768 0.404280 0.493559
O O10 0.640539 0.407841 0.641034
O O11 0.799309 0.470492 0.764269
O O12 0.846818 0.887916 0.477927
O O13 0.875326 0.982017 0.246703
O O14 0.991168 0.750000 0.510695
O O15 0.934067 0.889036 0.717690
O O16 0.000000 0.000000 0.500000
O O17 0.088713 0.250000 0.815653
O O18 0.966833 0.420290 0.859777
O O19 0.118094 0.409339 0.014046
O O20 0.500000 0.000000 0.500000
#
# Coordination Sequence:
#
# PCOD9164175 Si02
#       8
#     4   4   4   4   4   4   4   4
#     4  10  20  39  64  91 128 168 214 269 325 389
#     4   9  21  40  66  96 128 170 218 271 332 393
#     4  11  25  45  65  92 134 178 224 279 337 399
#     4  11  23  40  63  97 124 166 219 269 329 399
#     4  11  22  39  63  94 131 173 217 268 328 396
#     4  11  22  42  68  96 133 170 214 276 334 397
#     4  11  22  42  63  95 131 172 227 272 331 390
#     4  10  24  42  65  97 130 171 224 267 331 405
#
# _framework density 21.119903999999998
#
# number of rings (size 3 to 8) (size 9 to 14) (size 15 to 20)
#    0.000    1.500    2.500    2.250    1.750    3.500 
#    0.000    1.875    0.000    0.000    0.000    0.000 
#    0.000    0.000    0.000    0.000    0.000    0.000 
#
# Total GULP energy -178210.752829 kJ/mol
# GULP energy per Si atom -5569.086026 kJ/mol
# Density = 2.107183 g / cm^3
# Si number density = 21.119904 Si / 1000 Ang^3
#
#
#
# Elastic Constant Matrix: (Units=GPa)
#
#
# Indices 1 2 3 4 5 6 
#
# 1 90.2539 15.4483 13.1335 0.0000 13.5604 0.0000
# 2 15.4483 98.3654 15.2728 0.0000 6.5828 0.0000
# 3 13.1335 15.2728 143.1809 0.0000 22.2460 0.0000
# 4 0.0000 0.0000 0.0000 15.4923 0.0000 -3.0458
# 5 13.5604 6.5828 22.2460 0.0000 30.7575 0.0000
# 6 0.0000 0.0000 0.0000 -3.0458 0.0000 14.0335
#
#
#
# Elastic Compliance Matrix: (Units=1/GPa)
#
#
# Indices 1 2 3 4 5 6 
#
# 1 0.012103 -0.001546 -0.000189 0.000000 -0.004869 0.000000
# 2 -0.001546 0.010605 -0.000837 0.000000 -0.000983 0.000000
# 3 -0.000189 -0.000837 0.007943 0.000000 -0.005482 0.000000
# 4 0.000000 0.000000 0.000000 0.067425 0.000000 0.014634
# 5 -0.004869 -0.000983 -0.005482 0.000000 0.038835 0.000000
# 6 0.000000 0.000000 0.000000 0.014634 0.000000 0.074434
#
#
# Mechanical properties :
#
#
# Convention : Reuss Voigt Hill
#
# Bulk Modulus (GPa) = 39.20322 46.61217 42.90769
# Shear Modulus (GPa) = 22.22327 31.25303 26.73815
#
# Velocity S-wave (km/s) = 3.24735 3.85098 3.56197
# Velocity P-wave (km/s) = 5.71514 6.47237 6.10551
#
# Compressibility (1/GPa) = 0.02550811
#
# Stress axis : x y z
#
# Youngs Moduli (GPa) = 82.62126 94.29851 125.90463
#
# Poissons Ratio (x) = 0.14576 0.02378
# Poissons Ratio (y) = 0.12771 0.10534
# Poissons Ratio (z) = 0.01560 0.07890
#
# Static dielectric constant tensor:
#      x y z
#    x 1.809740 0.000000 -0.012940 
#    y 0.000000 1.826230 0.000000 
#    z -0.012940 0.000000 1.798630 
# 
# From -- ./inp_files/21515.got.cif
#   From: 2010.05.17/outbox.cif.g08.bks.cpg/sg11_11_cif.got.tgz:21515.got - 2010.06.03 12:22:45.
