data_PCOD9164549
_publ_section_title
;
Structure prediction by ZEFSAII (Michael W. Deem and Ramdas Pophale) SiO2 
 PCOD9164549
Probable space group: P 21/M
;
_chemical_formula_sum "Si O2"
_cell_formula_units_Z 20
_cell_length_a 9.528712
_cell_length_b 18.441403
_cell_length_c 5.082760
_cell_angle_alpha 90.000000
_cell_angle_beta 79.997944
_cell_angle_gamma 90.000000
_cell_volume 879.582284
_symmetry_space_group_name_H-M "P 21/M"
_symmetry_group_IT_number 11
_symmetry_cell_setting 'monoclinic'
loop_
_space_group_symop_operation_xyz
x,y,z
-x,1/2+y,-z
-x,-y,-z
x,1/2-y,z
loop_
_atom_site_type_symbol
_atom_site_label
_atom_site_fract_x
_atom_site_fract_y
_atom_site_fract_z
Si Si1 0.378564 0.330619 0.847088
Si Si2 0.946241 0.093231 0.250681
Si Si3 0.124171 0.421980 0.696281
Si Si4 0.330978 0.622982 0.419768
Si Si5 0.555442 0.071919 0.113448
O O1 0.318854 0.250000 0.897807
O O2 0.271824 0.385525 0.736516
O O3 0.531831 0.325875 0.649398
O O4 0.432711 0.368262 0.100197
O O5 0.817988 0.143001 0.401423
O O6 0.074932 0.096665 0.418566
O O7 0.888116 0.009670 0.278037
O O8 0.009193 0.107569 0.944765
O O9 0.315631 0.595049 0.126313
O O10 0.395124 0.565378 0.607085
O O11 0.500000 0.000000 0.000000
#
# Coordination Sequence:
#
# PCOD9164549 Si02
#       5
#     4   4   4   4   4
#     4  10  25  42  63  93 129 170 211 260 319 385
#     4  10  21  39  61  93 120 158 205 262 313 363
#     4  10  22  37  62  90 126 158 203 257 314 373
#     4  10  22  38  63  89 125 157 213 259 309 371
#     4  10  21  35  64  94 120 157 209 262 307 360
#
# _framework density 22.738064999999999
#
# number of rings (size 3 to 8) (size 9 to 14) (size 15 to 20)
#    1.200    0.800    0.000    3.000    5.600    2.400 
#    0.000    2.000    0.000    0.000    0.000    0.000 
#    0.000    0.000    0.000    0.000    0.000    0.000 
#
# Total GULP energy -111371.539914 kJ/mol
# GULP energy per Si atom -5568.576996 kJ/mol
# Density = 2.268631 g / cm^3
# Si number density = 22.738065 Si / 1000 Ang^3
#
#
#
# Elastic Constant Matrix: (Units=GPa)
#
#
# Indices 1 2 3 4 5 6 
#
# 1 96.7424 10.3691 6.3734 0.0000 -18.3085 0.0000
# 2 10.3691 31.6059 2.6926 0.0000 -3.0151 0.0000
# 3 6.3734 2.6926 70.6013 0.0000 -5.9593 0.0000
# 4 0.0000 0.0000 0.0000 6.0280 0.0000 -5.0600
# 5 -18.3085 -3.0151 -5.9593 0.0000 32.8645 0.0000
# 6 0.0000 0.0000 0.0000 -5.0600 0.0000 8.5192
#
#
#
# Elastic Compliance Matrix: (Units=1/GPa)
#
#
# Indices 1 2 3 4 5 6 
#
# 1 0.011898 -0.003271 -0.000422 0.000000 0.006252 0.000000
# 2 -0.003271 0.032886 -0.000871 0.000000 0.001037 0.000000
# 3 -0.000422 -0.000871 0.014430 0.000000 0.002302 0.000000
# 4 0.000000 0.000000 0.000000 0.330843 0.000000 0.196505
# 5 0.006252 0.001037 0.002302 0.000000 0.034423 0.000000
# 6 0.000000 0.000000 0.000000 0.196505 0.000000 0.234096
#
#
# Mechanical properties :
#
#
# Convention : Reuss Voigt Hill
#
# Bulk Modulus (GPa) = 19.96590 26.42443 23.19516
# Shear Modulus (GPa) = 7.30568 21.44999 14.37783
#
# Velocity S-wave (km/s) = 1.79442 3.07473 2.51733
# Velocity P-wave (km/s) = 3.61845 4.92461 4.32117
#
# Compressibility (1/GPa) = 0.05008541
#
# Stress axis : x y z
#
# Youngs Moduli (GPa) = 84.04578 30.40810 69.30193
#
# Poissons Ratio (x) = 0.09947 0.02922
# Poissons Ratio (y) = 0.27493 0.06039
# Poissons Ratio (z) = 0.03544 0.02650
#
# Static dielectric constant tensor:
#      x y z
#    x 1.895990 0.000000 -0.060240 
#    y 0.000000 1.906640 0.000000 
#    z -0.060240 0.000000 1.871420 
# 
# From -- ./inp_files/2579.got.cif
#   From: 2010.05.17/outbox.cif.g08.bks.cpg/sg11_2_cif.got.tgz:2579.got - 2010.06.03 12:22:45.
