data_PCOD9164284
_publ_section_title
;
Structure prediction by ZEFSAII (Michael W. Deem and Ramdas Pophale) SiO2 
 PCOD9164284
Probable space group: P 21/M
;
_chemical_formula_sum "Si O2"
_cell_formula_units_Z 24
_cell_length_a 14.679725
_cell_length_b 9.385546
_cell_length_c 14.846606
_cell_angle_alpha 90.000000
_cell_angle_beta 38.713038
_cell_angle_gamma 90.000000
_cell_volume 1279.312290
_symmetry_space_group_name_H-M "P 21/M"
_symmetry_group_IT_number 11
_symmetry_cell_setting 'monoclinic'
loop_
_space_group_symop_operation_xyz
x,y,z
-x,1/2+y,-z
-x,-y,-z
x,1/2-y,z
loop_
_atom_site_type_symbol
_atom_site_label
_atom_site_fract_x
_atom_site_fract_y
_atom_site_fract_z
Si Si1 0.855772 0.422014 0.576552
Si Si2 0.692967 0.250000 0.377759
Si Si3 0.108173 0.250000 0.770337
Si Si4 0.792109 0.250000 0.102797
Si Si5 0.551972 0.475391 0.242391
Si Si6 0.564389 0.925149 0.862258
Si Si7 0.236778 0.013018 0.549839
Si Si8 0.610023 0.750000 0.320762
O O1 0.854152 0.250000 0.593400
O O2 0.723529 0.506336 0.725828
O O3 0.832410 0.452243 0.488235
O O4 0.000000 0.500000 0.500000
O O5 0.783860 0.250000 0.216906
O O6 0.730010 0.386217 0.407855
O O7 0.517041 0.250000 0.504834
O O8 0.133950 0.118238 0.683613
O O9 0.236129 0.250000 0.747106
O O10 0.952057 0.250000 0.938260
O O11 0.693429 0.381616 0.148725
O O12 0.524892 0.479450 0.156507
O O13 0.394874 0.421199 0.401217
O O14 0.583208 0.617163 0.275339
O O15 0.564816 0.750000 0.864478
O O16 0.500000 0.000000 0.000000
#
# Coordination Sequence:
#
# PCOD9164284 Si02
#       8
#     4   2   2   2   4   4   4   2
#     4  11  24  43  69  99 131 168 216 270 328 388
#     4  10  20  40  67  88 121 161 218 267 313 374
#     4  12  26  38  59  94 133 171 210 261 329 384
#     4  12  24  40  59  90 131 169 204 267 321 388
#     4  10  22  41  67  90 124 164 221 261 316 375
#     4  11  24  42  69  99 132 171 214 269 326 387
#     4  10  22  41  66  92 122 166 218 264 312 381
#     4  10  22  40  65  96 117 169 218 271 315 380
#
# _framework density 18.760079000000001
#
# number of rings (size 3 to 8) (size 9 to 14) (size 15 to 20)
#    0.000    1.333    1.667    3.500    9.333    6.667 
#    0.000    0.000    0.000    0.000    0.000    0.000 
#    0.000    0.000    0.000    0.000    0.000    0.000 
#
# Total GULP energy -133909.243842 kJ/mol
# GULP energy per Si atom -5579.551827 kJ/mol
# Density = 1.871738 g / cm^3
# Si number density = 18.760079 Si / 1000 Ang^3
#
#
#
# Elastic Constant Matrix: (Units=GPa)
#
#
# Indices 1 2 3 4 5 6 
#
# 1 91.9747 22.4578 74.2429 0.0000 -1.6560 0.0000
# 2 22.4578 96.4649 52.6632 0.0000 -7.7379 0.0000
# 3 74.2429 52.6632 171.0489 0.0000 7.0692 0.0000
# 4 0.0000 0.0000 0.0000 18.7019 0.0000 2.6813
# 5 -1.6560 -7.7379 7.0692 0.0000 33.8718 0.0000
# 6 0.0000 0.0000 0.0000 2.6813 0.0000 28.0985
#
#
#
# Elastic Compliance Matrix: (Units=1/GPa)
#
#
# Indices 1 2 3 4 5 6 
#
# 1 0.016937 0.000393 -0.007576 0.000000 0.002499 0.000000
# 2 0.000393 0.012942 -0.004315 0.000000 0.003876 0.000000
# 3 -0.007576 -0.004315 0.010611 0.000000 -0.003571 0.000000
# 4 0.000000 0.000000 0.000000 0.054212 0.000000 -0.005173
# 5 0.002499 0.003876 -0.003571 0.000000 0.031276 0.000000
# 6 0.000000 0.000000 0.000000 -0.005173 0.000000 0.036083
#
#
# Mechanical properties :
#
#
# Convention : Reuss Voigt Hill
#
# Bulk Modulus (GPa) = 57.16434 73.13516 65.14975
# Shear Modulus (GPa) = 26.19353 30.14275 28.16814
#
# Velocity S-wave (km/s) = 3.74068 4.01278 3.87911
# Velocity P-wave (km/s) = 7.01387 7.78068 7.40720
#
# Compressibility (1/GPa) = 0.01749342
#
# Stress axis : x y z
#
# Youngs Moduli (GPa) = 59.04364 77.26897 94.24487
#
# Poissons Ratio (x) = -0.03038 0.71396
# Poissons Ratio (y) = -0.02322 0.40671
# Poissons Ratio (z) = 0.44729 0.33345
#
# Static dielectric constant tensor:
#      x y z
#    x 1.653710 0.000000 0.009130 
#    y 0.000000 1.662980 0.000000 
#    z 0.009130 0.000000 1.648440 
# 
# From -- ./inp_files/51557.got.cif
#   From: 2010.05.17/outbox.cif.g08.bks.cpg/sg11_26_cif.got.tgz:51557.got - 2010.06.03 12:22:45.
