data_PCOD9164690
_publ_section_title
;
Structure prediction by ZEFSAII (Michael W. Deem and Ramdas Pophale) SiO2 
 PCOD9164690
Probable space group: P 21/M
;
_chemical_formula_sum "Si O2"
_cell_formula_units_Z 16
_cell_length_a 7.281760
_cell_length_b 14.631540
_cell_length_c 6.907262
_cell_angle_alpha 90.000000
_cell_angle_beta 104.419649
_cell_angle_gamma 90.000000
_cell_volume 712.739743
_symmetry_space_group_name_H-M "P 21/M"
_symmetry_group_IT_number 11
_symmetry_cell_setting 'monoclinic'
loop_
_space_group_symop_operation_xyz
x,y,z
-x,1/2+y,-z
-x,-y,-z
x,1/2-y,z
loop_
_atom_site_type_symbol
_atom_site_label
_atom_site_fract_x
_atom_site_fract_y
_atom_site_fract_z
Si Si1 0.972242 0.030669 0.269587
Si Si2 0.336588 0.359285 0.421003
Si Si3 0.559753 0.413731 0.148477
Si Si4 0.777930 0.649858 0.165103
O O1 0.922639 0.933091 0.157540
O O2 0.784760 0.092059 0.189806
O O3 0.000000 0.000000 0.500000
O O4 0.156366 0.090498 0.277474
O O5 0.340994 0.250000 0.392806
O O6 0.514278 0.408461 0.365522
O O7 0.310412 0.370819 0.644753
O O8 0.500000 0.500000 0.000000
O O9 0.404515 0.345461 0.021088
O O10 0.871047 0.750000 0.195923
#
# Coordination Sequence:
#
# PCOD9164690 Si02
#       4
#     4   4   4   4
#     4   9  20  37  60  86 116 152 194 240 291 348
#     4  10  21  38  59  84 118 157 196 243 295 347
#     4  10  21  36  58  83 114 153 193 242 295 346
#     4   9  19  36  57  84 118 154 196 244 292 348
#
# _framework density 22.448585999999999
#
# number of rings (size 3 to 8) (size 9 to 14) (size 15 to 20)
#    0.000    2.500    0.000    0.750    0.000   15.000 
#    0.000    2.500    0.000   13.500    0.000    0.000 
#    0.000    0.000    0.000    0.000    0.000    0.000 
#
# Total GULP energy -89091.710453 kJ/mol
# GULP energy per Si atom -5568.231903 kJ/mol
# Density = 2.239749 g / cm^3
# Si number density = 22.448586 Si / 1000 Ang^3
#
#
#
# Elastic Constant Matrix: (Units=GPa)
#
#
# Indices 1 2 3 4 5 6 
#
# 1 75.5913 19.3842 -14.5886 0.0000 6.4933 0.0000
# 2 19.3842 104.0298 -7.8771 0.0000 -6.4524 0.0000
# 3 -14.5886 -7.8771 85.0927 0.0000 -0.6683 0.0000
# 4 0.0000 0.0000 0.0000 25.3708 0.0000 -2.7370
# 5 6.4933 -6.4524 -0.6683 0.0000 34.0672 0.0000
# 6 0.0000 0.0000 0.0000 -2.7370 0.0000 25.3321
#
#
#
# Elastic Compliance Matrix: (Units=1/GPa)
#
#
# Indices 1 2 3 4 5 6 
#
# 1 0.014649 -0.002764 0.002230 0.000000 -0.003272 0.000000
# 2 -0.002764 0.010320 0.000501 0.000000 0.002491 0.000000
# 3 0.002230 0.000501 0.012180 0.000000 -0.000091 0.000000
# 4 0.000000 0.000000 0.000000 0.039880 0.000000 0.004309
# 5 -0.003272 0.002491 -0.000091 0.000000 0.030447 0.000000
# 6 0.000000 0.000000 0.000000 0.004309 0.000000 0.039941
#
#
# Mechanical properties :
#
#
# Convention : Reuss Voigt Hill
#
# Bulk Modulus (GPa) = 26.96595 28.72785 27.84690
# Shear Modulus (GPa) = 31.28040 34.80704 33.04372
#
# Velocity S-wave (km/s) = 3.73691 3.94194 3.84079
# Velocity P-wave (km/s) = 5.53694 5.79167 5.66574
#
# Compressibility (1/GPa) = 0.03708380
#
# Stress axis : x y z
#
# Youngs Moduli (GPa) = 68.26326 96.89862 82.10267
#
# Poissons Ratio (x) = 0.26780 -0.18309
# Poissons Ratio (y) = 0.18866 -0.04114
# Poissons Ratio (z) = -0.15222 -0.04855
#
# Static dielectric constant tensor:
#      x y z
#    x 1.807950 0.000000 -0.073860 
#    y 0.000000 1.898610 0.000000 
#    z -0.073860 0.000000 1.936830 
# 
# From -- ./inp_files/1487.got.cif
#   From: 2010.05.17/outbox.cif.g08.bks.cpg/sg11_1_cif.got.tgz:1487.got - 2010.06.03 12:22:45.
