data_PCOD9164684
_publ_section_title
;
Structure prediction by ZEFSAII (Michael W. Deem and Ramdas Pophale) SiO2 
 PCOD9164684
Probable space group: P 21/M
;
_chemical_formula_sum "Si O2"
_cell_formula_units_Z 26
_cell_length_a 10.767029
_cell_length_b 9.672046
_cell_length_c 14.838506
_cell_angle_alpha 90.000000
_cell_angle_beta 125.891849
_cell_angle_gamma 90.000000
_cell_volume 1251.862051
_symmetry_space_group_name_H-M "P 21/M"
_symmetry_group_IT_number 11
_symmetry_cell_setting 'monoclinic'
loop_
_space_group_symop_operation_xyz
x,y,z
-x,1/2+y,-z
-x,-y,-z
x,1/2-y,z
loop_
_atom_site_type_symbol
_atom_site_label
_atom_site_fract_x
_atom_site_fract_y
_atom_site_fract_z
Si Si1 0.949198 0.250000 0.959965
Si Si2 0.714319 0.411370 0.155427
Si Si3 0.733427 0.908227 0.603840
Si Si4 0.450130 0.907894 0.342914
Si Si5 0.865053 0.982043 0.041692
Si Si6 0.545633 0.590222 0.827456
Si Si7 0.989994 0.088996 0.406311
O O1 0.999626 0.372474 0.909187
O O2 0.911419 0.128015 0.018873
O O3 0.705965 0.250000 0.123846
O O4 0.792421 0.496020 0.109067
O O5 0.548769 0.453009 0.123741
O O6 0.825679 0.420041 0.289314
O O7 0.754438 0.750000 0.645806
O O8 0.594978 0.906089 0.472100
O O9 0.884083 0.953087 0.614495
O O10 0.681910 0.008270 0.661535
O O11 0.404141 0.750000 0.302343
O O12 0.491977 0.989896 0.270805
O O13 0.726032 0.920287 0.922450
O O14 0.505382 0.750000 0.790056
O O15 0.022125 0.250000 0.441089
O O16 0.000000 0.000000 0.500000
#
# Coordination Sequence:
#
# PCOD9164684 Si02
#       7
#     2   4   4   4   4   4   4
#     4  10  24  40  68  88 126 158 204 254 312 368
#     4  10  22  41  65  91 124 165 211 251 304 377
#     4   9  19  37  59  85 123 164 203 255 313 375
#     4  10  21  36  57  91 123 158 210 260 309 363
#     4  11  22  45  62  95 123 164 202 260 309 374
#     4  11  23  40  62  89 122 169 208 253 312 369
#     4  10  21  39  61  89 120 162 203 251 307 362
#
# _framework density 20.769062000000002
#
# number of rings (size 3 to 8) (size 9 to 14) (size 15 to 20)
#    0.000    1.846    1.538    1.846    1.077    3.692 
#    5.538    0.000    0.000    0.000    0.000    0.000 
#    0.000    0.000    0.000    0.000    0.000    0.000 
#
# Total GULP energy -144778.206434 kJ/mol
# GULP energy per Si atom -5568.392555 kJ/mol
# Density = 2.072179 g / cm^3
# Si number density = 20.769062 Si / 1000 Ang^3
#
#
#
# Elastic Constant Matrix: (Units=GPa)
#
#
# Indices 1 2 3 4 5 6 
#
# 1 81.2395 53.9850 23.3609 0.0000 -21.5716 0.0000
# 2 53.9850 128.4676 29.3223 0.0000 -33.4389 0.0000
# 3 23.3609 29.3223 31.4122 0.0000 -21.1320 0.0000
# 4 0.0000 0.0000 0.0000 16.9600 0.0000 -8.9779
# 5 -21.5716 -33.4389 -21.1320 0.0000 35.5496 0.0000
# 6 0.0000 0.0000 0.0000 -8.9779 0.0000 34.1641
#
#
#
# Elastic Compliance Matrix: (Units=1/GPa)
#
#
# Indices 1 2 3 4 5 6 
#
# 1 0.018688 -0.005754 -0.007564 0.000000 0.001431 0.000000
# 2 -0.005754 0.012608 -0.003101 0.000000 0.006525 0.000000
# 3 -0.007564 -0.003101 0.058831 0.000000 0.027465 0.000000
# 4 0.000000 0.000000 0.000000 0.068490 0.000000 0.017998
# 5 0.001431 0.006525 0.027465 0.000000 0.051462 0.000000
# 6 0.000000 0.000000 0.000000 0.017998 0.000000 0.034000
#
#
# Mechanical properties :
#
#
# Convention : Reuss Voigt Hill
#
# Bulk Modulus (GPa) = 17.45522 50.49510 33.97516
# Shear Modulus (GPa) = 16.89117 26.29814 21.59465
#
# Velocity S-wave (km/s) = 2.85491 3.56225 3.22802
# Velocity P-wave (km/s) = 4.39204 6.42534 5.50341
#
# Compressibility (1/GPa) = 0.05728945
#
# Stress axis : x y z
#
# Youngs Moduli (GPa) = 53.50986 79.31376 16.99796
#
# Poissons Ratio (x) = 0.45639 0.12857
# Poissons Ratio (y) = 0.30791 0.05270
# Poissons Ratio (z) = 0.40475 0.24591
#
# Static dielectric constant tensor:
#      x y z
#    x 1.780430 0.000000 0.060300 
#    y 0.000000 1.711190 0.000000 
#    z 0.060300 0.000000 1.772940 
# 
# From -- ./inp_files/49064.got.cif
#   From: 2010.05.17/outbox.cif.g08.bks.cpg/sg11_25_cif.got.tgz:49064.got - 2010.06.03 12:22:45.
