data_PCOD9164927
_publ_section_title
;
Structure prediction by ZEFSAII (Michael W. Deem and Ramdas Pophale) SiO2 
 PCOD9164927
Probable space group: P 21/M
;
_chemical_formula_sum "Si O2"
_cell_formula_units_Z 28
_cell_length_a 13.956140
_cell_length_b 7.841650
_cell_length_c 13.956141
_cell_angle_alpha 90.000000
_cell_angle_beta 120.000000
_cell_angle_gamma 90.000000
_cell_volume 1322.722533
_symmetry_space_group_name_H-M "P 21/M"
_symmetry_group_IT_number 11
_symmetry_cell_setting 'monoclinic'
loop_
_space_group_symop_operation_xyz
x,y,z
-x,1/2+y,-z
-x,-y,-z
x,1/2-y,z
loop_
_atom_site_type_symbol
_atom_site_label
_atom_site_fract_x
_atom_site_fract_y
_atom_site_fract_z
Si Si1 0.094604 0.455296 0.623032
Si Si2 0.797785 0.551984 0.772258
Si Si3 0.974472 0.948016 0.202215
Si Si4 0.376968 0.044704 0.471571
Si Si5 0.227742 0.551984 0.025527
Si Si6 0.666667 0.540714 0.333333
Si Si7 0.528428 0.455296 0.905396
O O1 0.102364 0.250000 0.633061
O O2 0.060578 0.517764 0.711404
O O3 0.214782 0.516291 0.648130
O O4 0.000000 0.500000 0.500000
O O5 0.770806 0.750000 0.776926
O O6 0.711404 0.482236 0.650827
O O7 0.790216 0.460184 0.869985
O O8 0.920231 0.539816 0.790216
O O9 0.006120 0.750000 0.229195
O O10 0.869984 0.960183 0.079769
O O11 0.366939 0.250000 0.469303
O O12 0.351870 0.983709 0.566652
O O13 0.500000 0.000000 0.500000
O O14 0.223074 0.750000 0.993880
O O15 0.349174 0.482236 0.060578
O O16 0.666667 0.750000 0.333333
O O17 0.566652 0.483709 0.214782
O O18 0.530697 0.250000 0.897636
O O19 0.500000 0.500000 0.000000
#
# Coordination Sequence:
#
# PCOD9164927 Si02
#       7
#     4   4   4   4   4   4   4
#     4  10  21  37  59  84 113 149 188 232 282 336
#     4  11  23  39  60  86 116 152 192 239 291 346
#     4  11  23  39  60  86 116 152 192 239 291 346
#     4  10  21  37  59  84 113 149 188 232 282 336
#     4  11  23  39  60  86 116 152 192 239 291 346
#     4   9  18  36  58  80 109 147 184 221 274 336
#     4  10  21  37  59  84 113 149 188 232 282 336
#
# _framework density 21.168462000000002
#
# number of rings (size 3 to 8) (size 9 to 14) (size 15 to 20)
#    0.000    1.714    0.000    4.286    0.000    6.857 
#    0.000    2.143    0.000    0.000    0.000    0.000 
#    0.000    0.000    0.000    0.000    0.000    0.000 
#
# Total GULP energy -156580.837888 kJ/mol
# GULP energy per Si atom -5592.172782 kJ/mol
# Density = 2.112028 g / cm^3
# Si number density = 21.168462 Si / 1000 Ang^3
#
#
#
# Elastic Constant Matrix: (Units=GPa)
#
#
# Indices 1 2 3 4 5 6 
#
# 1 174.5075 -12.3264 82.6718 0.0000 -0.0001 0.0000
# 2 -12.3264 24.2807 -12.3265 0.0000 0.0000 0.0000
# 3 82.6718 -12.3265 174.5074 0.0000 -0.0001 0.0000
# 4 0.0000 0.0000 0.0000 23.4929 0.0000 0.0000
# 5 -0.0001 0.0000 -0.0001 0.0000 45.9179 0.0000
# 6 0.0000 0.0000 0.0000 0.0000 0.0000 23.4928
#
#
#
# Elastic Compliance Matrix: (Units=1/GPa)
#
#
# Indices 1 2 3 4 5 6 
#
# 1 0.007488 0.002075 -0.003401 0.000000 0.000000 0.000000
# 2 0.002075 0.043292 0.002075 0.000000 0.000000 0.000000
# 3 -0.003401 0.002075 0.007488 0.000000 0.000000 0.000000
# 4 0.000000 0.000000 0.000000 0.042566 0.000000 0.000000
# 5 0.000000 0.000000 0.000000 0.000000 0.021778 0.000000
# 6 0.000000 0.000000 0.000000 0.000000 0.000000 0.042566
#
#
# Mechanical properties :
#
#
# Convention : Reuss Voigt Hill
#
# Bulk Modulus (GPa) = 16.73195 54.37039 35.55117
# Shear Modulus (GPa) = 27.23279 39.59916 33.41598
#
# Velocity S-wave (km/s) = 3.59064 4.32981 3.97744
# Velocity P-wave (km/s) = 5.01115 7.12297 6.15826
#
# Compressibility (1/GPa) = 0.05976588
#
# Stress axis : x y z
#
# Youngs Moduli (GPa) = 133.54481 23.09914 133.54462
#
# Poissons Ratio (x) = -0.04793 0.45417
# Poissons Ratio (y) = -0.27709 -0.27710
# Poissons Ratio (z) = 0.45417 -0.04793
#
# Static dielectric constant tensor:
#      x y z
#    x 1.721960 0.000000 0.000000 
#    y 0.000000 1.791070 0.000000 
#    z 0.000000 0.000000 1.721960 
# 
# From -- ./inp_files/38479.got.cif
#   From: 2010.05.17/outbox.cif.g08.bks.cpg/sg11_20_cif.got.tgz:38479.got - 2010.06.03 12:22:45.
