data_PCOD9164855
_publ_section_title
;
Structure prediction by ZEFSAII (Michael W. Deem and Ramdas Pophale) SiO2 
 PCOD9164855
Probable space group: P 21/M
;
_chemical_formula_sum "Si O2"
_cell_formula_units_Z 32
_cell_length_a 25.453092
_cell_length_b 8.435760
_cell_length_c 14.984757
_cell_angle_alpha 90.000000
_cell_angle_beta 148.664501
_cell_angle_gamma 90.000000
_cell_volume 1673.240017
_symmetry_space_group_name_H-M "P 21/M"
_symmetry_group_IT_number 11
_symmetry_cell_setting 'monoclinic'
loop_
_space_group_symop_operation_xyz
x,y,z
-x,1/2+y,-z
-x,-y,-z
x,1/2-y,z
loop_
_atom_site_type_symbol
_atom_site_label
_atom_site_fract_x
_atom_site_fract_y
_atom_site_fract_z
Si Si1 0.981883 0.938797 0.574063
Si Si2 0.886596 0.937678 0.834465
Si Si3 0.731711 0.061325 0.756105
Si Si4 0.343369 0.443489 0.015710
Si Si5 0.734334 0.060545 0.475194
Si Si6 0.760410 0.557977 0.316838
Si Si7 0.569094 0.442841 0.381149
Si Si8 0.188074 0.061431 0.942327
O O1 0.976625 0.750000 0.561665
O O2 0.874595 0.994269 0.457799
O O3 0.000000 0.000000 0.500000
O O4 0.077039 0.988306 0.771944
O O5 0.884381 0.750000 0.846079
O O6 0.820813 0.022479 0.815524
O O7 0.831232 0.979527 0.661461
O O8 0.000000 0.000000 0.000000
O O9 0.726210 0.250000 0.761238
O O10 0.629414 0.006356 0.557459
O O11 0.757424 0.980592 0.886482
O O12 0.344224 0.250000 0.019137
O O13 0.454708 0.498929 0.204925
O O14 0.258152 0.495307 0.962161
O O15 0.310928 0.489399 0.869124
O O16 0.745265 0.250000 0.498771
O O17 0.638114 0.012759 0.396240
O O18 0.726201 0.011381 0.361198
O O19 0.759857 0.750000 0.321885
O O20 0.567157 0.250000 0.380439
O O21 0.177223 0.250000 0.918950
#
# Coordination Sequence:
#
# PCOD9164855 Si02
#       8
#     4   4   4   4   4   4   4   4
#     4  11  22  38  58  82 115 153 192 239 291 344
#     4  11  22  38  59  83 112 149 191 236 285 342
#     4  10  21  38  58  85 118 151 188 236 290 341
#     4   9  18  36  59  83 113 152 196 239 285 339
#     4  10  21  37  57  85 117 150 189 236 287 339
#     4  10  21  37  57  83 114 153 194 234 285 344
#     4   8  17  36  60  82 113 152 189 237 292 337
#     4  11  22  37  58  86 116 155 198 237 285 343
#
# _framework density 19.124573000000002
#
# number of rings (size 3 to 8) (size 9 to 14) (size 15 to 20)
#    0.000    2.000    1.250    3.375    1.750    2.000 
#    0.000    0.000    0.000   12.000    0.000    0.000 
#    0.000    0.000    0.000    0.000    0.000    0.000 
#
# Total GULP energy -178712.529282 kJ/mol
# GULP energy per Si atom -5584.766540 kJ/mol
# Density = 1.908104 g / cm^3
# Si number density = 19.124573 Si / 1000 Ang^3
#
#
#
# Elastic Constant Matrix: (Units=GPa)
#
#
# Indices 1 2 3 4 5 6 
#
# 1 19.6245 -7.2284 17.6151 0.0000 -17.0444 0.0000
# 2 -7.2284 22.2716 -1.9745 0.0000 4.2671 0.0000
# 3 17.6151 -1.9745 112.8868 0.0000 3.7108 0.0000
# 4 0.0000 0.0000 0.0000 23.4924 0.0000 -9.0318
# 5 -17.0444 4.2671 3.7108 0.0000 36.5365 0.0000
# 6 0.0000 0.0000 0.0000 -9.0318 0.0000 26.9736
#
#
#
# Elastic Compliance Matrix: (Units=1/GPa)
#
#
# Indices 1 2 3 4 5 6 
#
# 1 0.137449 0.030523 -0.022981 0.000000 0.062889 0.000000
# 2 0.030523 0.052815 -0.004118 0.000000 0.008489 0.000000
# 3 -0.022981 -0.004118 0.012752 0.000000 -0.011535 0.000000
# 4 0.000000 0.000000 0.000000 0.048856 0.000000 0.016359
# 5 0.062889 0.008489 -0.011535 0.000000 0.056888 0.000000
# 6 0.000000 0.000000 0.000000 0.016359 0.000000 0.042551
#
#
# Mechanical properties :
#
#
# Convention : Reuss Voigt Hill
#
# Bulk Modulus (GPa) = 4.76501 19.06746 11.91623
# Shear Modulus (GPa) = 12.06514 27.15856 19.61185
#
# Velocity S-wave (km/s) = 2.51444 3.77249 3.20578
# Velocity P-wave (km/s) = 3.30558 5.38214 4.46622
#
# Compressibility (1/GPa) = 0.20986336
#
# Stress axis : x y z
#
# Youngs Moduli (GPa) = 7.27544 18.93393 78.42157
#
# Poissons Ratio (x) = -0.57792 1.80222
# Poissons Ratio (y) = -0.22207 0.32295
# Poissons Ratio (z) = 0.16720 0.07797
#
# Static dielectric constant tensor:
#      x y z
#    x 1.643730 0.000000 0.004000 
#    y 0.000000 1.667620 0.000000 
#    z 0.004000 0.000000 1.672620 
# 
# From -- ./inp_files/51674.got.cif
#   From: 2010.05.17/outbox.cif.g08.bks.cpg/sg11_26_cif.got.tgz:51674.got - 2010.06.03 12:22:45.
