data_PCOD9164579
_publ_section_title
;
Structure prediction by ZEFSAII (Michael W. Deem and Ramdas Pophale) SiO2 
 PCOD9164579
Probable space group: P 21/M
;
_chemical_formula_sum "Si O2"
_cell_formula_units_Z 28
_cell_length_a 24.615006
_cell_length_b 9.210353
_cell_length_c 8.239864
_cell_angle_alpha 90.000000
_cell_angle_beta 136.746673
_cell_angle_gamma 90.000000
_cell_volume 1280.057989
_symmetry_space_group_name_H-M "P 21/M"
_symmetry_group_IT_number 11
_symmetry_cell_setting 'monoclinic'
loop_
_space_group_symop_operation_xyz
x,y,z
-x,1/2+y,-z
-x,-y,-z
x,1/2-y,z
loop_
_atom_site_type_symbol
_atom_site_label
_atom_site_fract_x
_atom_site_fract_y
_atom_site_fract_z
Si Si1 0.384940 0.082787 0.343639
Si Si2 0.819949 0.424748 0.431057
Si Si3 0.899385 0.075021 0.941787
Si Si4 0.248780 0.919191 0.195098
Si Si5 0.048604 0.076028 0.462164
Si Si6 0.338914 0.581844 0.737747
Si Si7 0.527124 0.916989 0.812183
O O1 0.376938 0.250000 0.372669
O O2 0.421685 0.075905 0.243611
O O3 0.301046 0.004423 0.180378
O O4 0.448000 0.004263 0.598191
O O5 0.826243 0.250000 0.424184
O O6 0.866810 0.470285 0.697190
O O7 0.866334 0.505604 0.389550
O O8 0.729016 0.457953 0.278104
O O9 0.890669 0.250000 0.925231
O O10 0.837835 0.022011 0.945721
O O11 0.989205 0.043507 0.181632
O O12 0.243479 0.750000 0.135408
O O13 0.297026 0.926897 0.471383
O O14 0.053670 0.250000 0.495000
O O15 0.000000 0.000000 0.500000
O O16 0.360322 0.750000 0.812529
O O17 0.416244 0.485550 0.929645
O O18 0.507544 0.750000 0.804534
#
# Coordination Sequence:
#
# PCOD9164579 Si02
#       7
#     4   4   4   4   4   4   4
#     4  10  21  36  53  76 105 137 174 214 258 307
#     4   9  18  36  58  78 102 135 174 215 260 309
#     4   8  17  35  57  77 101 136 176 214 256 309
#     4   9  18  35  57  79 102 133 174 215 257 308
#     4  11  22  35  52  78 109 140 175 215 259 306
#     4   9  19  35  56  80 105 134 170 213 261 311
#     4  10  21  36  54  76 104 139 177 214 255 307
#
# _framework density 21.874009999999998
#
# number of rings (size 3 to 8) (size 9 to 14) (size 15 to 20)
#    0.000    2.571    0.000    3.429    0.000    4.571 
#    0.000    8.571    0.000    0.000    0.000    0.000 
#    0.000    0.000    0.000    0.000    0.000    0.000 
#
# Total GULP energy -156438.938229 kJ/mol
# GULP energy per Si atom -5587.104937 kJ/mol
# Density = 2.182422 g / cm^3
# Si number density = 21.874010 Si / 1000 Ang^3
#
#
#
# Elastic Constant Matrix: (Units=GPa)
#
#
# Indices 1 2 3 4 5 6 
#
# 1 109.2856 29.2261 0.4067 0.0000 17.5265 0.0000
# 2 29.2261 58.1627 15.8275 0.0000 13.4359 0.0000
# 3 0.4067 15.8275 57.9769 0.0000 5.6635 0.0000
# 4 0.0000 0.0000 0.0000 16.9727 0.0000 1.8013
# 5 17.5265 13.4359 5.6635 0.0000 33.9051 0.0000
# 6 0.0000 0.0000 0.0000 1.8013 0.0000 27.4399
#
#
#
# Elastic Compliance Matrix: (Units=1/GPa)
#
#
# Indices 1 2 3 4 5 6 
#
# 1 0.011166 -0.005151 0.001720 0.000000 -0.004018 0.000000
# 2 -0.005151 0.022536 -0.005595 0.000000 -0.005333 0.000000
# 3 0.001720 -0.005595 0.018943 0.000000 -0.001836 0.000000
# 4 0.000000 0.000000 0.000000 0.059332 0.000000 -0.003895
# 5 -0.004018 -0.005333 -0.001836 0.000000 0.033991 0.000000
# 6 0.000000 0.000000 0.000000 -0.003895 0.000000 0.036699
#
#
# Mechanical properties :
#
#
# Convention : Reuss Voigt Hill
#
# Bulk Modulus (GPa) = 28.90683 35.14951 32.02817
# Shear Modulus (GPa) = 23.55728 27.66120 25.60924
#
# Velocity S-wave (km/s) = 3.28526 3.55994 3.42535
# Velocity P-wave (km/s) = 5.25684 5.74469 5.50617
#
# Compressibility (1/GPa) = 0.03459390
#
# Stress axis : x y z
#
# Youngs Moduli (GPa) = 89.55966 44.37371 52.78996
#
# Poissons Ratio (x) = 0.22855 -0.09081
# Poissons Ratio (y) = 0.46128 0.29536
# Poissons Ratio (z) = -0.15407 0.24827
#
# Static dielectric constant tensor:
#      x y z
#    x 1.828840 0.000000 -0.045470 
#    y 0.000000 1.730910 0.000000 
#    z -0.045470 0.000000 1.825090 
# 
# From -- ./inp_files/28382.got.cif
#   From: 2010.05.17/outbox.cif.g08.bks.cpg/sg11_15_cif.got.tgz:28382.got - 2010.06.03 12:22:45.
