data_PCOD9164125
_publ_section_title
;
Structure prediction by ZEFSAII (Michael W. Deem and Ramdas Pophale) SiO2 
 PCOD9164125
Probable space group: P 21/M
;
_chemical_formula_sum "Si O2"
_cell_formula_units_Z 28
_cell_length_a 28.015528
_cell_length_b 7.770955
_cell_length_c 9.604263
_cell_angle_alpha 90.000000
_cell_angle_beta 37.462738
_cell_angle_gamma 90.000000
_cell_volume 1271.791873
_symmetry_space_group_name_H-M "P 21/M"
_symmetry_group_IT_number 11
_symmetry_cell_setting 'monoclinic'
loop_
_space_group_symop_operation_xyz
x,y,z
-x,1/2+y,-z
-x,-y,-z
x,1/2-y,z
loop_
_atom_site_type_symbol
_atom_site_label
_atom_site_fract_x
_atom_site_fract_y
_atom_site_fract_z
Si Si1 0.972756 0.944955 0.716790
Si Si2 0.476226 0.043316 0.209475
Si Si3 0.259129 0.955784 0.044428
Si Si4 0.573705 0.456487 0.233205
Si Si5 0.883548 0.950083 0.431154
Si Si6 0.299034 0.457109 0.645944
Si Si7 0.837200 0.538457 0.228847
O O1 0.947728 0.750000 0.753689
O O2 0.899975 0.026590 0.968891
O O3 0.000000 0.000000 0.500000
O O4 0.045418 0.956955 0.655099
O O5 0.473164 0.250000 0.234484
O O6 0.544730 0.977444 0.151555
O O7 0.388507 0.976381 0.444410
O O8 0.500000 0.000000 0.000000
O O9 0.254559 0.750000 0.072939
O O10 0.190962 0.035725 0.294775
O O11 0.343903 0.022499 0.900645
O O12 0.255132 0.994886 0.890030
O O13 0.500000 0.500000 0.500000
O O14 0.581820 0.250000 0.210341
O O15 0.906474 0.750000 0.364442
O O16 0.860874 0.016554 0.329772
O O17 0.302912 0.250000 0.631283
O O18 0.248306 0.514173 0.630116
O O19 0.838182 0.750000 0.230468
#
# Coordination Sequence:
#
# PCOD9164125 Si02
#       7
#     4   4   4   4   4   4   4
#     4  11  22  40  65  93 124 156 196 241 291 350
#     4  10  22  37  57  84 117 155 198 246 297 354
#     4  11  23  38  58  87 120 154 197 247 298 353
#     4  10  21  38  58  84 116 153 198 247 299 353
#     4  11  23  40  62  88 119 157 198 240 293 350
#     4  10  20  39  62  85 115 155 201 246 295 355
#     4   9  21  39  61  88 118 153 195 243 292 348
#
# _framework density 22.016181
#
# number of rings (size 3 to 8) (size 9 to 14) (size 15 to 20)
#    0.000    1.714    1.429    2.571    2.000    2.857 
#    0.000    4.286    0.000    0.000    0.000    0.000 
#    0.000    0.000    0.000    0.000    0.000    0.000 
#
# Total GULP energy -156411.915098 kJ/mol
# GULP energy per Si atom -5586.139825 kJ/mol
# Density = 2.196607 g / cm^3
# Si number density = 22.016181 Si / 1000 Ang^3
#
#
#
# Elastic Constant Matrix: (Units=GPa)
#
#
# Indices 1 2 3 4 5 6 
#
# 1 122.6759 -6.1342 9.9496 0.0000 14.6231 0.0000
# 2 -6.1342 29.3673 -11.2562 0.0000 1.4237 0.0000
# 3 9.9496 -11.2562 63.1572 0.0000 6.9959 0.0000
# 4 0.0000 0.0000 0.0000 21.1227 0.0000 4.9015
# 5 14.6231 1.4237 6.9959 0.0000 44.1652 0.0000
# 6 0.0000 0.0000 0.0000 4.9015 0.0000 18.4273
#
#
#
# Elastic Compliance Matrix: (Units=1/GPa)
#
#
# Indices 1 2 3 4 5 6 
#
# 1 0.008628 0.001647 -0.000757 0.000000 -0.002790 0.000000
# 2 0.001647 0.037084 0.006659 0.000000 -0.002796 0.000000
# 3 -0.000757 0.006659 0.017442 0.000000 -0.002727 0.000000
# 4 0.000000 0.000000 0.000000 0.050457 0.000000 -0.013421
# 5 -0.002790 -0.002796 -0.002727 0.000000 0.024088 0.000000
# 6 0.000000 0.000000 0.000000 -0.013421 0.000000 0.057837
#
#
# Mechanical properties :
#
#
# Convention : Reuss Voigt Hill
#
# Bulk Modulus (GPa) = 12.77896 22.25766 17.51831
# Shear Modulus (GPa) = 24.21083 31.58579 27.89831
#
# Velocity S-wave (km/s) = 3.31975 3.79180 3.56360
# Velocity P-wave (km/s) = 4.52893 5.41313 4.99065
#
# Compressibility (1/GPa) = 0.07825365
#
# Stress axis : x y z
#
# Youngs Moduli (GPa) = 115.90358 26.96610 57.33410
#
# Poissons Ratio (x) = -0.04442 0.04338
# Poissons Ratio (y) = -0.19094 -0.38181
# Poissons Ratio (z) = 0.08769 -0.17958
#
# Static dielectric constant tensor:
#      x y z
#    x 1.965300 0.000000 0.001960 
#    y 0.000000 1.808480 0.000000 
#    z 0.001960 0.000000 1.784430 
# 
# From -- ./inp_files/28368.got.cif
#   From: 2010.05.17/outbox.cif.g08.bks.cpg/sg11_15_cif.got.tgz:28368.got - 2010.06.03 12:22:45.
