data_PCOD9164132
_publ_section_title
;
Structure prediction by ZEFSAII (Michael W. Deem and Ramdas Pophale) SiO2 
 PCOD9164132
Probable space group: P 21/M
;
_chemical_formula_sum "Si O2"
_cell_formula_units_Z 32
_cell_length_a 11.011558
_cell_length_b 22.293950
_cell_length_c 16.359436
_cell_angle_alpha 90.000000
_cell_angle_beta 159.787503
_cell_angle_gamma 90.000000
_cell_volume 1387.572882
_symmetry_space_group_name_H-M "P 21/M"
_symmetry_group_IT_number 11
_symmetry_cell_setting 'monoclinic'
loop_
_space_group_symop_operation_xyz
x,y,z
-x,1/2+y,-z
-x,-y,-z
x,1/2-y,z
loop_
_atom_site_type_symbol
_atom_site_label
_atom_site_fract_x
_atom_site_fract_y
_atom_site_fract_z
Si Si1 0.485397 0.504510 0.731139
Si Si2 0.514699 0.977154 0.919068
Si Si3 0.322861 0.678665 0.097615
Si Si4 0.312746 0.565098 0.402220
Si Si5 0.186890 0.613441 0.488422
Si Si6 0.463576 0.680994 0.008972
Si Si7 0.861628 0.142853 0.365012
Si Si8 0.844380 0.094354 0.864621
O O1 0.154826 0.544807 0.499874
O O2 0.553640 0.452070 0.713077
O O3 0.498054 0.479601 0.830180
O O4 0.806398 0.553059 0.924772
O O5 0.907268 0.951055 0.160107
O O6 0.234168 0.925152 0.721696
O O7 0.500000 0.000000 0.000000
O O8 0.275881 0.750000 0.077389
O O9 0.243549 0.662659 0.951786
O O10 0.129899 0.644525 0.049944
O O11 0.734481 0.661120 0.368968
O O12 0.500000 0.500000 0.500000
O O13 0.408776 0.601743 0.545109
O O14 0.299013 0.609284 0.315644
O O15 0.301246 0.648206 0.645012
O O16 0.817450 0.642216 0.231360
O O17 0.562952 0.750000 0.086745
O O18 0.284688 0.677032 0.807120
#
# Coordination Sequence:
#
# PCOD9164132 Si02
#       8
#     4   4   4   4   4   4   4   4
#     4   9  20  38  59  90 126 169 208 256 325 384
#     4  10  22  34  57  94 127 161 213 256 312 387
#     4  10  23  42  65  92 123 166 215 264 326 384
#     4  11  21  37  58  89 132 173 205 257 317 381
#     4  10  20  39  62  91 122 161 215 254 317 388
#     4  10  21  41  66  90 121 161 210 269 325 379
#     4  10  21  38  63  92 126 157 207 274 315 376
#     4  10  21  38  60  87 129 174 207 259 315 380
#
# _framework density 23.06185
#
# number of rings (size 3 to 8) (size 9 to 14) (size 15 to 20)
#    0.000    2.000    2.500    0.375    3.500    0.500 
#    2.250    4.375    0.000    0.000    0.000    0.000 
#    0.000    0.000    0.000    0.000    0.000    0.000 
#
# Total GULP energy -178352.459261 kJ/mol
# GULP energy per Si atom -5573.514352 kJ/mol
# Density = 2.300936 g / cm^3
# Si number density = 23.061850 Si / 1000 Ang^3
#
#
#
# Elastic Constant Matrix: (Units=GPa)
#
#
# Indices 1 2 3 4 5 6 
#
# 1 231.8025 55.1434 52.0443 0.0000 -40.5243 0.0000
# 2 55.1434 63.5450 7.1547 0.0000 -0.8025 0.0000
# 3 52.0443 7.1547 69.3241 0.0000 -19.9083 0.0000
# 4 0.0000 0.0000 0.0000 23.6136 0.0000 -1.9835
# 5 -40.5243 -0.8025 -19.9083 0.0000 43.9804 0.0000
# 6 0.0000 0.0000 0.0000 -1.9835 0.0000 40.0201
#
#
#
# Elastic Compliance Matrix: (Units=1/GPa)
#
#
# Indices 1 2 3 4 5 6 
#
# 1 0.007417 -0.005981 -0.003471 0.000000 0.005154 0.000000
# 2 -0.005981 0.020754 0.001005 0.000000 -0.004677 0.000000
# 3 -0.003471 0.001005 0.018407 0.000000 0.005152 0.000000
# 4 0.000000 0.000000 0.000000 0.042526 0.000000 0.002108
# 5 0.005154 -0.004677 0.005152 0.000000 0.029733 0.000000
# 6 0.000000 0.000000 0.000000 0.002108 0.000000 0.025092
#
#
# Mechanical properties :
#
#
# Convention : Reuss Voigt Hill
#
# Bulk Modulus (GPa) = 33.68750 65.92850 49.80800
# Shear Modulus (GPa) = 29.28819 38.21142 33.74980
#
# Velocity S-wave (km/s) = 3.56755 4.07493 3.82965
# Velocity P-wave (km/s) = 5.62219 7.12670 6.41868
#
# Compressibility (1/GPa) = 0.02968460
#
# Stress axis : x y z
#
# Youngs Moduli (GPa) = 134.82484 48.18233 54.32812
#
# Poissons Ratio (x) = 0.28815 0.18857
# Poissons Ratio (y) = 0.80632 -0.05458
# Poissons Ratio (z) = 0.46797 -0.04841
#
# Static dielectric constant tensor:
#      x y z
#    x 1.982320 0.000000 -0.009460 
#    y 0.000000 1.890040 0.000000 
#    z -0.009460 0.000000 1.952140 
# 
# From -- ./inp_files/48483.got.cif
#   From: 2010.05.17/outbox.cif.g08.bks.cpg/sg11_25_cif.got.tgz:48483.got - 2010.06.03 12:22:45.
