data_PCOD9164852
_publ_section_title
;
Structure prediction by ZEFSAII (Michael W. Deem and Ramdas Pophale) SiO2 
 PCOD9164852
Probable space group: P 21/M
;
_chemical_formula_sum "Si O2"
_cell_formula_units_Z 28
_cell_length_a 12.800877
_cell_length_b 15.313259
_cell_length_c 9.009050
_cell_angle_alpha 90.000000
_cell_angle_beta 48.173903
_cell_angle_gamma 90.000000
_cell_volume 1315.961157
_symmetry_space_group_name_H-M "P 21/M"
_symmetry_group_IT_number 11
_symmetry_cell_setting 'monoclinic'
loop_
_space_group_symop_operation_xyz
x,y,z
-x,1/2+y,-z
-x,-y,-z
x,1/2-y,z
loop_
_atom_site_type_symbol
_atom_site_label
_atom_site_fract_x
_atom_site_fract_y
_atom_site_fract_z
Si Si1 0.876992 0.427962 0.148742
Si Si2 0.015810 0.152403 0.617522
Si Si3 0.866657 0.654783 0.158722
Si Si4 0.745807 0.847721 0.858000
Si Si5 0.361745 0.030879 0.543216
Si Si6 0.768327 0.044126 0.928626
Si Si7 0.489557 0.352420 0.159989
O O1 0.753986 0.454141 0.379212
O O2 0.796576 0.419578 0.068641
O O3 0.000000 0.500000 0.000000
O O4 0.988777 0.351781 0.072502
O O5 0.950841 0.250000 0.678121
O O6 0.901519 0.077529 0.710306
O O7 0.085700 0.142346 0.714056
O O8 0.132049 0.149696 0.381389
O O9 0.806998 0.750000 0.203300
O O10 0.738586 0.589651 0.258526
O O11 0.753948 0.750000 0.921326
O O12 0.601844 0.851556 0.902082
O O13 0.757527 0.939571 0.932142
O O14 0.408436 0.090585 0.361787
O O15 0.500000 0.000000 0.500000
O O16 0.632188 0.094560 0.001288
O O17 0.508691 0.250000 0.186786
#
# Coordination Sequence:
#
# PCOD9164852 Si02
#       7
#     4   4   4   4   4   4   4
#     4   9  20  35  54  80 113 144 187 227 279 347
#     4   9  17  32  55  84 110 140 189 236 280 336
#     4   9  17  33  56  79 107 145 187 236 281 328
#     4  10  21  37  57  83 112 148 193 234 286 348
#     4  11  19  34  53  82 113 146 183 236 285 340
#     4  11  20  35  57  87 114 147 186 240 290 331
#     4  11  22  37  59  84 111 149 195 237 282 341
#
# _framework density 21.277222999999999
#
# number of rings (size 3 to 8) (size 9 to 14) (size 15 to 20)
#    0.000    2.000    2.857    1.714    0.000    0.571 
#    0.000    3.571    0.000    0.857    0.000    0.000 
#    0.000    0.000    0.000    0.000    0.000    0.000 
#
# Total GULP energy -155963.707950 kJ/mol
# GULP energy per Si atom -5570.132427 kJ/mol
# Density = 2.122879 g / cm^3
# Si number density = 21.277223 Si / 1000 Ang^3
#
#
#
# Elastic Constant Matrix: (Units=GPa)
#
#
# Indices 1 2 3 4 5 6 
#
# 1 62.3119 38.2636 42.0178 0.0000 -18.7996 0.0000
# 2 38.2636 113.3932 32.2395 0.0000 -16.5732 0.0000
# 3 42.0178 32.2395 74.8917 0.0000 -25.2874 0.0000
# 4 0.0000 0.0000 0.0000 34.2891 0.0000 -5.0750
# 5 -18.7996 -16.5732 -25.2874 0.0000 34.7274 0.0000
# 6 0.0000 0.0000 0.0000 -5.0750 0.0000 26.7073
#
#
#
# Elastic Compliance Matrix: (Units=1/GPa)
#
#
# Indices 1 2 3 4 5 6 
#
# 1 0.029253 -0.005707 -0.012634 0.000000 0.003912 0.000000
# 2 -0.005707 0.011288 -0.001169 0.000000 0.001446 0.000000
# 3 -0.012634 -0.001169 0.024461 0.000000 0.010414 0.000000
# 4 0.000000 0.000000 0.000000 0.030008 0.000000 0.005702
# 5 0.003912 0.001446 0.010414 0.000000 0.039187 0.000000
# 6 0.000000 0.000000 0.000000 0.005702 0.000000 0.038527
#
#
# Mechanical properties :
#
#
# Convention : Reuss Voigt Hill
#
# Bulk Modulus (GPa) = 38.49012 52.84872 45.66942
# Shear Modulus (GPa) = 22.68555 28.34983 25.51769
#
# Velocity S-wave (km/s) = 3.26880 3.65417 3.46684
# Velocity P-wave (km/s) = 5.68997 6.53422 6.12666
#
# Compressibility (1/GPa) = 0.02598070
#
# Stress axis : x y z
#
# Youngs Moduli (GPa) = 34.18486 88.58578 40.88194
#
# Poissons Ratio (x) = 0.50557 0.51652
# Poissons Ratio (y) = 0.19510 0.04780
# Poissons Ratio (z) = 0.43190 0.10357
#
# Static dielectric constant tensor:
#      x y z
#    x 1.783240 0.000000 0.010130 
#    y 0.000000 1.960820 0.000000 
#    z 0.010130 0.000000 1.812810 
# 
# From -- ./inp_files/39458.got.cif
#   From: 2010.05.17/outbox.cif.g08.bks.cpg/sg11_20_cif.got.tgz:39458.got - 2010.06.03 12:22:45.
