data_PCOD9164229
_publ_section_title
;
Structure prediction by ZEFSAII (Michael W. Deem and Ramdas Pophale) SiO2 
 PCOD9164229
Probable space group: P 21/M
;
_chemical_formula_sum "Si O2"
_cell_formula_units_Z 32
_cell_length_a 26.508817
_cell_length_b 8.028846
_cell_length_c 12.346982
_cell_angle_alpha 90.000000
_cell_angle_beta 153.099847
_cell_angle_gamma 90.000000
_cell_volume 1188.946988
_symmetry_space_group_name_H-M "P 21/M"
_symmetry_group_IT_number 11
_symmetry_cell_setting 'monoclinic'
loop_
_space_group_symop_operation_xyz
x,y,z
-x,1/2+y,-z
-x,-y,-z
x,1/2-y,z
loop_
_atom_site_type_symbol
_atom_site_label
_atom_site_fract_x
_atom_site_fract_y
_atom_site_fract_z
Si Si1 0.015786 0.952428 0.863556
Si Si2 0.182081 0.550638 0.986107
Si Si3 0.323093 0.448652 0.461308
Si Si4 0.036638 0.951250 0.472712
Si Si5 0.257507 0.941538 0.781807
Si Si6 0.821062 0.555864 0.632246
Si Si7 0.615358 0.940569 0.772940
Si Si8 0.541857 0.554492 0.962458
O O1 0.021773 0.750000 0.881392
O O2 0.892533 0.009482 0.667617
O O3 0.050917 0.001539 0.806684
O O4 0.091318 0.038781 0.098643
O O5 0.181481 0.750000 0.965017
O O6 0.246985 0.539428 0.229245
O O7 0.283393 0.453406 0.118043
O O8 0.083360 0.508384 0.692469
O O9 0.301107 0.250000 0.412675
O O10 0.284201 0.514425 0.505720
O O11 0.454677 0.475901 0.710401
O O12 0.036194 0.750000 0.468108
O O13 0.145313 0.024301 0.616803
O O14 0.232525 0.750000 0.711997
O O15 0.342856 0.952890 0.045879
O O16 0.330340 0.012096 0.822521
O O17 0.801203 0.750000 0.571852
O O18 0.602985 0.750000 0.786153
O O19 0.500000 0.000000 0.500000
O O20 0.531203 0.750000 0.934594
O O21 0.500000 0.500000 0.000000
#
# Coordination Sequence:
#
# PCOD9164229 Si02
#       8
#     4   4   4   4   4   4   4   4
#     4   8  18  35  57  92 131 175 231 277 350 424
#     4   9  20  40  68  99 139 186 236 292 362 427
#     4  10  20  39  71 106 141 186 238 298 364 435
#     4  10  21  44  68 103 147 195 245 299 366 441
#     4  12  26  46  71 105 146 192 242 299 362 440
#     4   9  17  33  59  94 134 175 225 289 360 426
#     4  12  25  45  73 103 137 181 239 303 366 436
#     4  12  28  51  75 105 142 189 243 306 373 443
#
# _framework density 26.914572
#
# number of rings (size 3 to 8) (size 9 to 14) (size 15 to 20)
#    0.750    1.000    1.250    3.000    1.750    2.000 
#    0.000   10.000    0.000    0.000    0.000    0.000 
#    0.000    0.000    0.000    0.000    0.000    0.000 
#
# Total GULP energy -178965.870587 kJ/mol
# GULP energy per Si atom -5592.683456 kJ/mol
# Density = 2.685331 g / cm^3
# Si number density = 26.914572 Si / 1000 Ang^3
#
#
#
# Elastic Constant Matrix: (Units=GPa)
#
#
# Indices 1 2 3 4 5 6 
#
# 1 183.5463 14.9861 63.4157 0.0000 -18.5610 0.0000
# 2 14.9861 118.4283 21.9008 0.0000 5.7973 0.0000
# 3 63.4157 21.9008 191.7868 0.0000 31.5367 0.0000
# 4 0.0000 0.0000 0.0000 47.0217 0.0000 -3.1614
# 5 -18.5610 5.7973 31.5367 0.0000 70.9382 0.0000
# 6 0.0000 0.0000 0.0000 -3.1614 0.0000 36.5563
#
#
#
# Elastic Compliance Matrix: (Units=1/GPa)
#
#
# Indices 1 2 3 4 5 6 
#
# 1 0.006705 -0.000504 -0.002648 0.000000 0.002973 0.000000
# 2 -0.000504 0.008669 -0.000739 0.000000 -0.000512 0.000000
# 3 -0.002648 -0.000739 0.006773 0.000000 -0.003644 0.000000
# 4 0.000000 0.000000 0.000000 0.021391 0.000000 0.001850
# 5 0.002973 -0.000512 -0.003644 0.000000 0.016536 0.000000
# 6 0.000000 0.000000 0.000000 0.001850 0.000000 0.027515
#
#
# Mechanical properties :
#
#
# Convention : Reuss Voigt Hill
#
# Bulk Modulus (GPa) = 69.61601 77.15186 73.38393
# Shear Modulus (GPa) = 49.91913 57.13383 53.52648
#
# Velocity S-wave (km/s) = 4.31132 4.61237 4.46438
# Velocity P-wave (km/s) = 7.12075 7.55599 7.34159
#
# Compressibility (1/GPa) = 0.01436451
#
# Stress axis : x y z
#
# Youngs Moduli (GPa) = 149.14168 115.34728 147.63675
#
# Poissons Ratio (x) = 0.05816 0.39099
# Poissons Ratio (y) = 0.07520 0.10912
# Poissons Ratio (z) = 0.39498 0.08525
#
# Static dielectric constant tensor:
#      x y z
#    x 2.251360 0.000000 0.009130 
#    y 0.000000 1.883150 0.000000 
#    z 0.009130 0.000000 2.204240 
# 
# From -- ./inp_files/45306.got.cif
#   From: 2010.05.17/outbox.cif.g08.bks.cpg/sg11_23_cif.got.tgz:45306.got - 2010.06.03 12:22:45.
