data_PCOD9164667
_publ_section_title
;
Structure prediction by ZEFSAII (Michael W. Deem and Ramdas Pophale) SiO2 
 PCOD9164667
Probable space group: P 21/M
;
_chemical_formula_sum "Si O2"
_cell_formula_units_Z 28
_cell_length_a 9.638260
_cell_length_b 8.842490
_cell_length_c 26.099258
_cell_angle_alpha 90.000000
_cell_angle_beta 40.265115
_cell_angle_gamma 90.000000
_cell_volume 1437.647898
_symmetry_space_group_name_H-M "P 21/M"
_symmetry_group_IT_number 11
_symmetry_cell_setting 'monoclinic'
loop_
_space_group_symop_operation_xyz
x,y,z
-x,1/2+y,-z
-x,-y,-z
x,1/2-y,z
loop_
_atom_site_type_symbol
_atom_site_label
_atom_site_fract_x
_atom_site_fract_y
_atom_site_fract_z
Si Si1 0.281248 0.068408 0.582756
Si Si2 0.823638 0.070232 0.676083
Si Si3 0.065547 0.429742 0.926924
Si Si4 0.274878 0.573709 0.177497
Si Si5 0.592097 0.430452 0.241876
Si Si6 0.344847 0.428807 0.001474
Si Si7 0.150583 0.570057 0.728472
O O1 0.290376 0.250000 0.581110
O O2 0.074194 0.025814 0.606175
O O3 0.500000 0.000000 0.500000
O O4 0.235173 0.009418 0.653076
O O5 0.807970 0.250000 0.670880
O O6 0.750390 0.042136 0.755476
O O7 0.654625 0.983007 0.688876
O O8 0.078263 0.250000 0.927928
O O9 0.282362 0.493522 0.840827
O O10 0.000000 0.500000 0.000000
O O11 0.874969 0.481922 0.942636
O O12 0.217974 0.750000 0.185254
O O13 0.514989 0.553821 0.089882
O O14 0.099682 0.475099 0.196894
O O15 0.605535 0.250000 0.232814
O O16 0.714300 0.474997 0.259692
O O17 0.306453 0.250000 0.020968
O O18 0.500000 0.500000 0.000000
O O19 0.168106 0.750000 0.717488
#
# Coordination Sequence:
#
# PCOD9164667 Si02
#       7
#     4   4   4   4   4   4   4
#     4  10  21  39  64  91 118 147 183 225 273 332
#     4   9  19  36  58  83 110 144 184 227 275 330
#     4  12  25  40  58  80 111 153 198 247 300 350
#     4   9  19  35  54  76 104 142 188 234 281 334
#     4  11  23  38  57  84 116 150 192 238 283 340
#     4  11  22  36  54  79 111 147 191 242 293 344
#     4  10  21  36  57  85 116 149 187 231 278 332
#
# _framework density 19.476255999999999
#
# number of rings (size 3 to 8) (size 9 to 14) (size 15 to 20)
#    0.000    1.714    0.000    5.571    0.000    9.714 
#    0.000    0.714    0.000    0.000    0.000    0.000 
#    0.000    0.000    0.000    0.000    0.000    0.000 
#
# Total GULP energy -156477.029850 kJ/mol
# GULP energy per Si atom -5588.465352 kJ/mol
# Density = 1.943193 g / cm^3
# Si number density = 19.476256 Si / 1000 Ang^3
#
#
#
# Elastic Constant Matrix: (Units=GPa)
#
#
# Indices 1 2 3 4 5 6 
#
# 1 99.4971 44.7032 30.5303 0.0000 -25.0467 0.0000
# 2 44.7032 70.4454 28.4456 0.0000 -12.4764 0.0000
# 3 30.5303 28.4456 77.0622 0.0000 -23.1617 0.0000
# 4 0.0000 0.0000 0.0000 30.4921 0.0000 -4.8791
# 5 -25.0467 -12.4764 -23.1617 0.0000 28.8013 0.0000
# 6 0.0000 0.0000 0.0000 -4.8791 0.0000 33.0542
#
#
#
# Elastic Compliance Matrix: (Units=1/GPa)
#
#
# Indices 1 2 3 4 5 6 
#
# 1 0.016644 -0.008592 -0.000252 0.000000 0.010550 0.000000
# 2 -0.008592 0.021316 -0.005189 0.000000 -0.002411 0.000000
# 3 -0.000252 -0.005189 0.018792 0.000000 0.012646 0.000000
# 4 0.000000 0.000000 0.000000 0.033589 0.000000 0.004958
# 5 0.010550 -0.002411 0.012646 0.000000 0.053021 0.000000
# 6 0.000000 0.000000 0.000000 0.004958 0.000000 0.030985
#
#
# Mechanical properties :
#
#
# Convention : Reuss Voigt Hill
#
# Bulk Modulus (GPa) = 34.85844 50.48477 42.67160
# Shear Modulus (GPa) = 23.58785 28.02454 25.80620
#
# Velocity S-wave (km/s) = 3.48387 3.79741 3.64402
# Velocity P-wave (km/s) = 5.84123 6.72343 6.29780
#
# Compressibility (1/GPa) = 0.02868746
#
# Stress axis : x y z
#
# Youngs Moduli (GPa) = 60.08298 46.91356 53.21279
#
# Poissons Ratio (x) = 0.40307 0.01339
# Poissons Ratio (y) = 0.51621 0.27612
# Poissons Ratio (z) = 0.01512 0.24343
#
# Static dielectric constant tensor:
#      x y z
#    x 1.711240 0.000000 -0.007530 
#    y 0.000000 1.647640 0.000000 
#    z -0.007530 0.000000 1.688540 
# 
# From -- ./inp_files/70840.got.cif
#   From: 2010.05.17/outbox.cif.g08.bks.cpg/sg11_36_cif.got.tgz:70840.got - 2010.06.03 12:22:45.
