data_PCOD9164608
_publ_section_title
;
Structure prediction by ZEFSAII (Michael W. Deem and Ramdas Pophale) SiO2 
 PCOD9164608
Probable space group: P 21/M
;
_chemical_formula_sum "Si O2"
_cell_formula_units_Z 32
_cell_length_a 14.110239
_cell_length_b 7.960582
_cell_length_c 15.603532
_cell_angle_alpha 90.000000
_cell_angle_beta 59.006281
_cell_angle_gamma 90.000000
_cell_volume 1502.437117
_symmetry_space_group_name_H-M "P 21/M"
_symmetry_group_IT_number 11
_symmetry_cell_setting 'monoclinic'
loop_
_space_group_symop_operation_xyz
x,y,z
-x,1/2+y,-z
-x,-y,-z
x,1/2-y,z
loop_
_atom_site_type_symbol
_atom_site_label
_atom_site_fract_x
_atom_site_fract_y
_atom_site_fract_z
Si Si1 0.027384 0.454953 0.262353
Si Si2 0.623760 0.446323 0.418052
Si Si3 0.658804 0.949501 0.674423
Si Si4 0.423627 0.053619 0.742898
Si Si5 0.686325 0.544947 0.034750
Si Si6 0.282435 0.455093 0.166962
Si Si7 0.187780 0.953984 0.541491
Si Si8 0.059228 0.451303 0.059600
O O1 0.026247 0.250000 0.263839
O O2 0.932422 0.511969 0.371110
O O3 0.152928 0.504361 0.225548
O O4 0.004881 0.509249 0.174459
O O5 0.500000 0.500000 0.500000
O O6 0.628081 0.250000 0.430823
O O7 0.637163 0.478205 0.310751
O O8 0.720533 0.518645 0.432646
O O9 0.641966 0.750000 0.683098
O O10 0.664370 0.013492 0.769341
O O11 0.554896 0.029208 0.674385
O O12 0.770008 0.988176 0.570607
O O13 0.398263 0.250000 0.753662
O O14 0.388207 0.983780 0.852145
O O15 0.680958 0.750000 0.035752
O O16 0.663344 0.488852 0.948015
O O17 0.812574 0.495731 0.997170
O O18 0.284752 0.250000 0.166737
O O19 0.186847 0.750000 0.541890
O O20 0.060137 0.250000 0.062519
O O21 0.000000 0.500000 0.000000
#
# Coordination Sequence:
#
# PCOD9164608 Si02
#       8
#     4   4   4   4   4   4   4   4
#     4   8  16  33  55  77 104 140 177 211 256 319
#     4  11  22  36  55  78 109 145 179 219 267 316
#     4  11  22  35  55  81 106 137 180 229 271 313
#     4  11  22  36  55  79 108 144 181 220 266 318
#     4   8  17  34  54  77 106 141 178 214 261 318
#     4   8  16  34  57  79 106 139 177 220 267 319
#     4  10  21  36  55  79 107 142 179 214 262 321
#     4   9  17  31  52  77 104 136 173 213 256 309
#
# _framework density 21.298728000000001
#
# number of rings (size 3 to 8) (size 9 to 14) (size 15 to 20)
#    0.000    2.500    1.250    2.625    1.750    1.500 
#    0.000    1.250    0.000    9.000    0.000    0.000 
#    0.000    0.000    0.000    0.000    0.000    0.000 
#
# Total GULP energy -178565.801334 kJ/mol
# GULP energy per Si atom -5580.181292 kJ/mol
# Density = 2.125025 g / cm^3
# Si number density = 21.298728 Si / 1000 Ang^3
#
#
#
# Elastic Constant Matrix: (Units=GPa)
#
#
# Indices 1 2 3 4 5 6 
#
# 1 24.4054 -4.3851 -1.0244 0.0000 20.2101 0.0000
# 2 -4.3851 16.6741 -4.7538 0.0000 -0.1728 0.0000
# 3 -1.0244 -4.7538 101.3456 0.0000 5.1938 0.0000
# 4 0.0000 0.0000 0.0000 20.6296 0.0000 5.7103
# 5 20.2101 -0.1728 5.1938 0.0000 35.8385 0.0000
# 6 0.0000 0.0000 0.0000 5.7103 0.0000 11.1722
#
#
#
# Elastic Compliance Matrix: (Units=1/GPa)
#
#
# Indices 1 2 3 4 5 6 
#
# 1 0.085934 0.023368 0.004476 0.000000 -0.048996 0.000000
# 2 0.023368 0.067141 0.004075 0.000000 -0.013444 0.000000
# 3 0.004476 0.004075 0.010308 0.000000 -0.003998 0.000000
# 4 0.000000 0.000000 0.000000 0.056462 0.000000 -0.028859
# 5 -0.048996 -0.013444 -0.003998 0.000000 0.056047 0.000000
# 6 0.000000 0.000000 0.000000 -0.028859 0.000000 0.104258
#
#
# Mechanical properties :
#
#
# Convention : Reuss Voigt Hill
#
# Bulk Modulus (GPa) = 4.40102 13.56650 8.98376
# Shear Modulus (GPa) = 12.75332 23.70064 18.22698
#
# Velocity S-wave (km/s) = 2.44966 3.33944 2.92854
# Velocity P-wave (km/s) = 3.17363 4.61006 3.95756
#
# Compressibility (1/GPa) = 0.22721994
#
# Stress axis : x y z
#
# Youngs Moduli (GPa) = 11.63678 14.89406 97.00735
#
# Poissons Ratio (x) = -0.34804 -0.43418
# Poissons Ratio (y) = -0.27193 -0.39527
# Poissons Ratio (z) = -0.05208 -0.06069
#
# Static dielectric constant tensor:
#      x y z
#    x 1.712870 0.000000 0.014890 
#    y 0.000000 1.753230 0.000000 
#    z 0.014890 0.000000 1.801400 
# 
# From -- ./inp_files/51643.got.cif
#   From: 2010.05.17/outbox.cif.g08.bks.cpg/sg11_26_cif.got.tgz:51643.got - 2010.06.03 12:22:45.
