data_PCOD9164630
_publ_section_title
;
Structure prediction by ZEFSAII (Michael W. Deem and Ramdas Pophale) SiO2 
 PCOD9164630
Probable space group: P 21/M
;
_chemical_formula_sum "Si O2"
_cell_formula_units_Z 28
_cell_length_a 15.864854
_cell_length_b 7.739424
_cell_length_c 21.151887
_cell_angle_alpha 90.000000
_cell_angle_beta 29.060453
_cell_angle_gamma 90.000000
_cell_volume 1261.510009
_symmetry_space_group_name_H-M "P 21/M"
_symmetry_group_IT_number 11
_symmetry_cell_setting 'monoclinic'
loop_
_space_group_symop_operation_xyz
x,y,z
-x,1/2+y,-z
-x,-y,-z
x,1/2-y,z
loop_
_atom_site_type_symbol
_atom_site_label
_atom_site_fract_x
_atom_site_fract_y
_atom_site_fract_z
Si Si1 0.819611 0.957014 0.585393
Si Si2 0.420596 0.459926 0.146180
Si Si3 0.658472 0.959790 0.565731
Si Si4 0.226967 0.453831 0.147898
Si Si5 0.719587 0.052044 0.153598
Si Si6 0.936972 0.952536 0.129470
Si Si7 0.115274 0.953392 0.695228
O O1 0.807364 0.750000 0.591217
O O2 0.664173 0.017750 0.732844
O O3 0.794804 0.018597 0.530105
O O4 0.000000 0.000000 0.500000
O O5 0.423699 0.250000 0.142890
O O6 0.298329 0.522230 0.168195
O O7 0.614203 0.521008 0.004740
O O8 0.654250 0.750000 0.566114
O O9 0.470426 0.024391 0.711869
O O10 0.718639 0.020346 0.457853
O O11 0.198780 0.250000 0.176294
O O12 0.050292 0.527070 0.234967
O O13 0.689625 0.250000 0.152677
O O14 0.865785 0.979837 0.010354
O O15 0.813115 0.045284 0.160575
O O16 0.937866 0.750000 0.110854
O O17 0.876813 0.968560 0.240492
O O18 0.087310 0.750000 0.722915
#
# Coordination Sequence:
#
# PCOD9164630 Si02
#       7
#     4   4   4   4   4   4   4
#     4  10  21  36  56  81 113 153 194 237 286 339
#     4   9  18  33  54  77 105 145 189 235 285 335
#     4  10  22  39  59  85 116 154 198 239 286 344
#     4   9  19  34  51  77 111 145 186 233 282 336
#     4   9  20  40  63  88 118 149 189 239 288 344
#     4  10  21  38  64  91 116 150 189 234 292 349
#     4  11  23  38  57  84 118 154 191 238 290 341
#
# _framework density 22.195623000000001
#
# number of rings (size 3 to 8) (size 9 to 14) (size 15 to 20)
#    0.000    2.286    0.000    1.714    2.000    5.143 
#    0.000    2.857    0.000    0.000    0.000    0.000 
#    0.000    0.000    0.000    0.000    0.000    0.000 
#
# Total GULP energy -156383.682363 kJ/mol
# GULP energy per Si atom -5585.131513 kJ/mol
# Density = 2.214510 g / cm^3
# Si number density = 22.195623 Si / 1000 Ang^3
#
#
#
# Elastic Constant Matrix: (Units=GPa)
#
#
# Indices 1 2 3 4 5 6 
#
# 1 55.0405 -4.5285 35.5779 0.0000 18.7736 0.0000
# 2 -4.5285 37.4422 -12.6067 0.0000 -1.0420 0.0000
# 3 35.5779 -12.6067 81.8519 0.0000 15.6302 0.0000
# 4 0.0000 0.0000 0.0000 18.7477 0.0000 0.0652
# 5 18.7736 -1.0420 15.6302 0.0000 39.1015 0.0000
# 6 0.0000 0.0000 0.0000 0.0652 0.0000 14.2038
#
#
#
# Elastic Compliance Matrix: (Units=1/GPa)
#
#
# Indices 1 2 3 4 5 6 
#
# 1 0.028093 -0.000395 -0.010495 0.000000 -0.009304 0.000000
# 2 -0.000395 0.028215 0.004696 0.000000 -0.000936 0.000000
# 3 -0.010495 0.004696 0.017881 0.000000 -0.001983 0.000000
# 4 0.000000 0.000000 0.000000 0.053341 0.000000 -0.000245
# 5 -0.009304 -0.000936 -0.001983 0.000000 0.030809 0.000000
# 6 0.000000 0.000000 0.000000 -0.000245 0.000000 0.070405
#
#
# Mechanical properties :
#
#
# Convention : Reuss Voigt Hill
#
# Bulk Modulus (GPa) = 16.18094 23.46889 19.82491
# Shear Modulus (GPa) = 19.10341 24.80340 21.95341
#
# Velocity S-wave (km/s) = 2.93692 3.34652 3.14839
# Velocity P-wave (km/s) = 4.33667 5.05261 4.70826
#
# Compressibility (1/GPa) = 0.06180111
#
# Stress axis : x y z
#
# Youngs Moduli (GPa) = 35.59555 35.44192 55.92481
#
# Poissons Ratio (x) = 0.01400 0.58695
# Poissons Ratio (y) = 0.01406 -0.26262
# Poissons Ratio (z) = 0.37359 -0.16643
#
# Static dielectric constant tensor:
#      x y z
#    x 1.804530 0.000000 -0.016570 
#    y 0.000000 1.847510 0.000000 
#    z -0.016570 0.000000 1.812550 
# 
# From -- ./inp_files/65382.got.cif
#   From: 2010.05.17/outbox.cif.g08.bks.cpg/sg11_33_cif.got.tgz:65382.got - 2010.06.03 12:22:45.
