data_PCOD9164467
_publ_section_title
;
Structure prediction by ZEFSAII (Michael W. Deem and Ramdas Pophale) SiO2 
 PCOD9164467
Probable space group: P 21/M
;
_chemical_formula_sum "Si O2"
_cell_formula_units_Z 32
_cell_length_a 25.376531
_cell_length_b 8.953802
_cell_length_c 25.283472
_cell_angle_alpha 90.000000
_cell_angle_beta 17.279935
_cell_angle_gamma 90.000000
_cell_volume 1706.444299
_symmetry_space_group_name_H-M "P 21/M"
_symmetry_group_IT_number 11
_symmetry_cell_setting 'monoclinic'
loop_
_space_group_symop_operation_xyz
x,y,z
-x,1/2+y,-z
-x,-y,-z
x,1/2-y,z
loop_
_atom_site_type_symbol
_atom_site_label
_atom_site_fract_x
_atom_site_fract_y
_atom_site_fract_z
Si Si1 0.137448 0.068455 0.115774
Si Si2 0.064641 0.081678 0.490576
Si Si3 0.529504 0.929859 0.135359
Si Si4 0.486174 0.418432 0.069136
Si Si5 0.302284 0.927910 0.750418
Si Si6 0.280428 0.427663 0.656852
Si Si7 0.050270 0.430221 0.080135
Si Si8 0.879483 0.429763 0.455908
O O1 0.137668 0.250000 0.115117
O O2 0.104350 0.021796 0.087485
O O3 0.982436 0.021644 0.304718
O O4 0.324154 0.021162 0.962468
O O5 0.994817 0.250000 0.559212
O O6 0.277234 0.087497 0.282050
O O7 0.029773 0.996151 0.578586
O O8 0.000000 0.000000 0.500000
O O9 0.535292 0.750000 0.125750
O O10 0.328820 0.971570 0.344354
O O11 0.569195 0.996137 0.039414
O O12 0.554875 0.250000 0.999281
O O13 0.500000 0.500000 0.000000
O O14 0.269491 0.750000 0.779581
O O15 0.513528 0.951529 0.555860
O O16 0.255204 0.002186 0.739295
O O17 0.187572 0.002786 0.906205
O O18 0.247756 0.250000 0.690020
O O19 0.142911 0.507155 0.749835
O O20 0.050563 0.250000 0.076843
O O21 0.888423 0.250000 0.450817
#
# Coordination Sequence:
#
# PCOD9164467 Si02
#       8
#     4   4   4   4   4   4   4   4
#     4   9  20  36  56  81 107 144 190 228 274 332
#     4  10  21  35  52  77 106 135 169 214 269 329
#     4   9  18  35  56  76 103 138 177 224 272 321
#     4  10  21  35  52  77 106 135 169 214 269 329
#     4  10  21  38  60  86 118 156 196 240 290 341
#     4  10  21  38  60  86 118 156 196 240 290 341
#     4  11  22  36  57  87 120 154 194 240 286 342
#     4   9  18  35  56  76 103 138 177 224 272 321
#
# _framework density 18.752444000000001
#
# number of rings (size 3 to 8) (size 9 to 14) (size 15 to 20)
#    0.000    2.250    0.000    2.250    1.750    4.000 
#    0.000    5.000    0.000    3.000    0.000    0.000 
#    0.000    0.000    0.000    0.000    0.000    0.000 
#
# Total GULP energy -178647.955898 kJ/mol
# GULP energy per Si atom -5582.748622 kJ/mol
# Density = 1.870976 g / cm^3
# Si number density = 18.752444 Si / 1000 Ang^3
#
#
#
# Elastic Constant Matrix: (Units=GPa)
#
#
# Indices 1 2 3 4 5 6 
#
# 1 130.3512 34.5410 33.8443 0.0000 -28.4761 0.0000
# 2 34.5410 59.2750 24.4661 0.0000 -11.3041 0.0000
# 3 33.8443 24.4661 52.0792 0.0000 -14.7832 0.0000
# 4 0.0000 0.0000 0.0000 18.7872 0.0000 -1.8390
# 5 -28.4761 -11.3041 -14.7832 0.0000 19.6716 0.0000
# 6 0.0000 0.0000 0.0000 -1.8390 0.0000 27.7645
#
#
#
# Elastic Compliance Matrix: (Units=1/GPa)
#
#
# Indices 1 2 3 4 5 6 
#
# 1 0.012265 -0.003511 -0.002357 0.000000 0.013965 0.000000
# 2 -0.003511 0.022486 -0.007699 0.000000 0.002053 0.000000
# 3 -0.002357 -0.007699 0.028125 0.000000 0.013300 0.000000
# 4 0.000000 0.000000 0.000000 0.053575 0.000000 0.003549
# 5 0.013965 0.002053 0.013300 0.000000 0.082225 0.000000
# 6 0.000000 0.000000 0.000000 0.003549 0.000000 0.036252
#
#
# Mechanical properties :
#
#
# Convention : Reuss Voigt Hill
#
# Bulk Modulus (GPa) = 27.97800 47.48978 37.73389
# Shear Modulus (GPa) = 18.24976 23.16828 20.70902
#
# Velocity S-wave (km/s) = 3.12299 3.51875 3.32676
# Velocity P-wave (km/s) = 5.28736 6.47212 5.90951
#
# Compressibility (1/GPa) = 0.03574238
#
# Stress axis : x y z
#
# Youngs Moduli (GPa) = 81.53532 44.47259 35.55495
#
# Poissons Ratio (x) = 0.15614 0.08380
# Poissons Ratio (y) = 0.28626 0.27374
# Poissons Ratio (z) = 0.19216 0.34240
#
# Static dielectric constant tensor:
#      x y z
#    x 1.616960 0.000000 -0.014830 
#    y 0.000000 1.642840 0.000000 
#    z -0.014830 0.000000 1.662980 
# 
# From -- ./inp_files/69970.got.cif
#   From: 2010.05.17/outbox.cif.g08.bks.cpg/sg11_35_cif.got.tgz:69970.got - 2010.06.03 12:22:45.
