data_PCOD9164410
_publ_section_title
;
Structure prediction by ZEFSAII (Michael W. Deem and Ramdas Pophale) SiO2 
 PCOD9164410
Probable space group: P 21/M
;
_chemical_formula_sum "Si O2"
_cell_formula_units_Z 32
_cell_length_a 16.775124
_cell_length_b 13.944116
_cell_length_c 20.090597
_cell_angle_alpha 90.000000
_cell_angle_beta 159.802500
_cell_angle_gamma 90.000000
_cell_volume 1622.528650
_symmetry_space_group_name_H-M "P 21/M"
_symmetry_group_IT_number 11
_symmetry_cell_setting 'monoclinic'
loop_
_space_group_symop_operation_xyz
x,y,z
-x,1/2+y,-z
-x,-y,-z
x,1/2-y,z
loop_
_atom_site_type_symbol
_atom_site_label
_atom_site_fract_x
_atom_site_fract_y
_atom_site_fract_z
Si Si1 0.939478 0.362635 0.781630
Si Si2 0.606865 0.524116 0.512319
Si Si3 0.192937 0.060235 0.611002
Si Si4 0.304098 0.507518 0.026860
Si Si5 0.169932 0.637028 0.149054
Si Si6 0.164621 0.555204 0.774486
Si Si7 0.027092 0.862182 0.897308
Si Si8 0.654954 0.856660 0.137286
O O1 0.915206 0.250000 0.750611
O O2 0.735137 0.427395 0.589318
O O3 0.922715 0.380433 0.848775
O O4 0.177759 0.407419 0.942335
O O5 0.500000 0.500000 0.500000
O O6 0.394482 0.573365 0.309315
O O7 0.808424 0.600024 0.685281
O O8 0.424926 0.001648 0.775689
O O9 0.277377 0.137374 0.731419
O O10 0.063848 0.089955 0.442217
O O11 0.000000 0.000000 0.500000
O O12 0.181395 0.556849 0.866796
O O13 0.243196 0.577215 0.040035
O O14 0.233526 0.750000 0.197546
O O15 0.994133 0.620366 0.950605
O O16 0.207855 0.442720 0.790667
O O17 0.386110 0.613650 0.921064
O O18 0.062447 0.750000 0.914992
O O19 0.697253 0.750000 0.144860
#
# Coordination Sequence:
#
# PCOD9164410 Si02
#       8
#     4   4   4   4   4   4   4   4
#     4   9  19  35  53  78 113 151 190 230 273 324
#     4   9  18  32  55  79 102 137 180 225 272 326
#     4   9  19  38  58  77 106 141 181 228 273 324
#     4  10  21  34  54  81 112 149 184 227 279 332
#     4   9  18  35  58  82 110 145 187 233 278 325
#     4   9  19  36  54  78 112 141 171 223 278 325
#     4  10  21  36  55  81 113 147 185 232 281 330
#     4   9  18  34  58  84 105 134 178 221 270 333
#
# _framework density 19.722301000000002
#
# number of rings (size 3 to 8) (size 9 to 14) (size 15 to 20)
#    0.000    2.750    0.000    1.125    0.000   10.000 
#    0.000    3.750    0.000    9.000    0.000    0.000 
#    0.000    0.000    0.000    0.000    0.000    0.000 
#
# Total GULP energy -178258.797656 kJ/mol
# GULP energy per Si atom -5570.587427 kJ/mol
# Density = 1.967741 g / cm^3
# Si number density = 19.722301 Si / 1000 Ang^3
#
#
#
# Elastic Constant Matrix: (Units=GPa)
#
#
# Indices 1 2 3 4 5 6 
#
# 1 44.6109 -13.2992 13.6703 0.0000 5.4174 0.0000
# 2 -13.2992 54.6607 3.0019 0.0000 10.8494 0.0000
# 3 13.6703 3.0019 85.6719 0.0000 4.2491 0.0000
# 4 0.0000 0.0000 0.0000 10.8472 0.0000 -2.9836
# 5 5.4174 10.8494 4.2491 0.0000 36.9466 0.0000
# 6 0.0000 0.0000 0.0000 -2.9836 0.0000 16.0520
#
#
#
# Elastic Compliance Matrix: (Units=1/GPa)
#
#
# Indices 1 2 3 4 5 6 
#
# 1 0.026773 0.007890 -0.004263 0.000000 -0.005752 0.000000
# 2 0.007890 0.021766 -0.001657 0.000000 -0.007358 0.000000
# 3 -0.004263 -0.001657 0.012427 0.000000 -0.000318 0.000000
# 4 0.000000 0.000000 0.000000 0.097157 0.000000 0.018058
# 5 -0.005752 -0.007358 -0.000318 0.000000 0.030107 0.000000
# 6 0.000000 0.000000 0.000000 0.018058 0.000000 0.065654
#
#
# Mechanical properties :
#
#
# Convention : Reuss Voigt Hill
#
# Bulk Modulus (GPa) = 15.40705 21.29884 18.35294
# Shear Modulus (GPa) = 18.41091 24.87385 21.64238
#
# Velocity S-wave (km/s) = 3.05865 3.55520 3.31623
# Velocity P-wave (km/s) = 4.50586 5.26074 4.89786
#
# Compressibility (1/GPa) = 0.06490534
#
# Stress axis : x y z
#
# Youngs Moduli (GPa) = 37.35086 45.94372 80.47307
#
# Poissons Ratio (x) = -0.36249 0.34308
# Poissons Ratio (y) = -0.29470 0.13332
# Poissons Ratio (z) = 0.15924 0.07612
#
# Static dielectric constant tensor:
#      x y z
#    x 1.743780 0.000000 -0.027170 
#    y 0.000000 1.694560 0.000000 
#    z -0.027170 0.000000 1.723060 
# 
# From -- ./inp_files/66289.got.cif
#   From: 2010.05.17/outbox.cif.g08.bks.cpg/sg11_34_cif.got.tgz:66289.got - 2010.06.03 12:22:45.
