data_PCOD9164759
_publ_section_title
;
Structure prediction by ZEFSAII (Michael W. Deem and Ramdas Pophale) SiO2 
 PCOD9164759
Probable space group: P 21/M
;
_chemical_formula_sum "Si O2"
_cell_formula_units_Z 28
_cell_length_a 5.214507
_cell_length_b 28.748187
_cell_length_c 8.555045
_cell_angle_alpha 90.000000
_cell_angle_beta 110.965010
_cell_angle_gamma 90.000000
_cell_volume 1197.566027
_symmetry_space_group_name_H-M "P 21/M"
_symmetry_group_IT_number 11
_symmetry_cell_setting 'monoclinic'
loop_
_space_group_symop_operation_xyz
x,y,z
-x,1/2+y,-z
-x,-y,-z
x,1/2-y,z
loop_
_atom_site_type_symbol
_atom_site_label
_atom_site_fract_x
_atom_site_fract_y
_atom_site_fract_z
Si Si1 0.940051 0.424987 0.535689
Si Si2 0.255881 0.156269 0.493503
Si Si3 0.214892 0.008302 0.345723
Si Si4 0.637558 0.834611 0.033177
Si Si5 0.052593 0.750000 0.602939
Si Si6 0.381316 0.097520 0.239611
Si Si7 0.659858 0.750000 0.799690
Si Si8 0.756630 0.306291 0.769701
O O1 0.171836 0.385973 0.587951
O O2 0.029431 0.460942 0.420027
O O3 0.903955 0.456007 0.683851
O O4 0.659703 0.404565 0.403628
O O5 0.076823 0.202167 0.486159
O O6 0.208217 0.133941 0.310572
O O7 0.562407 0.173419 0.592416
O O8 0.269271 0.044442 0.217748
O O9 0.500000 0.000000 0.500000
O O10 0.585912 0.881649 0.924733
O O11 0.635906 0.794557 0.902180
O O12 0.409278 0.821601 0.110507
O O13 0.945582 0.829314 0.165095
O O14 0.935005 0.750000 0.756330
O O15 0.374802 0.750000 0.643733
O O16 0.778689 0.250000 0.768579
#
# Coordination Sequence:
#
# PCOD9164759 Si02
#       8
#     4   4   4   4   2   4   2   4
#     4   9  18  35  61  94 123 155 200 264 316 369
#     4  11  24  38  60  90 123 164 212 258 313 369
#     4   8  16  33  59  96 124 150 195 260 322 376
#     4  12  25  41  62  85 124 166 215 254 313 373
#     4  12  24  36  62  94 122 155 209 278 302 358
#     4  10  21  36  64  94 118 159 208 265 309 372
#     4  12  22  38  60  88 116 157 209 268 316 356
#     4  12  26  44  58  85 126 177 212 255 313 376
#
# _framework density 23.380758
#
# number of rings (size 3 to 8) (size 9 to 14) (size 15 to 20)
#    0.000    1.429    3.571    1.714    6.000    0.000 
#    0.000    0.000    0.000    1.714    0.000    0.000 
#    0.000    0.000    0.000    0.000    0.000    0.000 
#
# Total GULP energy -156404.655465 kJ/mol
# GULP energy per Si atom -5585.880552 kJ/mol
# Density = 2.332754 g / cm^3
# Si number density = 23.380758 Si / 1000 Ang^3
#
#
#
# Elastic Constant Matrix: (Units=GPa)
#
#
# Indices 1 2 3 4 5 6 
#
# 1 67.5890 19.6544 19.0199 0.0000 -7.0442 0.0000
# 2 19.6544 68.3301 11.9343 0.0000 4.5862 0.0000
# 3 19.0199 11.9343 40.2582 0.0000 0.2111 0.0000
# 4 0.0000 0.0000 0.0000 18.0196 0.0000 6.6409
# 5 -7.0442 4.5862 0.2111 0.0000 35.2588 0.0000
# 6 0.0000 0.0000 0.0000 6.6409 0.0000 39.2198
#
#
#
# Elastic Compliance Matrix: (Units=1/GPa)
#
#
# Indices 1 2 3 4 5 6 
#
# 1 0.018628 -0.004332 -0.007539 0.000000 0.004330 0.000000
# 2 -0.004332 0.016581 -0.002853 0.000000 -0.003005 0.000000
# 3 -0.007539 -0.002853 0.029254 0.000000 -0.001310 0.000000
# 4 0.000000 0.000000 0.000000 0.059189 0.000000 -0.010022
# 5 0.004330 -0.003005 -0.001310 0.000000 0.029626 0.000000
# 6 0.000000 0.000000 0.000000 -0.010022 0.000000 0.027194
#
#
# Mechanical properties :
#
#
# Convention : Reuss Voigt Hill
#
# Bulk Modulus (GPa) = 28.55943 30.82160 29.69052
# Shear Modulus (GPa) = 22.56408 26.87090 24.71749
#
# Velocity S-wave (km/s) = 3.10993 3.39377 3.25495
# Velocity P-wave (km/s) = 5.01368 5.34490 5.18194
#
# Compressibility (1/GPa) = 0.03501470
#
# Stress axis : x y z
#
# Youngs Moduli (GPa) = 53.68295 60.31053 34.18316
#
# Poissons Ratio (x) = 0.26126 0.25772
# Poissons Ratio (y) = 0.23255 0.09752
# Poissons Ratio (z) = 0.40473 0.17206
#
# Static dielectric constant tensor:
#      x y z
#    x 2.063720 0.000000 0.061460 
#    y 0.000000 1.971540 0.000000 
#    z 0.061460 0.000000 1.980760 
# 
# From -- ./inp_files/3356.got.cif
#   From: 2010.05.17/outbox.cif.g08.bks.cpg/sg11_2_cif.got.tgz:3356.got - 2010.06.03 12:22:45.
