data_PCOD9164243
_publ_section_title
;
Structure prediction by ZEFSAII (Michael W. Deem and Ramdas Pophale) SiO2 
 PCOD9164243
Probable space group: P 21/M
;
_chemical_formula_sum "Si O2"
_cell_formula_units_Z 28
_cell_length_a 6.522921
_cell_length_b 13.675639
_cell_length_c 19.927985
_cell_angle_alpha 90.000000
_cell_angle_beta 125.891075
_cell_angle_gamma 90.000000
_cell_volume 1440.155680
_symmetry_space_group_name_H-M "P 21/M"
_symmetry_group_IT_number 11
_symmetry_cell_setting 'monoclinic'
loop_
_space_group_symop_operation_xyz
x,y,z
-x,1/2+y,-z
-x,-y,-z
x,1/2-y,z
loop_
_atom_site_type_symbol
_atom_site_label
_atom_site_fract_x
_atom_site_fract_y
_atom_site_fract_z
Si Si1 0.721651 0.012190 0.595371
Si Si2 0.297260 0.862115 0.286887
Si Si3 0.327517 0.135834 0.289307
Si Si4 0.981615 0.047388 0.103674
Si Si5 0.192743 0.640533 0.064229
Si Si6 0.268594 0.442815 0.838742
Si Si7 0.286755 0.991691 0.693475
O O1 0.720245 0.926635 0.652193
O O2 0.500000 0.000000 0.500000
O O3 0.679603 0.110378 0.630399
O O4 0.000786 0.013813 0.617294
O O5 0.339135 0.750000 0.279943
O O6 0.510003 0.926746 0.290828
O O7 0.006604 0.891308 0.214758
O O8 0.289643 0.250000 0.292422
O O9 0.154368 0.096371 0.194462
O O10 0.608787 0.107670 0.318317
O O11 0.100923 0.949166 0.093380
O O12 0.735327 0.012057 0.097270
O O13 0.924834 0.119320 0.031546
O O14 0.127150 0.750000 0.075139
O O15 0.495158 0.629153 0.116036
O O16 0.286739 0.505825 0.774137
#
# Coordination Sequence:
#
# PCOD9164243 Si02
#       7
#     4   4   4   4   4   4   4
#     4  10  23  43  63  88 125 160 198 250 305 366
#     4  10  21  36  61  92 122 157 201 246 301 363
#     4  11  22  41  65  90 121 162 207 251 303 366
#     4  11  22  42  60  89 127 160 208 257 301 358
#     4  11  24  38  61  90 125 166 206 253 306 358
#     4  11  19  39  61  86 126 159 203 252 302 352
#     4  10  20  40  61  90 119 156 199 252 304 359
#
# _framework density 19.442343000000001
#
# number of rings (size 3 to 8) (size 9 to 14) (size 15 to 20)
#    0.000    1.429    5.714    1.286    0.000    8.571 
#    0.000    1.429    0.000    0.000    0.000    0.000 
#    0.000    0.000    0.000    0.000    0.000    0.000 
#
# Total GULP energy -156207.871760 kJ/mol
# GULP energy per Si atom -5578.852563 kJ/mol
# Density = 1.939809 g / cm^3
# Si number density = 19.442343 Si / 1000 Ang^3
#
#
#
# Elastic Constant Matrix: (Units=GPa)
#
#
# Indices 1 2 3 4 5 6 
#
# 1 92.6731 22.4898 28.7628 0.0000 10.8678 0.0000
# 2 22.4898 108.8085 18.5389 0.0000 -0.5358 0.0000
# 3 28.7628 18.5389 113.2131 0.0000 10.2434 0.0000
# 4 0.0000 0.0000 0.0000 11.7990 0.0000 1.0783
# 5 10.8678 -0.5358 10.2434 0.0000 19.3905 0.0000
# 6 0.0000 0.0000 0.0000 1.0783 0.0000 14.2428
#
#
#
# Elastic Compliance Matrix: (Units=1/GPa)
#
#
# Indices 1 2 3 4 5 6 
#
# 1 0.012767 -0.002271 -0.002330 0.000000 -0.005988 0.000000
# 2 -0.002271 0.009882 -0.001240 0.000000 0.002201 0.000000
# 3 -0.002330 -0.001240 0.009990 0.000000 -0.004006 0.000000
# 4 0.000000 0.000000 0.000000 0.085343 0.000000 -0.006461
# 5 -0.005988 0.002201 -0.004006 0.000000 0.057105 0.000000
# 6 0.000000 0.000000 0.000000 -0.006461 0.000000 0.070700
#
#
# Mechanical properties :
#
#
# Convention : Reuss Voigt Hill
#
# Bulk Modulus (GPa) = 47.71812 50.47531 49.09672
# Shear Modulus (GPa) = 18.90673 25.41334 22.16004
#
# Velocity S-wave (km/s) = 3.12180 3.61932 3.37973
# Velocity P-wave (km/s) = 6.13114 6.59423 6.36690
#
# Compressibility (1/GPa) = 0.02095640
#
# Stress axis : x y z
#
# Youngs Moduli (GPa) = 78.32621 101.19303 100.09595
#
# Poissons Ratio (x) = 0.22985 0.23321
# Poissons Ratio (y) = 0.17791 0.12415
# Poissons Ratio (z) = 0.18249 0.12551
#
# Static dielectric constant tensor:
#      x y z
#    x 1.707330 0.000000 -0.004360 
#    y 0.000000 1.678050 0.000000 
#    z -0.004360 0.000000 1.706910 
# 
# From -- ./inp_files/56979.got.cif
#   From: 2010.05.17/outbox.cif.g08.bks.cpg/sg11_29_cif.got.tgz:56979.got - 2010.06.03 12:22:45.
