data_PCOD9164468
_publ_section_title
;
Structure prediction by ZEFSAII (Michael W. Deem and Ramdas Pophale) SiO2 
 PCOD9164468
Probable space group: P 21/M
;
_chemical_formula_sum "Si O2"
_cell_formula_units_Z 28
_cell_length_a 23.692826
_cell_length_b 8.883741
_cell_length_c 20.940104
_cell_angle_alpha 90.000000
_cell_angle_beta 18.963250
_cell_angle_gamma 90.000000
_cell_volume 1432.265939
_symmetry_space_group_name_H-M "P 21/M"
_symmetry_group_IT_number 11
_symmetry_cell_setting 'monoclinic'
loop_
_space_group_symop_operation_xyz
x,y,z
-x,1/2+y,-z
-x,-y,-z
x,1/2-y,z
loop_
_atom_site_type_symbol
_atom_site_label
_atom_site_fract_x
_atom_site_fract_y
_atom_site_fract_z
Si Si1 0.464101 0.569484 0.107696
Si Si2 0.485465 0.918942 0.448264
Si Si3 0.123511 0.429756 0.534944
Si Si4 0.649396 0.577970 0.144379
Si Si5 0.281972 0.929755 0.059573
Si Si6 0.080806 0.581058 0.852923
Si Si7 0.056833 0.577971 0.736941
O O1 0.465138 0.750000 0.104582
O O2 0.276417 0.511060 0.332843
O O3 0.500000 0.500000 0.000000
O O4 0.614316 0.511058 0.994946
O O5 0.560164 0.750000 0.374429
O O6 0.571453 0.988705 0.293037
O O7 0.283638 0.908749 0.649087
O O8 0.500000 0.000000 0.500000
O O9 0.143690 0.250000 0.508991
O O10 0.139383 0.483135 0.591617
O O11 0.925649 0.466560 0.723047
O O12 0.581504 0.750000 0.208762
O O13 0.629614 0.483138 0.101387
O O14 0.854569 0.587867 0.936294
O O15 0.296375 0.750000 0.050943
O O16 0.005245 0.750000 0.929348
O O17 0.064060 0.511297 0.800429
O O18 0.000000 0.500000 0.000000
O O19 0.128235 0.750000 0.662029
#
# Coordination Sequence:
#
# PCOD9164468 Si02
#       7
#     4   4   4   4   4   4   4
#     4  12  26  44  68  96 130 168 210 258 308 370
#     4  10  21  35  52  77 110 149 196 246 299 357
#     4  10  22  41  65  95 130 165 206 256 311 371
#     4   9  18  34  56  82 113 151 196 247 304 364
#     4  10  22  41  65  95 130 165 206 256 311 371
#     4  10  21  35  52  77 110 149 196 246 299 357
#     4   9  18  34  56  82 113 151 196 247 304 364
#
# _framework density 19.549441999999999
#
# number of rings (size 3 to 8) (size 9 to 14) (size 15 to 20)
#    0.000    2.000    0.000    3.000    2.000    5.143 
#    0.000    2.857    0.000    0.000    0.000    0.000 
#    0.000    0.000    0.000    0.000    0.000    0.000 
#
# Total GULP energy -156246.420245 kJ/mol
# GULP energy per Si atom -5580.229294 kJ/mol
# Density = 1.950495 g / cm^3
# Si number density = 19.549442 Si / 1000 Ang^3
#
#
#
# Elastic Constant Matrix: (Units=GPa)
#
#
# Indices 1 2 3 4 5 6 
#
# 1 176.5377 73.1454 71.5166 0.0000 30.1121 0.0000
# 2 73.1454 95.7401 58.0719 0.0000 14.2725 0.0000
# 3 71.5166 58.0719 113.1331 0.0000 29.9099 0.0000
# 4 0.0000 0.0000 0.0000 28.6938 0.0000 4.5657
# 5 30.1121 14.2725 29.9099 0.0000 36.7962 0.0000
# 6 0.0000 0.0000 0.0000 4.5657 0.0000 33.5171
#
#
#
# Elastic Compliance Matrix: (Units=1/GPa)
#
#
# Indices 1 2 3 4 5 6 
#
# 1 0.009401 -0.005258 -0.002228 0.000000 -0.003843 0.000000
# 2 -0.005258 0.018118 -0.006694 0.000000 0.002717 0.000000
# 3 -0.002228 -0.006694 0.015941 0.000000 -0.008538 0.000000
# 4 0.000000 0.000000 0.000000 0.035623 0.000000 -0.004853
# 5 -0.003843 0.002717 -0.008538 0.000000 0.036208 0.000000
# 6 0.000000 0.000000 0.000000 -0.004853 0.000000 0.030497
#
#
# Mechanical properties :
#
#
# Convention : Reuss Voigt Hill
#
# Bulk Modulus (GPa) = 66.22935 87.87539 77.05237
# Shear Modulus (GPa) = 27.90480 31.97989 29.94235
#
# Velocity S-wave (km/s) = 3.78219 4.04895 3.91784
# Velocity P-wave (km/s) = 7.28180 8.17964 7.74375
#
# Compressibility (1/GPa) = 0.01509905
#
# Stress axis : x y z
#
# Youngs Moduli (GPa) = 106.36925 55.19467 62.73194
#
# Poissons Ratio (x) = 0.29023 0.13975
# Poissons Ratio (y) = 0.55933 0.41994
# Poissons Ratio (z) = 0.23697 0.36949
#
# Static dielectric constant tensor:
#      x y z
#    x 1.693940 0.000000 0.007770 
#    y 0.000000 1.674370 0.000000 
#    z 0.007770 0.000000 1.685720 
# 
# From -- ./inp_files/66659.got.cif
#   From: 2010.05.17/outbox.cif.g08.bks.cpg/sg11_34_cif.got.tgz:66659.got - 2010.06.03 12:22:45.
