data_PCOD9164032
_publ_section_title
;
Structure prediction by ZEFSAII (Michael W. Deem and Ramdas Pophale) SiO2 
 PCOD9164032
Probable space group: P 21/M
;
_chemical_formula_sum "Si O2"
_cell_formula_units_Z 28
_cell_length_a 13.433023
_cell_length_b 9.267003
_cell_length_c 18.153074
_cell_angle_alpha 90.000000
_cell_angle_beta 38.703863
_cell_angle_gamma 90.000000
_cell_volume 1413.020250
_symmetry_space_group_name_H-M "P 21/M"
_symmetry_group_IT_number 11
_symmetry_cell_setting 'monoclinic'
loop_
_space_group_symop_operation_xyz
x,y,z
-x,1/2+y,-z
-x,-y,-z
x,1/2-y,z
loop_
_atom_site_type_symbol
_atom_site_label
_atom_site_fract_x
_atom_site_fract_y
_atom_site_fract_z
Si Si1 0.468030 0.916993 0.212234
Si Si2 0.011195 0.419209 0.224453
Si Si3 0.269286 0.418381 0.532919
Si Si4 0.838479 0.917018 0.575730
Si Si5 0.582238 0.919652 0.314648
Si Si6 0.913521 0.419147 0.116817
Si Si7 0.363086 0.422356 0.033687
O O1 0.418445 0.750000 0.232403
O O2 0.541194 0.931863 0.251210
O O3 0.312433 0.015067 0.295566
O O4 0.595449 0.949604 0.075805
O O5 0.987501 0.250000 0.257731
O O6 0.866288 0.511803 0.338723
O O7 0.013409 0.426987 0.134574
O O8 0.182971 0.468674 0.154869
O O9 0.295409 0.250000 0.534833
O O10 0.205523 0.428556 0.485483
O O11 0.434002 0.506463 0.441546
O O12 0.856865 0.750000 0.584316
O O13 0.000000 0.000000 0.500000
O O14 0.596637 0.750000 0.324494
O O15 0.745495 0.004935 0.231066
O O16 0.890559 0.250000 0.112075
O O17 0.000000 0.500000 0.000000
O O18 0.370428 0.250000 0.041237
O O19 0.500000 0.500000 0.000000
#
# Coordination Sequence:
#
# PCOD9164032 Si02
#       7
#     4   4   4   4   4   4   4
#     4   9  19  37  58  81 113 150 191 239 292 350
#     4  10  23  42  61  85 120 160 199 243 299 360
#     4  10  22  39  59  87 121 156 200 250 296 351
#     4  10  21  35  55  83 114 149 194 244 293 348
#     4  10  20  38  64  90 119 157 197 243 302 358
#     4  11  23  40  64  92 122 157 201 249 297 354
#     4  10  22  39  58  82 114 152 195 241 293 352
#
# _framework density 19.815711
#
# number of rings (size 3 to 8) (size 9 to 14) (size 15 to 20)
#    0.000    2.000    0.000    2.571    2.000    7.429 
#    0.000    1.429    0.000    0.000    0.000    0.000 
#    0.000    0.000    0.000    0.000    0.000    0.000 
#
# Total GULP energy -156474.909566 kJ/mol
# GULP energy per Si atom -5588.389627 kJ/mol
# Density = 1.977061 g / cm^3
# Si number density = 19.815711 Si / 1000 Ang^3
#
#
#
# Elastic Constant Matrix: (Units=GPa)
#
#
# Indices 1 2 3 4 5 6 
#
# 1 43.0735 41.5499 37.7441 0.0000 -21.3445 0.0000
# 2 41.5499 107.8328 63.7122 0.0000 -16.5706 0.0000
# 3 37.7441 63.7122 130.8438 0.0000 -18.2542 0.0000
# 4 0.0000 0.0000 0.0000 38.3202 0.0000 -3.9590
# 5 -21.3445 -16.5706 -18.2542 0.0000 34.8203 0.0000
# 6 0.0000 0.0000 0.0000 -3.9590 0.0000 27.6352
#
#
#
# Elastic Compliance Matrix: (Units=1/GPa)
#
#
# Indices 1 2 3 4 5 6 
#
# 1 0.052125 -0.013447 -0.005312 0.000000 0.022768 0.000000
# 2 -0.013447 0.016806 -0.004681 0.000000 -0.002699 0.000000
# 3 -0.005312 -0.004681 0.011533 0.000000 0.000562 0.000000
# 4 0.000000 0.000000 0.000000 0.026488 0.000000 0.003795
# 5 0.022768 -0.002699 0.000562 0.000000 0.041686 0.000000
# 6 0.000000 0.000000 0.000000 0.003795 0.000000 0.036729
#
#
# Mechanical properties :
#
#
# Convention : Reuss Voigt Hill
#
# Bulk Modulus (GPa) = 29.77671 63.08473 46.43072
# Shear Modulus (GPa) = 20.53881 29.40473 24.97177
#
# Velocity S-wave (km/s) = 3.22295 3.85633 3.55378
# Velocity P-wave (km/s) = 5.37674 7.19258 6.34990
#
# Compressibility (1/GPa) = 0.03358329
#
# Stress axis : x y z
#
# Youngs Moduli (GPa) = 19.18462 59.50257 86.70987
#
# Poissons Ratio (x) = 0.80016 0.46060
# Poissons Ratio (y) = 0.25798 0.40587
# Poissons Ratio (z) = 0.10191 0.27852
#
# Static dielectric constant tensor:
#      x y z
#    x 1.711450 0.000000 0.016920 
#    y 0.000000 1.668340 0.000000 
#    z 0.016920 0.000000 1.673170 
# 
# From -- ./inp_files/54527.got.cif
#   From: 2010.05.17/outbox.cif.g08.bks.cpg/sg11_28_cif.got.tgz:54527.got - 2010.06.03 12:22:45.
