data_PCOD9164666
_publ_section_title
;
Structure prediction by ZEFSAII (Michael W. Deem and Ramdas Pophale) SiO2 
 PCOD9164666
Probable space group: P 21/M
;
_chemical_formula_sum "Si O2"
_cell_formula_units_Z 20
_cell_length_a 7.094580
_cell_length_b 11.735571
_cell_length_c 9.575977
_cell_angle_alpha 90.000000
_cell_angle_beta 109.019947
_cell_angle_gamma 90.000000
_cell_volume 753.758087
_symmetry_space_group_name_H-M "P 21/M"
_symmetry_group_IT_number 11
_symmetry_cell_setting 'monoclinic'
loop_
_space_group_symop_operation_xyz
x,y,z
-x,1/2+y,-z
-x,-y,-z
x,1/2-y,z
loop_
_atom_site_type_symbol
_atom_site_label
_atom_site_fract_x
_atom_site_fract_y
_atom_site_fract_z
Si Si1 0.861960 0.250000 0.698004
Si Si2 0.942070 0.999493 0.298462
Si Si3 0.005582 0.250000 0.327640
Si Si4 0.411491 0.750000 0.612955
Si Si5 0.289398 0.010540 0.026948
Si Si6 0.908223 0.750000 0.974056
Si Si7 0.491515 0.507714 0.663833
O O1 0.958358 0.373045 0.670738
O O2 0.649497 0.250000 0.565882
O O3 0.906899 0.250000 0.872841
O O4 0.061402 0.114663 0.376720
O O5 0.730805 0.987922 0.329969
O O6 0.876660 0.030912 0.123092
O O7 0.789997 0.250000 0.347081
O O8 0.024571 0.250000 0.167694
O O9 0.528976 0.641435 0.686793
O O10 0.221968 0.140203 0.022015
O O11 0.341290 0.956948 0.191785
O O12 0.500000 0.000000 0.000000
O O13 0.500000 0.500000 0.500000
#
# Coordination Sequence:
#
# PCOD9164666 Si02
#       7
#     2   4   2   2   4   2   4
#     4  10  22  39  59  86 121 155 198 244 298 348
#     4   9  21  40  60  85 119 158 196 247 298 344
#     4  10  22  38  59  88 121 158 198 238 298 358
#     4  10  23  39  55  84 126 158 190 248 304 349
#     4   9  19  37  58  82 116 151 195 249 295 343
#     4  10  21  36  61  86 110 155 204 238 284 355
#     4  10  21  36  57  85 115 154 200 243 296 356
#
# _framework density 26.533712000000001
#
# number of rings (size 3 to 8) (size 9 to 14) (size 15 to 20)
#    0.000    2.400    0.000    0.600    0.000   14.400 
#    0.000    2.000    0.000    1.200    0.000    0.000 
#    0.000    0.000    0.000    0.000    0.000    0.000 
#
# Total GULP energy -111516.274141 kJ/mol
# GULP energy per Si atom -5575.813707 kJ/mol
# Density = 2.647332 g / cm^3
# Si number density = 26.533712 Si / 1000 Ang^3
#
#
#
# Elastic Constant Matrix: (Units=GPa)
#
#
# Indices 1 2 3 4 5 6 
#
# 1 67.1691 55.2086 42.2420 0.0000 5.7147 0.0000
# 2 55.2086 173.9033 8.9990 0.0000 10.4309 0.0000
# 3 42.2420 8.9990 184.5094 0.0000 8.8119 0.0000
# 4 0.0000 0.0000 0.0000 20.0950 0.0000 3.0511
# 5 5.7147 10.4309 8.8119 0.0000 47.3023 0.0000
# 6 0.0000 0.0000 0.0000 3.0511 0.0000 36.3070
#
#
#
# Elastic Compliance Matrix: (Units=1/GPa)
#
#
# Indices 1 2 3 4 5 6 
#
# 1 0.024269 -0.007417 -0.005179 0.000000 -0.000332 0.000000
# 2 -0.007417 0.008103 0.001357 0.000000 -0.001144 0.000000
# 3 -0.005179 0.001357 0.006582 0.000000 -0.000900 0.000000
# 4 0.000000 0.000000 0.000000 0.050407 0.000000 -0.004236
# 5 -0.000332 -0.001144 -0.000900 0.000000 0.021601 0.000000
# 6 0.000000 0.000000 0.000000 -0.004236 0.000000 0.027899
#
#
# Mechanical properties :
#
#
# Convention : Reuss Voigt Hill
#
# Bulk Modulus (GPa) = 60.68523 70.94232 65.81378
# Shear Modulus (GPa) = 29.97083 42.01633 35.99358
#
# Velocity S-wave (km/s) = 3.36451 3.98365 3.68710
# Velocity P-wave (km/s) = 6.16554 6.92488 6.55621
#
# Compressibility (1/GPa) = 0.01647847
#
# Stress axis : x y z
#
# Youngs Moduli (GPa) = 41.20520 123.40755 151.92615
#
# Poissons Ratio (x) = 0.91527 0.78676
# Poissons Ratio (y) = 0.30561 -0.20622
# Poissons Ratio (z) = 0.21338 -0.16751
#
# Static dielectric constant tensor:
#      x y z
#    x 2.039800 0.000000 -0.017530 
#    y 0.000000 2.093030 0.000000 
#    z -0.017530 0.000000 2.177500 
# 
# From -- ./inp_files/11903.got.cif
#   From: 2010.05.17/outbox.cif.g08.bks.cpg/sg11_6_cif.got.tgz:11903.got - 2010.06.03 12:22:45.
