data_PCOD9164812
_publ_section_title
;
Structure prediction by ZEFSAII (Michael W. Deem and Ramdas Pophale) SiO2 
 PCOD9164812
Probable space group: P 21/M
;
_chemical_formula_sum "Si O2"
_cell_formula_units_Z 32
_cell_length_a 31.728071
_cell_length_b 8.971594
_cell_length_c 12.271762
_cell_angle_alpha 90.000000
_cell_angle_beta 29.512619
_cell_angle_gamma 90.000000
_cell_volume 1720.790684
_symmetry_space_group_name_H-M "P 21/M"
_symmetry_group_IT_number 11
_symmetry_cell_setting 'monoclinic'
loop_
_space_group_symop_operation_xyz
x,y,z
-x,1/2+y,-z
-x,-y,-z
x,1/2-y,z
loop_
_atom_site_type_symbol
_atom_site_label
_atom_site_fract_x
_atom_site_fract_y
_atom_site_fract_z
Si Si1 0.469806 0.571907 0.954664
Si Si2 0.915918 0.425721 0.821859
Si Si3 0.366506 0.072659 0.562783
Si Si4 0.214949 0.428801 0.734951
Si Si5 0.751056 0.428150 0.800034
Si Si6 0.406962 0.927690 0.696460
Si Si7 0.285871 0.071326 0.337487
Si Si8 0.116454 0.426100 0.333250
O O1 0.461132 0.750000 0.986514
O O2 0.542903 0.544861 0.700313
O O3 0.500000 0.500000 0.000000
O O4 0.380097 0.499673 0.125258
O O5 0.899759 0.250000 0.846064
O O6 0.879293 0.511784 0.799020
O O7 0.018091 0.448193 0.592139
O O8 0.868872 0.489337 0.033189
O O9 0.360040 0.250000 0.599119
O O10 0.292126 0.032644 0.644594
O O11 0.364675 0.985316 0.679742
O O12 0.203452 0.250000 0.766021
O O13 0.242058 0.467585 0.551308
O O14 0.756539 0.250000 0.776908
O O15 0.762110 0.506692 0.659199
O O16 0.820025 0.487322 0.730780
O O17 0.657419 0.465267 0.060259
O O18 0.416159 0.750000 0.672452
O O19 0.500000 0.000000 0.500000
O O20 0.291965 0.250000 0.317845
O O21 0.135504 0.250000 0.290939
#
# Coordination Sequence:
#
# PCOD9164812 Si02
#       8
#     4   4   4   4   4   4   4   4
#     4  11  21  36  56  81 114 153 196 243 289 339
#     4  10  21  37  61  93 122 147 187 239 289 346
#     4  10  21  37  56  81 114 148 189 238 286 340
#     4  10  21  38  58  84 117 152 190 235 291 347
#     4  11  24  41  60  86 117 153 198 243 288 344
#     4  11  24  39  56  82 114 149 190 236 285 339
#     4  11  23  40  59  84 116 155 200 242 290 350
#     4  10  21  39  63  90 119 154 190 232 290 350
#
# _framework density 18.596101999999998
#
# number of rings (size 3 to 8) (size 9 to 14) (size 15 to 20)
#    0.000    1.500    1.250    3.750    0.000   11.000 
#    0.000    0.625    0.000    0.000    0.000    0.000 
#    0.000    0.000    0.000    0.000    0.000    0.000 
#
# Total GULP energy -178922.812982 kJ/mol
# GULP energy per Si atom -5591.337906 kJ/mol
# Density = 1.855378 g / cm^3
# Si number density = 18.596102 Si / 1000 Ang^3
#
#
#
# Elastic Constant Matrix: (Units=GPa)
#
#
# Indices 1 2 3 4 5 6 
#
# 1 85.7700 32.8698 32.1036 0.0000 15.0859 0.0000
# 2 32.8698 54.4039 50.3960 0.0000 12.4722 0.0000
# 3 32.1036 50.3960 89.4245 0.0000 18.7298 0.0000
# 4 0.0000 0.0000 0.0000 31.3668 0.0000 0.5606
# 5 15.0859 12.4722 18.7298 0.0000 24.9180 0.0000
# 6 0.0000 0.0000 0.0000 0.5606 0.0000 34.9769
#
#
#
# Elastic Compliance Matrix: (Units=1/GPa)
#
#
# Indices 1 2 3 4 5 6 
#
# 1 0.015795 -0.008570 0.000313 0.000000 -0.005508 0.000000
# 2 -0.008570 0.043368 -0.021249 0.000000 -0.000546 0.000000
# 3 0.000313 -0.021249 0.024755 0.000000 -0.008161 0.000000
# 4 0.000000 0.000000 0.000000 0.031890 0.000000 -0.000511
# 5 -0.005508 -0.000546 -0.008161 0.000000 0.049874 0.000000
# 6 0.000000 0.000000 0.000000 -0.000511 0.000000 0.028598
#
#
# Mechanical properties :
#
#
# Convention : Reuss Voigt Hill
#
# Bulk Modulus (GPa) = 40.15282 51.14858 45.65070
# Shear Modulus (GPa) = 19.11346 25.86761 22.49054
#
# Velocity S-wave (km/s) = 3.20944 3.73369 3.48145
# Velocity P-wave (km/s) = 5.94752 6.79352 6.38455
#
# Compressibility (1/GPa) = 0.02490485
#
# Stress axis : x y z
#
# Youngs Moduli (GPa) = 63.31033 23.05828 40.39632
#
# Poissons Ratio (x) = 0.19762 -0.01265
# Poissons Ratio (y) = 0.54260 0.85840
# Poissons Ratio (z) = -0.01983 0.48998
#
# Static dielectric constant tensor:
#      x y z
#    x 1.628490 0.000000 -0.006550 
#    y 0.000000 1.614350 0.000000 
#    z -0.006550 0.000000 1.642020 
# 
# From -- ./inp_files/45148.got.cif
#   From: 2010.05.17/outbox.cif.g08.bks.cpg/sg11_23_cif.got.tgz:45148.got - 2010.06.03 12:22:45.
