data_PCOD9164916
_publ_section_title
;
Structure prediction by ZEFSAII (Michael W. Deem and Ramdas Pophale) SiO2 
 PCOD9164916
Probable space group: P 21/M
;
_chemical_formula_sum "Si O2"
_cell_formula_units_Z 28
_cell_length_a 20.396340
_cell_length_b 11.730982
_cell_length_c 17.685460
_cell_angle_alpha 90.000000
_cell_angle_beta 160.958238
_cell_angle_gamma 90.000000
_cell_volume 1380.584940
_symmetry_space_group_name_H-M "P 21/M"
_symmetry_group_IT_number 11
_symmetry_cell_setting 'monoclinic'
loop_
_space_group_symop_operation_xyz
x,y,z
-x,1/2+y,-z
-x,-y,-z
x,1/2-y,z
loop_
_atom_site_type_symbol
_atom_site_label
_atom_site_fract_x
_atom_site_fract_y
_atom_site_fract_z
Si Si1 0.078500 0.622458 0.779528
Si Si2 0.465546 0.545357 0.585474
Si Si3 0.155921 0.120684 0.317941
Si Si4 0.167400 0.444621 0.628256
Si Si5 0.312084 0.122059 0.033719
Si Si6 0.256192 0.620443 0.209273
Si Si7 0.545489 0.374560 0.137273
O O1 0.181548 0.750000 0.897665
O O2 0.943922 0.612275 0.708311
O O3 0.946698 0.626077 0.559942
O O4 0.194833 0.500095 0.901081
O O5 0.330425 0.467055 0.492059
O O6 0.594627 0.623398 0.781127
O O7 0.323921 0.605192 0.369442
O O8 0.615903 0.465596 0.701918
O O9 0.229577 0.250000 0.388645
O O10 0.977659 0.100687 0.062886
O O11 0.297185 0.536376 0.723025
O O12 0.000000 0.500000 0.500000
O O13 0.334797 0.384404 0.862315
O O14 0.216315 0.250000 0.916117
O O15 0.484086 0.111961 0.157387
O O16 0.299134 0.750000 0.232065
O O17 0.632629 0.250000 0.219922
#
# Coordination Sequence:
#
# PCOD9164916 Si02
#       7
#     4   4   4   4   4   4   4
#     4  11  23  41  65  94 126 166 215 261 310 370
#     4  11  21  37  63  85 122 165 208 249 316 373
#     4  10  21  38  61  89 122 159 209 262 312 369
#     4  11  22  41  64  93 127 164 212 261 312 374
#     4  11  23  42  63  92 130 167 211 258 316 376
#     4  10  21  37  58  89 123 157 206 262 310 368
#     4  10  23  41  63  92 127 167 210 259 317 377
#
# _framework density 20.281258999999999
#
# number of rings (size 3 to 8) (size 9 to 14) (size 15 to 20)
#    0.000    1.429    2.857    2.571    0.000    2.286 
#    0.000    2.143    0.000    0.000    0.000    0.000 
#    0.000    0.000    0.000    0.000    0.000    0.000 
#
# Total GULP energy -156169.636129 kJ/mol
# GULP energy per Si atom -5577.487005 kJ/mol
# Density = 2.023510 g / cm^3
# Si number density = 20.281259 Si / 1000 Ang^3
#
#
#
# Elastic Constant Matrix: (Units=GPa)
#
#
# Indices 1 2 3 4 5 6 
#
# 1 67.9665 29.8494 15.8010 0.0000 -14.7691 0.0000
# 2 29.8494 140.0916 32.2445 0.0000 10.1588 0.0000
# 3 15.8010 32.2445 48.7346 0.0000 -12.9011 0.0000
# 4 0.0000 0.0000 0.0000 16.9961 0.0000 0.3201
# 5 -14.7691 10.1588 -12.9011 0.0000 33.0558 0.0000
# 6 0.0000 0.0000 0.0000 0.3201 0.0000 21.5608
#
#
#
# Elastic Compliance Matrix: (Units=1/GPa)
#
#
# Indices 1 2 3 4 5 6 
#
# 1 0.018973 -0.004624 -0.000526 0.000000 0.009693 0.000000
# 2 -0.004624 0.010476 -0.007618 0.000000 -0.008259 0.000000
# 3 -0.000526 -0.007618 0.029317 0.000000 0.013548 0.000000
# 4 0.000000 0.000000 0.000000 0.058853 0.000000 -0.000874
# 5 0.009693 -0.008259 0.013548 0.000000 0.042408 0.000000
# 6 0.000000 0.000000 0.000000 -0.000874 0.000000 0.046394
#
#
# Mechanical properties :
#
#
# Convention : Reuss Voigt Hill
#
# Bulk Modulus (GPa) = 30.09475 45.84248 37.96861
# Shear Modulus (GPa) = 20.57334 26.24906 23.41120
#
# Velocity S-wave (km/s) = 3.18842 3.60147 3.40122
# Velocity P-wave (km/s) = 5.33157 6.32033 5.84689
#
# Compressibility (1/GPa) = 0.03322838
#
# Stress axis : x y z
#
# Youngs Moduli (GPa) = 52.70786 95.45789 34.11025
#
# Poissons Ratio (x) = 0.44143 0.01794
# Poissons Ratio (y) = 0.24374 0.25986
# Poissons Ratio (z) = 0.02772 0.72721
#
# Static dielectric constant tensor:
#      x y z
#    x 1.677140 0.000000 -0.028560 
#    y 0.000000 1.801490 0.000000 
#    z -0.028560 0.000000 1.737450 
# 
# From -- ./inp_files/61465.got.cif
#   From: 2010.05.17/outbox.cif.g08.bks.cpg/sg11_31_cif.got.tgz:61465.got - 2010.06.03 12:22:45.
