data_PCOD9164597
_publ_section_title
;
Structure prediction by ZEFSAII (Michael W. Deem and Ramdas Pophale) SiO2 
 PCOD9164597
Probable space group: P 21/M
;
_chemical_formula_sum "Si O2"
_cell_formula_units_Z 20
_cell_length_a 5.302693
_cell_length_b 8.561743
_cell_length_c 23.048724
_cell_angle_alpha 90.000000
_cell_angle_beta 96.605666
_cell_angle_gamma 90.000000
_cell_volume 1039.472100
_symmetry_space_group_name_H-M "P 21/M"
_symmetry_group_IT_number 11
_symmetry_cell_setting 'monoclinic'
loop_
_space_group_symop_operation_xyz
x,y,z
-x,1/2+y,-z
-x,-y,-z
x,1/2-y,z
loop_
_atom_site_type_symbol
_atom_site_label
_atom_site_fract_x
_atom_site_fract_y
_atom_site_fract_z
Si Si1 0.366992 0.561620 0.233648
Si Si2 0.567995 0.938635 0.634907
Si Si3 0.831672 0.560771 0.163030
Si Si4 0.033437 0.938889 0.565791
Si Si5 0.765759 0.063830 0.031520
O O1 0.368414 0.750000 0.236473
O O2 0.399457 0.497633 0.299034
O O3 0.699183 0.490357 0.399654
O O4 0.599915 0.513397 0.198613
O O5 0.568473 0.750000 0.635890
O O6 0.801123 0.990351 0.600516
O O7 0.900851 0.013413 0.801448
O O8 0.829199 0.750000 0.158140
O O9 0.799295 0.490746 0.098571
O O10 0.032645 0.750000 0.564213
O O11 0.000000 0.000000 0.500000
O O12 0.764077 0.250000 0.028154
O O13 0.500000 0.000000 0.000000
O O14 0.000000 0.000000 0.000000
#
# Coordination Sequence:
#
# PCOD9164597 Si02
#       5
#     4   4   4   4   4
#     4  10  21  36  57  83 112 148 189 232 283 339
#     4  10  21  36  54  78 109 141 179 226 277 331
#     4  10  21  38  58  84 117 151 191 240 288 342
#     4  10  21  36  54  78 106 140 179 224 275 329
#     4  12  25  42  65  93 124 162 205 250 303 361
#
# _framework density 19.240535999999999
#
# number of rings (size 3 to 8) (size 9 to 14) (size 15 to 20)
#    0.000    1.600    0.000    4.800    0.000    4.800 
#    0.000    0.000    0.000    0.000    0.000    0.000 
#    0.000    0.000    0.000    0.000    0.000    0.000 
#
# Total GULP energy -111843.058924 kJ/mol
# GULP energy per Si atom -5592.152946 kJ/mol
# Density = 1.919674 g / cm^3
# Si number density = 19.240536 Si / 1000 Ang^3
#
#
#
# Elastic Constant Matrix: (Units=GPa)
#
#
# Indices 1 2 3 4 5 6 
#
# 1 247.6374 51.2858 150.8615 0.0000 0.3266 0.0000
# 2 51.2858 35.8698 49.6940 0.0000 0.1394 0.0000
# 3 150.8615 49.6940 240.7423 0.0000 0.1762 0.0000
# 4 0.0000 0.0000 0.0000 44.4311 0.0000 -3.2423
# 5 0.3266 0.1394 0.1762 0.0000 46.2657 0.0000
# 6 0.0000 0.0000 0.0000 -3.2423 0.0000 9.3922
#
#
#
# Elastic Compliance Matrix: (Units=1/GPa)
#
#
# Indices 1 2 3 4 5 6 
#
# 1 0.007286 -0.005730 -0.003383 0.000000 -0.000021 0.000000
# 2 -0.005730 0.043552 -0.005399 0.000000 -0.000070 0.000000
# 3 -0.003383 -0.005399 0.007388 0.000000 0.000012 0.000000
# 4 0.000000 0.000000 0.000000 0.023088 0.000000 0.007970
# 5 -0.000021 -0.000070 0.000012 0.000000 0.021615 0.000000
# 6 0.000000 0.000000 0.000000 0.007970 0.000000 0.109222
#
#
# Mechanical properties :
#
#
# Convention : Reuss Voigt Hill
#
# Bulk Modulus (GPa) = 34.24488 114.21467 74.22978
# Shear Modulus (GPa) = 19.92754 38.17835 29.05295
#
# Velocity S-wave (km/s) = 3.22173 4.45934 3.89007
# Velocity P-wave (km/s) = 5.62817 9.27387 7.67076
#
# Compressibility (1/GPa) = 0.02920144
#
# Stress axis : x y z
#
# Youngs Moduli (GPa) = 137.25455 22.96111 135.35402
#
# Poissons Ratio (x) = 0.13158 0.45786
# Poissons Ratio (y) = 0.78654 0.73076
# Poissons Ratio (z) = 0.46429 0.12397
#
# Static dielectric constant tensor:
#      x y z
#    x 1.666800 0.000000 0.005450 
#    y 0.000000 1.653920 0.000000 
#    z 0.005450 0.000000 1.607760 
# 
# From -- ./inp_files/56654.got.cif
#   From: 2010.05.17/outbox.cif.g08.bks.cpg/sg11_29_cif.got.tgz:56654.got - 2010.06.03 12:22:45.
