data_PCOD9164403
_publ_section_title
;
Structure prediction by ZEFSAII (Michael W. Deem and Ramdas Pophale) SiO2 
 PCOD9164403
Probable space group: P 21/M
;
_chemical_formula_sum "Si O2"
_cell_formula_units_Z 28
_cell_length_a 9.639619
_cell_length_b 8.250023
_cell_length_c 30.318859
_cell_angle_alpha 90.000000
_cell_angle_beta 142.641405
_cell_angle_gamma 90.000000
_cell_volume 1463.101970
_symmetry_space_group_name_H-M "P 21/M"
_symmetry_group_IT_number 11
_symmetry_cell_setting 'monoclinic'
loop_
_space_group_symop_operation_xyz
x,y,z
-x,1/2+y,-z
-x,-y,-z
x,1/2-y,z
loop_
_atom_site_type_symbol
_atom_site_label
_atom_site_fract_x
_atom_site_fract_y
_atom_site_fract_z
Si Si1 0.402522 0.945888 0.798431
Si Si2 0.761776 0.943995 0.068059
Si Si3 0.089633 0.445888 0.798431
Si Si4 0.678111 0.445736 0.633623
Si Si5 0.921480 0.556005 0.931941
Si Si6 0.157749 0.445987 0.500000
Si Si7 0.009995 0.445736 0.366377
O O1 0.403867 0.750000 0.798325
O O2 0.661656 0.003547 0.858270
O O3 0.227243 0.001783 0.715990
O O4 0.292375 0.000000 0.816950
O O5 0.764215 0.750000 0.069312
O O6 0.870304 0.003547 0.141730
O O7 0.906522 1.000000 0.062609
O O8 0.500000 0.000000 0.000000
O O9 0.087757 0.250000 0.798325
O O10 0.852709 0.501783 0.715990
O O11 0.676604 0.250000 0.634130
O O12 0.418674 0.503287 0.572128
O O13 0.789419 0.500000 0.615768
O O14 0.917657 0.750000 0.930688
O O15 0.000000 0.500000 0.000000
O O16 0.162430 0.250000 0.500000
O O17 0.000000 0.500000 0.500000
O O18 0.058033 0.503287 0.427872
O O19 0.005953 0.250000 0.365870
#
# Coordination Sequence:
#
# PCOD9164403 Si02
#       7
#     4   4   4   4   4   4   4
#     4   9  19  35  55  78 105 135 170 212 259 308
#     4  11  23  38  56  79 107 140 176 217 262 311
#     4   9  19  35  55  78 105 135 170 212 259 308
#     4   9  18  34  54  77 103 134 172 213 255 305
#     4  11  23  38  56  79 107 140 176 217 262 311
#     4  10  21  34  50  74 106 138 171 212 256 302
#     4   9  18  34  54  77 103 134 172 213 255 305
#
# _framework density 19.137421
#
# number of rings (size 3 to 8) (size 9 to 14) (size 15 to 20)
#    0.000    2.286    0.000    2.143    0.000    6.857 
#    0.000    0.000    0.000    0.000    0.000    0.000 
#    0.000    0.000    0.000    0.000    0.000    0.000 
#
# Total GULP energy -156323.572323 kJ/mol
# GULP energy per Si atom -5582.984726 kJ/mol
# Density = 1.909386 g / cm^3
# Si number density = 19.137421 Si / 1000 Ang^3
#
#
#
# Elastic Constant Matrix: (Units=GPa)
#
#
# Indices 1 2 3 4 5 6 
#
# 1 191.4394 16.6618 145.3445 0.0000 1.8164 0.0000
# 2 16.6618 13.2281 21.8588 0.0000 0.2742 0.0000
# 3 145.3445 21.8588 162.6301 0.0000 -3.3363 0.0000
# 4 0.0000 0.0000 0.0000 17.9487 0.0000 -0.8892
# 5 1.8164 0.2742 -3.3363 0.0000 39.9900 0.0000
# 6 0.0000 0.0000 0.0000 -0.8892 0.0000 34.8033
#
#
#
# Elastic Compliance Matrix: (Units=1/GPa)
#
#
# Indices 1 2 3 4 5 6 
#
# 1 0.016635 0.004792 -0.015554 0.000000 -0.002086 0.000000
# 2 0.004792 0.098685 -0.017595 0.000000 -0.002362 0.000000
# 3 -0.015554 -0.017595 0.022470 0.000000 0.002702 0.000000
# 4 0.000000 0.000000 0.000000 0.055785 0.000000 0.001425
# 5 -0.002086 -0.002362 0.002702 0.000000 0.025343 0.000000
# 6 0.000000 0.000000 0.000000 0.001425 0.000000 0.028769
#
#
# Mechanical properties :
#
#
# Convention : Reuss Voigt Hill
#
# Bulk Modulus (GPa) = 12.33412 81.66978 47.00195
# Shear Modulus (GPa) = 15.08630 30.77723 22.93176
#
# Velocity S-wave (km/s) = 2.81074 4.01462 3.46536
# Velocity P-wave (km/s) = 4.12222 8.01608 6.37379
#
# Compressibility (1/GPa) = 0.08107592
#
# Stress axis : x y z
#
# Youngs Moduli (GPa) = 60.11369 10.13325 44.50370
#
# Poissons Ratio (x) = -0.04856 0.69221
# Poissons Ratio (y) = -0.28807 0.78306
# Poissons Ratio (z) = 0.93500 0.17830
#
# Static dielectric constant tensor:
#      x y z
#    x 1.607460 0.000000 0.004410 
#    y 0.000000 1.672730 0.000000 
#    z 0.004410 0.000000 1.691040 
# 
# From -- ./inp_files/29037.got.cif
#   From: 2010.05.17/outbox.cif.g08.bks.cpg/sg11_15_cif.got.tgz:29037.got - 2010.06.03 12:22:45.
