data_PCOD9164790
_publ_section_title
;
Structure prediction by ZEFSAII (Michael W. Deem and Ramdas Pophale) SiO2 
 PCOD9164790
Probable space group: P 21/M
;
_chemical_formula_sum "Si O2"
_cell_formula_units_Z 32
_cell_length_a 16.439709
_cell_length_b 8.738147
_cell_length_c 24.565916
_cell_angle_alpha 90.000000
_cell_angle_beta 27.696626
_cell_angle_gamma 90.000000
_cell_volume 1640.223851
_symmetry_space_group_name_H-M "P 21/M"
_symmetry_group_IT_number 11
_symmetry_cell_setting 'monoclinic'
loop_
_space_group_symop_operation_xyz
x,y,z
-x,1/2+y,-z
-x,-y,-z
x,1/2-y,z
loop_
_atom_site_type_symbol
_atom_site_label
_atom_site_fract_x
_atom_site_fract_y
_atom_site_fract_z
Si Si1 0.689705 0.929339 0.376571
Si Si2 0.948674 0.933415 0.800435
Si Si3 0.832282 0.065567 0.668331
Si Si4 0.807675 0.569660 0.003256
Si Si5 0.401626 0.568206 0.781187
Si Si6 0.316857 0.566069 0.129093
Si Si7 0.841517 0.572042 0.166044
Si Si8 0.221329 0.066038 0.418457
O O1 0.687846 0.750000 0.391573
O O2 0.736015 0.944079 0.285113
O O3 0.500000 0.000000 0.500000
O O4 0.852135 0.008190 0.311552
O O5 0.948572 0.750000 0.795732
O O6 0.848960 0.972913 0.916356
O O7 0.840631 0.007642 0.815633
O O8 0.824701 0.250000 0.669321
O O9 0.721290 0.017492 0.786189
O O10 0.036546 0.019953 0.554071
O O11 0.773852 0.998279 0.645482
O O12 0.769300 0.750000 0.028485
O O13 0.986286 0.530733 0.929663
O O14 0.658255 0.475837 0.122398
O O15 0.384894 0.750000 0.783075
O O16 0.277413 0.481213 0.812993
O O17 0.603137 0.520082 0.654536
O O18 0.322269 0.750000 0.124165
O O19 0.500000 0.500000 0.000000
O O20 0.893370 0.750000 0.129366
O O21 0.222867 0.250000 0.414318
#
# Coordination Sequence:
#
# PCOD9164790 Si02
#       8
#     4   4   4   4   4   4   4   4
#     4  10  21  38  61  87 117 155 196 241 292 350
#     4  10  22  40  60  86 117 154 199 244 297 355
#     4   9  20  40  61  82 113 148 188 236 290 346
#     4  10  21  37  57  79 112 152 189 233 285 340
#     4  11  22  34  54  84 114 146 187 233 285 344
#     4  11  24  40  61  89 121 158 199 248 303 360
#     4  10  21  37  55  80 113 148 189 233 283 338
#     4   9  20  38  59  84 111 147 189 234 288 344
#
# _framework density 19.509530999999999
#
# number of rings (size 3 to 8) (size 9 to 14) (size 15 to 20)
#    0.000    2.000    0.000    2.625    1.750    6.000 
#    0.000    1.250    0.000    0.000    0.000    0.000 
#    0.000    0.000    0.000    0.000    0.000    0.000 
#
# Total GULP energy -178766.535754 kJ/mol
# GULP energy per Si atom -5586.454242 kJ/mol
# Density = 1.946513 g / cm^3
# Si number density = 19.509531 Si / 1000 Ang^3
#
#
#
# Elastic Constant Matrix: (Units=GPa)
#
#
# Indices 1 2 3 4 5 6 
#
# 1 32.1724 5.9264 16.0512 0.0000 6.2858 0.0000
# 2 5.9264 35.0769 17.3246 0.0000 6.2116 0.0000
# 3 16.0512 17.3246 87.4545 0.0000 5.3036 0.0000
# 4 0.0000 0.0000 0.0000 31.0628 0.0000 -1.4636
# 5 6.2858 6.2116 5.3036 0.0000 16.2980 0.0000
# 6 0.0000 0.0000 0.0000 -1.4636 0.0000 30.2322
#
#
#
# Elastic Compliance Matrix: (Units=1/GPa)
#
#
# Indices 1 2 3 4 5 6 
#
# 1 0.036464 -0.001254 -0.005733 0.000000 -0.011720 0.000000
# 2 -0.001254 0.033401 -0.005758 0.000000 -0.010373 0.000000
# 3 -0.005733 -0.005758 0.013629 0.000000 -0.000030 0.000000
# 4 0.000000 0.000000 0.000000 0.032266 0.000000 0.001562
# 5 -0.011720 -0.010373 -0.000030 0.000000 0.069841 0.000000
# 6 0.000000 0.000000 0.000000 0.001562 0.000000 0.033153
#
#
# Mechanical properties :
#
#
# Convention : Reuss Voigt Hill
#
# Bulk Modulus (GPa) = 17.23991 25.92315 21.58153
# Shear Modulus (GPa) = 18.96970 23.21202 21.09086
#
# Velocity S-wave (km/s) = 3.12160 3.45306 3.29151
# Velocity P-wave (km/s) = 4.67423 5.40504 5.05286
#
# Compressibility (1/GPa) = 0.05800496
#
# Stress axis : x y z
#
# Youngs Moduli (GPa) = 27.42449 29.93905 73.37202
#
# Poissons Ratio (x) = 0.03753 0.42067
# Poissons Ratio (y) = 0.03438 0.42244
# Poissons Ratio (z) = 0.15724 0.17238
#
# Static dielectric constant tensor:
#      x y z
#    x 1.665840 0.000000 0.005980 
#    y 0.000000 1.644650 0.000000 
#    z 0.005980 0.000000 1.693560 
# 
# From -- ./inp_files/68998.got.cif
#   From: 2010.05.17/outbox.cif.g08.bks.cpg/sg11_35_cif.got.tgz:68998.got - 2010.06.03 12:22:45.
