data_PCOD9164576
_publ_section_title
;
Structure prediction by ZEFSAII (Michael W. Deem and Ramdas Pophale) SiO2 
 PCOD9164576
Probable space group: P 21/M
;
_chemical_formula_sum "Si O2"
_cell_formula_units_Z 28
_cell_length_a 30.941485
_cell_length_b 8.596478
_cell_length_c 9.801474
_cell_angle_alpha 90.000000
_cell_angle_beta 37.539223
_cell_angle_gamma 90.000000
_cell_volume 1588.500700
_symmetry_space_group_name_H-M "P 21/M"
_symmetry_group_IT_number 11
_symmetry_cell_setting 'monoclinic'
loop_
_space_group_symop_operation_xyz
x,y,z
-x,1/2+y,-z
-x,-y,-z
x,1/2-y,z
loop_
_atom_site_type_symbol
_atom_site_label
_atom_site_fract_x
_atom_site_fract_y
_atom_site_fract_z
Si Si1 0.936791 0.436035 0.066511
Si Si2 0.497508 0.936490 0.661001
Si Si3 0.652936 0.560722 0.275690
Si Si4 0.936693 0.436178 0.750011
Si Si5 0.783766 0.562231 0.449256
Si Si6 0.651028 0.937826 0.963337
Si Si7 0.783534 0.938047 0.133180
O O1 0.937059 0.250000 0.070361
O O2 0.859686 0.496957 0.304844
O O3 0.946059 0.485346 0.884951
O O4 0.000000 0.500000 0.000000
O O5 0.493997 0.750000 0.667711
O O6 0.574578 0.983394 0.526471
O O7 0.500000 0.000000 0.500000
O O8 0.424482 0.002124 0.903126
O O9 0.654774 0.750000 0.271006
O O10 0.718443 0.506879 0.202944
O O11 0.659088 0.512128 0.101644
O O12 0.936562 0.250000 0.745638
O O13 0.000000 0.500000 0.500000
O O14 0.859805 0.498253 0.897036
O O15 0.786973 0.750000 0.446626
O O16 0.718025 0.510931 0.706547
O O17 0.773038 0.516508 0.317835
O O18 0.648724 0.750000 0.968332
O O19 0.785824 0.750000 0.122026
#
# Coordination Sequence:
#
# PCOD9164576 Si02
#       7
#     4   4   4   4   4   4   4
#     4  10  21  36  54  75 101 131 165 204 247 294
#     4   9  16  28  46  68  94 124 157 196 239 283
#     4   8  15  28  47  68  91 121 158 195 234 280
#     4  10  21  36  53  75 101 130 163 202 246 293
#     4   9  18  32  50  70  96 128 161 197 241 290
#     4   9  17  30  47  69  95 124 158 197 238 284
#     4   9  17  32  51  69  93 128 162 195 239 290
#
# _framework density 17.626684000000001
#
# number of rings (size 3 to 8) (size 9 to 14) (size 15 to 20)
#    0.000    2.857    0.000    2.143    0.000    3.429 
#    0.000    7.143    0.000    0.000    0.000    0.000 
#    0.000    0.000    0.000    0.000    0.000    0.000 
#
# Total GULP energy -156026.964616 kJ/mol
# GULP energy per Si atom -5572.391593 kJ/mol
# Density = 1.758656 g / cm^3
# Si number density = 17.626684 Si / 1000 Ang^3
#
#
#
# Elastic Constant Matrix: (Units=GPa)
#
#
# Indices 1 2 3 4 5 6 
#
# 1 138.3608 22.3786 79.8402 0.0000 -43.2129 0.0000
# 2 22.3786 14.6570 27.6534 0.0000 -8.0151 0.0000
# 3 79.8402 27.6534 164.7571 0.0000 -40.8999 0.0000
# 4 0.0000 0.0000 0.0000 26.4802 0.0000 -8.6569
# 5 -43.2129 -8.0151 -40.8999 0.0000 25.7754 0.0000
# 6 0.0000 0.0000 0.0000 -8.6569 0.0000 22.2886
#
#
#
# Elastic Compliance Matrix: (Units=1/GPa)
#
#
# Indices 1 2 3 4 5 6 
#
# 1 0.016852 -0.012312 -0.000061 0.000000 0.024328 0.000000
# 2 -0.012312 0.109691 -0.015016 0.000000 -0.010359 0.000000
# 3 -0.000061 -0.015016 0.012267 0.000000 0.014694 0.000000
# 4 0.000000 0.000000 0.000000 0.043257 0.000000 0.016801
# 5 0.024328 -0.010359 0.014694 0.000000 0.099677 0.000000
# 6 0.000000 0.000000 0.000000 0.016801 0.000000 0.051392
#
#
# Mechanical properties :
#
#
# Convention : Reuss Voigt Hill
#
# Bulk Modulus (GPa) = 11.90015 64.16881 38.03448
# Shear Modulus (GPa) = 12.02142 27.43568 19.72855
#
# Velocity S-wave (km/s) = 2.61435 3.94951 3.34914
# Velocity P-wave (km/s) = 3.98484 7.56846 6.04816
#
# Compressibility (1/GPa) = 0.08403257
#
# Stress axis : x y z
#
# Youngs Moduli (GPa) = 59.34089 9.11648 81.51954
#
# Poissons Ratio (x) = 0.11224 0.00494
# Poissons Ratio (y) = 0.73060 1.22413
# Poissons Ratio (z) = 0.00360 0.13690
#
# Static dielectric constant tensor:
#      x y z
#    x 1.601980 0.000000 -0.001690 
#    y 0.000000 1.599380 0.000000 
#    z -0.001690 0.000000 1.607100 
# 
# From -- ./inp_files/28979.got.cif
#   From: 2010.05.17/outbox.cif.g08.bks.cpg/sg11_15_cif.got.tgz:28979.got - 2010.06.03 12:22:45.
