data_PCOD9164173
_publ_section_title
;
Structure prediction by ZEFSAII (Michael W. Deem and Ramdas Pophale) SiO2 
 PCOD9164173
Probable space group: P 21/M
;
_chemical_formula_sum "Si O2"
_cell_formula_units_Z 32
_cell_length_a 22.193378
_cell_length_b 12.939940
_cell_length_c 11.288713
_cell_angle_alpha 90.000000
_cell_angle_beta 29.552520
_cell_angle_gamma 90.000000
_cell_volume 1598.975490
_symmetry_space_group_name_H-M "P 21/M"
_symmetry_group_IT_number 11
_symmetry_cell_setting 'monoclinic'
loop_
_space_group_symop_operation_xyz
x,y,z
-x,1/2+y,-z
-x,-y,-z
x,1/2-y,z
loop_
_atom_site_type_symbol
_atom_site_label
_atom_site_fract_x
_atom_site_fract_y
_atom_site_fract_z
Si Si1 0.775741 0.443674 0.133212
Si Si2 0.122990 0.943348 0.639464
Si Si3 0.963368 0.520520 0.430698
Si Si4 0.284656 0.132443 0.128662
Si Si5 0.957180 0.139793 0.991978
Si Si6 0.369022 0.447978 0.234909
Si Si7 0.596143 0.454520 0.241770
Si Si8 0.628297 0.632438 0.505271
O O1 0.822428 0.377171 0.165070
O O2 0.692613 0.402196 0.167410
O O3 0.712559 0.547047 0.294374
O O4 0.907074 0.461237 0.850970
O O5 0.097142 0.929774 0.544977
O O6 0.264617 0.964043 0.417025
O O7 0.063880 0.865172 0.831607
O O8 0.053782 0.051192 0.792966
O O9 0.859448 0.608380 0.610056
O O10 0.000000 0.500000 0.500000
O O11 0.305665 0.250000 0.052195
O O12 0.342392 0.115485 0.160272
O O13 0.339343 0.046292 0.944491
O O14 0.005694 0.250000 0.869791
O O15 0.361523 0.386589 0.371347
O O16 0.500000 0.500000 0.000000
O O17 0.500000 0.500000 0.500000
O O18 0.511573 0.387823 0.298516
O O19 0.663378 0.750000 0.416163
#
# Coordination Sequence:
#
# PCOD9164173 Si02
#       8
#     4   4   4   4   4   4   4   4
#     4  10  21  40  64  92 125 165 205 262 315 375
#     4   9  21  38  60  92 124 155 204 254 314 363
#     4  10  20  39  64  90 127 164 197 258 318 372
#     4  11  23  41  69  97 125 168 217 258 315 389
#     4  10  20  39  65  91 122 158 204 256 313 375
#     4  11  21  40  65  88 127 166 205 264 316 369
#     4  10  22  40  62  89 131 167 210 268 310 359
#     4  11  23  41  64  93 123 165 215 261 316 376
#
# _framework density 20.012815
#
# number of rings (size 3 to 8) (size 9 to 14) (size 15 to 20)
#    0.000    1.750    3.750    0.375    0.000    7.500 
#    0.000    6.250    0.000    0.750    0.000    0.000 
#    0.000    0.000    0.000    0.000    0.000    0.000 
#
# Total GULP energy -178190.683088 kJ/mol
# GULP energy per Si atom -5568.458847 kJ/mol
# Density = 1.996726 g / cm^3
# Si number density = 20.012815 Si / 1000 Ang^3
#
#
#
# Elastic Constant Matrix: (Units=GPa)
#
#
# Indices 1 2 3 4 5 6 
#
# 1 134.8746 13.5592 24.9792 0.0000 0.7356 0.0000
# 2 13.5592 70.5436 16.1062 0.0000 0.7989 0.0000
# 3 24.9792 16.1062 88.9943 0.0000 -9.1219 0.0000
# 4 0.0000 0.0000 0.0000 15.4264 0.0000 -2.4484
# 5 0.7356 0.7989 -9.1219 0.0000 43.9414 0.0000
# 6 0.0000 0.0000 0.0000 -2.4484 0.0000 3.4719
#
#
#
# Elastic Compliance Matrix: (Units=1/GPa)
#
#
# Indices 1 2 3 4 5 6 
#
# 1 0.007908 -0.001037 -0.002088 0.000000 -0.000547 0.000000
# 2 -0.001037 0.014953 -0.002494 0.000000 -0.000772 0.000000
# 3 -0.002088 -0.002494 0.012549 0.000000 0.002685 0.000000
# 4 0.000000 0.000000 0.000000 0.072994 0.000000 0.051475
# 5 -0.000547 -0.000772 0.002685 0.000000 0.023338 0.000000
# 6 0.000000 0.000000 0.000000 0.051475 0.000000 0.324325
#
#
# Mechanical properties :
#
#
# Convention : Reuss Voigt Hill
#
# Bulk Modulus (GPa) = 41.37029 44.85573 43.11301
# Shear Modulus (GPa) = 10.51825 28.55248 19.53536
#
# Velocity S-wave (km/s) = 2.29503 3.78128 3.12772
# Velocity P-wave (km/s) = 5.26685 6.44409 5.88498
#
# Compressibility (1/GPa) = 0.02417194
#
# Stress axis : x y z
#
# Youngs Moduli (GPa) = 126.45008 66.87530 79.68487
#
# Poissons Ratio (x) = 0.06936 0.16639
# Poissons Ratio (y) = 0.13114 0.19876
# Poissons Ratio (z) = 0.26404 0.16681
#
# Static dielectric constant tensor:
#      x y z
#    x 1.788980 0.000000 -0.058100 
#    y 0.000000 1.768900 0.000000 
#    z -0.058100 0.000000 1.595740 
# 
# From -- ./inp_files/44223.got.cif
#   From: 2010.05.17/outbox.cif.g08.bks.cpg/sg11_23_cif.got.tgz:44223.got - 2010.06.03 12:22:45.
