data_PCOD9164844
_publ_section_title
;
Structure prediction by ZEFSAII (Michael W. Deem and Ramdas Pophale) SiO2 
 PCOD9164844
Probable space group: P 21/M
;
_chemical_formula_sum "Si O2"
_cell_formula_units_Z 32
_cell_length_a 21.616380
_cell_length_b 8.475474
_cell_length_c 26.991441
_cell_angle_alpha 90.000000
_cell_angle_beta 159.321775
_cell_angle_gamma 90.000000
_cell_volume 1746.202062
_symmetry_space_group_name_H-M "P 21/M"
_symmetry_group_IT_number 11
_symmetry_cell_setting 'monoclinic'
loop_
_space_group_symop_operation_xyz
x,y,z
-x,1/2+y,-z
-x,-y,-z
x,1/2-y,z
loop_
_atom_site_type_symbol
_atom_site_label
_atom_site_fract_x
_atom_site_fract_y
_atom_site_fract_z
Si Si1 0.653099 0.557497 0.342622
Si Si2 0.303740 0.939100 0.359972
Si Si3 0.311896 0.938720 0.842580
Si Si4 0.744225 0.440571 0.943870
Si Si5 0.991862 0.438650 0.938398
Si Si6 0.197160 0.060703 0.650933
Si Si7 0.962183 0.559192 0.758511
Si Si8 0.026294 0.057149 0.347275
O O1 0.653142 0.750000 0.344077
O O2 0.455794 0.503830 0.205212
O O3 0.705999 0.510642 0.326747
O O4 0.802738 0.506199 0.493424
O O5 0.305845 0.750000 0.363041
O O6 0.181064 0.990181 0.221784
O O7 0.500000 0.000000 0.500000
O O8 0.204225 0.000000 0.334606
O O9 0.310938 0.750000 0.843664
O O10 0.150628 0.993669 0.756800
O O11 0.278802 0.994196 0.762008
O O12 0.500000 0.000000 0.000000
O O13 0.742526 0.250000 0.942726
O O14 0.845064 0.499005 0.971095
O O15 0.863687 0.490338 0.080418
O O16 0.993831 0.250000 0.940176
O O17 0.000000 0.500000 0.000000
O O18 0.198918 0.250000 0.654087
O O19 0.000000 0.000000 0.500000
O O20 0.957474 0.750000 0.755075
O O21 0.966464 0.506411 0.704623
O O22 0.025781 0.250000 0.346958
#
# Coordination Sequence:
#
# PCOD9164844 Si02
#       8
#     4   4   4   4   4   4   4   4
#     4   9  18  33  55  81 108 144 186 227 273 332
#     4  10  21  37  57  82 113 147 183 224 273 327
#     4  11  23  39  58  84 115 150 194 241 291 344
#     4   9  18  33  55  80 106 142 188 227 269 326
#     4  10  21  37  57  82 114 147 181 224 274 325
#     4  11  21  37  60  84 115 152 192 239 289 342
#     4   9  18  33  55  79 106 144 187 228 270 323
#     4   9  18  34  55  79 109 144 185 229 273 331
#
# _framework density 18.325485
#
# number of rings (size 3 to 8) (size 9 to 14) (size 15 to 20)
#    0.000    2.250    1.250    1.500    1.750    2.500 
#    0.000    5.000    0.000    0.000    0.000    0.000 
#    0.000    0.000    0.000    0.000    0.000    0.000 
#
# Total GULP energy -178585.803334 kJ/mol
# GULP energy per Si atom -5580.806354 kJ/mol
# Density = 1.828378 g / cm^3
# Si number density = 18.325485 Si / 1000 Ang^3
#
#
#
# Elastic Constant Matrix: (Units=GPa)
#
#
# Indices 1 2 3 4 5 6 
#
# 1 201.3612 28.3548 133.0419 0.0000 -9.2987 0.0000
# 2 28.3548 20.3110 28.5373 0.0000 0.5962 0.0000
# 3 133.0419 28.5373 196.9973 0.0000 12.6041 0.0000
# 4 0.0000 0.0000 0.0000 25.2440 0.0000 1.2508
# 5 -9.2987 0.5962 12.6041 0.0000 31.5559 0.0000
# 6 0.0000 0.0000 0.0000 1.2508 0.0000 29.0810
#
#
#
# Elastic Compliance Matrix: (Units=1/GPa)
#
#
# Indices 1 2 3 4 5 6 
#
# 1 0.010325 -0.005358 -0.006566 0.000000 0.005766 0.000000
# 2 -0.005358 0.064785 -0.005733 0.000000 -0.000513 0.000000
# 3 -0.006566 -0.005733 0.010732 0.000000 -0.006113 0.000000
# 4 0.000000 0.000000 0.000000 0.039698 0.000000 -0.001707
# 5 0.005766 -0.000513 -0.006113 0.000000 0.035840 0.000000
# 6 0.000000 0.000000 0.000000 -0.001707 0.000000 0.034460
#
#
# Mechanical properties :
#
#
# Convention : Reuss Voigt Hill
#
# Bulk Modulus (GPa) = 19.79122 88.72638 54.25880
# Shear Modulus (GPa) = 20.16144 32.42522 26.29333
#
# Velocity S-wave (km/s) = 3.32050 4.21099 3.79198
# Velocity P-wave (km/s) = 5.05216 8.49502 6.98891
#
# Compressibility (1/GPa) = 0.05052747
#
# Stress axis : x y z
#
# Youngs Moduli (GPa) = 96.85129 15.43563 93.17891
#
# Poissons Ratio (x) = 0.08271 0.61179
# Poissons Ratio (y) = 0.51897 0.53422
# Poissons Ratio (z) = 0.63590 0.08850
#
# Static dielectric constant tensor:
#      x y z
#    x 1.595240 0.000000 -0.000760 
#    y 0.000000 1.636550 0.000000 
#    z -0.000760 0.000000 1.617170 
# 
# From -- ./inp_files/67132.got.cif
#   From: 2010.05.17/outbox.cif.g08.bks.cpg/sg11_34_cif.got.tgz:67132.got - 2010.06.03 12:22:45.
