data_PCOD9164237
_publ_section_title
;
Structure prediction by ZEFSAII (Michael W. Deem and Ramdas Pophale) SiO2 
 PCOD9164237
Probable space group: P 21/M
;
_chemical_formula_sum "Si O2"
_cell_formula_units_Z 30
_cell_length_a 11.556494
_cell_length_b 7.710433
_cell_length_c 23.779719
_cell_angle_alpha 90.000000
_cell_angle_beta 35.757083
_cell_angle_gamma 90.000000
_cell_volume 1238.182395
_symmetry_space_group_name_H-M "P 21/M"
_symmetry_group_IT_number 11
_symmetry_cell_setting 'monoclinic'
loop_
_space_group_symop_operation_xyz
x,y,z
-x,1/2+y,-z
-x,-y,-z
x,1/2-y,z
loop_
_atom_site_type_symbol
_atom_site_label
_atom_site_fract_x
_atom_site_fract_y
_atom_site_fract_z
Si Si1 0.215926 0.448310 0.492641
Si Si2 0.008199 0.057341 0.255306
Si Si3 0.549738 0.050302 0.916130
Si Si4 0.164435 0.552470 0.788566
Si Si5 0.255044 0.750000 0.550786
Si Si6 0.178267 0.948083 0.997692
Si Si7 0.789566 0.047118 0.632448
Si Si8 0.628515 0.460383 0.186835
O O1 0.241587 0.250000 0.502027
O O2 0.985284 0.512617 0.587699
O O3 0.337308 0.593977 0.476841
O O4 0.238059 0.452583 0.416230
O O5 0.072546 0.250000 0.208814
O O6 0.896720 0.970901 0.246496
O O7 0.852840 0.099769 0.365718
O O8 0.216537 0.972133 0.188411
O O9 0.499221 0.250000 0.927538
O O10 0.397688 0.945790 0.937844
O O11 0.500000 0.000000 0.000000
O O12 0.233487 0.750000 0.749225
O O13 0.321713 0.474693 0.770165
O O14 0.967284 0.552388 0.904701
O O15 0.106131 0.750000 0.024697
O O16 0.213700 0.019462 0.921281
O O17 0.821356 0.250000 0.608131
O O18 0.588852 0.019421 0.744610
O O19 0.634661 0.250000 0.184942
#
# Coordination Sequence:
#
# PCOD9164237 Si02
#       8
#     4   4   4   4   2   4   4   4
#     4  10  21  38  63  94 130 163 193 242 319 382
#     4   9  21  37  57  84 114 156 198 252 301 350
#     4  12  23  36  56  81 116 160 203 250 305 359
#     4  10  20  40  59  79 114 163 205 248 301 350
#     4  10  22  38  64  90 128 156 202 266 300 370
#     4  11  23  36  56  84 121 156 204 253 301 354
#     4  10  21  37  59  92 126 160 198 245 307 376
#     4  10  23  37  58  87 118 160 203 250 298 359
#
# _framework density 24.229063
#
# number of rings (size 3 to 8) (size 9 to 14) (size 15 to 20)
#    0.400    1.333    2.000    2.400    3.733    2.133 
#    0.000    0.000    0.000    0.800    0.000    0.000 
#    0.000    0.000    0.000    0.000    0.000    0.000 
#
# Total GULP energy -167070.517285 kJ/mol
# GULP energy per Si atom -5569.017243 kJ/mol
# Density = 2.417392 g / cm^3
# Si number density = 24.229063 Si / 1000 Ang^3
#
#
#
# Elastic Constant Matrix: (Units=GPa)
#
#
# Indices 1 2 3 4 5 6 
#
# 1 69.4116 0.4977 7.2600 0.0000 3.9136 0.0000
# 2 0.4977 96.0519 -5.4161 0.0000 9.2907 0.0000
# 3 7.2600 -5.4161 47.6826 0.0000 10.5775 0.0000
# 4 0.0000 0.0000 0.0000 11.7238 0.0000 4.9690
# 5 3.9136 9.2907 10.5775 0.0000 29.5615 0.0000
# 6 0.0000 0.0000 0.0000 4.9690 0.0000 4.2376
#
#
#
# Elastic Compliance Matrix: (Units=1/GPa)
#
#
# Indices 1 2 3 4 5 6 
#
# 1 0.014682 -0.000070 -0.001974 0.000000 -0.001216 0.000000
# 2 -0.000070 0.010942 0.002188 0.000000 -0.004213 0.000000
# 3 -0.001974 0.002188 0.023479 0.000000 -0.008828 0.000000
# 4 0.000000 0.000000 0.000000 0.169573 0.000000 -0.198841
# 5 -0.001216 -0.004213 -0.008828 0.000000 0.038471 0.000000
# 6 0.000000 0.000000 0.000000 -0.198841 0.000000 0.469143
#
#
# Mechanical properties :
#
#
# Convention : Reuss Voigt Hill
#
# Bulk Modulus (GPa) = 20.24591 24.20326 22.22459
# Shear Modulus (GPa) = 6.73431 23.15823 14.94627
#
# Velocity S-wave (km/s) = 1.66897 3.09496 2.48639
# Velocity P-wave (km/s) = 3.47680 4.77313 4.17558
#
# Compressibility (1/GPa) = 0.04939270
#
# Stress axis : x y z
#
# Youngs Moduli (GPa) = 68.10921 91.38895 42.59080
#
# Poissons Ratio (x) = 0.00638 0.08406
# Poissons Ratio (y) = 0.00475 -0.09319
# Poissons Ratio (z) = 0.13443 -0.19996
#
# Static dielectric constant tensor:
#      x y z
#    x 2.047220 0.000000 -0.026150 
#    y 0.000000 1.899990 0.000000 
#    z -0.026150 0.000000 1.925540 
# 
# From -- ./inp_files/68395.got.cif
#   From: 2010.05.17/outbox.cif.g08.bks.cpg/sg11_35_cif.got.tgz:68395.got - 2010.06.03 12:22:45.
