data_PCOD9164986
_publ_section_title
;
Structure prediction by ZEFSAII (Michael W. Deem and Ramdas Pophale) SiO2 
 PCOD9164986
Probable space group: P 21/M
;
_chemical_formula_sum "Si O2"
_cell_formula_units_Z 30
_cell_length_a 13.917423
_cell_length_b 22.009597
_cell_length_c 4.887887
_cell_angle_alpha 90.000000
_cell_angle_beta 79.800152
_cell_angle_gamma 90.000000
_cell_volume 1473.579954
_symmetry_space_group_name_H-M "P 21/M"
_symmetry_group_IT_number 11
_symmetry_cell_setting 'monoclinic'
loop_
_space_group_symop_operation_xyz
x,y,z
-x,1/2+y,-z
-x,-y,-z
x,1/2-y,z
loop_
_atom_site_type_symbol
_atom_site_label
_atom_site_fract_x
_atom_site_fract_y
_atom_site_fract_z
Si Si1 0.909316 0.873429 0.833248
Si Si2 0.001567 0.750000 0.634708
Si Si3 0.190582 0.429030 0.640945
Si Si4 0.286709 0.680612 0.748395
Si Si5 0.620846 0.979737 0.725324
Si Si6 0.072419 0.542677 0.632229
Si Si7 0.157930 0.655819 0.308332
Si Si8 0.591473 0.438122 0.222851
O O1 0.876010 0.894775 0.549719
O O2 0.939948 0.804064 0.819327
O O3 0.003939 0.915482 0.857179
O O4 0.821819 0.890035 0.081118
O O5 0.067817 0.697442 0.443537
O O6 0.294500 0.439626 0.448911
O O7 0.148069 0.496279 0.727757
O O8 0.319049 0.750000 0.775744
O O9 0.249359 0.673162 0.457183
O O10 0.362304 0.628387 0.792390
O O11 0.191000 0.668659 0.984233
O O12 0.521473 0.941464 0.812328
O O13 0.597887 0.033081 0.520059
O O14 0.646271 0.015037 0.991235
O O15 0.130061 0.587404 0.400198
O O16 0.000000 0.500000 0.500000
#
# Coordination Sequence:
#
# PCOD9164986 Si02
#       8
#     4   2   4   4   4   4   4   4
#     4  10  23  34  56  75 112 149 187 235 272 323
#     4  10  22  42  54  80 112 156 198 230 274 336
#     4  11  20  36  55  84 108 146 185 235 276 336
#     4  12  22  37  57  87 117 151 191 230 291 349
#     4  10  21  38  61  87 116 147 190 233 296 345
#     4   9  20  35  53  82 113 145 187 232 288 320
#     4  11  23  37  58  83 117 152 189 236 279 350
#     4  10  21  37  60  89 116 150 180 239 292 349
#
# _framework density 20.358581999999998
#
# number of rings (size 3 to 8) (size 9 to 14) (size 15 to 20)
#    0.000    1.600    1.333    3.600    0.000   11.200 
#    0.000    0.000    2.933    0.000    0.000    0.000 
#    0.000    0.000    0.000    0.000    0.000    0.000 
#
# Total GULP energy -167193.368519 kJ/mol
# GULP energy per Si atom -5573.112284 kJ/mol
# Density = 2.031225 g / cm^3
# Si number density = 20.358582 Si / 1000 Ang^3
#
#
#
# Elastic Constant Matrix: (Units=GPa)
#
#
# Indices 1 2 3 4 5 6 
#
# 1 50.7155 37.2044 4.4656 0.0000 -14.2115 0.0000
# 2 37.2044 153.4035 24.6864 0.0000 -20.0601 0.0000
# 3 4.4656 24.6864 63.9746 0.0000 -6.1552 0.0000
# 4 0.0000 0.0000 0.0000 19.8054 0.0000 -14.5617
# 5 -14.2115 -20.0601 -6.1552 0.0000 34.0185 0.0000
# 6 0.0000 0.0000 0.0000 -14.5617 0.0000 19.8104
#
#
#
# Elastic Compliance Matrix: (Units=1/GPa)
#
#
# Indices 1 2 3 4 5 6 
#
# 1 0.025764 -0.005399 0.001032 0.000000 0.007766 0.000000
# 2 -0.005399 0.008565 -0.002706 0.000000 0.002306 0.000000
# 3 0.001032 -0.002706 0.016784 0.000000 0.001872 0.000000
# 4 0.000000 0.000000 0.000000 0.109868 0.000000 0.080759
# 5 0.007766 0.002306 0.001872 0.000000 0.034338 0.000000
# 6 0.000000 0.000000 0.000000 0.080759 0.000000 0.109841
#
#
# Mechanical properties :
#
#
# Convention : Reuss Voigt Hill
#
# Bulk Modulus (GPa) = 27.05173 44.53402 35.79288
# Shear Modulus (GPa) = 15.07711 28.17601 21.62656
#
# Velocity S-wave (km/s) = 2.72431 3.72423 3.26280
# Velocity P-wave (km/s) = 4.81791 6.35732 5.64038
#
# Compressibility (1/GPa) = 0.03696621
#
# Stress axis : x y z
#
# Youngs Moduli (GPa) = 38.81411 116.75186 59.58187
#
# Poissons Ratio (x) = 0.63034 -0.06150
# Poissons Ratio (y) = 0.20956 0.16125
# Poissons Ratio (z) = -0.04006 0.31598
#
# Static dielectric constant tensor:
#      x y z
#    x 1.777070 0.000000 0.009980 
#    y 0.000000 1.696220 0.000000 
#    z 0.009980 0.000000 1.742850 
# 
# From -- ./inp_files/7044.got.cif
#   From: 2010.05.17/outbox.cif.g08.bks.cpg/sg11_4_cif.got.tgz:7044.got - 2010.06.03 12:22:45.
