data_PCOD9164394
_publ_section_title
;
Structure prediction by ZEFSAII (Michael W. Deem and Ramdas Pophale) SiO2 
 PCOD9164394
Probable space group: P 21/M
;
_chemical_formula_sum "Si O2"
_cell_formula_units_Z 32
_cell_length_a 15.977341
_cell_length_b 7.388238
_cell_length_c 21.658199
_cell_angle_alpha 90.000000
_cell_angle_beta 26.688265
_cell_angle_gamma 90.000000
_cell_volume 1148.274185
_symmetry_space_group_name_H-M "P 21/M"
_symmetry_group_IT_number 11
_symmetry_cell_setting 'monoclinic'
loop_
_space_group_symop_operation_xyz
x,y,z
-x,1/2+y,-z
-x,-y,-z
x,1/2-y,z
loop_
_atom_site_type_symbol
_atom_site_label
_atom_site_fract_x
_atom_site_fract_y
_atom_site_fract_z
Si Si1 0.617895 0.534607 0.234846
Si Si2 0.027326 0.459668 0.063176
Si Si3 0.282268 0.533804 0.652111
Si Si4 0.741992 0.470079 0.965115
Si Si5 0.382109 0.034604 0.265153
Si Si6 0.282268 0.966196 0.152111
Si Si7 0.027325 0.459668 0.563176
Si Si8 0.741992 0.029921 0.465116
O O1 0.634489 0.750000 0.230571
O O2 0.500001 0.500011 0.250000
O O3 0.472635 0.467352 0.381701
O O4 0.825149 0.461483 0.083496
O O5 0.005755 0.250000 0.062134
O O6 0.828521 0.540430 0.215312
O O7 0.137843 0.467216 0.056092
O O8 0.500000 0.500000 0.500000
O O9 0.257958 0.750000 0.670556
O O10 0.198458 0.467431 0.641949
O O11 0.742091 0.250000 0.966141
O O12 0.801542 0.532570 0.858051
O O13 0.527364 0.532644 0.118299
O O14 0.365522 0.250000 0.269429
O O15 0.174852 0.961485 0.416503
O O16 0.257958 0.750000 0.170557
O O17 0.171479 0.040432 0.284688
O O18 0.500000 0.000000 0.000000
O O19 0.005753 0.250000 0.562135
O O20 0.137843 0.467215 0.556092
O O21 0.742090 0.250000 0.466144
#
# Coordination Sequence:
#
# PCOD9164394 Si02
#       8
#     4   4   4   4   4   4   4   4
#     4   8  14  26  45  68  92 114 140 180 225 266
#     4   9  17  30  49  71  92 116 148 185 225 268
#     4  10  21  34  46  64  92 124 155 186 222 264
#     4   9  17  30  49  71  92 116 148 185 225 268
#     4   8  14  26  45  68  92 114 140 180 225 266
#     4  10  21  34  46  64  92 124 155 186 222 264
#     4   9  17  30  49  71  92 116 148 185 225 268
#     4   9  17  30  49  71  92 116 148 185 225 268
#
# _framework density 27.867906000000001
#
# number of rings (size 3 to 8) (size 9 to 14) (size 15 to 20)
#    0.000    3.000    0.000    0.750    0.000    2.000 
#    0.000    1.250    0.000    0.000    0.000    0.000 
#    0.000    0.000    0.000    0.000    0.000    0.000 
#
# Total GULP energy -178979.664957 kJ/mol
# GULP energy per Si atom -5593.114530 kJ/mol
# Density = 2.780448 g / cm^3
# Si number density = 27.867906 Si / 1000 Ang^3
#
#
#
# Elastic Constant Matrix: (Units=GPa)
#
#
# Indices 1 2 3 4 5 6 
#
# 1 93.3872 24.6160 39.0417 0.0000 11.0457 0.0000
# 2 24.6160 133.6503 18.5864 0.0000 7.8797 0.0000
# 3 39.0417 18.5864 250.9186 0.0000 18.8779 0.0000
# 4 0.0000 0.0000 0.0000 14.1189 0.0000 -7.0881
# 5 11.0457 7.8797 18.8779 0.0000 69.9951 0.0000
# 6 0.0000 0.0000 0.0000 -7.0881 0.0000 29.7624
#
#
#
# Elastic Compliance Matrix: (Units=1/GPa)
#
#
# Indices 1 2 3 4 5 6 
#
# 1 0.012046 -0.001917 -0.001639 0.000000 -0.001243 0.000000
# 2 -0.001917 0.007900 -0.000248 0.000000 -0.000520 0.000000
# 3 -0.001639 -0.000248 0.004325 0.000000 -0.000880 0.000000
# 4 0.000000 0.000000 0.000000 0.080445 0.000000 0.019158
# 5 -0.001243 -0.000520 -0.000880 0.000000 0.014779 0.000000
# 6 0.000000 0.000000 0.000000 0.019158 0.000000 0.038162
#
#
# Mechanical properties :
#
#
# Convention : Reuss Voigt Hill
#
# Bulk Modulus (GPa) = 60.01221 71.38270 65.69746
# Shear Modulus (GPa) = 29.27079 49.15609 39.21344
#
# Velocity S-wave (km/s) = 3.24441 4.20443 3.75523
# Velocity P-wave (km/s) = 5.96793 7.01712 6.51368
#
# Compressibility (1/GPa) = 0.01666328
#
# Stress axis : x y z
#
# Youngs Moduli (GPa) = 83.01773 126.57464 231.22016
#
# Poissons Ratio (x) = 0.24270 0.37890
# Poissons Ratio (y) = 0.15918 0.05729
# Poissons Ratio (z) = 0.13604 0.03136
#
# Static dielectric constant tensor:
#      x y z
#    x 2.232930 0.000000 -0.060740 
#    y 0.000000 1.983400 0.000000 
#    z -0.060740 0.000000 2.295120 
# 
# From -- ./inp_files/69928.got.cif
#   From: 2010.05.17/outbox.cif.g08.bks.cpg/sg11_35_cif.got.tgz:69928.got - 2010.06.03 12:22:45.
