data_PCOD9164729
_publ_section_title
;
Structure prediction by ZEFSAII (Michael W. Deem and Ramdas Pophale) SiO2 
 PCOD9164729
Probable space group: P 21/M
;
_chemical_formula_sum "Si O2"
_cell_formula_units_Z 32
_cell_length_a 18.733007
_cell_length_b 15.184930
_cell_length_c 12.717998
_cell_angle_alpha 90.000000
_cell_angle_beta 24.867332
_cell_angle_gamma 90.000000
_cell_volume 1521.332812
_symmetry_space_group_name_H-M "P 21/M"
_symmetry_group_IT_number 11
_symmetry_cell_setting 'monoclinic'
loop_
_space_group_symop_operation_xyz
x,y,z
-x,1/2+y,-z
-x,-y,-z
x,1/2-y,z
loop_
_atom_site_type_symbol
_atom_site_label
_atom_site_fract_x
_atom_site_fract_y
_atom_site_fract_z
Si Si1 0.814193 0.409828 0.218327
Si Si2 0.169450 0.409716 0.678055
Si Si3 0.889979 0.515293 0.468234
Si Si4 0.356074 0.647600 0.172559
Si Si5 0.550008 0.654571 0.282893
Si Si6 0.545406 0.150830 0.203485
Si Si7 0.302342 0.149097 0.147963
Si Si8 0.732412 0.011125 0.099863
O O1 0.822885 0.490638 0.287600
O O2 0.651955 0.352160 0.462827
O O3 0.774439 0.450710 0.157356
O O4 0.000568 0.368572 0.955552
O O5 0.150866 0.422679 0.578072
O O6 0.343035 0.361897 0.473189
O O7 0.778669 0.426519 0.614907
O O8 0.835256 0.575727 0.639377
O O9 0.087597 0.492827 0.196402
O O10 0.304267 0.750000 0.260681
O O11 0.393452 0.637549 0.998445
O O12 0.531111 0.633104 0.002405
O O13 0.593250 0.750000 0.269067
O O14 0.636632 0.643521 0.053463
O O15 0.620325 0.576160 0.259124
O O16 0.590427 0.250000 0.175563
O O17 0.630599 0.080505 0.165583
O O18 0.244016 0.250000 0.245600
#
# Coordination Sequence:
#
# PCOD9164729 Si02
#       8
#     4   4   4   4   4   4   4   4
#     4  10  22  42  63  88 121 158 204 260 301 354
#     4  10  21  39  67  91 116 155 208 258 301 355
#     4  11  22  38  66  91 121 166 199 246 313 359
#     4  10  21  36  59  93 126 155 201 254 301 363
#     4  11  23  39  62  88 123 166 204 245 305 368
#     4  11  23  39  62  92 124 160 201 251 309 362
#     4  10  21  37  61  93 123 155 203 257 303 361
#     4  11  25  42  59  90 128 161 205 252 300 364
#
# _framework density 21.034188
#
# number of rings (size 3 to 8) (size 9 to 14) (size 15 to 20)
#    0.000    1.500    2.500    2.250    0.000    4.000 
#    0.000    5.000    0.000    4.500    0.000    0.000 
#    0.000    0.000    0.000    0.000    0.000    0.000 
#
# Total GULP energy -178938.265172 kJ/mol
# GULP energy per Si atom -5591.820787 kJ/mol
# Density = 2.098631 g / cm^3
# Si number density = 21.034188 Si / 1000 Ang^3
#
#
#
# Elastic Constant Matrix: (Units=GPa)
#
#
# Indices 1 2 3 4 5 6 
#
# 1 33.0897 -8.2828 -12.4934 0.0000 -3.4066 0.0000
# 2 -8.2828 55.7171 18.8343 0.0000 -6.5265 0.0000
# 3 -12.4934 18.8343 95.4093 0.0000 -14.0316 0.0000
# 4 0.0000 0.0000 0.0000 -11.6311 0.0000 5.0011
# 5 -3.4066 -6.5265 -14.0316 0.0000 26.9547 0.0000
# 6 0.0000 0.0000 0.0000 5.0011 0.0000 -7.1728
#
#
#
# Elastic Compliance Matrix: (Units=1/GPa)
#
#
# Indices 1 2 3 4 5 6 
#
# 1 0.033898 0.004355 0.004726 0.000000 0.007799 0.000000
# 2 0.004355 0.020003 -0.002799 0.000000 0.003936 0.000000
# 3 0.004726 -0.002799 0.012606 0.000000 0.006482 0.000000
# 4 0.000000 0.000000 0.000000 -0.122787 0.000000 -0.085612
# 5 0.007799 0.003936 0.006482 0.000000 0.042412 0.000000
# 6 0.000000 0.000000 0.000000 -0.085612 0.000000 -0.199107
#
#
# Mechanical properties :
#
#
# Convention : Reuss Voigt Hill
#
# Bulk Modulus (GPa) = 12.64693 20.03690 16.34192
# Shear Modulus (GPa) = -25.10257 14.04070 -5.53094
#
# Velocity S-wave (km/s) = -3.45834 2.58644 -1.62333
# Velocity P-wave (km/s) = 3.14979 4.29722 2.06700
#
# Compressibility (1/GPa) = 0.07907057
#
# Stress axis : x y z
#
# Youngs Moduli (GPa) = 29.50000 49.99339 79.32810
#
# Poissons Ratio (x) = -0.21773 -0.37491
# Poissons Ratio (y) = -0.12848 0.22207
# Poissons Ratio (z) = -0.13942 0.13995
#
# Static dielectric constant tensor:
#      x y z
#    x 1.729440 0.000000 0.007230 
#    y 0.000000 1.741510 0.000000 
#    z 0.007230 0.000000 1.771510 
# 
# From -- ./inp_files/41657.got.cif
#   From: 2010.05.17/outbox.cif.g08.bks.cpg/sg11_21_cif.got.tgz:41657.got - 2010.06.03 12:22:45.
