data_PCOD9164933
_publ_section_title
;
Structure prediction by ZEFSAII (Michael W. Deem and Ramdas Pophale) SiO2 
 PCOD9164933
Probable space group: P 21/M
;
_chemical_formula_sum "Si O2"
_cell_formula_units_Z 24
_cell_length_a 20.685779
_cell_length_b 11.733865
_cell_length_c 4.847817
_cell_angle_alpha 90.000000
_cell_angle_beta 54.190159
_cell_angle_gamma 90.000000
_cell_volume 954.246125
_symmetry_space_group_name_H-M "P 21/M"
_symmetry_group_IT_number 11
_symmetry_cell_setting 'monoclinic'
loop_
_space_group_symop_operation_xyz
x,y,z
-x,1/2+y,-z
-x,-y,-z
x,1/2-y,z
loop_
_atom_site_type_symbol
_atom_site_label
_atom_site_fract_x
_atom_site_fract_y
_atom_site_fract_z
Si Si1 0.753268 0.119191 0.764085
Si Si2 0.923319 0.118287 0.464062
Si Si3 0.736766 0.535572 0.334157
Si Si4 0.094540 0.119855 0.145196
Si Si5 0.584727 0.904836 0.463712
Si Si6 0.478683 0.865674 0.241257
O O1 0.727216 0.250000 0.816447
O O2 0.848170 0.116253 0.445240
O O3 0.708285 0.032533 0.674637
O O4 0.752625 0.063130 0.067547
O O5 0.913604 0.250000 0.616624
O O6 0.016223 0.118296 0.144887
O O7 0.915443 0.996605 0.646909
O O8 0.670646 0.619390 0.370355
O O9 0.817749 0.602718 0.198064
O O10 0.093756 0.250000 0.273062
O O11 0.557948 0.867823 0.231867
O O12 0.578050 0.039633 0.502630
O O13 0.512328 0.873994 0.850750
O O14 0.433441 0.750000 0.385962
#
# Coordination Sequence:
#
# PCOD9164933 Si02
#       6
#     4   4   4   4   4   4
#     4  10  21  37  59  85 116 157 201 246 299 354
#     4   8  16  34  57  83 118 160 208 255 296 350
#     4  11  22  38  58  87 122 151 189 247 304 355
#     4   9  18  33  56  86 119 160 205 249 302 359
#     4  10  22  39  58  89 120 147 195 244 293 358
#     4  10  21  39  62  83 112 155 194 236 293 358
#
# _framework density 25.150744
#
# number of rings (size 3 to 8) (size 9 to 14) (size 15 to 20)
#    0.000    2.333    0.000    2.000    0.000    4.000 
#    0.000    3.333    0.000    8.000    0.000    0.000 
#    0.000    0.000    0.000    0.000    0.000    0.000 
#
# Total GULP energy -133658.492980 kJ/mol
# GULP energy per Si atom -5569.103874 kJ/mol
# Density = 2.509350 g / cm^3
# Si number density = 25.150744 Si / 1000 Ang^3
#
#
#
# Elastic Constant Matrix: (Units=GPa)
#
#
# Indices 1 2 3 4 5 6 
#
# 1 57.4534 3.4262 18.9614 0.0000 -14.8297 0.0000
# 2 3.4262 187.0886 13.8138 0.0000 4.7975 0.0000
# 3 18.9614 13.8138 47.4983 0.0000 -3.0067 0.0000
# 4 0.0000 0.0000 0.0000 -133.4358 0.0000 144.1722
# 5 -14.8297 4.7975 -3.0067 0.0000 46.1831 0.0000
# 6 0.0000 0.0000 0.0000 144.1722 0.0000 -65.2307
#
#
#
# Elastic Compliance Matrix: (Units=1/GPa)
#
#
# Indices 1 2 3 4 5 6 
#
# 1 0.021813 0.000049 -0.008313 0.000000 0.006458 0.000000
# 2 0.000049 0.005483 -0.001656 0.000000 -0.000662 0.000000
# 3 -0.008313 -0.001656 0.024798 0.000000 -0.000883 0.000000
# 4 0.000000 0.000000 0.000000 0.005399 0.000000 0.011933
# 5 0.006458 -0.000662 -0.000883 0.000000 0.023738 0.000000
# 6 0.000000 0.000000 0.000000 0.011933 0.000000 0.011045
#
#
# Mechanical properties :
#
#
# Convention : Reuss Voigt Hill
#
# Bulk Modulus (GPa) = 31.00471 40.49369 35.74920
# Shear Modulus (GPa) = 40.69405 -13.44075 13.62665
#
# Velocity S-wave (km/s) = 4.02681 -2.31423 2.33018
# Velocity P-wave (km/s) = 5.82877 2.99907 4.63514
#
# Compressibility (1/GPa) = 0.03225317
#
# Stress axis : x y z
#
# Youngs Moduli (GPa) = 45.84413 182.36805 40.32620
#
# Poissons Ratio (x) = -0.00889 0.33524
# Poissons Ratio (y) = -0.00223 0.06678
# Poissons Ratio (z) = 0.38111 0.30202
#
# Static dielectric constant tensor:
#      x y z
#    x 2.009780 0.000000 -0.050250 
#    y 0.000000 2.081390 0.000000 
#    z -0.050250 0.000000 1.962520 
# 
# From -- ./inp_files/9316.got.cif
#   From: 2010.05.17/outbox.cif.g08.bks.cpg/sg11_5_cif.got.tgz:9316.got - 2010.06.03 12:22:45.
