data_PCOD9164140
_publ_section_title
;
Structure prediction by ZEFSAII (Michael W. Deem and Ramdas Pophale) SiO2 
 PCOD9164140
Probable space group: P 21/M
;
_chemical_formula_sum "Si O2"
_cell_formula_units_Z 24
_cell_length_a 15.244721
_cell_length_b 8.508940
_cell_length_c 15.561694
_cell_angle_alpha 90.000000
_cell_angle_beta 140.179150
_cell_angle_gamma 90.000000
_cell_volume 1292.694309
_symmetry_space_group_name_H-M "P 21/M"
_symmetry_group_IT_number 11
_symmetry_cell_setting 'monoclinic'
loop_
_space_group_symop_operation_xyz
x,y,z
-x,1/2+y,-z
-x,-y,-z
x,1/2-y,z
loop_
_atom_site_type_symbol
_atom_site_label
_atom_site_fract_x
_atom_site_fract_y
_atom_site_fract_z
Si Si1 0.348752 0.558640 0.107385
Si Si2 0.846021 0.060019 0.885092
Si Si3 0.347070 0.439983 0.604446
Si Si4 0.349689 0.561002 0.912476
Si Si5 0.154290 0.061391 0.616238
Si Si6 0.351604 0.938301 0.417459
O O1 0.349161 0.750000 0.108490
O O2 0.237657 0.506355 0.093538
O O3 0.501105 0.509339 0.250887
O O4 0.320528 0.509615 0.988525
O O5 0.847471 0.250000 0.887047
O O6 0.760794 0.009444 0.736910
O O7 0.000000 0.000000 0.000000
O O8 0.347474 0.250000 0.601382
O O9 0.236672 0.489540 0.592571
O O10 0.319797 0.503156 0.489054
O O11 0.350973 0.750000 0.911157
O O12 0.238968 0.498744 0.761907
O O13 0.500000 0.500000 0.000000
O O14 0.153837 0.250000 0.617185
O O15 0.000000 0.000000 0.500000
O O16 0.355878 0.750000 0.419822
O O17 0.500000 0.000000 0.500000
#
# Coordination Sequence:
#
# PCOD9164140 Si02
#       6
#     4   4   4   4   4   4
#     4   9  18  37  61  84 116 156 196 238 291 353
#     4  10  22  40  59  83 119 154 190 239 293 348
#     4  10  20  39  63  86 117 159 201 244 298 358
#     4  11  21  37  63  92 120 157 203 249 301 361
#     4  11  24  42  62  88 124 162 200 252 311 365
#     4  11  22  37  61  91 120 155 199 249 296 351
#
# _framework density 18.565874000000001
#
# number of rings (size 3 to 8) (size 9 to 14) (size 15 to 20)
#    0.000    1.667    3.333    1.500    0.000    4.000 
#    0.000    6.667    0.000    0.000    0.000    0.000 
#    0.000    0.000    0.000    0.000    0.000    0.000 
#
# Total GULP energy -134081.910131 kJ/mol
# GULP energy per Si atom -5586.746255 kJ/mol
# Density = 1.852362 g / cm^3
# Si number density = 18.565874 Si / 1000 Ang^3
#
#
#
# Elastic Constant Matrix: (Units=GPa)
#
#
# Indices 1 2 3 4 5 6 
#
# 1 211.0076 36.9820 135.8736 0.0000 -10.0159 0.0000
# 2 36.9820 29.2170 36.9099 0.0000 -2.4995 0.0000
# 3 135.8736 36.9099 203.1700 0.0000 -6.2446 0.0000
# 4 0.0000 0.0000 0.0000 34.3622 0.0000 0.7145
# 5 -10.0159 -2.4995 -6.2446 0.0000 43.7080 0.0000
# 6 0.0000 0.0000 0.0000 0.7145 0.0000 32.7853
#
#
#
# Elastic Compliance Matrix: (Units=1/GPa)
#
#
# Indices 1 2 3 4 5 6 
#
# 1 0.008863 -0.004779 -0.005027 0.000000 0.001040 0.000000
# 2 -0.004779 0.047083 -0.005332 0.000000 0.000836 0.000000
# 3 -0.005027 -0.005332 0.009249 0.000000 -0.000136 0.000000
# 4 0.000000 0.000000 0.000000 0.029115 0.000000 -0.000634
# 5 0.001040 0.000836 -0.000136 0.000000 0.023146 0.000000
# 6 0.000000 0.000000 0.000000 -0.000634 0.000000 0.030515
#
#
# Mechanical properties :
#
#
# Convention : Reuss Voigt Hill
#
# Bulk Modulus (GPa) = 28.63814 95.88064 62.25939
# Shear Modulus (GPa) = 26.33150 37.74637 32.03894
#
# Velocity S-wave (km/s) = 3.77008 4.51389 4.15865
# Velocity P-wave (km/s) = 5.86600 8.88383 7.52770
#
# Compressibility (1/GPa) = 0.03491846
#
# Stress axis : x y z
#
# Youngs Moduli (GPa) = 112.82405 21.23915 108.12426
#
# Poissons Ratio (x) = 0.10150 0.54358
# Poissons Ratio (y) = 0.53918 0.57650
# Poissons Ratio (z) = 0.56721 0.11324
#
# Static dielectric constant tensor:
#      x y z
#    x 1.625020 0.000000 -0.016060 
#    y 0.000000 1.633850 0.000000 
#    z -0.016060 0.000000 1.607020 
# 
# From -- ./inp_files/51517.got.cif
#   From: 2010.05.17/outbox.cif.g08.bks.cpg/sg11_26_cif.got.tgz:51517.got - 2010.06.03 12:22:45.
