data_PCOD9164211
_publ_section_title
;
Structure prediction by ZEFSAII (Michael W. Deem and Ramdas Pophale) SiO2 
 PCOD9164211
Probable space group: P 21/M
;
_chemical_formula_sum "Si O2"
_cell_formula_units_Z 32
_cell_length_a 15.109992
_cell_length_b 15.416207
_cell_length_c 20.893260
_cell_angle_alpha 90.000000
_cell_angle_beta 19.755667
_cell_angle_gamma 90.000000
_cell_volume 1645.043082
_symmetry_space_group_name_H-M "P 21/M"
_symmetry_group_IT_number 11
_symmetry_cell_setting 'monoclinic'
loop_
_space_group_symop_operation_xyz
x,y,z
-x,1/2+y,-z
-x,-y,-z
x,1/2-y,z
loop_
_atom_site_type_symbol
_atom_site_label
_atom_site_fract_x
_atom_site_fract_y
_atom_site_fract_z
Si Si1 0.526471 0.351440 0.838383
Si Si2 0.250853 0.557667 0.187376
Si Si3 0.809776 0.493119 0.569482
Si Si4 0.967007 0.072218 0.207231
Si Si5 0.493926 0.148558 0.281119
Si Si6 0.585425 0.846916 0.417241
Si Si7 0.148959 0.404011 0.636028
Si Si8 0.987652 0.949617 0.074329
O O1 0.569824 0.250000 0.798493
O O2 0.670604 0.383223 0.805415
O O3 0.635140 0.409804 0.705362
O O4 0.218425 0.372504 0.055845
O O5 0.009909 0.495548 0.373724
O O6 0.126643 0.611995 0.213081
O O7 0.500000 0.500000 0.000000
O O8 0.639926 0.580709 0.676827
O O9 0.000000 0.500000 0.500000
O O10 0.708952 0.126090 0.365264
O O11 0.879457 0.003102 0.320641
O O12 0.049143 0.015345 0.090023
O O13 0.440610 0.250000 0.305710
O O14 0.370446 0.120359 0.433526
O O15 0.800367 0.127132 0.071178
O O16 0.589067 0.750000 0.390230
O O17 0.771184 0.855113 0.353309
O O18 0.704856 0.911531 0.283724
O O19 0.000000 0.000000 0.000000
#
# Coordination Sequence:
#
# PCOD9164211 Si02
#       8
#     4   4   4   4   4   4   4   4
#     4  11  22  40  64  93 127 172 213 251 312 385
#     4  10  20  39  66  90 122 161 208 263 317 368
#     4   9  21  37  60  88 124 163 199 257 307 363
#     4  11  21  40  63  86 125 173 204 253 313 376
#     4  11  21  37  62  93 121 162 211 259 312 370
#     4  11  23  38  58  93 125 158 207 261 308 370
#     4  10  21  37  64  87 122 161 208 252 318 368
#     4  11  22  39  62  86 123 163 210 253 317 370
#
# _framework density 19.452376999999998
#
# number of rings (size 3 to 8) (size 9 to 14) (size 15 to 20)
#    0.000    1.500    2.500    4.125    0.000    5.000 
#    0.000    2.500    0.000    0.750    0.000    0.000 
#    0.000    0.000    0.000    0.000    0.000    0.000 
#
# Total GULP energy -178445.957600 kJ/mol
# GULP energy per Si atom -5576.436175 kJ/mol
# Density = 1.940810 g / cm^3
# Si number density = 19.452377 Si / 1000 Ang^3
#
#
#
# Elastic Constant Matrix: (Units=GPa)
#
#
# Indices 1 2 3 4 5 6 
#
# 1 83.6644 45.8232 24.4813 0.0000 1.9637 0.0000
# 2 45.8232 127.9181 44.6025 0.0000 0.7580 0.0000
# 3 24.4813 44.6025 108.6462 0.0000 -12.2886 0.0000
# 4 0.0000 0.0000 0.0000 16.6418 0.0000 -4.5660
# 5 1.9637 0.7580 -12.2886 0.0000 22.3330 0.0000
# 6 0.0000 0.0000 0.0000 -4.5660 0.0000 16.3004
#
#
#
# Elastic Compliance Matrix: (Units=1/GPa)
#
#
# Indices 1 2 3 4 5 6 
#
# 1 0.015133 -0.004829 -0.001663 0.000000 -0.002082 0.000000
# 2 -0.004829 0.010800 -0.003561 0.000000 -0.001901 0.000000
# 3 -0.001663 -0.003561 0.011806 0.000000 0.006763 0.000000
# 4 0.000000 0.000000 0.000000 0.065092 0.000000 0.018233
# 5 -0.002082 -0.001901 0.006763 0.000000 0.048746 0.000000
# 6 0.000000 0.000000 0.000000 0.018233 0.000000 0.066456
#
#
# Mechanical properties :
#
#
# Convention : Reuss Voigt Hill
#
# Bulk Modulus (GPa) = 56.71008 61.11585 58.91297
# Shear Modulus (GPa) = 20.49056 24.74315 22.61686
#
# Velocity S-wave (km/s) = 3.24909 3.57036 3.41351
# Velocity P-wave (km/s) = 6.57967 6.96298 6.77403
#
# Compressibility (1/GPa) = 0.01763355
#
# Stress axis : x y z
#
# Youngs Moduli (GPa) = 66.08220 92.59188 84.70514
#
# Poissons Ratio (x) = 0.44710 0.14086
# Poissons Ratio (y) = 0.31909 0.30161
# Poissons Ratio (z) = 0.10989 0.32970
#
# Static dielectric constant tensor:
#      x y z
#    x 1.719430 0.000000 0.007420 
#    y 0.000000 1.843360 0.000000 
#    z 0.007420 0.000000 1.722660 
# 
# From -- ./inp_files/65773.got.cif
#   From: 2010.05.17/outbox.cif.g08.bks.cpg/sg11_33_cif.got.tgz:65773.got - 2010.06.03 12:22:45.
