data_PCOD9164535
_publ_section_title
;
Structure prediction by ZEFSAII (Michael W. Deem and Ramdas Pophale) SiO2 
 PCOD9164535
Probable space group: P 21/M
;
_chemical_formula_sum "Si O2"
_cell_formula_units_Z 30
_cell_length_a 26.482910
_cell_length_b 7.787393
_cell_length_c 14.198851
_cell_angle_alpha 90.000000
_cell_angle_beta 153.470304
_cell_angle_gamma 90.000000
_cell_volume 1307.945379
_symmetry_space_group_name_H-M "P 21/M"
_symmetry_group_IT_number 11
_symmetry_cell_setting 'monoclinic'
loop_
_space_group_symop_operation_xyz
x,y,z
-x,1/2+y,-z
-x,-y,-z
x,1/2-y,z
loop_
_atom_site_type_symbol
_atom_site_label
_atom_site_fract_x
_atom_site_fract_y
_atom_site_fract_z
Si Si1 0.120497 0.444083 0.743777
Si Si2 0.398839 0.458421 0.759418
Si Si3 0.719364 0.750000 0.623356
Si Si4 0.220233 0.454477 0.609435
Si Si5 0.884614 0.051457 0.859545
Si Si6 0.665400 0.055336 0.005206
Si Si7 0.966071 0.049416 0.208895
Si Si8 0.425961 0.935624 0.592357
O O1 0.142000 0.250000 0.748640
O O2 0.225643 0.549119 0.879844
O O3 0.104703 0.456789 0.829017
O O4 0.000000 0.500000 0.500000
O O5 0.394706 0.250000 0.731342
O O6 0.287809 0.517640 0.631037
O O7 0.424447 0.549633 0.704219
O O8 0.500000 0.500000 0.000000
O O9 0.793120 0.596981 0.692347
O O10 0.648175 0.597472 0.559996
O O11 0.210235 0.250000 0.579490
O O12 0.292716 0.487933 0.823730
O O13 0.093793 0.522127 0.413835
O O14 0.854801 0.250000 0.787059
O O15 0.911409 0.040853 0.015631
O O16 0.000000 0.000000 0.000000
O O17 0.626462 0.250000 0.954809
O O18 0.557638 0.954785 0.786562
O O19 0.973770 0.250000 0.250329
O O20 0.381460 0.750000 0.488218
#
# Coordination Sequence:
#
# PCOD9164535 Si02
#       8
#     4   4   2   4   4   4   4   4
#     4  12  24  39  64 100 141 184 226 279 345 418
#     4  11  21  34  55  89 135 179 223 268 327 402
#     4  12  26  48  70  98 136 174 240 286 354 412
#     4  10  21  35  59  89 135 179 218 270 326 412
#     4  11  25  46  76 106 142 180 233 298 354 412
#     4  12  23  40  62  95 137 179 229 276 335 413
#     4  10  23  42  66 100 137 177 225 280 351 414
#     4  12  25  43  67  97 132 183 235 288 346 412
#
# _framework density 22.936737000000001
#
# number of rings (size 3 to 8) (size 9 to 14) (size 15 to 20)
#    0.000    0.800    4.667    3.200    2.800    0.533 
#    0.000    0.000    0.000    0.800    0.000    0.000 
#    0.000    0.000    0.000    0.000    0.000    0.000 
#
# Total GULP energy -167406.143139 kJ/mol
# GULP energy per Si atom -5580.204771 kJ/mol
# Density = 2.288453 g / cm^3
# Si number density = 22.936737 Si / 1000 Ang^3
#
#
#
# Elastic Constant Matrix: (Units=GPa)
#
#
# Indices 1 2 3 4 5 6 
#
# 1 98.3444 8.7177 16.7675 0.0000 23.1273 0.0000
# 2 8.7177 149.4651 33.0637 0.0000 11.6203 0.0000
# 3 16.7675 33.0637 58.9938 0.0000 27.2585 0.0000
# 4 0.0000 0.0000 0.0000 24.9727 0.0000 10.4599
# 5 23.1273 11.6203 27.2585 0.0000 39.4906 0.0000
# 6 0.0000 0.0000 0.0000 10.4599 0.0000 22.4048
#
#
#
# Elastic Compliance Matrix: (Units=1/GPa)
#
#
# Indices 1 2 3 4 5 6 
#
# 1 0.011797 -0.000128 -0.000156 0.000000 -0.006763 0.000000
# 2 -0.000128 0.007668 -0.004777 0.000000 0.001116 0.000000
# 3 -0.000156 -0.004777 0.027869 0.000000 -0.017740 0.000000
# 4 0.000000 0.000000 0.000000 0.049778 0.000000 -0.023239
# 5 -0.006763 0.001116 -0.017740 0.000000 0.041200 0.000000
# 6 0.000000 0.000000 0.000000 -0.023239 0.000000 0.055483
#
#
# Mechanical properties :
#
#
# Convention : Reuss Voigt Hill
#
# Bulk Modulus (GPa) = 26.87277 47.10013 36.98645
# Shear Modulus (GPa) = 23.11389 33.92392 28.51891
#
# Velocity S-wave (km/s) = 3.17791 3.84998 3.52997
# Velocity P-wave (km/s) = 5.02065 6.35157 5.72492
#
# Compressibility (1/GPa) = 0.03721238
#
# Stress axis : x y z
#
# Youngs Moduli (GPa) = 84.76872 130.41348 35.88172
#
# Poissons Ratio (x) = 0.01665 0.00561
# Poissons Ratio (y) = 0.01082 0.17140
# Poissons Ratio (z) = 0.01326 0.62295
#
# Static dielectric constant tensor:
#      x y z
#    x 1.765160 0.000000 0.085910 
#    y 0.000000 1.843910 0.000000 
#    z 0.085910 0.000000 1.849070 
# 
# From -- ./inp_files/56103.got.cif
#   From: 2010.05.17/outbox.cif.g08.bks.cpg/sg11_29_cif.got.tgz:56103.got - 2010.06.03 12:22:45.
