data_PCOD9164233
_publ_section_title
;
Structure prediction by ZEFSAII (Michael W. Deem and Ramdas Pophale) SiO2 
 PCOD9164233
Probable space group: P 21/M
;
_chemical_formula_sum "Si O2"
_cell_formula_units_Z 30
_cell_length_a 13.122816
_cell_length_b 12.458250
_cell_length_c 9.002214
_cell_angle_alpha 90.000000
_cell_angle_beta 105.501308
_cell_angle_gamma 90.000000
_cell_volume 1418.212081
_symmetry_space_group_name_H-M "P 21/M"
_symmetry_group_IT_number 11
_symmetry_cell_setting 'monoclinic'
loop_
_space_group_symop_operation_xyz
x,y,z
-x,1/2+y,-z
-x,-y,-z
x,1/2-y,z
loop_
_atom_site_type_symbol
_atom_site_label
_atom_site_fract_x
_atom_site_fract_y
_atom_site_fract_z
Si Si1 0.159881 0.633281 0.581534
Si Si2 0.965968 0.866651 0.836750
Si Si3 0.302471 0.975067 0.877647
Si Si4 0.645730 0.374245 0.797352
Si Si5 0.969482 0.750000 0.420608
Si Si6 0.095348 0.081947 0.856967
Si Si7 0.401848 0.373857 0.670561
Si Si8 0.237400 0.463960 0.375055
O O1 0.197259 0.750000 0.533732
O O2 0.229960 0.604504 0.750489
O O3 0.181061 0.540504 0.472773
O O4 0.035315 0.656850 0.541011
O O5 0.012096 0.750000 0.822692
O O6 0.849962 0.882784 0.720863
O O7 0.950283 0.871394 0.008817
O O8 0.036116 0.968126 0.820221
O O9 0.219281 0.057771 0.917373
O O10 0.373684 0.043085 0.791494
O O11 0.357176 0.911232 0.031838
O O12 0.682040 0.250000 0.801866
O O13 0.526605 0.380371 0.688388
O O14 0.718591 0.456515 0.734582
O O15 0.923105 0.656850 0.290955
O O16 0.377344 0.250000 0.703047
O O17 0.331219 0.405378 0.500848
#
# Coordination Sequence:
#
# PCOD9164233 Si02
#       8
#     4   4   4   4   2   4   4   4
#     4   9  20  38  59  86 123 161 202 249 304 366
#     4  11  22  38  59  90 128 160 202 253 306 369
#     4  11  23  41  63  91 128 162 212 255 315 377
#     4  11  23  40  67  93 123 161 214 269 323 375
#     4  10  20  40  58  82 128 160 208 244 298 372
#     4  11  23  38  59  92 122 166 206 247 310 368
#     4  10  24  43  62  91 125 167 210 265 322 376
#     4  11  20  41  63  93 123 162 208 259 312 377
#
# _framework density 21.153395
#
# number of rings (size 3 to 8) (size 9 to 14) (size 15 to 20)
#    0.400    1.067    3.333    2.000    0.933    1.600 
#    0.000    0.000    0.000    5.600    0.000    0.000 
#    0.000    0.000    0.000    0.000    0.000    0.000 
#
# Total GULP energy -167015.497875 kJ/mol
# GULP energy per Si atom -5567.183262 kJ/mol
# Density = 2.110525 g / cm^3
# Si number density = 21.153395 Si / 1000 Ang^3
#
#
#
# Elastic Constant Matrix: (Units=GPa)
#
#
# Indices 1 2 3 4 5 6 
#
# 1 25.3320 4.3298 -2.6637 0.0000 0.5641 0.0000
# 2 4.3298 105.8589 14.5575 0.0000 1.9535 0.0000
# 3 -2.6637 14.5575 74.3526 0.0000 11.9948 0.0000
# 4 0.0000 0.0000 0.0000 38.0041 0.0000 14.7862
# 5 0.5641 1.9535 11.9948 0.0000 18.8628 0.0000
# 6 0.0000 0.0000 0.0000 14.7862 0.0000 16.1346
#
#
#
# Elastic Compliance Matrix: (Units=1/GPa)
#
#
# Indices 1 2 3 4 5 6 
#
# 1 0.040084 -0.001897 0.002194 0.000000 -0.002398 0.000000
# 2 -0.001897 0.009799 -0.002041 0.000000 0.000340 0.000000
# 3 0.002194 -0.002041 0.015494 0.000000 -0.009707 0.000000
# 4 0.000000 0.000000 0.000000 0.040894 0.000000 -0.037476
# 5 -0.002398 0.000340 -0.009707 0.000000 0.059223 0.000000
# 6 0.000000 0.000000 0.000000 -0.037476 0.000000 0.096323
#
#
# Mechanical properties :
#
#
# Convention : Reuss Voigt Hill
#
# Bulk Modulus (GPa) = 16.15818 26.44341 21.30080
# Shear Modulus (GPa) = 17.48653 27.22163 22.35408
#
# Velocity S-wave (km/s) = 2.87828 3.59119 3.25431
# Velocity P-wave (km/s) = 4.32448 5.45192 4.92060
#
# Compressibility (1/GPa) = 0.06188815
#
# Stress axis : x y z
#
# Youngs Moduli (GPa) = 24.94756 102.05578 64.54280
#
# Poissons Ratio (x) = 0.19360 -0.14162
# Poissons Ratio (y) = 0.04733 0.13175
# Poissons Ratio (z) = -0.05474 0.20832
#
# Static dielectric constant tensor:
#      x y z
#    x 1.795560 0.000000 -0.045790 
#    y 0.000000 1.748950 0.000000 
#    z -0.045790 0.000000 1.790060 
# 
# From -- ./inp_files/21581.got.cif
#   From: 2010.05.17/outbox.cif.g08.bks.cpg/sg11_11_cif.got.tgz:21581.got - 2010.06.03 12:22:45.
