data_PCOD9164137
_publ_section_title
;
Structure prediction by ZEFSAII (Michael W. Deem and Ramdas Pophale) SiO2 
 PCOD9164137
Probable space group: P 21/M
;
_chemical_formula_sum "Si O2"
_cell_formula_units_Z 28
_cell_length_a 9.167842
_cell_length_b 8.529732
_cell_length_c 29.456340
_cell_angle_alpha 90.000000
_cell_angle_beta 141.045399
_cell_angle_gamma 90.000000
_cell_volume 1448.197517
_symmetry_space_group_name_H-M "P 21/M"
_symmetry_group_IT_number 11
_symmetry_cell_setting 'monoclinic'
loop_
_space_group_symop_operation_xyz
x,y,z
-x,1/2+y,-z
-x,-y,-z
x,1/2-y,z
loop_
_atom_site_type_symbol
_atom_site_label
_atom_site_fract_x
_atom_site_fract_y
_atom_site_fract_z
Si Si1 0.126031 0.059866 0.214917
Si Si2 0.968312 0.438643 0.355755
Si Si3 0.594225 0.060743 0.070593
Si Si4 0.548037 0.436879 0.786515
Si Si5 0.687888 0.559161 0.641561
Si Si6 0.157646 0.561448 0.497187
Si Si7 0.258121 0.438565 0.071335
O O1 0.133991 0.250000 0.215364
O O2 0.219774 0.009169 0.286860
O O3 0.859379 0.010787 0.143262
O O4 0.287112 0.995123 0.214146
O O5 0.964155 0.250000 0.355429
O O6 0.710369 0.499300 0.284046
O O7 0.140933 0.491033 0.357268
O O8 0.060943 0.499538 0.426194
O O9 0.592176 0.250000 0.069174
O O10 0.427656 0.010419 0.071457
O O11 0.500000 0.000000 0.000000
O O12 0.544764 0.250000 0.786408
O O13 0.646235 0.499807 0.857837
O O14 0.688988 0.750000 0.641884
O O15 0.423925 0.509178 0.568897
O O16 0.152856 0.750000 0.495929
O O17 0.000000 0.500000 0.500000
O O18 0.255305 0.250000 0.071757
O O19 0.000000 0.500000 0.000000
#
# Coordination Sequence:
#
# PCOD9164137 Si02
#       7
#     4   4   4   4   4   4   4
#     4  10  20  39  63  86 113 154 200 245 295 351
#     4  11  22  40  63  87 117 157 198 244 297 352
#     4  10  22  38  60  87 118 154 197 242 290 346
#     4  12  25  40  59  89 122 156 198 246 294 350
#     4   9  20  38  62  87 115 152 198 245 296 352
#     4  11  22  38  60  90 122 156 197 244 294 352
#     4  11  23  41  63  90 121 157 197 242 293 351
#
# _framework density 19.334378999999998
#
# number of rings (size 3 to 8) (size 9 to 14) (size 15 to 20)
#    0.000    1.429    0.000    5.571    0.000    7.429 
#    0.000    5.714    0.000    0.000    0.000    0.000 
#    0.000    0.000    0.000    0.000    0.000    0.000 
#
# Total GULP energy -156619.745712 kJ/mol
# GULP energy per Si atom -5593.562347 kJ/mol
# Density = 1.929037 g / cm^3
# Si number density = 19.334379 Si / 1000 Ang^3
#
#
#
# Elastic Constant Matrix: (Units=GPa)
#
#
# Indices 1 2 3 4 5 6 
#
# 1 246.1429 52.7352 150.9925 0.0000 0.1636 0.0000
# 2 52.7352 59.3417 50.3942 0.0000 1.3496 0.0000
# 3 150.9925 50.3942 246.3807 0.0000 0.2338 0.0000
# 4 0.0000 0.0000 0.0000 35.2003 0.0000 -3.6046
# 5 0.1636 1.3496 0.2338 0.0000 47.2925 0.0000
# 6 0.0000 0.0000 0.0000 -3.6046 0.0000 26.3965
#
#
#
# Elastic Compliance Matrix: (Units=1/GPa)
#
#
# Indices 1 2 3 4 5 6 
#
# 1 0.006951 -0.003100 -0.003626 0.000000 0.000082 0.000000
# 2 -0.003100 0.021791 -0.002557 0.000000 -0.000599 0.000000
# 3 -0.003626 -0.002557 0.006804 0.000000 0.000052 0.000000
# 4 0.000000 0.000000 0.000000 0.028812 0.000000 0.003934
# 5 0.000082 -0.000599 0.000052 0.000000 0.021162 0.000000
# 6 0.000000 0.000000 0.000000 0.003934 0.000000 0.038421
#
#
# Mechanical properties :
#
#
# Convention : Reuss Voigt Hill
#
# Bulk Modulus (GPa) = 58.88993 117.78989 88.33991
# Shear Modulus (GPa) = 33.74596 41.62742 37.68669
#
# Velocity S-wave (km/s) = 4.18231 4.64511 4.41977
# Velocity P-wave (km/s) = 7.33806 9.47756 8.47559
#
# Compressibility (1/GPa) = 0.01698083
#
# Stress axis : x y z
#
# Youngs Moduli (GPa) = 143.86381 45.89002 146.97659
#
# Poissons Ratio (x) = 0.14225 0.53293
# Poissons Ratio (y) = 0.44595 0.37580
# Poissons Ratio (z) = 0.52164 0.11733
#
# Static dielectric constant tensor:
#      x y z
#    x 1.642750 0.000000 0.007670 
#    y 0.000000 1.664510 0.000000 
#    z 0.007670 0.000000 1.632490 
# 
# From -- ./inp_files/63398.got.cif
#   From: 2010.05.17/outbox.cif.g08.bks.cpg/sg11_32_cif.got.tgz:63398.got - 2010.06.03 12:22:45.
