data_PCOD9164598
_publ_section_title
;
Structure prediction by ZEFSAII (Michael W. Deem and Ramdas Pophale) SiO2 
 PCOD9164598
Probable space group: P 21/M
;
_chemical_formula_sum "Si O2"
_cell_formula_units_Z 32
_cell_length_a 26.793891
_cell_length_b 8.332514
_cell_length_c 15.549717
_cell_angle_alpha 90.000000
_cell_angle_beta 150.747147
_cell_angle_gamma 90.000000
_cell_volume 1696.466481
_symmetry_space_group_name_H-M "P 21/M"
_symmetry_group_IT_number 11
_symmetry_cell_setting 'monoclinic'
loop_
_space_group_symop_operation_xyz
x,y,z
-x,1/2+y,-z
-x,-y,-z
x,1/2-y,z
loop_
_atom_site_type_symbol
_atom_site_label
_atom_site_fract_x
_atom_site_fract_y
_atom_site_fract_z
Si Si1 0.394583 0.558273 0.798080
Si Si2 0.284814 0.944021 0.301363
Si Si3 0.943611 0.442952 0.999554
Si Si4 0.217729 0.556446 0.661022
Si Si5 0.000472 0.056320 0.273111
Si Si6 0.329239 0.946268 0.001647
Si Si7 0.561992 0.558549 0.324979
Si Si8 0.227653 0.945787 0.025934
O O1 0.394553 0.750000 0.802489
O O2 0.297173 0.499460 0.706862
O O3 0.392402 0.507532 0.695429
O O4 0.500000 0.500000 0.000000
O O5 0.290045 0.750000 0.310976
O O6 0.372699 0.010990 0.493815
O O7 0.174567 0.993741 0.173549
O O8 0.282111 0.994430 0.197087
O O9 0.943663 0.250000 0.000834
O O10 0.997130 0.497229 0.168337
O O11 0.000000 0.500000 0.000000
O O12 0.220016 0.750000 0.663561
O O13 0.102562 0.503303 0.471142
O O14 0.260489 0.502915 0.817677
O O15 0.001126 0.250000 0.275460
O O16 0.891506 0.004925 0.149250
O O17 0.329604 0.750000 0.003346
O O18 0.445400 0.998917 0.160739
O O19 0.284031 0.000558 0.024782
O O20 0.559778 0.750000 0.314137
O O21 0.227798 0.750000 0.026147
#
# Coordination Sequence:
#
# PCOD9164598 Si02
#       8
#     4   4   4   4   4   4   4   4
#     4  11  22  38  57  79 111 148 183 223 273 325
#     4   9  19  36  55  79 108 141 181 224 273 326
#     4   9  19  34  51  73 104 138 176 220 267 322
#     4  10  21  36  54  79 110 144 179 218 269 324
#     4   9  19  35  54  80 107 137 180 222 265 321
#     4   9  18  35  56  79 107 144 184 220 270 328
#     4  11  22  36  55  82 112 146 185 225 269 322
#     4   8  16  35  60  78 106 146 179 221 276 326
#
# _framework density 18.862736999999999
#
# number of rings (size 3 to 8) (size 9 to 14) (size 15 to 20)
#    0.000    2.500    1.250    2.250    1.750    3.000 
#    0.000    1.875    0.000    3.000    0.000    0.000 
#    0.000    0.000    0.000    0.000    0.000    0.000 
#
# Total GULP energy -178545.143088 kJ/mol
# GULP energy per Si atom -5579.535721 kJ/mol
# Density = 1.881980 g / cm^3
# Si number density = 18.862737 Si / 1000 Ang^3
#
#
#
# Elastic Constant Matrix: (Units=GPa)
#
#
# Indices 1 2 3 4 5 6 
#
# 1 131.8313 11.9243 43.7288 0.0000 -26.1818 0.0000
# 2 11.9243 12.8490 11.5106 0.0000 -2.8060 0.0000
# 3 43.7288 11.5106 134.4303 0.0000 -21.7563 0.0000
# 4 0.0000 0.0000 0.0000 28.8801 0.0000 -1.4934
# 5 -26.1818 -2.8060 -21.7563 0.0000 11.8760 0.0000
# 6 0.0000 0.0000 0.0000 -1.4934 0.0000 18.1096
#
#
#
# Elastic Compliance Matrix: (Units=1/GPa)
#
#
# Indices 1 2 3 4 5 6 
#
# 1 0.014117 -0.007233 0.001119 0.000000 0.031465 0.000000
# 2 -0.007233 0.088762 -0.006303 0.000000 -0.006520 0.000000
# 3 0.001119 -0.006303 0.011048 0.000000 0.021219 0.000000
# 4 0.000000 0.000000 0.000000 0.034774 0.000000 0.002868
# 5 0.031465 -0.006520 0.021219 0.000000 0.190901 0.000000
# 6 0.000000 0.000000 0.000000 0.002868 0.000000 0.055456
#
#
# Mechanical properties :
#
#
# Convention : Reuss Voigt Hill
#
# Bulk Modulus (GPa) = 11.22396 45.93757 28.58077
# Shear Modulus (GPa) = 11.12127 25.90294 18.51211
#
# Velocity S-wave (km/s) = 2.43078 3.70974 3.13615
# Velocity P-wave (km/s) = 3.72042 6.53881 5.31966
#
# Compressibility (1/GPa) = 0.08909510
#
# Stress axis : x y z
#
# Youngs Moduli (GPa) = 70.83522 11.26611 90.51087
#
# Poissons Ratio (x) = 0.08149 -0.10131
# Poissons Ratio (y) = 0.51234 0.57046
# Poissons Ratio (z) = -0.07929 0.07101
#
# Static dielectric constant tensor:
#      x y z
#    x 1.649160 0.000000 -0.001120 
#    y 0.000000 1.666010 0.000000 
#    z -0.001120 0.000000 1.635400 
# 
# From -- ./inp_files/56159.got.cif
#   From: 2010.05.17/outbox.cif.g08.bks.cpg/sg11_29_cif.got.tgz:56159.got - 2010.06.03 12:22:45.
