data_PCOD9164634
_publ_section_title
;
Structure prediction by ZEFSAII (Michael W. Deem and Ramdas Pophale) SiO2 
 PCOD9164634
Probable space group: P 21/M
;
_chemical_formula_sum "Si O2"
_cell_formula_units_Z 28
_cell_length_a 29.544577
_cell_length_b 8.383172
_cell_length_c 9.175250
_cell_angle_alpha 90.000000
_cell_angle_beta 140.931260
_cell_angle_gamma 90.000000
_cell_volume 1432.248929
_symmetry_space_group_name_H-M "P 21/M"
_symmetry_group_IT_number 11
_symmetry_cell_setting 'monoclinic'
loop_
_space_group_symop_operation_xyz
x,y,z
-x,1/2+y,-z
-x,-y,-z
x,1/2-y,z
loop_
_atom_site_type_symbol
_atom_site_label
_atom_site_fract_x
_atom_site_fract_y
_atom_site_fract_z
Si Si1 0.213534 0.057156 0.449677
Si Si2 0.356764 0.442860 0.976097
Si Si3 0.929672 0.558737 0.739885
Si Si4 0.786466 0.057156 0.882007
Si Si5 0.070328 0.558737 0.591525
Si Si6 0.500000 0.557147 0.834191
Si Si7 0.643236 0.442860 0.692275
O O1 0.213580 0.250000 0.449859
O O2 0.285299 0.002881 0.712729
O O3 0.142184 0.002907 0.356321
O O4 0.213093 1.000000 0.282733
O O5 0.356753 0.250000 0.975989
O O6 0.428428 0.497066 0.071225
O O7 0.356588 0.500000 0.141470
O O8 0.929698 0.750000 0.739995
O O9 0.929900 0.500000 0.574751
O O10 0.000000 0.500000 0.000000
O O11 0.786420 0.250000 0.881958
O O12 0.714701 0.002881 0.786237
O O13 0.857816 0.002907 0.145403
O O14 0.070302 0.750000 0.591505
O O15 0.000000 0.500000 0.500000
O O16 0.500000 0.750000 0.834110
O O17 0.428428 0.502934 0.570915
O O18 0.500000 0.500000 0.000000
O O19 0.643247 0.250000 0.692224
#
# Coordination Sequence:
#
# PCOD9164634 Si02
#       7
#     4   4   4   4   4   4   4
#     4  10  22  38  57  82 112 145 184 227 274 327
#     4  10  21  37  56  82 112 144 183 226 271 324
#     4  11  23  39  59  84 113 147 186 230 278 331
#     4  10  22  38  57  82 112 145 184 227 274 327
#     4  11  23  39  59  84 113 147 186 230 278 331
#     4  10  21  36  56  82 112 144 183 226 270 322
#     4  10  21  37  56  82 112 144 183 226 271 324
#
# _framework density 19.549674
#
# number of rings (size 3 to 8) (size 9 to 14) (size 15 to 20)
#    0.000    1.714    0.000    3.857    0.000    6.857 
#    0.000    0.000    0.000    0.000    0.000    0.000 
#    0.000    0.000    0.000    0.000    0.000    0.000 
#
# Total GULP energy -156552.804230 kJ/mol
# GULP energy per Si atom -5591.171580 kJ/mol
# Density = 1.950518 g / cm^3
# Si number density = 19.549674 Si / 1000 Ang^3
#
#
#
# Elastic Constant Matrix: (Units=GPa)
#
#
# Indices 1 2 3 4 5 6 
#
# 1 246.2712 26.4656 151.2959 0.0000 2.8333 0.0000
# 2 26.4656 14.5595 29.2048 0.0000 4.8270 0.0000
# 3 151.2959 29.2048 249.0418 0.0000 2.0494 0.0000
# 4 0.0000 0.0000 0.0000 27.8868 0.0000 -11.5398
# 5 2.8333 4.8270 2.0494 0.0000 46.9101 0.0000
# 6 0.0000 0.0000 0.0000 -11.5398 0.0000 34.4349
#
#
#
# Elastic Compliance Matrix: (Units=1/GPa)
#
#
# Indices 1 2 3 4 5 6 
#
# 1 0.006783 -0.005438 -0.003485 0.000000 0.000302 0.000000
# 2 -0.005438 0.097940 -0.008104 0.000000 -0.009395 0.000000
# 3 -0.003485 -0.008104 0.007077 0.000000 0.000735 0.000000
# 4 0.000000 0.000000 0.000000 0.041633 0.000000 0.013952
# 5 0.000302 -0.009395 0.000735 0.000000 0.022234 0.000000
# 6 0.000000 0.000000 0.000000 0.013952 0.000000 0.033716
#
#
# Mechanical properties :
#
#
# Convention : Reuss Voigt Hill
#
# Bulk Modulus (GPa) = 12.86262 102.64499 57.75381
# Shear Modulus (GPa) = 18.56299 42.04011 30.30155
#
# Velocity S-wave (km/s) = 3.08479 4.64230 3.94125
# Velocity P-wave (km/s) = 4.39108 9.01960 7.09348
#
# Compressibility (1/GPa) = 0.07774463
#
# Stress axis : x y z
#
# Youngs Moduli (GPa) = 147.43354 10.21028 141.30132
#
# Poissons Ratio (x) = 0.05553 0.49248
# Poissons Ratio (y) = 0.80179 1.14513
# Poissons Ratio (z) = 0.51385 0.08275
#
# Static dielectric constant tensor:
#      x y z
#    x 1.640670 0.000000 0.031540 
#    y 0.000000 1.684970 0.000000 
#    z 0.031540 0.000000 1.658570 
# 
# From -- ./inp_files/28455.got.cif
#   From: 2010.05.17/outbox.cif.g08.bks.cpg/sg11_15_cif.got.tgz:28455.got - 2010.06.03 12:22:45.
