data_PCOD9164799
_publ_section_title
;
Structure prediction by ZEFSAII (Michael W. Deem and Ramdas Pophale) SiO2 
 PCOD9164799
Probable space group: P 21/M
;
_chemical_formula_sum "Si O2"
_cell_formula_units_Z 32
_cell_length_a 27.250395
_cell_length_b 8.532529
_cell_length_c 21.791345
_cell_angle_alpha 90.000000
_cell_angle_beta 20.876421
_cell_angle_gamma 90.000000
_cell_volume 1805.575521
_symmetry_space_group_name_H-M "P 21/M"
_symmetry_group_IT_number 11
_symmetry_cell_setting 'monoclinic'
loop_
_space_group_symop_operation_xyz
x,y,z
-x,1/2+y,-z
-x,-y,-z
x,1/2-y,z
loop_
_atom_site_type_symbol
_atom_site_label
_atom_site_fract_x
_atom_site_fract_y
_atom_site_fract_z
Si Si1 0.221755 0.560565 0.454777
Si Si2 0.518812 0.560606 0.160044
Si Si3 0.595980 0.059334 0.577164
Si Si4 0.891602 0.440360 0.283989
Si Si5 0.599099 0.062201 0.436611
Si Si6 0.095856 0.061170 0.942820
Si Si7 0.903807 0.937611 0.524493
Si Si8 0.199958 0.937600 0.226038
O O1 0.219394 0.750000 0.455634
O O2 0.379799 0.514314 0.285537
O O3 0.129996 0.508795 0.620635
O O4 0.162907 0.497122 0.460240
O O5 0.523357 0.750000 0.154028
O O6 0.495779 0.509171 0.257711
O O7 0.658504 0.497222 0.968182
O O8 0.593781 0.250000 0.579871
O O9 0.753231 0.012942 0.408993
O O10 0.558325 0.006790 0.552958
O O11 0.892094 0.250000 0.284313
O O12 0.024226 0.489690 0.090508
O O13 0.596064 0.250000 0.440478
O O14 0.500000 0.000000 0.500000
O O15 0.752983 0.005733 0.242924
O O16 0.099597 0.250000 0.936934
O O17 0.000000 0.000000 0.000000
O O18 0.900355 0.750000 0.529394
O O19 0.063395 0.988333 0.347615
O O20 0.822392 0.000142 0.678956
O O21 0.201395 0.750000 0.225893
#
# Coordination Sequence:
#
# PCOD9164799 Si02
#       8
#     4   4   4   4   4   4   4   4
#     4   9  18  34  57  82 107 137 177 221 264 313
#     4   9  18  34  58  83 104 135 181 221 260 317
#     4   8  15  32  56  77 103 141 180 219 264 320
#     4   8  15  31  55  80 105 137 179 222 263 319
#     4  11  22  38  56  78 111 147 186 233 281 329
#     4  11  20  34  58  84 109 143 188 231 275 328
#     4  10  21  37  56  78 108 142 176 216 263 313
#     4  10  21  37  56  78 107 142 179 216 260 314
#
# _framework density 17.722881000000001
#
# number of rings (size 3 to 8) (size 9 to 14) (size 15 to 20)
#    0.000    2.500    1.250    3.000    0.000    2.500 
#    2.250    2.500    0.000    0.000    0.000    0.000 
#    0.000    0.000    0.000    0.000    0.000    0.000 
#
# Total GULP energy -178445.964209 kJ/mol
# GULP energy per Si atom -5576.436382 kJ/mol
# Density = 1.768254 g / cm^3
# Si number density = 17.722881 Si / 1000 Ang^3
#
#
#
# Elastic Constant Matrix: (Units=GPa)
#
#
# Indices 1 2 3 4 5 6 
#
# 1 187.8671 35.8941 105.5211 0.0000 11.8989 0.0000
# 2 35.8941 29.2990 32.2752 0.0000 2.2400 0.0000
# 3 105.5211 32.2752 152.3691 0.0000 14.5225 0.0000
# 4 0.0000 0.0000 0.0000 28.9166 0.0000 -1.2595
# 5 11.8989 2.2400 14.5225 0.0000 20.0510 0.0000
# 6 0.0000 0.0000 0.0000 -1.2595 0.0000 28.6382
#
#
#
# Elastic Compliance Matrix: (Units=1/GPa)
#
#
# Indices 1 2 3 4 5 6 
#
# 1 0.009405 -0.005714 -0.005190 0.000000 -0.001184 0.000000
# 2 -0.005714 0.048065 -0.006483 0.000000 0.002717 0.000000
# 3 -0.005190 -0.006483 0.011996 0.000000 -0.004884 0.000000
# 4 0.000000 0.000000 0.000000 0.034649 0.000000 0.001524
# 5 -0.001184 0.002717 -0.004884 0.000000 0.053810 0.000000
# 6 0.000000 0.000000 0.000000 0.001524 0.000000 0.034985
#
#
# Mechanical properties :
#
#
# Convention : Reuss Voigt Hill
#
# Bulk Modulus (GPa) = 28.82528 79.65731 54.24129
# Shear Modulus (GPa) = 20.89890 28.57748 24.73819
#
# Velocity S-wave (km/s) = 3.43768 4.01990 3.74014
# Velocity P-wave (km/s) = 5.66186 8.16026 7.02305
#
# Compressibility (1/GPa) = 0.03469177
#
# Stress axis : x y z
#
# Youngs Moduli (GPa) = 106.33014 20.80514 83.36128
#
# Poissons Ratio (x) = 0.11888 0.43264
# Poissons Ratio (y) = 0.60758 0.54043
# Poissons Ratio (z) = 0.55184 0.13488
#
# Static dielectric constant tensor:
#      x y z
#    x 1.595000 0.000000 0.015010 
#    y 0.000000 1.609640 0.000000 
#    z 0.015010 0.000000 1.592700 
# 
# From -- ./inp_files/67057.got.cif
#   From: 2010.05.17/outbox.cif.g08.bks.cpg/sg11_34_cif.got.tgz:67057.got - 2010.06.03 12:22:45.
