data_PCOD9164827
_publ_section_title
;
Structure prediction by ZEFSAII (Michael W. Deem and Ramdas Pophale) SiO2 
 PCOD9164827
Probable space group: P 21/M
;
_chemical_formula_sum "Si O2"
_cell_formula_units_Z 28
_cell_length_a 14.780606
_cell_length_b 11.061346
_cell_length_c 9.735225
_cell_angle_alpha 90.000000
_cell_angle_beta 125.466299
_cell_angle_gamma 90.000000
_cell_volume 1296.326326
_symmetry_space_group_name_H-M "P 21/M"
_symmetry_group_IT_number 11
_symmetry_cell_setting 'monoclinic'
loop_
_space_group_symop_operation_xyz
x,y,z
-x,1/2+y,-z
-x,-y,-z
x,1/2-y,z
loop_
_atom_site_type_symbol
_atom_site_label
_atom_site_fract_x
_atom_site_fract_y
_atom_site_fract_z
Si Si1 0.326500 0.392383 0.510147
Si Si2 0.094626 0.023051 0.392290
Si Si3 0.594926 0.619703 0.126819
Si Si4 0.127553 0.882625 0.694101
Si Si5 0.929507 0.115365 0.887963
Si Si6 0.637386 0.426199 0.971259
Si Si7 0.668115 0.387316 0.688562
O O1 0.358013 0.250000 0.512315
O O2 0.192936 0.400893 0.409491
O O3 0.371340 0.438414 0.697957
O O4 0.360060 0.495676 0.429430
O O5 0.977858 0.090506 0.303072
O O6 0.129209 0.981721 0.575314
O O7 0.078482 0.905831 0.282852
O O8 0.647617 0.750000 0.183591
O O9 0.631854 0.563752 0.016626
O O10 0.461665 0.624704 0.021244
O O11 0.113186 0.750000 0.619320
O O12 0.241607 0.883597 0.878052
O O13 0.972996 0.250000 0.958870
O O14 0.802058 0.108145 0.826182
O O15 0.000000 0.000000 0.000000
O O16 0.616194 0.400274 0.794200
O O17 0.642892 0.250000 0.613416
#
# Coordination Sequence:
#
# PCOD9164827 Si02
#       7
#     4   4   4   4   4   4   4
#     4  10  21  41  63  88 124 166 201 249 310 367
#     4  10  21  37  56  88 120 156 200 248 298 361
#     4  10  22  41  63  88 123 159 203 259 311 363
#     4  11  21  35  59  87 118 158 201 246 298 362
#     4  10  21  37  57  82 119 158 201 247 298 356
#     4  11  22  40  62  90 120 159 205 252 307 363
#     4  10  22  39  60  90 123 158 204 257 300 360
#
# _framework density 21.599499999999999
#
# number of rings (size 3 to 8) (size 9 to 14) (size 15 to 20)
#    0.000    1.714    1.429    3.000    0.000    5.714 
#    0.000    2.857    0.000    0.000    0.000    0.000 
#    0.000    0.000    0.000    0.000    0.000    0.000 
#
# Total GULP energy -156098.116784 kJ/mol
# GULP energy per Si atom -5574.932742 kJ/mol
# Density = 2.155034 g / cm^3
# Si number density = 21.599500 Si / 1000 Ang^3
#
#
#
# Elastic Constant Matrix: (Units=GPa)
#
#
# Indices 1 2 3 4 5 6 
#
# 1 66.7848 16.2016 16.3811 0.0000 4.8263 0.0000
# 2 16.2016 116.1368 33.9885 0.0000 -11.9679 0.0000
# 3 16.3811 33.9885 50.7379 0.0000 -2.5452 0.0000
# 4 0.0000 0.0000 0.0000 24.6283 0.0000 -9.9881
# 5 4.8263 -11.9679 -2.5452 0.0000 30.5126 0.0000
# 6 0.0000 0.0000 0.0000 -9.9881 0.0000 -5.0993
#
#
#
# Elastic Compliance Matrix: (Units=1/GPa)
#
#
# Indices 1 2 3 4 5 6 
#
# 1 0.016700 -0.001326 -0.004682 0.000000 -0.003552 0.000000
# 2 -0.001326 0.011228 -0.006891 0.000000 0.004039 0.000000
# 3 -0.004682 -0.006891 0.025847 0.000000 0.000194 0.000000
# 4 0.000000 0.000000 0.000000 0.022628 0.000000 -0.044323
# 5 -0.003552 0.004039 0.000194 0.000000 0.034935 0.000000
# 6 0.000000 0.000000 0.000000 -0.044323 0.000000 -0.109289
#
#
# Mechanical properties :
#
#
# Convention : Reuss Voigt Hill
#
# Bulk Modulus (GPa) = 35.74245 40.75574 38.24909
# Shear Modulus (GPa) = 134.50540 21.14755 77.82648
#
# Velocity S-wave (km/s) = 7.89985 3.13241 6.00915
# Velocity P-wave (km/s) = 9.98969 5.65619 8.11746
#
# Compressibility (1/GPa) = 0.02797794
#
# Stress axis : x y z
#
# Youngs Moduli (GPa) = 59.87976 89.05965 38.68960
#
# Poissons Ratio (x) = 0.11805 0.18114
# Poissons Ratio (y) = 0.07937 0.26662
# Poissons Ratio (z) = 0.28035 0.61372
#
# Static dielectric constant tensor:
#      x y z
#    x 1.801820 0.000000 0.017670 
#    y 0.000000 1.912350 0.000000 
#    z 0.017670 0.000000 1.802060 
# 
# From -- ./inp_files/21417.got.cif
#   From: 2010.05.17/outbox.cif.g08.bks.cpg/sg11_11_cif.got.tgz:21417.got - 2010.06.03 12:22:45.
