data_PCOD9164384
_publ_section_title
;
Structure prediction by ZEFSAII (Michael W. Deem and Ramdas Pophale) SiO2 
 PCOD9164384
Probable space group: P 21/M
;
_chemical_formula_sum "Si O2"
_cell_formula_units_Z 26
_cell_length_a 7.580048
_cell_length_b 22.927691
_cell_length_c 9.976135
_cell_angle_alpha 90.000000
_cell_angle_beta 44.448416
_cell_angle_gamma 90.000000
_cell_volume 1214.110320
_symmetry_space_group_name_H-M "P 21/M"
_symmetry_group_IT_number 11
_symmetry_cell_setting 'monoclinic'
loop_
_space_group_symop_operation_xyz
x,y,z
-x,1/2+y,-z
-x,-y,-z
x,1/2-y,z
loop_
_atom_site_type_symbol
_atom_site_label
_atom_site_fract_x
_atom_site_fract_y
_atom_site_fract_z
Si Si1 0.417258 0.250000 0.149920
Si Si2 0.889288 0.649311 0.794370
Si Si3 0.742736 0.039260 0.224688
Si Si4 0.447103 0.250000 0.427344
Si Si5 0.950048 0.648751 0.053295
Si Si6 0.291753 0.026816 0.014728
Si Si7 0.551874 0.371230 0.524014
Si Si8 0.077614 0.750000 0.189835
O O1 0.635587 0.250000 0.919699
O O2 0.254009 0.192756 0.222453
O O3 0.546837 0.250000 0.223814
O O4 0.157166 0.630455 0.587339
O O5 0.938607 0.678482 0.913310
O O6 0.726541 0.593501 0.926222
O O7 0.549174 0.072319 0.427513
O O8 0.634217 0.994420 0.175462
O O9 0.867858 0.093509 0.072183
O O10 0.985907 0.013074 0.173043
O O11 0.518002 0.309328 0.465056
O O12 0.142445 0.250000 0.582850
O O13 0.671798 0.628347 0.248607
O O14 0.036185 0.692327 0.122096
O O15 0.500000 0.000000 0.000000
#
# Coordination Sequence:
#
# PCOD9164384 Si02
#       8
#     2   4   4   2   4   4   4   2
#     4  12  22  34  54  82 114 140 176 222 270 346
#     4  10  22  34  55  83 103 146 178 219 280 320
#     4   9  19  35  57  81 103 150 192 220 278 327
#     4  10  21  33  53  81 107 142 178 226 278 320
#     4   9  18  36  57  77 105 141 187 229 269 326
#     4   9  19  35  55  79 115 145 180 232 272 320
#     4   9  18  36  57  77 105 141 187 229 269 326
#     4  10  21  33  53  81 107 142 178 226 278 320
#
# _framework density 21.414857999999999
#
# number of rings (size 3 to 8) (size 9 to 14) (size 15 to 20)
#    0.000    2.769    0.000    2.769    4.308    1.231 
#    0.000   12.308    0.000   15.692    0.000    0.000 
#    0.000    0.000    0.000    0.000    0.000    0.000 
#
# Total GULP energy -144799.186748 kJ/mol
# GULP energy per Si atom -5569.199490 kJ/mol
# Density = 2.136612 g / cm^3
# Si number density = 21.414858 Si / 1000 Ang^3
#
#
#
# Elastic Constant Matrix: (Units=GPa)
#
#
# Indices 1 2 3 4 5 6 
#
# 1 70.6856 29.9441 -0.9117 0.0000 -2.0378 0.0000
# 2 29.9441 75.8659 -0.9669 0.0000 -4.1374 0.0000
# 3 -0.9117 -0.9669 113.4622 0.0000 -13.3335 0.0000
# 4 0.0000 0.0000 0.0000 15.5879 0.0000 7.2499
# 5 -2.0378 -4.1374 -13.3335 0.0000 19.8571 0.0000
# 6 0.0000 0.0000 0.0000 7.2499 0.0000 22.8641
#
#
#
# Elastic Compliance Matrix: (Units=1/GPa)
#
#
# Indices 1 2 3 4 5 6 
#
# 1 0.016992 -0.006681 0.000131 0.000000 0.000440 0.000000
# 2 -0.006681 0.015983 0.000427 0.000000 0.002931 0.000000
# 3 0.000131 0.000427 0.009587 0.000000 0.006540 0.000000
# 4 0.000000 0.000000 0.000000 0.075250 0.000000 -0.023861
# 5 0.000440 0.002931 0.006540 0.000000 0.055407 0.000000
# 6 0.000000 0.000000 0.000000 -0.023861 0.000000 0.051303
#
#
# Mechanical properties :
#
#
# Convention : Reuss Voigt Hill
#
# Bulk Modulus (GPa) = 32.98527 35.12720 34.05623
# Shear Modulus (GPa) = 20.25339 27.12502 23.68920
#
# Velocity S-wave (km/s) = 3.07866 3.56286 3.32957
# Velocity P-wave (km/s) = 5.29849 5.77616 5.54247
#
# Compressibility (1/GPa) = 0.03031657
#
# Stress axis : x y z
#
# Youngs Moduli (GPa) = 58.85214 62.56485 104.31096
#
# Poissons Ratio (x) = 0.41799 -0.01369
# Poissons Ratio (y) = 0.39319 -0.04454
# Poissons Ratio (z) = -0.00773 -0.02672
#
# Static dielectric constant tensor:
#      x y z
#    x 1.787950 0.000000 -0.016760 
#    y 0.000000 1.837750 0.000000 
#    z -0.016760 0.000000 1.783570 
# 
# From -- ./inp_files/32972.got.cif
#   From: 2010.05.17/outbox.cif.g08.bks.cpg/sg11_17_cif.got.tgz:32972.got - 2010.06.03 12:22:45.
