data_PCOD9164045
_publ_section_title
;
Structure prediction by ZEFSAII (Michael W. Deem and Ramdas Pophale) SiO2 
 PCOD9164045
Probable space group: P 21/M
;
_chemical_formula_sum "Si O2"
_cell_formula_units_Z 32
_cell_length_a 14.802856
_cell_length_b 24.339509
_cell_length_c 8.469990
_cell_angle_alpha 90.000000
_cell_angle_beta 27.773495
_cell_angle_gamma 90.000000
_cell_volume 1422.017901
_symmetry_space_group_name_H-M "P 21/M"
_symmetry_group_IT_number 11
_symmetry_cell_setting 'monoclinic'
loop_
_space_group_symop_operation_xyz
x,y,z
-x,1/2+y,-z
-x,-y,-z
x,1/2-y,z
loop_
_atom_site_type_symbol
_atom_site_label
_atom_site_fract_x
_atom_site_fract_y
_atom_site_fract_z
Si Si1 0.410210 0.152249 0.965589
Si Si2 0.825110 0.409023 0.571554
Si Si3 0.103185 0.687642 0.117074
Si Si4 0.089868 0.082263 0.437276
Si Si5 0.158926 0.015262 0.627184
Si Si6 0.860197 0.185714 0.299127
Si Si7 0.426150 0.311339 0.594777
Si Si8 0.403641 0.121535 0.323434
O O1 0.353891 0.156847 0.240335
O O2 0.321302 0.091814 0.066834
O O3 0.635395 0.167511 0.627013
O O4 0.353009 0.181484 0.888301
O O5 0.980143 0.434387 0.450967
O O6 0.754254 0.457408 0.565158
O O7 0.926746 0.358534 0.323686
O O8 0.635569 0.386994 0.953420
O O9 0.049150 0.750000 0.245267
O O10 0.053525 0.679183 0.008840
O O11 0.337736 0.683687 0.765291
O O12 0.998858 0.642212 0.382818
O O13 0.055271 0.044017 0.638927
O O14 0.304150 0.062012 0.463661
O O15 0.000000 0.000000 0.000000
O O16 0.871489 0.250000 0.326875
O O17 0.376635 0.250000 0.619672
O O18 0.356912 0.351023 0.562627
#
# Coordination Sequence:
#
# PCOD9164045 Si02
#       8
#     4   4   4   4   4   4   4   4
#     4   9  21  37  61  89 127 159 197 252 311 372
#     4  11  22  40  64  90 123 160 216 258 313 380
#     4   9  18  35  59  88 122 158 202 251 307 374
#     4  11  22  39  62  91 127 159 203 263 324 368
#     4  11  25  43  64  87 124 167 210 271 322 371
#     4   9  19  38  63  87 119 164 204 249 305 376
#     4  10  20  38  64  94 125 164 210 254 309 383
#     4  10  22  42  66  91 124 167 218 257 316 378
#
# _framework density 22.503233000000002
#
# number of rings (size 3 to 8) (size 9 to 14) (size 15 to 20)
#    0.000    2.000    1.250    2.625    1.750    4.000 
#    0.000    2.500    0.000    0.000    0.000    0.000 
#    0.000    0.000    0.000    0.000    0.000    0.000 
#
# Total GULP energy -178433.604623 kJ/mol
# GULP energy per Si atom -5576.050144 kJ/mol
# Density = 2.245201 g / cm^3
# Si number density = 22.503233 Si / 1000 Ang^3
#
#
#
# Elastic Constant Matrix: (Units=GPa)
#
#
# Indices 1 2 3 4 5 6 
#
# 1 103.6624 34.9723 10.8410 0.0000 -1.4881 0.0000
# 2 34.9723 104.3793 31.9434 0.0000 19.1005 0.0000
# 3 10.8410 31.9434 77.6608 0.0000 4.8336 0.0000
# 4 0.0000 0.0000 0.0000 32.3060 0.0000 9.5627
# 5 -1.4881 19.1005 4.8336 0.0000 21.1578 0.0000
# 6 0.0000 0.0000 0.0000 9.5627 0.0000 54.0379
#
#
#
# Elastic Compliance Matrix: (Units=1/GPa)
#
#
# Indices 1 2 3 4 5 6 
#
# 1 0.011310 -0.004730 0.000052 0.000000 0.005054 0.000000
# 2 -0.004730 0.014932 -0.004688 0.000000 -0.012741 0.000000
# 3 0.000052 -0.004688 0.014744 0.000000 0.000868 0.000000
# 4 0.000000 0.000000 0.000000 0.032665 0.000000 -0.005780
# 5 0.005054 -0.012741 0.000868 0.000000 0.058923 0.000000
# 6 0.000000 0.000000 0.000000 -0.005780 0.000000 0.019528
#
#
# Mechanical properties :
#
#
# Convention : Reuss Voigt Hill
#
# Bulk Modulus (GPa) = 44.93876 49.02399 46.98137
# Shear Modulus (GPa) = 28.05031 35.36340 31.70685
#
# Velocity S-wave (km/s) = 3.53441 3.96849 3.75773
# Velocity P-wave (km/s) = 6.05552 6.54455 6.30478
#
# Compressibility (1/GPa) = 0.02225250
#
# Stress axis : x y z
#
# Youngs Moduli (GPa) = 88.42102 66.97228 67.82604
#
# Poissons Ratio (x) = 0.31678 -0.00355
# Poissons Ratio (y) = 0.41823 0.31799
# Poissons Ratio (z) = -0.00462 0.31399
#
# Static dielectric constant tensor:
#      x y z
#    x 1.888420 0.000000 -0.058510 
#    y 0.000000 1.824540 0.000000 
#    z -0.058510 0.000000 1.882530 
# 
# From -- ./inp_files/23370.got.cif
#   From: 2010.05.17/outbox.cif.g08.bks.cpg/sg11_12_cif.got.tgz:23370.got - 2010.06.03 12:22:45.
