data_PCOD9164300
_publ_section_title
;
Structure prediction by ZEFSAII (Michael W. Deem and Ramdas Pophale) SiO2 
 PCOD9164300
Probable space group: P 21/M
;
_chemical_formula_sum "Si O2"
_cell_formula_units_Z 30
_cell_length_a 9.479139
_cell_length_b 14.591392
_cell_length_c 13.780015
_cell_angle_alpha 90.000000
_cell_angle_beta 145.545917
_cell_angle_gamma 90.000000
_cell_volume 1078.292267
_symmetry_space_group_name_H-M "P 21/M"
_symmetry_group_IT_number 11
_symmetry_cell_setting 'monoclinic'
loop_
_space_group_symop_operation_xyz
x,y,z
-x,1/2+y,-z
-x,-y,-z
x,1/2-y,z
loop_
_atom_site_type_symbol
_atom_site_label
_atom_site_fract_x
_atom_site_fract_y
_atom_site_fract_z
Si Si1 0.466123 0.895100 0.252071
Si Si2 0.907102 0.750000 0.008570
Si Si3 0.951180 0.496998 0.682091
Si Si4 0.896813 0.150327 0.105113
Si Si5 0.311373 0.652029 0.368262
Si Si6 0.395148 0.145604 0.947727
Si Si7 0.990102 0.852097 0.536129
Si Si8 0.495190 0.108237 0.230487
O O1 0.488483 0.872088 0.378250
O O2 0.709413 0.855444 0.336492
O O3 0.448584 0.002265 0.223272
O O4 0.219741 0.848425 0.068524
O O5 0.724146 0.670876 0.854561
O O6 0.052350 0.671736 0.162016
O O7 0.725024 0.427657 0.575454
O O8 0.949428 0.562909 0.775920
O O9 0.194462 0.432584 0.814228
O O10 0.973932 0.564709 0.603552
O O11 0.006941 0.250000 0.187572
O O12 0.645538 0.138653 0.026983
O O13 0.381432 0.750000 0.451756
O O14 0.298215 0.250000 0.882832
O O15 0.481572 0.131749 0.107666
O O16 0.026572 0.750000 0.598862
O O17 0.212375 0.868796 0.586874
#
# Coordination Sequence:
#
# PCOD9164300 Si02
#       8
#     4   2   4   4   4   4   4   4
#     4  12  26  44  63  96 138 184 224 261 337 412
#     4  10  20  40  70  98 128 176 216 276 346 382
#     4  12  21  38  67  98 119 175 233 269 325 393
#     4  11  22  35  61  95 132 163 222 281 319 383
#     4  10  23  44  67  92 135 180 216 275 330 396
#     4  11  19  37  64  97 134 163 212 292 338 376
#     4  12  26  43  68  96 143 181 213 278 346 399
#     4  12  20  41  70  98 133 172 222 279 337 393
#
# _framework density 27.821771999999999
#
# number of rings (size 3 to 8) (size 9 to 14) (size 15 to 20)
#    0.400    0.267    5.333    3.600    0.000    2.667 
#    0.000    0.000    4.400    0.000    0.000    0.000 
#    0.000    0.000    0.000    0.000    0.000    0.000 
#
# Total GULP energy -167700.950290 kJ/mol
# GULP energy per Si atom -5590.031676 kJ/mol
# Density = 2.775845 g / cm^3
# Si number density = 27.821772 Si / 1000 Ang^3
#
#
#
# Elastic Constant Matrix: (Units=GPa)
#
#
# Indices 1 2 3 4 5 6 
#
# 1 92.0720 16.9621 17.1022 0.0000 -0.7213 0.0000
# 2 16.9621 245.6407 31.1275 0.0000 2.6898 0.0000
# 3 17.1022 31.1275 87.8813 0.0000 18.3822 0.0000
# 4 0.0000 0.0000 0.0000 -103.0980 0.0000 -165.9628
# 5 -0.7213 2.6898 18.3822 0.0000 51.5445 0.0000
# 6 0.0000 0.0000 0.0000 -165.9628 0.0000 -117.1647
#
#
#
# Elastic Compliance Matrix: (Units=1/GPa)
#
#
# Indices 1 2 3 4 5 6 
#
# 1 0.011379 -0.000513 -0.002239 0.000000 0.000984 0.000000
# 2 -0.000513 0.004291 -0.001482 0.000000 0.000298 0.000000
# 3 -0.002239 -0.001482 0.013324 0.000000 -0.004706 0.000000
# 4 0.000000 0.000000 0.000000 0.007577 0.000000 -0.010732
# 5 0.000984 0.000298 -0.004706 0.000000 0.021077 0.000000
# 6 0.000000 0.000000 0.000000 -0.010732 0.000000 0.006667
#
#
# Mechanical properties :
#
#
# Convention : Reuss Voigt Hill
#
# Bulk Modulus (GPa) = 48.71785 61.77532 55.24659
# Shear Modulus (GPa) = 62.79485 -9.71685 26.53900
#
# Velocity S-wave (km/s) = 4.75599 -1.87086 3.09187
# Velocity P-wave (km/s) = 6.90709 4.19349 5.71372
#
# Compressibility (1/GPa) = 0.02052636
#
# Stress axis : x y z
#
# Youngs Moduli (GPa) = 87.88052 233.04711 75.05275
#
# Poissons Ratio (x) = 0.11952 0.16802
# Poissons Ratio (y) = 0.04507 0.11125
# Poissons Ratio (z) = 0.19674 0.34544
#
# Static dielectric constant tensor:
#      x y z
#    x 2.297970 0.000000 0.020940 
#    y 0.000000 2.028880 0.000000 
#    z 0.020940 0.000000 2.232720 
# 
# From -- ./inp_files/59394.got.cif
#   From: 2010.05.17/outbox.cif.g08.bks.cpg/sg11_30_cif.got.tgz:59394.got - 2010.06.03 12:22:45.
