data_PCOD9164906
_publ_section_title
;
Structure prediction by ZEFSAII (Michael W. Deem and Ramdas Pophale) SiO2 
 PCOD9164906
Probable space group: P 21/M
;
_chemical_formula_sum "Si O2"
_cell_formula_units_Z 32
_cell_length_a 15.013938
_cell_length_b 8.913510
_cell_length_c 24.340766
_cell_angle_alpha 90.000000
_cell_angle_beta 153.811906
_cell_angle_gamma 90.000000
_cell_volume 1437.575387
_symmetry_space_group_name_H-M "P 21/M"
_symmetry_group_IT_number 11
_symmetry_cell_setting 'monoclinic'
loop_
_space_group_symop_operation_xyz
x,y,z
-x,1/2+y,-z
-x,-y,-z
x,1/2-y,z
loop_
_atom_site_type_symbol
_atom_site_label
_atom_site_fract_x
_atom_site_fract_y
_atom_site_fract_z
Si Si1 0.194081 0.423294 0.324798
Si Si2 0.371483 0.918167 0.323105
Si Si3 0.658026 0.077423 0.398634
Si Si4 0.984594 0.074653 0.670026
Si Si5 0.362543 0.928473 0.830949
Si Si6 0.241725 0.922811 0.976347
Si Si7 0.057769 0.080556 0.975441
Si Si8 0.785374 0.928110 0.364710
O O1 0.257521 0.250000 0.361991
O O2 0.339487 0.519743 0.366440
O O3 0.154393 0.492841 0.362263
O O4 0.972947 0.427255 0.173228
O O5 0.458969 0.750000 0.370637
O O6 0.149987 0.910083 0.173651
O O7 0.495691 0.030989 0.354087
O O8 0.634729 0.250000 0.368379
O O9 0.870784 0.063311 0.548495
O O10 0.648221 0.968349 0.341412
O O11 0.003395 0.250000 0.694321
O O12 0.201771 0.998056 0.784180
O O13 0.349512 0.750000 0.824943
O O14 0.591113 0.984183 0.963982
O O15 0.298598 0.992714 0.735932
O O16 0.307385 0.750000 0.017005
O O17 0.207840 0.991129 0.018376
O O18 0.132066 0.250000 0.026799
O O19 0.000000 0.000000 0.000000
O O20 0.802253 0.750000 0.366006
O O21 0.000000 0.000000 0.500000
#
# Coordination Sequence:
#
# PCOD9164906 Si02
#       8
#     4   4   4   4   4   4   4   4
#     4  10  22  42  67  92 122 161 206 258 313 368
#     4  10  22  40  62  89 123 162 205 254 309 367
#     4  11  24  41  63  92 125 164 209 254 307 368
#     4  11  24  42  65  91 123 162 207 259 310 366
#     4  12  25  41  64  93 125 164 208 254 307 371
#     4  10  22  41  63  89 123 160 203 255 309 367
#     4  10  21  37  58  86 120 159 204 251 305 366
#     4  12  24  41  64  90 126 166 205 254 309 366
#
# _framework density 22.259702000000001
#
# number of rings (size 3 to 8) (size 9 to 14) (size 15 to 20)
#    0.000    1.250    1.250    4.500    1.750    5.500 
#    0.000    0.000    0.000    0.000    0.000    0.000 
#    0.000    0.000    0.000    0.000    0.000    0.000 
#
# Total GULP energy -179166.002044 kJ/mol
# GULP energy per Si atom -5598.937564 kJ/mol
# Density = 2.220904 g / cm^3
# Si number density = 22.259702 Si / 1000 Ang^3
#
#
#
# Elastic Constant Matrix: (Units=GPa)
#
#
# Indices 1 2 3 4 5 6 
#
# 1 87.5755 9.1946 -8.7137 0.0000 -3.6847 0.0000
# 2 9.1946 135.5068 1.2627 0.0000 -6.6896 0.0000
# 3 -8.7137 1.2627 35.5448 0.0000 -0.8034 0.0000
# 4 0.0000 0.0000 0.0000 26.2074 0.0000 3.5027
# 5 -3.6847 -6.6896 -0.8034 0.0000 36.6081 0.0000
# 6 0.0000 0.0000 0.0000 3.5027 0.0000 43.0117
#
#
#
# Elastic Compliance Matrix: (Units=1/GPa)
#
#
# Indices 1 2 3 4 5 6 
#
# 1 0.011841 -0.000776 0.002956 0.000000 0.001115 0.000000
# 2 -0.000776 0.007500 -0.000428 0.000000 0.001283 0.000000
# 3 0.002956 -0.000428 0.028893 0.000000 0.000853 0.000000
# 4 0.000000 0.000000 0.000000 0.038577 0.000000 -0.003142
# 5 0.001115 0.001283 0.000853 0.000000 0.027682 0.000000
# 6 0.000000 0.000000 0.000000 -0.003142 0.000000 0.023505
#
#
# Mechanical properties :
#
#
# Convention : Reuss Voigt Hill
#
# Bulk Modulus (GPa) = 19.32840 29.12381 24.22611
# Shear Modulus (GPa) = 32.95125 38.29100 35.62112
#
# Velocity S-wave (km/s) = 3.85165 4.15202 4.00465
# Velocity P-wave (km/s) = 5.33688 6.00814 5.68243
#
# Compressibility (1/GPa) = 0.05173734
#
# Stress axis : x y z
#
# Youngs Moduli (GPa) = 84.45108 133.33905 34.61101
#
# Poissons Ratio (x) = 0.10347 -0.10230
# Poissons Ratio (y) = 0.06553 0.01480
# Poissons Ratio (z) = -0.24960 0.05702
#
# Static dielectric constant tensor:
#      x y z
#    x 1.791710 0.000000 0.020150 
#    y 0.000000 1.749810 0.000000 
#    z 0.020150 0.000000 1.870780 
# 
# From -- ./inp_files/51650.got.cif
#   From: 2010.05.17/outbox.cif.g08.bks.cpg/sg11_26_cif.got.tgz:51650.got - 2010.06.03 12:22:45.
