data_PCOD9164409
_publ_section_title
;
Structure prediction by ZEFSAII (Michael W. Deem and Ramdas Pophale) SiO2 
 PCOD9164409
Probable space group: P 21/M
;
_chemical_formula_sum "Si O2"
_cell_formula_units_Z 32
_cell_length_a 12.177721
_cell_length_b 26.716887
_cell_length_c 12.149485
_cell_angle_alpha 90.000000
_cell_angle_beta 154.274123
_cell_angle_gamma 90.000000
_cell_volume 1715.795457
_symmetry_space_group_name_H-M "P 21/M"
_symmetry_group_IT_number 11
_symmetry_cell_setting 'monoclinic'
loop_
_space_group_symop_operation_xyz
x,y,z
-x,1/2+y,-z
-x,-y,-z
x,1/2-y,z
loop_
_atom_site_type_symbol
_atom_site_label
_atom_site_fract_x
_atom_site_fract_y
_atom_site_fract_z
Si Si1 0.456983 0.125377 0.192956
Si Si2 0.683919 0.023870 0.324766
Si Si3 0.226817 0.805756 0.676789
Si Si4 0.915811 0.695666 0.173502
Si Si5 0.483776 0.189847 0.673223
Si Si6 0.812144 0.036424 0.184516
Si Si7 0.929755 0.350701 0.233490
Si Si8 0.595269 0.306243 0.522421
O O1 0.578653 0.071623 0.295586
O O2 0.166104 0.137099 0.908471
O O3 0.492359 0.155244 0.338896
O O4 0.564987 0.158706 0.189395
O O5 0.752158 0.040636 0.261273
O O6 0.941632 0.999441 0.603226
O O7 0.446126 0.985825 0.100260
O O8 0.320457 0.750000 0.787812
O O9 0.111057 0.828894 0.681153
O O10 0.033982 0.801774 0.401303
O O11 0.769463 0.750000 0.032470
O O12 0.116794 0.698693 0.256631
O O13 0.456798 0.250000 0.660305
O O14 0.558784 0.178290 0.614792
O O15 0.212972 0.164464 0.453498
O O16 0.710587 0.171840 0.957295
O O17 0.885563 0.089929 0.201809
O O18 0.483417 0.250000 0.411639
#
# Coordination Sequence:
#
# PCOD9164409 Si02
#       8
#     4   4   4   4   4   4   4   4
#     4  11  20  34  62  90 120 161 196 259 315 367
#     4  10  22  37  64  89 122 153 208 254 308 371
#     4  10  21  34  52  90 127 155 190 242 314 385
#     4   9  19  33  56  86 123 158 194 245 312 372
#     4  11  25  42  64  92 123 170 216 246 290 366
#     4  10  22  41  59  90 121 163 202 255 304 367
#     4  12  24  42  65  87 128 169 205 252 305 365
#     4   9  21  39  58  88 124 161 211 255 298 366
#
# _framework density 18.650241999999999
#
# number of rings (size 3 to 8) (size 9 to 14) (size 15 to 20)
#    0.000    1.750    1.250    3.750    7.000    1.000 
#    0.000    0.000    0.000    4.500    0.000    0.000 
#    0.000    0.000    0.000    0.000    0.000    0.000 
#
# Total GULP energy -178140.260198 kJ/mol
# GULP energy per Si atom -5566.883131 kJ/mol
# Density = 1.860779 g / cm^3
# Si number density = 18.650242 Si / 1000 Ang^3
#
#
#
# Elastic Constant Matrix: (Units=GPa)
#
#
# Indices 1 2 3 4 5 6 
#
# 1 109.3298 52.8886 66.4348 0.0000 -45.0257 0.0000
# 2 52.8886 94.8265 16.0645 0.0000 18.0744 0.0000
# 3 66.4348 16.0645 47.8958 0.0000 53.2246 0.0000
# 4 0.0000 0.0000 0.0000 20.2785 0.0000 7.1000
# 5 -45.0257 18.0744 53.2246 0.0000 -53.7480 0.0000
# 6 0.0000 0.0000 0.0000 7.1000 0.0000 21.1542
#
#
#
# Elastic Compliance Matrix: (Units=1/GPa)
#
#
# Indices 1 2 3 4 5 6 
#
# 1 0.007576 -0.002573 -0.000777 0.000000 -0.007981 0.000000
# 2 -0.002573 0.012054 -0.003511 0.000000 0.002732 0.000000
# 3 -0.000777 -0.003511 0.011294 0.000000 0.010654 0.000000
# 4 0.000000 0.000000 0.000000 0.055880 0.000000 -0.018755
# 5 -0.007981 0.002732 0.010654 0.000000 -0.000450 0.000000
# 6 0.000000 0.000000 0.000000 -0.018755 0.000000 0.053567
#
#
# Mechanical properties :
#
#
# Convention : Reuss Voigt Hill
#
# Bulk Modulus (GPa) = 58.12552 58.09197 58.10874
# Shear Modulus (GPa) = 31.37216 5.31455 18.34335
#
# Velocity S-wave (km/s) = 4.10583 1.68990 3.13955
# Velocity P-wave (km/s) = 7.32877 5.91806 6.66087
#
# Compressibility (1/GPa) = 0.01720415
#
# Stress axis : x y z
#
# Youngs Moduli (GPa) = 131.99029 82.95661 88.54200
#
# Poissons Ratio (x) = 0.21343 0.06878
# Poissons Ratio (y) = 0.33958 0.31085
# Poissons Ratio (z) = 0.10253 0.29125
#
# Static dielectric constant tensor:
#      x y z
#    x 1.615190 0.000000 0.040110 
#    y 0.000000 1.663330 0.000000 
#    z 0.040110 0.000000 1.737080 
# 
# From -- ./inp_files/36575.got.cif
#   From: 2010.05.17/outbox.cif.g08.bks.cpg/sg11_19_cif.got.tgz:36575.got - 2010.06.03 12:22:45.
