data_PCOD9164867
_publ_section_title
;
Structure prediction by ZEFSAII (Michael W. Deem and Ramdas Pophale) SiO2 
 PCOD9164867
Probable space group: P 21/M
;
_chemical_formula_sum "Si O2"
_cell_formula_units_Z 24
_cell_length_a 6.807318
_cell_length_b 26.253011
_cell_length_c 6.464280
_cell_angle_alpha 90.000000
_cell_angle_beta 67.511744
_cell_angle_gamma 90.000000
_cell_volume 1067.400807
_symmetry_space_group_name_H-M "P 21/M"
_symmetry_group_IT_number 11
_symmetry_cell_setting 'monoclinic'
loop_
_space_group_symop_operation_xyz
x,y,z
-x,1/2+y,-z
-x,-y,-z
x,1/2-y,z
loop_
_atom_site_type_symbol
_atom_site_label
_atom_site_fract_x
_atom_site_fract_y
_atom_site_fract_z
Si Si1 0.359940 0.128677 0.619624
Si Si2 0.778465 0.531134 0.069698
Si Si3 0.400115 0.930192 0.800894
Si Si4 0.017800 0.103014 0.284845
Si Si5 0.978212 0.691285 0.048439
Si Si6 0.248641 0.869510 0.236524
O O1 0.248202 0.078747 0.765897
O O2 0.433406 0.109422 0.365906
O O3 0.210254 0.176781 0.717191
O O4 0.566933 0.141911 0.675154
O O5 0.590335 0.491521 0.195127
O O6 0.000000 0.500000 0.000000
O O7 0.804506 0.560424 0.839782
O O8 0.197452 0.919324 0.732123
O O9 0.331500 0.914684 0.058508
O O10 0.954191 0.114265 0.544596
O O11 0.054916 0.154778 0.137974
O O12 0.984985 0.750000 0.990447
O O13 0.184429 0.673526 0.096623
#
# Coordination Sequence:
#
# PCOD9164867 Si02
#       6
#     4   4   4   4   4   4
#     4  10  21  37  57  85 120 150 188 238 280 330
#     4   9  17  33  57  83 117 158 190 226 274 329
#     4   9  18  34  55  83 118 152 187 224 272 337
#     4   8  18  36  56  82 114 144 185 237 280 329
#     4  10  22  40  61  82 107 145 190 238 292 343
#     4  10  21  38  58  82 113 147 185 235 286 335
#
# _framework density 22.484524
#
# number of rings (size 3 to 8) (size 9 to 14) (size 15 to 20)
#    0.000    2.667    0.000    1.500    0.000    5.333 
#    0.000   10.000    0.000    0.000    0.000    0.000 
#    0.000    0.000    0.000    0.000    0.000    0.000 
#
# Total GULP energy -133831.935374 kJ/mol
# GULP energy per Si atom -5576.330641 kJ/mol
# Density = 2.243335 g / cm^3
# Si number density = 22.484524 Si / 1000 Ang^3
#
#
#
# Elastic Constant Matrix: (Units=GPa)
#
#
# Indices 1 2 3 4 5 6 
#
# 1 54.0055 3.8995 -4.1385 0.0000 -0.2384 0.0000
# 2 3.8995 115.7643 13.1945 0.0000 -10.1509 0.0000
# 3 -4.1385 13.1945 106.0007 0.0000 -7.9367 0.0000
# 4 0.0000 0.0000 0.0000 16.2685 0.0000 -3.4243
# 5 -0.2384 -10.1509 -7.9367 0.0000 34.3362 0.0000
# 6 0.0000 0.0000 0.0000 -3.4243 0.0000 22.6151
#
#
#
# Elastic Compliance Matrix: (Units=1/GPa)
#
#
# Indices 1 2 3 4 5 6 
#
# 1 0.018632 -0.000712 0.000824 0.000000 0.000109 0.000000
# 2 -0.000712 0.008985 -0.000964 0.000000 0.002428 0.000000
# 3 0.000824 -0.000964 0.009734 0.000000 0.001971 0.000000
# 4 0.000000 0.000000 0.000000 0.063492 0.000000 0.009614
# 5 0.000109 0.002428 0.001971 0.000000 0.030298 0.000000
# 6 0.000000 0.000000 0.000000 0.009614 0.000000 0.045674
#
#
# Mechanical properties :
#
#
# Convention : Reuss Voigt Hill
#
# Bulk Modulus (GPa) = 28.05347 33.52016 30.78682
# Shear Modulus (GPa) = 26.26040 32.16496 29.21268
#
# Velocity S-wave (km/s) = 3.42121 3.78635 3.60840
# Velocity P-wave (km/s) = 5.30190 5.83573 5.57521
#
# Compressibility (1/GPa) = 0.03564621
#
# Stress axis : x y z
#
# Youngs Moduli (GPa) = 53.67200 111.29560 102.73623
#
# Poissons Ratio (x) = 0.07924 -0.08468
# Poissons Ratio (y) = 0.03821 0.09908
# Poissons Ratio (z) = -0.04424 0.10733
#
# Static dielectric constant tensor:
#      x y z
#    x 2.023600 0.000000 -0.022610 
#    y 0.000000 1.779720 0.000000 
#    z -0.022610 0.000000 1.865200 
# 
# From -- ./inp_files/5329.got.cif
#   From: 2010.05.17/outbox.cif.g08.bks.cpg/sg11_3_cif.got.tgz:5329.got - 2010.06.03 12:22:45.
