data_PCOD9164847
_publ_section_title
;
Structure prediction by ZEFSAII (Michael W. Deem and Ramdas Pophale) SiO2 
 PCOD9164847
Probable space group: P 21/M
;
_chemical_formula_sum "Si O2"
_cell_formula_units_Z 28
_cell_length_a 14.674836
_cell_length_b 9.136816
_cell_length_c 22.120586
_cell_angle_alpha 90.000000
_cell_angle_beta 31.060191
_cell_angle_gamma 90.000000
_cell_volume 1530.250421
_symmetry_space_group_name_H-M "P 21/M"
_symmetry_group_IT_number 11
_symmetry_cell_setting 'monoclinic'
loop_
_space_group_symop_operation_xyz
x,y,z
-x,1/2+y,-z
-x,-y,-z
x,1/2-y,z
loop_
_atom_site_type_symbol
_atom_site_label
_atom_site_fract_x
_atom_site_fract_y
_atom_site_fract_z
Si Si1 0.221583 0.921923 0.140678
Si Si2 0.427375 0.426073 0.393282
Si Si3 0.844327 0.423938 0.363762
Si Si4 0.071162 0.924335 0.020244
Si Si5 0.214024 0.923858 0.739839
Si Si6 0.515064 0.078725 0.896548
Si Si7 0.510964 0.424500 0.209371
O O1 0.195185 0.750000 0.143028
O O2 0.331408 0.936282 0.140725
O O3 0.037160 0.004284 0.251239
O O4 0.345916 0.992774 0.018923
O O5 0.408112 0.250000 0.408980
O O6 0.273388 0.504313 0.517441
O O7 0.615067 0.463871 0.317709
O O8 0.434858 0.464425 0.318256
O O9 0.858768 0.250000 0.364256
O O10 0.756780 0.450050 0.347659
O O11 0.048942 0.750000 0.028563
O O12 0.278774 0.954611 0.908861
O O13 0.955052 0.988233 0.140611
O O14 0.000000 0.000000 0.000000
O O15 0.181720 0.750000 0.766800
O O16 0.472441 0.250000 0.914923
O O17 0.566802 0.011046 0.802971
O O18 0.488146 0.250000 0.213917
#
# Coordination Sequence:
#
# PCOD9164847 Si02
#       7
#     4   4   4   4   4   4   4
#     4  10  21  39  61  85 115 148 182 225 284 342
#     4  10  21  39  57  76 113 156 191 228 276 336
#     4  11  23  37  58  86 112 144 191 240 280 324
#     4  11  21  34  54  81 113 147 185 227 276 329
#     4  10  21  38  56  80 114 149 189 234 280 331
#     4  10  21  37  61  90 115 142 181 233 283 331
#     4  10  21  37  57  82 114 154 190 225 280 338
#
# _framework density 18.297658999999999
#
# number of rings (size 3 to 8) (size 9 to 14) (size 15 to 20)
#    0.000    1.714    1.429    3.000    0.000    7.429 
#    0.000    0.714    0.000    0.000    0.000    0.000 
#    0.000    0.000    0.000    0.000    0.000    0.000 
#
# Total GULP energy -156480.840452 kJ/mol
# GULP energy per Si atom -5588.601445 kJ/mol
# Density = 1.825601 g / cm^3
# Si number density = 18.297659 Si / 1000 Ang^3
#
#
#
# Elastic Constant Matrix: (Units=GPa)
#
#
# Indices 1 2 3 4 5 6 
#
# 1 71.0417 45.5201 38.7996 0.0000 28.6974 0.0000
# 2 45.5201 52.1493 42.0395 0.0000 18.1793 0.0000
# 3 38.7996 42.0395 98.3162 0.0000 26.8357 0.0000
# 4 0.0000 0.0000 0.0000 35.6608 0.0000 2.9452
# 5 28.6974 18.1793 26.8357 0.0000 27.1857 0.0000
# 6 0.0000 0.0000 0.0000 2.9452 0.0000 28.3698
#
#
#
# Elastic Compliance Matrix: (Units=1/GPa)
#
#
# Indices 1 2 3 4 5 6 
#
# 1 0.043656 -0.031216 0.004107 0.000000 -0.029263 0.000000
# 2 -0.031216 0.053659 -0.013449 0.000000 0.010345 0.000000
# 3 0.004107 -0.013449 0.017835 0.000000 -0.012947 0.000000
# 4 0.000000 0.000000 0.000000 0.028285 0.000000 -0.002936
# 5 -0.029263 0.010345 -0.012947 0.000000 0.073537 0.000000
# 6 0.000000 0.000000 0.000000 -0.002936 0.000000 0.035554
#
#
# Mechanical properties :
#
#
# Convention : Reuss Voigt Hill
#
# Bulk Modulus (GPa) = 29.38263 52.69174 41.03719
# Shear Modulus (GPa) = 14.49340 24.58646 19.53993
#
# Velocity S-wave (km/s) = 2.81746 3.66962 3.27141
# Velocity P-wave (km/s) = 5.16499 6.84210 6.06183
#
# Compressibility (1/GPa) = 0.03403371
#
# Stress axis : x y z
#
# Youngs Moduli (GPa) = 22.90661 18.63636 56.06856
#
# Poissons Ratio (x) = 0.58175 -0.23026
# Poissons Ratio (y) = 0.71504 0.75406
# Poissons Ratio (z) = -0.09407 0.25064
#
# Static dielectric constant tensor:
#      x y z
#    x 1.637850 0.000000 0.013020 
#    y 0.000000 1.605600 0.000000 
#    z 0.013020 0.000000 1.595260 
# 
# From -- ./inp_files/37863.got.cif
#   From: 2010.05.17/outbox.cif.g08.bks.cpg/sg11_19_cif.got.tgz:37863.got - 2010.06.03 12:22:45.
