data_PCOD9164164
_publ_section_title
;
Structure prediction by ZEFSAII (Michael W. Deem and Ramdas Pophale) SiO2 
 PCOD9164164
Probable space group: P 21/M
;
_chemical_formula_sum "Si O2"
_cell_formula_units_Z 32
_cell_length_a 25.084002
_cell_length_b 11.580467
_cell_length_c 18.623448
_cell_angle_alpha 90.000000
_cell_angle_beta 162.603490
_cell_angle_gamma 90.000000
_cell_volume 1617.443066
_symmetry_space_group_name_H-M "P 21/M"
_symmetry_group_IT_number 11
_symmetry_cell_setting 'monoclinic'
loop_
_space_group_symop_operation_xyz
x,y,z
-x,1/2+y,-z
-x,-y,-z
x,1/2-y,z
loop_
_atom_site_type_symbol
_atom_site_label
_atom_site_fract_x
_atom_site_fract_y
_atom_site_fract_z
Si Si1 0.471571 0.613152 0.412333
Si Si2 0.086771 0.624575 0.951101
Si Si3 0.122640 0.884261 0.736421
Si Si4 0.908247 0.374635 0.881047
Si Si5 0.232156 0.965751 0.721026
Si Si6 0.490312 0.887259 0.276110
Si Si7 0.233812 0.544673 0.445034
Si Si8 0.580154 0.376188 0.176191
O O1 0.500000 0.500000 0.500000
O O2 0.516426 0.750000 0.491541
O O3 0.553167 0.589774 0.438661
O O4 0.259425 0.615358 0.124558
O O5 0.998580 0.750000 0.825771
O O6 0.949929 0.520399 0.771445
O O7 0.168501 0.628149 0.137173
O O8 0.091517 0.750000 0.712717
O O9 0.182990 0.897126 0.730438
O O10 0.290930 0.927771 0.999517
O O11 0.941490 0.955028 0.515839
O O12 0.010604 0.250000 0.007972
O O13 0.791050 0.380902 0.659095
O O14 0.000000 0.500000 0.000000
O O15 0.287525 0.897611 0.720581
O O16 0.413769 0.037497 0.967418
O O17 0.490810 0.750000 0.267390
O O18 0.627388 0.945831 0.398573
O O19 0.307357 0.612670 0.606779
O O20 0.500442 0.250000 0.065689
#
# Coordination Sequence:
#
# PCOD9164164 Si02
#       8
#     4   4   4   4   4   4   4   4
#     4  10  21  39  61  85 121 158 199 251 301 359
#     4   9  19  35  57  83 112 150 197 241 287 345
#     4  10  20  39  64  88 115 153 202 247 296 358
#     4   9  18  33  54  79 111 150 190 234 285 344
#     4  10  22  40  62  85 117 156 195 244 307 361
#     4  10  21  36  58  88 119 155 199 247 292 351
#     4  11  20  35  56  87 119 155 190 242 295 355
#     4  11  23  39  58  88 122 154 195 247 305 364
#
# _framework density 19.784313000000001
#
# number of rings (size 3 to 8) (size 9 to 14) (size 15 to 20)
#    0.000    2.000    1.250    2.250    1.750    0.500 
#    0.000    7.500    0.000    0.000    0.000    0.000 
#    0.000    0.000    0.000    0.000    0.000    0.000 
#
# Total GULP energy -178158.789061 kJ/mol
# GULP energy per Si atom -5567.462158 kJ/mol
# Density = 1.973928 g / cm^3
# Si number density = 19.784313 Si / 1000 Ang^3
#
#
#
# Elastic Constant Matrix: (Units=GPa)
#
#
# Indices 1 2 3 4 5 6 
#
# 1 67.1645 12.6132 8.6893 0.0000 -6.8821 0.0000
# 2 12.6132 80.3307 19.4797 0.0000 -5.2770 0.0000
# 3 8.6893 19.4797 58.0988 0.0000 -3.8903 0.0000
# 4 0.0000 0.0000 0.0000 23.1863 0.0000 -1.8078
# 5 -6.8821 -5.2770 -3.8903 0.0000 29.5712 0.0000
# 6 0.0000 0.0000 0.0000 -1.8078 0.0000 15.4440
#
#
#
# Elastic Compliance Matrix: (Units=1/GPa)
#
#
# Indices 1 2 3 4 5 6 
#
# 1 0.015762 -0.001903 -0.001510 0.000000 0.003130 0.000000
# 2 -0.001903 0.013880 -0.004270 0.000000 0.001472 0.000000
# 3 -0.001510 -0.004270 0.018962 0.000000 0.001381 0.000000
# 4 0.000000 0.000000 0.000000 0.043526 0.000000 0.005095
# 5 0.003130 0.001472 0.001381 0.000000 0.034990 0.000000
# 6 0.000000 0.000000 0.000000 0.005095 0.000000 0.065346
#
#
# Mechanical properties :
#
#
# Convention : Reuss Voigt Hill
#
# Bulk Modulus (GPa) = 30.08663 31.90651 30.99657
# Shear Modulus (GPa) = 22.84022 24.62774 23.73398
#
# Velocity S-wave (km/s) = 3.40142 3.53202 3.46733
# Velocity P-wave (km/s) = 5.53774 5.72675 5.63304
#
# Compressibility (1/GPa) = 0.03323736
#
# Stress axis : x y z
#
# Youngs Moduli (GPa) = 63.44262 72.04800 52.73663
#
# Poissons Ratio (x) = 0.13712 0.07962
# Poissons Ratio (y) = 0.12075 0.22521
# Poissons Ratio (z) = 0.09578 0.30768
#
# Static dielectric constant tensor:
#      x y z
#    x 1.725310 0.000000 -0.019140 
#    y 0.000000 1.706630 0.000000 
#    z -0.019140 0.000000 1.698430 
# 
# From -- ./inp_files/62003.got.cif
#   From: 2010.05.17/outbox.cif.g08.bks.cpg/sg11_32_cif.got.tgz:62003.got - 2010.06.03 12:22:45.
