data_PCOD9164528
_publ_section_title
;
Structure prediction by ZEFSAII (Michael W. Deem and Ramdas Pophale) SiO2 
 PCOD9164528
Probable space group: P 21/M
;
_chemical_formula_sum "Si O2"
_cell_formula_units_Z 32
_cell_length_a 12.603211
_cell_length_b 8.299803
_cell_length_c 32.878268
_cell_angle_alpha 90.000000
_cell_angle_beta 27.869952
_cell_angle_gamma 90.000000
_cell_volume 1607.711815
_symmetry_space_group_name_H-M "P 21/M"
_symmetry_group_IT_number 11
_symmetry_cell_setting 'monoclinic'
loop_
_space_group_symop_operation_xyz
x,y,z
-x,1/2+y,-z
-x,-y,-z
x,1/2-y,z
loop_
_atom_site_type_symbol
_atom_site_label
_atom_site_fract_x
_atom_site_fract_y
_atom_site_fract_z
Si Si1 0.293102 0.555990 0.016560
Si Si2 0.475184 0.057078 0.252212
Si Si3 0.047929 0.053211 0.345339
Si Si4 0.870810 0.055669 0.318325
Si Si5 0.388895 0.555748 0.455016
Si Si6 0.965435 0.942091 0.057537
Si Si7 0.196772 0.444958 0.136501
Si Si8 0.738612 0.056371 0.590879
O O1 0.299105 0.750000 0.012786
O O2 0.168194 0.506152 0.100420
O O3 0.160180 0.495094 0.022200
O O4 0.553837 0.500830 0.932634
O O5 0.485716 0.250000 0.246591
O O6 0.285788 0.000110 0.283830
O O7 0.720899 0.990191 0.157947
O O8 0.385407 0.009019 0.327167
O O9 0.051175 0.250000 0.344111
O O10 0.991231 0.999536 0.318932
O O11 0.841254 0.002791 0.444594
O O12 0.878563 0.250000 0.316082
O O13 0.007484 0.999181 0.232298
O O14 0.610986 0.003999 0.402810
O O15 0.390416 0.750000 0.455001
O O16 0.380837 0.503147 0.410694
O O17 0.981195 0.750000 0.052017
O O18 0.000000 0.000000 0.000000
O O19 0.195974 0.250000 0.135922
O O20 0.736273 0.250000 0.593081
O O21 0.000000 0.000000 0.500000
#
# Coordination Sequence:
#
# PCOD9164528 Si02
#       8
#     4   4   4   4   4   4   4   4
#     4   9  20  39  61  82 114 153 189 235 296 353
#     4  11  23  41  65  90 121 164 205 249 306 362
#     4   9  19  38  60  82 115 158 197 238 297 358
#     4  10  21  35  58  87 113 147 198 246 289 350
#     4  10  21  38  57  82 119 158 196 240 297 352
#     4  11  25  43  64  93 124 159 201 248 304 364
#     4   9  19  36  59  86 111 146 194 241 291 351
#     4  11  22  39  62  90 124 162 206 254 301 361
#
# _framework density 19.904064000000002
#
# number of rings (size 3 to 8) (size 9 to 14) (size 15 to 20)
#    0.000    2.000    1.250    1.500    3.500    2.500 
#    0.000    1.250    0.000    0.000    0.000    0.000 
#    0.000    0.000    0.000    0.000    0.000    0.000 
#
# Total GULP energy -178754.679674 kJ/mol
# GULP energy per Si atom -5586.083740 kJ/mol
# Density = 1.985876 g / cm^3
# Si number density = 19.904064 Si / 1000 Ang^3
#
#
#
# Elastic Constant Matrix: (Units=GPa)
#
#
# Indices 1 2 3 4 5 6 
#
# 1 119.9301 11.9809 17.9513 0.0000 9.5772 0.0000
# 2 11.9809 16.3225 4.9344 0.0000 1.2590 0.0000
# 3 17.9513 4.9344 67.4363 0.0000 8.0779 0.0000
# 4 0.0000 0.0000 0.0000 30.8987 0.0000 -0.0669
# 5 9.5772 1.2590 8.0779 0.0000 22.7703 0.0000
# 6 0.0000 0.0000 0.0000 -0.0669 0.0000 26.5891
#
#
#
# Elastic Compliance Matrix: (Units=1/GPa)
#
#
# Indices 1 2 3 4 5 6 
#
# 1 0.009453 -0.006191 -0.001700 0.000000 -0.003030 0.000000
# 2 -0.006191 0.066786 -0.003246 0.000000 0.000063 0.000000
# 3 -0.001700 -0.003246 0.016096 0.000000 -0.004815 0.000000
# 4 0.000000 0.000000 0.000000 0.032364 0.000000 0.000081
# 5 -0.003030 0.000063 -0.004815 0.000000 0.046896 0.000000
# 6 0.000000 0.000000 0.000000 0.000081 0.000000 0.037610
#
#
# Mechanical properties :
#
#
# Convention : Reuss Voigt Hill
#
# Bulk Modulus (GPa) = 14.27359 30.38024 22.32692
# Shear Modulus (GPa) = 19.62065 27.30643 23.46354
#
# Velocity S-wave (km/s) = 3.14309 3.70794 3.43714
# Velocity P-wave (km/s) = 4.51207 5.79898 5.19553
#
# Compressibility (1/GPa) = 0.07005945
#
# Stress axis : x y z
#
# Youngs Moduli (GPa) = 105.78452 14.97321 62.12797
#
# Poissons Ratio (x) = 0.09270 0.10564
# Poissons Ratio (y) = 0.65491 0.20169
# Poissons Ratio (z) = 0.17987 0.04861
#
# Static dielectric constant tensor:
#      x y z
#    x 1.699850 0.000000 -0.004660 
#    y 0.000000 1.697620 0.000000 
#    z -0.004660 0.000000 1.663940 
# 
# From -- ./inp_files/73030.got.cif
#   From: 2010.05.17/outbox.cif.g08.bks.cpg/sg11_37_cif.got.tgz:73030.got - 2010.06.03 12:22:45.
