data_PCOD9164219
_publ_section_title
;
Structure prediction by ZEFSAII (Michael W. Deem and Ramdas Pophale) SiO2 
 PCOD9164219
Probable space group: P 21/M
;
_chemical_formula_sum "Si O2"
_cell_formula_units_Z 32
_cell_length_a 8.815421
_cell_length_b 13.896667
_cell_length_c 23.607830
_cell_angle_alpha 90.000000
_cell_angle_beta 33.460878
_cell_angle_gamma 90.000000
_cell_volume 1594.596916
_symmetry_space_group_name_H-M "P 21/M"
_symmetry_group_IT_number 11
_symmetry_cell_setting 'monoclinic'
loop_
_space_group_symop_operation_xyz
x,y,z
-x,1/2+y,-z
-x,-y,-z
x,1/2-y,z
loop_
_atom_site_type_symbol
_atom_site_label
_atom_site_fract_x
_atom_site_fract_y
_atom_site_fract_z
Si Si1 0.740731 0.865010 0.568461
Si Si2 0.819912 0.932221 0.237672
Si Si3 0.647786 0.482645 0.394887
Si Si4 0.970205 0.858377 0.857706
Si Si5 0.705253 0.365509 0.665492
Si Si6 0.517169 0.358545 0.229559
Si Si7 0.250433 0.508762 0.238087
Si Si8 0.620769 0.358306 0.906693
O O1 0.711027 0.750000 0.573813
O O2 0.540715 0.912513 0.584302
O O3 0.646844 0.889740 0.661770
O O4 0.054100 0.889563 0.454789
O O5 0.587930 0.904835 0.265105
O O6 0.096739 0.871232 0.146670
O O7 0.688553 0.923912 0.341425
O O8 0.919494 0.043960 0.204918
O O9 0.500000 0.500000 0.500000
O O10 0.961266 0.457569 0.313923
O O11 0.010521 0.750000 0.819223
O O12 0.162651 0.856551 0.853436
O O13 0.651464 0.871088 0.971236
O O14 0.692302 0.250000 0.674761
O O15 0.785688 0.414538 0.699738
O O16 0.428777 0.250000 0.244090
O O17 0.455377 0.429726 0.198463
O O18 0.361301 0.564485 0.148984
O O19 0.609739 0.250000 0.886624
#
# Coordination Sequence:
#
# PCOD9164219 Si02
#       8
#     4   4   4   4   4   4   4   4
#     4  10  21  38  59  84 120 162 203 241 290 355
#     4  11  22  39  62  89 117 157 205 251 291 357
#     4  11  22  35  55  84 117 155 191 239 296 350
#     4  10  20  39  67  88 115 157 203 250 306 354
#     4  11  22  37  59  86 118 162 202 242 290 355
#     4  10  21  39  62  89 117 154 202 248 294 355
#     4  11  22  37  60  84 122 159 191 249 303 358
#     4  10  23  41  61  89 122 157 198 251 307 361
#
# _framework density 20.067768000000001
#
# number of rings (size 3 to 8) (size 9 to 14) (size 15 to 20)
#    0.000    1.500    3.750    1.125    1.750    2.000 
#    0.000    2.500    0.000    0.750    0.000    0.000 
#    0.000    0.000    0.000    0.000    0.000    0.000 
#
# Total GULP energy -178498.217181 kJ/mol
# GULP energy per Si atom -5578.069287 kJ/mol
# Density = 2.002209 g / cm^3
# Si number density = 20.067768 Si / 1000 Ang^3
#
#
#
# Elastic Constant Matrix: (Units=GPa)
#
#
# Indices 1 2 3 4 5 6 
#
# 1 87.6753 25.8198 28.7582 0.0000 -19.8065 0.0000
# 2 25.8198 93.4902 30.7356 0.0000 -5.1795 0.0000
# 3 28.7582 30.7356 83.8331 0.0000 -24.8708 0.0000
# 4 0.0000 0.0000 0.0000 26.6557 0.0000 -0.6596
# 5 -19.8065 -5.1795 -24.8708 0.0000 23.9001 0.0000
# 6 0.0000 0.0000 0.0000 -0.6596 0.0000 30.0411
#
#
#
# Elastic Compliance Matrix: (Units=1/GPa)
#
#
# Indices 1 2 3 4 5 6 
#
# 1 0.015118 -0.003341 -0.000664 0.000000 0.011114 0.000000
# 2 -0.003341 0.013041 -0.005234 0.000000 -0.005389 0.000000
# 3 -0.000664 -0.005234 0.019638 0.000000 0.018751 0.000000
# 4 0.000000 0.000000 0.000000 0.037536 0.000000 0.000824
# 5 0.011114 -0.005389 0.018751 0.000000 0.069396 0.000000
# 6 0.000000 0.000000 0.000000 0.000824 0.000000 0.033306
#
#
# Mechanical properties :
#
#
# Convention : Reuss Voigt Hill
#
# Bulk Modulus (GPa) = 34.10767 48.40287 41.25527
# Shear Modulus (GPa) = 23.11754 28.09839 25.60797
#
# Velocity S-wave (km/s) = 3.39776 3.74595 3.57609
# Velocity P-wave (km/s) = 5.69440 6.54840 6.13627
#
# Compressibility (1/GPa) = 0.02931892
#
# Stress axis : x y z
#
# Youngs Moduli (GPa) = 66.14568 76.68001 50.92155
#
# Poissons Ratio (x) = 0.25621 0.03382
# Poissons Ratio (y) = 0.22101 0.26652
# Poissons Ratio (z) = 0.04393 0.40134
#
# Static dielectric constant tensor:
#      x y z
#    x 1.708230 0.000000 -0.003460 
#    y 0.000000 1.745320 0.000000 
#    z -0.003460 0.000000 1.737460 
# 
# From -- ./inp_files/63805.got.cif
#   From: 2010.05.17/outbox.cif.g08.bks.cpg/sg11_32_cif.got.tgz:63805.got - 2010.06.03 12:22:45.
