data_PCOD9164107
_publ_section_title
;
Structure prediction by ZEFSAII (Michael W. Deem and Ramdas Pophale) SiO2 
 PCOD9164107
Probable space group: P 21/M
;
_chemical_formula_sum "Si O2"
_cell_formula_units_Z 28
_cell_length_a 15.662948
_cell_length_b 11.151726
_cell_length_c 10.001949
_cell_angle_alpha 90.000000
_cell_angle_beta 122.686621
_cell_angle_gamma 90.000000
_cell_volume 1470.364487
_symmetry_space_group_name_H-M "P 21/M"
_symmetry_group_IT_number 11
_symmetry_cell_setting 'monoclinic'
loop_
_space_group_symop_operation_xyz
x,y,z
-x,1/2+y,-z
-x,-y,-z
x,1/2-y,z
loop_
_atom_site_type_symbol
_atom_site_label
_atom_site_fract_x
_atom_site_fract_y
_atom_site_fract_z
Si Si1 0.637140 0.382431 0.636229
Si Si2 0.931020 0.880999 0.799109
Si Si3 0.842897 0.445279 0.946698
Si Si4 0.225338 0.118579 0.877400
Si Si5 0.933705 0.612648 0.491145
Si Si6 0.416007 0.114016 0.578194
Si Si7 0.564819 0.884413 0.090961
O O1 0.629440 0.250000 0.562121
O O2 0.741001 0.382506 0.808342
O O3 0.634239 0.500422 0.539214
O O4 0.536363 0.392960 0.643420
O O5 0.891211 0.750000 0.799700
O O6 0.881010 0.975045 0.854893
O O7 0.908636 0.905376 0.625215
O O8 0.053191 0.880549 0.921661
O O9 0.809183 0.522058 0.045707
O O10 0.205012 0.250000 0.919643
O O11 0.161946 0.110411 0.687352
O O12 0.340887 0.111499 0.930138
O O13 0.977620 0.750000 0.517199
O O14 0.000000 0.500000 0.500000
O O15 0.382483 0.250000 0.508669
O O16 0.402537 0.105450 0.726134
O O17 0.517485 0.750000 0.038000
O O18 0.500000 0.000000 0.000000
#
# Coordination Sequence:
#
# PCOD9164107 Si02
#       7
#     4   4   4   4   4   4   4
#     4  10  21  37  58  85 117 152 191 240 289 338
#     4  10  22  37  57  83 115 153 194 237 287 344
#     4  11  21  36  58  84 117 149 195 236 292 338
#     4  10  21  36  59  86 117 152 194 237 284 346
#     4  10  20  39  60  84 114 151 192 238 288 342
#     4   9  20  38  59  84 115 155 195 234 285 347
#     4  10  21  38  60  86 117 152 192 239 289 340
#
# _framework density 19.042897
#
# number of rings (size 3 to 8) (size 9 to 14) (size 15 to 20)
#    0.000    2.000    1.429    1.714    2.000    1.714 
#    0.000    5.000    0.000    0.000    0.000    0.000 
#    0.000    0.000    0.000    0.000    0.000    0.000 
#
# Total GULP energy -156037.530478 kJ/mol
# GULP energy per Si atom -5572.768946 kJ/mol
# Density = 1.899955 g / cm^3
# Si number density = 19.042897 Si / 1000 Ang^3
#
#
#
# Elastic Constant Matrix: (Units=GPa)
#
#
# Indices 1 2 3 4 5 6 
#
# 1 49.7312 39.1043 25.4384 0.0000 -2.1674 0.0000
# 2 39.1043 137.6844 57.8181 0.0000 -11.5136 0.0000
# 3 25.4384 57.8181 70.9626 0.0000 -4.2328 0.0000
# 4 0.0000 0.0000 0.0000 36.0541 0.0000 -13.8045
# 5 -2.1674 -11.5136 -4.2328 0.0000 30.6250 0.0000
# 6 0.0000 0.0000 0.0000 -13.8045 0.0000 37.9876
#
#
#
# Elastic Compliance Matrix: (Units=1/GPa)
#
#
# Indices 1 2 3 4 5 6 
#
# 1 0.027137 -0.005586 -0.005230 0.000000 -0.000903 0.000000
# 2 -0.005586 0.012458 -0.007957 0.000000 0.003188 0.000000
# 3 -0.005230 -0.007957 0.022435 0.000000 -0.000261 0.000000
# 4 0.000000 0.000000 0.000000 0.032219 0.000000 0.011708
# 5 -0.000903 0.003188 -0.000261 0.000000 0.033752 0.000000
# 6 0.000000 0.000000 0.000000 0.011708 0.000000 0.030579
#
#
# Mechanical properties :
#
#
# Convention : Reuss Voigt Hill
#
# Bulk Modulus (GPa) = 40.84745 55.90000 48.37373
# Shear Modulus (GPa) = 24.47532 30.00117 27.23824
#
# Velocity S-wave (km/s) = 3.58896 3.97350 3.78612
# Velocity P-wave (km/s) = 6.21860 7.10423 6.67612
#
# Compressibility (1/GPa) = 0.02448133
#
# Stress axis : x y z
#
# Youngs Moduli (GPa) = 36.85048 80.27072 44.57372
#
# Poissons Ratio (x) = 0.44843 0.23312
# Poissons Ratio (y) = 0.20586 0.35469
# Poissons Ratio (z) = 0.19273 0.63875
#
# Static dielectric constant tensor:
#      x y z
#    x 1.653980 0.000000 0.045770 
#    y 0.000000 1.700490 0.000000 
#    z 0.045770 0.000000 1.673590 
# 
# From -- ./inp_files/21610.got.cif
#   From: 2010.05.17/outbox.cif.g08.bks.cpg/sg11_11_cif.got.tgz:21610.got - 2010.06.03 12:22:45.
