data_PCOD9164785
_publ_section_title
;
Structure prediction by ZEFSAII (Michael W. Deem and Ramdas Pophale) SiO2 
 PCOD9164785
Probable space group: P 21/M
;
_chemical_formula_sum "Si O2"
_cell_formula_units_Z 32
_cell_length_a 22.906163
_cell_length_b 8.761783
_cell_length_c 28.984377
_cell_angle_alpha 90.000000
_cell_angle_beta 18.476786
_cell_angle_gamma 90.000000
_cell_volume 1843.567377
_symmetry_space_group_name_H-M "P 21/M"
_symmetry_group_IT_number 11
_symmetry_cell_setting 'monoclinic'
loop_
_space_group_symop_operation_xyz
x,y,z
-x,1/2+y,-z
-x,-y,-z
x,1/2-y,z
loop_
_atom_site_type_symbol
_atom_site_label
_atom_site_fract_x
_atom_site_fract_y
_atom_site_fract_z
Si Si1 0.002297 0.565717 0.549244
Si Si2 0.014158 0.066853 0.792720
Si Si3 0.986257 0.566316 0.061348
Si Si4 0.703395 0.566290 0.848258
Si Si5 0.997671 0.434444 0.300275
Si Si6 0.704509 0.432523 0.096879
Si Si7 0.299096 0.566459 0.401211
Si Si8 0.295364 0.567219 0.654737
O O1 0.002979 0.750000 0.546643
O O2 0.825032 0.519514 0.712674
O O3 0.000000 0.500000 0.500000
O O4 0.181335 0.517462 0.444667
O O5 0.034440 0.250000 0.780218
O O6 0.006780 0.011424 0.745964
O O7 0.826957 0.024711 0.960512
O O8 0.180157 0.990179 0.696702
O O9 0.969460 0.750000 0.073138
O O10 0.816160 0.496729 0.217495
O O11 0.000000 0.500000 0.000000
O O12 0.169334 0.526775 0.953608
O O13 0.693761 0.750000 0.855065
O O14 0.822868 0.523337 0.803864
O O15 0.500000 0.500000 0.000000
O O16 0.997015 0.250000 0.295782
O O17 0.821213 0.477939 0.463815
O O18 0.684293 0.250000 0.111792
O O19 0.504563 0.505202 0.247603
O O20 0.303448 0.750000 0.397443
O O21 0.500000 0.500000 0.500000
O O22 0.299801 0.750000 0.652610
#
# Coordination Sequence:
#
# PCOD9164785 Si02
#       8
#     4   4   4   4   4   4   4   4
#     4   9  19  35  52  74 103 135 170 213 259 308
#     4  10  21  37  55  79 109 139 174 218 264 316
#     4  10  21  38  57  81 112 145 181 222 268 320
#     4   9  19  35  53  74 104 137 174 218 264 314
#     4   9  19  36  54  75 104 139 176 217 263 314
#     4   9  20  36  53  76 107 137 170 213 259 306
#     4   9  19  35  54  75 102 135 174 214 256 308
#     4  11  22  38  59  82 109 143 181 223 269 320
#
# _framework density 17.357652000000002
#
# number of rings (size 3 to 8) (size 9 to 14) (size 15 to 20)
#    0.000    2.500    0.000    4.125    0.000    7.000 
#    0.000   10.000    0.000    0.000    0.000    0.000 
#    0.000    0.000    0.000    0.000    0.000    0.000 
#
# Total GULP energy -178549.583112 kJ/mol
# GULP energy per Si atom -5579.674472 kJ/mol
# Density = 1.731815 g / cm^3
# Si number density = 17.357652 Si / 1000 Ang^3
#
#
#
# Elastic Constant Matrix: (Units=GPa)
#
#
# Indices 1 2 3 4 5 6 
#
# 1 176.7663 60.7415 118.7646 0.0000 18.4887 0.0000
# 2 60.7415 60.3560 61.3396 0.0000 -0.3137 0.0000
# 3 118.7646 61.3396 185.1308 0.0000 -17.9513 0.0000
# 4 0.0000 0.0000 0.0000 36.9530 0.0000 -0.3367
# 5 18.4887 -0.3137 -17.9513 0.0000 18.8782 0.0000
# 6 0.0000 0.0000 0.0000 -0.3367 0.0000 35.0724
#
#
#
# Elastic Compliance Matrix: (Units=1/GPa)
#
#
# Indices 1 2 3 4 5 6 
#
# 1 0.022440 -0.006775 -0.015744 0.000000 -0.037060 0.000000
# 2 -0.006775 0.028237 -0.004760 0.000000 0.002578 0.000000
# 3 -0.015744 -0.004760 0.020452 0.000000 0.034788 0.000000
# 4 0.000000 0.000000 0.000000 0.027064 0.000000 0.000260
# 5 -0.037060 0.002578 0.034788 0.000000 0.122390 0.000000
# 6 0.000000 0.000000 0.000000 0.000260 0.000000 0.028515
#
#
# Mechanical properties :
#
#
# Convention : Reuss Voigt Hill
#
# Bulk Modulus (GPa) = 60.34528 100.43827 80.39178
# Shear Modulus (GPa) = 16.17187 30.27456 23.22322
#
# Velocity S-wave (km/s) = 3.05566 4.18085 3.66173
# Velocity P-wave (km/s) = 6.87683 9.01641 8.01830
#
# Compressibility (1/GPa) = 0.01657130
#
# Stress axis : x y z
#
# Youngs Moduli (GPa) = 44.56404 35.41448 48.89451
#
# Poissons Ratio (x) = 0.23992 0.76981
# Poissons Ratio (y) = 0.30190 0.23273
# Poissons Ratio (z) = 0.70163 0.16857
#
# Static dielectric constant tensor:
#      x y z
#    x 1.569130 0.000000 -0.000050 
#    y 0.000000 1.584660 0.000000 
#    z -0.000050 0.000000 1.569890 
# 
# From -- ./inp_files/67159.got.cif
#   From: 2010.05.17/outbox.cif.g08.bks.cpg/sg11_34_cif.got.tgz:67159.got - 2010.06.03 12:22:45.
