data_PCOD9164610
_publ_section_title
;
Structure prediction by ZEFSAII (Michael W. Deem and Ramdas Pophale) SiO2 
 PCOD9164610
Probable space group: P 21/M
;
_chemical_formula_sum "Si O2"
_cell_formula_units_Z 28
_cell_length_a 21.424348
_cell_length_b 7.844947
_cell_length_c 15.851795
_cell_angle_alpha 90.000000
_cell_angle_beta 28.672834
_cell_angle_gamma 90.000000
_cell_volume 1278.330523
_symmetry_space_group_name_H-M "P 21/M"
_symmetry_group_IT_number 11
_symmetry_cell_setting 'monoclinic'
loop_
_space_group_symop_operation_xyz
x,y,z
-x,1/2+y,-z
-x,-y,-z
x,1/2-y,z
loop_
_atom_site_type_symbol
_atom_site_label
_atom_site_fract_x
_atom_site_fract_y
_atom_site_fract_z
Si Si1 0.943853 0.550835 0.328934
Si Si2 0.189654 0.955748 0.126176
Si Si3 0.650980 0.952302 0.416092
Si Si4 0.621824 0.549492 0.949513
Si Si5 0.338229 0.945703 0.287152
Si Si6 0.088266 0.456353 0.815910
Si Si7 0.642777 0.456130 0.235943
O O1 0.978744 0.750000 0.281778
O O2 0.792131 0.537810 0.529729
O O3 0.963626 0.477180 0.211911
O O4 0.041944 0.483885 0.284038
O O5 0.194644 0.750000 0.130439
O O6 0.267126 0.003125 0.948968
O O7 0.266060 0.027845 0.115190
O O8 0.643664 0.750000 0.439285
O O9 0.765746 0.020801 0.338415
O O10 0.505237 0.020473 0.601725
O O11 0.686721 0.981707 0.275716
O O12 0.606312 0.750000 0.948236
O O13 0.479394 0.488416 0.150552
O O14 0.653523 0.458370 0.824204
O O15 0.324375 0.750000 0.330032
O O16 0.093626 0.250000 0.804225
O O17 0.000000 0.500000 0.000000
O O18 0.641041 0.250000 0.242170
#
# Coordination Sequence:
#
# PCOD9164610 Si02
#       7
#     4   4   4   4   4   4   4
#     4  10  22  38  58  86 119 155 195 237 285 343
#     4  10  21  36  57  85 115 152 192 232 284 343
#     4   9  18  32  51  77 106 144 189 235 284 331
#     4  10  22  40  63  89 116 148 187 235 290 344
#     4  10  22  41  63  89 116 147 190 235 286 346
#     4  10  21  36  55  80 112 152 196 237 283 335
#     4   9  18  33  53  78 109 144 187 234 281 333
#
# _framework density 21.903569999999998
#
# number of rings (size 3 to 8) (size 9 to 14) (size 15 to 20)
#    0.000    2.286    0.000    1.714    2.000    5.714 
#    0.000    0.000    0.000    0.000    0.000    0.000 
#    0.000    0.000    0.000    0.000    0.000    0.000 
#
# Total GULP energy -156349.052247 kJ/mol
# GULP energy per Si atom -5583.894723 kJ/mol
# Density = 2.185372 g / cm^3
# Si number density = 21.903570 Si / 1000 Ang^3
#
#
#
# Elastic Constant Matrix: (Units=GPa)
#
#
# Indices 1 2 3 4 5 6 
#
# 1 129.3109 3.7790 22.8042 0.0000 -32.9552 0.0000
# 2 3.7790 26.6203 -4.0154 0.0000 -4.7294 0.0000
# 3 22.8042 -4.0154 52.0648 0.0000 -10.6938 0.0000
# 4 0.0000 0.0000 0.0000 21.5176 0.0000 0.2144
# 5 -32.9552 -4.7294 -10.6938 0.0000 22.7289 0.0000
# 6 0.0000 0.0000 0.0000 0.2144 0.0000 21.9097
#
#
#
# Elastic Compliance Matrix: (Units=1/GPa)
#
#
# Indices 1 2 3 4 5 6 
#
# 1 0.012466 0.001060 -0.001794 0.000000 0.017452 0.000000
# 2 0.001060 0.040399 0.005196 0.000000 0.012388 0.000000
# 3 -0.001794 0.005196 0.022229 0.000000 0.008939 0.000000
# 4 0.000000 0.000000 0.000000 0.046478 0.000000 -0.000455
# 5 0.017452 0.012388 0.008939 0.000000 0.076084 0.000000
# 6 0.000000 0.000000 0.000000 -0.000455 0.000000 0.045646
#
#
# Mechanical properties :
#
#
# Convention : Reuss Voigt Hill
#
# Bulk Modulus (GPa) = 11.90202 28.12575 20.01388
# Shear Modulus (GPa) = 19.05589 25.59312 22.32451
#
# Velocity S-wave (km/s) = 2.95276 3.42196 3.19598
# Velocity P-wave (km/s) = 4.13167 5.33682 4.77244
#
# Compressibility (1/GPa) = 0.08401937
#
# Stress axis : x y z
#
# Youngs Moduli (GPa) = 80.21600 24.75280 44.98568
#
# Poissons Ratio (x) = -0.02624 0.08070
# Poissons Ratio (y) = -0.08505 -0.23374
# Poissons Ratio (z) = 0.14390 -0.12861
#
# Static dielectric constant tensor:
#      x y z
#    x 1.805560 0.000000 -0.039740 
#    y 0.000000 1.806650 0.000000 
#    z -0.039740 0.000000 1.802390 
# 
# From -- ./inp_files/54480.got.cif
#   From: 2010.05.17/outbox.cif.g08.bks.cpg/sg11_28_cif.got.tgz:54480.got - 2010.06.03 12:22:45.
