data_PCOD9164184
_publ_section_title
;
Structure prediction by ZEFSAII (Michael W. Deem and Ramdas Pophale) SiO2 
 PCOD9164184
Probable space group: P 21/M
;
_chemical_formula_sum "Si O2"
_cell_formula_units_Z 28
_cell_length_a 15.084656
_cell_length_b 18.012980
_cell_length_c 5.356667
_cell_angle_alpha 90.000000
_cell_angle_beta 115.458763
_cell_angle_gamma 90.000000
_cell_volume 1314.173864
_symmetry_space_group_name_H-M "P 21/M"
_symmetry_group_IT_number 11
_symmetry_cell_setting 'monoclinic'
loop_
_space_group_symop_operation_xyz
x,y,z
-x,1/2+y,-z
-x,-y,-z
x,1/2-y,z
loop_
_atom_site_type_symbol
_atom_site_label
_atom_site_fract_x
_atom_site_fract_y
_atom_site_fract_z
Si Si1 0.731242 0.165741 0.478381
Si Si2 0.628205 0.667886 0.747581
Si Si3 0.601658 0.042457 0.068914
Si Si4 0.416845 0.668633 0.311846
Si Si5 0.953070 0.160046 0.704989
Si Si6 0.288634 0.399458 0.652340
Si Si7 0.929858 0.659758 0.654913
O O1 0.729795 0.250000 0.374715
O O2 0.647729 0.113271 0.266485
O O3 0.693149 0.172460 0.714583
O O4 0.840209 0.134753 0.581390
O O5 0.664361 0.750000 0.719254
O O6 0.510352 0.668794 0.610378
O O7 0.662486 0.615469 0.560157
O O8 0.667150 0.650217 0.069703
O O9 0.684519 0.980776 0.213181
O O10 0.578732 0.085626 0.788116
O O11 0.500000 0.000000 0.000000
O O12 0.433106 0.750000 0.198412
O O13 0.949096 0.250000 0.708989
O O14 0.006259 0.140143 0.511821
O O15 0.014258 0.137774 0.023494
O O16 0.174906 0.379691 0.488393
O O17 0.916495 0.750000 0.640040
#
# Coordination Sequence:
#
# PCOD9164184 Si02
#       7
#     4   4   4   4   4   4   4
#     4  10  23  43  69  97 127 178 232 280 330 392
#     4  11  23  41  64  96 132 177 225 269 322 396
#     4  12  25  42  64  96 142 178 219 273 342 406
#     4  10  23  41  67  94 128 174 231 280 325 394
#     4   9  20  39  68  96 126 167 225 285 326 379
#     4  12  25  40  66  97 138 181 214 271 341 407
#     4  10  20  39  64  96 129 167 222 279 332 392
#
# _framework density 21.306163000000002
#
# number of rings (size 3 to 8) (size 9 to 14) (size 15 to 20)
#    0.000    1.429    1.429    3.429    4.000    2.286 
#    0.000    1.429    0.000    0.000    0.000    0.000 
#    0.000    0.000    0.000    0.000    0.000    0.000 
#
# Total GULP energy -155955.421888 kJ/mol
# GULP energy per Si atom -5569.836496 kJ/mol
# Density = 2.125767 g / cm^3
# Si number density = 21.306163 Si / 1000 Ang^3
#
#
#
# Elastic Constant Matrix: (Units=GPa)
#
#
# Indices 1 2 3 4 5 6 
#
# 1 132.6900 21.8193 36.4764 0.0000 21.1705 0.0000
# 2 21.8193 63.7156 6.7634 0.0000 15.7589 0.0000
# 3 36.4764 6.7634 85.5659 0.0000 8.5747 0.0000
# 4 0.0000 0.0000 0.0000 36.2552 0.0000 2.2686
# 5 21.1705 15.7589 8.5747 0.0000 27.2083 0.0000
# 6 0.0000 0.0000 0.0000 2.2686 0.0000 23.8617
#
#
#
# Elastic Compliance Matrix: (Units=1/GPa)
#
#
# Indices 1 2 3 4 5 6 
#
# 1 0.009612 -0.001570 -0.003423 0.000000 -0.005490 0.000000
# 2 -0.001570 0.018589 0.000162 0.000000 -0.009596 0.000000
# 3 -0.003423 0.000162 0.013296 0.000000 -0.001620 0.000000
# 4 0.000000 0.000000 0.000000 0.027747 0.000000 -0.002638
# 5 -0.005490 -0.009596 -0.001620 0.000000 0.047094 0.000000
# 6 0.000000 0.000000 0.000000 -0.002638 0.000000 0.042159
#
#
# Mechanical properties :
#
#
# Convention : Reuss Voigt Hill
#
# Bulk Modulus (GPa) = 31.41418 45.78774 38.60096
# Shear Modulus (GPa) = 27.96890 31.92588 29.94739
#
# Velocity S-wave (km/s) = 3.62707 3.87516 3.75317
# Velocity P-wave (km/s) = 5.68481 6.44667 6.07769
#
# Compressibility (1/GPa) = 0.03183276
#
# Stress axis : x y z
#
# Youngs Moduli (GPa) = 104.04164 53.79646 75.21216
#
# Poissons Ratio (x) = 0.08447 0.25745
# Poissons Ratio (y) = 0.16336 -0.01216
# Poissons Ratio (z) = 0.35614 -0.00870
#
# Static dielectric constant tensor:
#      x y z
#    x 1.581070 0.000000 0.299580 
#    y 0.000000 1.800100 0.000000 
#    z 0.299580 0.000000 1.169200 
# 
# From -- ./inp_files/6710.got.cif
#   From: 2010.05.17/outbox.cif.g08.bks.cpg/sg11_4_cif.got.tgz:6710.got - 2010.06.03 12:22:45.
