data_PCOD9164820
_publ_section_title
;
Structure prediction by ZEFSAII (Michael W. Deem and Ramdas Pophale) SiO2 
 PCOD9164820
Probable space group: P 21/M
;
_chemical_formula_sum "Si O2"
_cell_formula_units_Z 32
_cell_length_a 29.579783
_cell_length_b 7.528729
_cell_length_c 12.027898
_cell_angle_alpha 90.000000
_cell_angle_beta 31.429861
_cell_angle_gamma 90.000000
_cell_volume 1396.763020
_symmetry_space_group_name_H-M "P 21/M"
_symmetry_group_IT_number 11
_symmetry_cell_setting 'monoclinic'
loop_
_space_group_symop_operation_xyz
x,y,z
-x,1/2+y,-z
-x,-y,-z
x,1/2-y,z
loop_
_atom_site_type_symbol
_atom_site_label
_atom_site_fract_x
_atom_site_fract_y
_atom_site_fract_z
Si Si1 0.761641 0.454344 0.977518
Si Si2 0.091832 0.032590 0.496586
Si Si3 0.386151 0.960683 0.305869
Si Si4 0.435246 0.545128 0.962009
Si Si5 0.909357 0.961936 0.249477
Si Si6 0.807614 0.961978 0.258514
Si Si7 0.904493 0.454762 0.838584
Si Si8 0.584653 0.036029 0.248537
O O1 0.744566 0.250000 0.048550
O O2 0.823638 0.461147 0.740618
O O3 0.825185 0.538700 0.936462
O O4 0.669564 0.532632 0.135541
O O5 0.092807 0.250000 0.490631
O O6 0.091282 0.970403 0.624603
O O7 0.001638 0.971688 0.629317
O O8 0.402380 0.750000 0.267022
O O9 0.462994 0.038602 0.219335
O O10 0.291937 0.993282 0.553513
O O11 0.391612 0.031494 0.166614
O O12 0.406630 0.750000 0.016524
O O13 0.420792 0.469394 0.868395
O O14 0.899865 0.750000 0.278115
O O15 0.834601 0.027343 0.324115
O O16 0.000000 0.000000 0.000000
O O17 0.818275 0.750000 0.231389
O O18 0.873207 0.041127 0.031330
O O19 0.910654 0.250000 0.788620
O O20 0.592900 0.250000 0.223586
O O21 0.500000 0.000000 0.500000
#
# Coordination Sequence:
#
# PCOD9164820 Si02
#       8
#     4   4   4   4   4   4   4   4
#     4  10  23  40  61  88 116 152 198 243 290 348
#     4  10  21  38  60  86 119 156 195 243 293 343
#     4  10  21  37  61  88 115 150 189 238 293 350
#     4   9  20  40  61  84 116 150 190 239 293 350
#     4  10  21  37  56  83 118 154 193 236 283 339
#     4  11  23  36  56  87 120 154 194 239 287 347
#     4  10  21  39  60  85 120 157 199 246 289 341
#     4  10  23  42  61  86 119 153 194 243 293 347
#
# _framework density 22.910112999999999
#
# number of rings (size 3 to 8) (size 9 to 14) (size 15 to 20)
#    0.000    2.000    1.250    1.125    3.500    3.500 
#    0.000    0.000    0.000    0.000    0.000    0.000 
#    0.000    0.000    0.000    0.000    0.000    0.000 
#
# Total GULP energy -178728.702662 kJ/mol
# GULP energy per Si atom -5585.271958 kJ/mol
# Density = 2.285797 g / cm^3
# Si number density = 22.910113 Si / 1000 Ang^3
#
#
#
# Elastic Constant Matrix: (Units=GPa)
#
#
# Indices 1 2 3 4 5 6 
#
# 1 108.2170 -1.0203 24.3203 0.0000 -1.3268 0.0000
# 2 -1.0203 67.7011 -12.9105 0.0000 2.7148 0.0000
# 3 24.3203 -12.9105 88.8099 0.0000 -24.8855 0.0000
# 4 0.0000 0.0000 0.0000 7.2514 0.0000 15.9412
# 5 -1.3268 2.7148 -24.8855 0.0000 38.9274 0.0000
# 6 0.0000 0.0000 0.0000 15.9412 0.0000 -1.8760
#
#
#
# Elastic Compliance Matrix: (Units=1/GPa)
#
#
# Indices 1 2 3 4 5 6 
#
# 1 0.009950 -0.000404 -0.003265 0.000000 -0.001720 0.000000
# 2 -0.000404 0.015214 0.002462 0.000000 0.000499 0.000000
# 3 -0.003265 0.002462 0.015146 0.000000 0.009400 0.000000
# 4 0.000000 0.000000 0.000000 0.007007 0.000000 0.059543
# 5 -0.001720 0.000499 0.009400 0.000000 0.031604 0.000000
# 6 0.000000 0.000000 0.000000 0.059543 0.000000 -0.027085
#
#
# Mechanical properties :
#
#
# Convention : Reuss Voigt Hill
#
# Bulk Modulus (GPa) = 26.38805 31.72299 29.05552
# Shear Modulus (GPa) = 74.75821 25.81645 50.28733
#
# Velocity S-wave (km/s) = 5.71856 3.36051 4.69015
# Velocity P-wave (km/s) = 7.42601 5.37905 6.48382
#
# Compressibility (1/GPa) = 0.03789594
#
# Stress axis : x y z
#
# Youngs Moduli (GPa) = 100.50600 65.72789 66.02393
#
# Poissons Ratio (x) = 0.02654 0.21559
# Poissons Ratio (y) = 0.04058 -0.16256
# Poissons Ratio (z) = 0.32819 -0.16183
#
# Static dielectric constant tensor:
#      x y z
#    x 1.900690 0.000000 0.010870 
#    y 0.000000 1.921500 0.000000 
#    z 0.010870 0.000000 1.796110 
# 
# From -- ./inp_files/37565.got.cif
#   From: 2010.05.17/outbox.cif.g08.bks.cpg/sg11_19_cif.got.tgz:37565.got - 2010.06.03 12:22:45.
