data_PCOD9164583
_publ_section_title
;
Structure prediction by ZEFSAII (Michael W. Deem and Ramdas Pophale) SiO2 
 PCOD9164583
Probable space group: P 21/M
;
_chemical_formula_sum "Si O2"
_cell_formula_units_Z 32
_cell_length_a 22.637275
_cell_length_b 8.500381
_cell_length_c 29.151438
_cell_angle_alpha 90.000000
_cell_angle_beta 161.253266
_cell_angle_gamma 90.000000
_cell_volume 1802.805121
_symmetry_space_group_name_H-M "P 21/M"
_symmetry_group_IT_number 11
_symmetry_cell_setting 'monoclinic'
loop_
_space_group_symop_operation_xyz
x,y,z
-x,1/2+y,-z
-x,-y,-z
x,1/2-y,z
loop_
_atom_site_type_symbol
_atom_site_label
_atom_site_fract_x
_atom_site_fract_y
_atom_site_fract_z
Si Si1 0.875899 0.058493 0.051188
Si Si2 0.422942 0.558493 0.098231
Si Si3 0.944814 0.559586 0.909643
Si Si4 0.171799 0.439612 0.346178
Si Si5 0.299098 0.062454 0.839033
Si Si6 0.541160 0.937545 0.581095
Si Si7 0.195871 0.440415 0.660701
Si Si8 0.869315 0.439610 0.194936
O O1 0.872110 0.250000 0.048145
O O2 0.919825 0.006569 0.032011
O O3 0.045273 0.014862 0.209343
O O4 0.689245 0.005500 0.939245
O O5 0.423744 0.750000 0.099780
O O6 0.631429 0.506574 0.243615
O O7 0.298446 0.514857 0.962516
O O8 0.946627 0.750000 0.911416
O O9 0.738974 0.507153 0.744664
O O10 0.000000 0.500000 0.000000
O O11 0.185044 0.250000 0.355155
O O12 0.372509 0.510167 0.488845
O O13 0.055752 0.485308 0.305752
O O14 0.309417 0.250000 0.845033
O O15 0.238265 0.007152 0.743956
O O16 0.162146 0.010169 0.778482
O O17 0.500000 0.000000 0.000000
O O18 0.548124 0.750000 0.583738
O O19 0.500000 0.000000 0.500000
O O20 0.194218 0.250000 0.659007
O O21 0.000000 0.500000 0.500000
O O22 0.865491 0.250000 0.195379
#
# Coordination Sequence:
#
# PCOD9164583 Si02
#       8
#     4   4   4   4   4   4   4   4
#     4   8  14  29  53  76 100 132 172 217 261 309
#     4   8  14  29  53  76 100 132 172 217 261 309
#     4  10  21  36  53  77 107 141 178 218 268 318
#     4   9  17  32  55  81 108 138 176 223 271 318
#     4  11  21  34  54  80 110 141 177 220 270 322
#     4  11  21  34  54  80 110 141 177 220 270 322
#     4  10  21  36  53  77 107 141 178 218 268 318
#     4   9  17  32  55  81 108 138 176 223 271 318
#
# _framework density 17.750115999999998
#
# number of rings (size 3 to 8) (size 9 to 14) (size 15 to 20)
#    0.000    2.500    2.500    2.250    0.000    2.500 
#    0.000    1.250    0.000    5.250    0.000    0.000 
#    0.000    0.000    0.000    0.000    0.000    0.000 
#
# Total GULP energy -178429.946186 kJ/mol
# GULP energy per Si atom -5575.935818 kJ/mol
# Density = 1.770972 g / cm^3
# Si number density = 17.750116 Si / 1000 Ang^3
#
#
#
# Elastic Constant Matrix: (Units=GPa)
#
#
# Indices 1 2 3 4 5 6 
#
# 1 173.6550 23.8755 93.7946 0.0000 13.8173 0.0000
# 2 23.8755 10.1656 20.5275 0.0000 2.3356 0.0000
# 3 93.7946 20.5275 133.9992 0.0000 13.8263 0.0000
# 4 0.0000 0.0000 0.0000 26.2392 0.0000 1.4219
# 5 13.8173 2.3356 13.8263 0.0000 30.0130 0.0000
# 6 0.0000 0.0000 0.0000 1.4219 0.0000 28.2794
#
#
#
# Elastic Compliance Matrix: (Units=1/GPa)
#
#
# Indices 1 2 3 4 5 6 
#
# 1 0.010570 -0.014268 -0.005066 0.000000 -0.001422 0.000000
# 2 -0.014268 0.161725 -0.014874 0.000000 0.000836 0.000000
# 3 -0.005066 -0.014874 0.013572 0.000000 -0.002763 0.000000
# 4 0.000000 0.000000 0.000000 0.038215 0.000000 -0.001922
# 5 -0.001422 0.000836 -0.002763 0.000000 0.035181 0.000000
# 6 0.000000 0.000000 0.000000 -0.001922 0.000000 0.035458
#
#
# Mechanical properties :
#
#
# Convention : Reuss Voigt Hill
#
# Bulk Modulus (GPa) = 8.51415 66.02389 37.26902
# Shear Modulus (GPa) = 12.42891 28.88113 20.65502
#
# Velocity S-wave (km/s) = 2.64903 4.03810 3.41494
# Velocity P-wave (km/s) = 3.76345 7.68237 6.04906
#
# Compressibility (1/GPa) = 0.11745148
#
# Stress axis : x y z
#
# Youngs Moduli (GPa) = 94.61143 6.18332 73.67968
#
# Poissons Ratio (x) = 0.08822 0.37325
# Poissons Ratio (y) = 1.34993 1.09591
# Poissons Ratio (z) = 0.47929 0.09197
#
# Static dielectric constant tensor:
#      x y z
#    x 1.622340 0.000000 0.025090 
#    y 0.000000 1.613690 0.000000 
#    z 0.025090 0.000000 1.586350 
# 
# From -- ./inp_files/72049.got.cif
#   From: 2010.05.17/outbox.cif.g08.bks.cpg/sg11_37_cif.got.tgz:72049.got - 2010.06.03 12:22:45.
