data_PCOD9164069
_publ_section_title
;
Structure prediction by ZEFSAII (Michael W. Deem and Ramdas Pophale) SiO2 
 PCOD9164069
Probable space group: P 21/M
;
_chemical_formula_sum "Si O2"
_cell_formula_units_Z 20
_cell_length_a 18.878642
_cell_length_b 11.884057
_cell_length_c 5.798778
_cell_angle_alpha 90.000000
_cell_angle_beta 142.002443
_cell_angle_gamma 90.000000
_cell_volume 800.922023
_symmetry_space_group_name_H-M "P 21/M"
_symmetry_group_IT_number 11
_symmetry_cell_setting 'monoclinic'
loop_
_space_group_symop_operation_xyz
x,y,z
-x,1/2+y,-z
-x,-y,-z
x,1/2-y,z
loop_
_atom_site_type_symbol
_atom_site_label
_atom_site_fract_x
_atom_site_fract_y
_atom_site_fract_z
Si Si1 0.843044 0.750000 0.438466
Si Si2 0.683451 0.990569 0.570775
Si Si3 0.783890 0.129968 0.446834
Si Si4 0.448456 0.876616 0.446679
Si Si5 0.905020 0.983984 0.449307
Si Si6 0.295074 0.250000 0.419019
O O1 0.914333 0.634570 0.602303
O O2 0.775499 0.750000 0.515089
O O3 0.774049 0.750000 0.007709
O O4 0.635181 0.866359 0.407548
O O5 0.759064 0.027922 0.551002
O O6 0.596243 0.088777 0.413935
O O7 0.777527 0.980357 0.012028
O O8 0.801918 0.250000 0.611175
O O9 0.892096 0.094048 0.572273
O O10 0.665952 0.137512 0.999514
O O11 0.505716 0.750000 0.588857
O O12 0.500000 0.000000 0.500000
O O13 0.000000 0.000000 0.500000
#
# Coordination Sequence:
#
# PCOD9164069 Si02
#       6
#     2   4   4   4   4   2
#     4  10  20  40  58  92 127 164 222 277 318 380
#     4  10  21  40  61  89 124 170 210 269 328 391
#     4  10  21  40  62  87 124 163 211 263 327 388
#     4  10  23  42  65  94 127 162 212 273 332 403
#     4  10  22  38  58  88 127 167 216 266 321 386
#     4  10  20  38  66  90 129 168 218 273 326 382
#
# _framework density 24.971218
#
# number of rings (size 3 to 8) (size 9 to 14) (size 15 to 20)
#    0.000    2.000    2.000    0.600    2.800    2.400 
#    3.600    0.000    0.000    0.000    0.000    0.000 
#    0.000    0.000    0.000    0.000    0.000    0.000 
#
# Total GULP energy -111416.355310 kJ/mol
# GULP energy per Si atom -5570.817766 kJ/mol
# Density = 2.491438 g / cm^3
# Si number density = 24.971218 Si / 1000 Ang^3
#
#
#
# Elastic Constant Matrix: (Units=GPa)
#
#
# Indices 1 2 3 4 5 6 
#
# 1 79.9535 29.3438 19.6285 0.0000 -8.1638 0.0000
# 2 29.3438 203.5666 38.7845 0.0000 7.1976 0.0000
# 3 19.6285 38.7845 76.0172 0.0000 -1.2173 0.0000
# 4 0.0000 0.0000 0.0000 4.3883 0.0000 -11.4859
# 5 -8.1638 7.1976 -1.2173 0.0000 24.3845 0.0000
# 6 0.0000 0.0000 0.0000 -11.4859 0.0000 29.3097
#
#
#
# Elastic Compliance Matrix: (Units=1/GPa)
#
#
# Indices 1 2 3 4 5 6 
#
# 1 0.014342 -0.001729 -0.002739 0.000000 0.005175 0.000000
# 2 -0.001729 0.005725 -0.002513 0.000000 -0.002394 0.000000
# 3 -0.002739 -0.002513 0.015153 0.000000 0.000581 0.000000
# 4 0.000000 0.000000 0.000000 -8.865604 0.000000 -3.474260
# 5 0.005175 -0.002394 0.000581 0.000000 0.043478 0.000000
# 6 0.000000 0.000000 0.000000 -3.474260 0.000000 -1.327378
#
#
# Mechanical properties :
#
#
# Convention : Reuss Voigt Hill
#
# Bulk Modulus (GPa) = 47.03518 59.45010 53.24264
# Shear Modulus (GPa) = -0.49538 29.73521 14.61992
#
# Velocity S-wave (km/s) = -0.44588 3.45451 2.42228
# Velocity P-wave (km/s) = 4.31411 6.30640 5.40288
#
# Compressibility (1/GPa) = 0.02126068
#
# Stress axis : x y z
#
# Youngs Moduli (GPa) = 69.72307 174.67249 65.99159
#
# Poissons Ratio (x) = 0.30195 0.18072
# Poissons Ratio (y) = 0.12053 0.16583
# Poissons Ratio (z) = 0.19094 0.43894
#
# Static dielectric constant tensor:
#      x y z
#    x 1.847070 0.000000 0.177340 
#    y 0.000000 2.019090 0.000000 
#    z 0.177340 0.000000 1.734590 
# 
# From -- ./inp_files/6191.got.cif
#   From: 2010.05.17/outbox.cif.g08.bks.cpg/sg11_4_cif.got.tgz:6191.got - 2010.06.03 12:22:45.
