data_PCOD9164241
_publ_section_title
;
Structure prediction by ZEFSAII (Michael W. Deem and Ramdas Pophale) SiO2 
 PCOD9164241
Probable space group: P 21/M
;
_chemical_formula_sum "Si O2"
_cell_formula_units_Z 20
_cell_length_a 9.584141
_cell_length_b 9.638454
_cell_length_c 14.776290
_cell_angle_alpha 90.000000
_cell_angle_beta 35.233379
_cell_angle_gamma 90.000000
_cell_volume 787.467684
_symmetry_space_group_name_H-M "P 21/M"
_symmetry_group_IT_number 11
_symmetry_cell_setting 'monoclinic'
loop_
_space_group_symop_operation_xyz
x,y,z
-x,1/2+y,-z
-x,-y,-z
x,1/2-y,z
loop_
_atom_site_type_symbol
_atom_site_label
_atom_site_fract_x
_atom_site_fract_y
_atom_site_fract_z
Si Si1 0.821399 0.250000 0.941594
Si Si2 0.223410 0.750000 0.265220
Si Si3 0.363856 0.250000 0.835397
Si Si4 0.449644 0.016174 0.371848
Si Si5 0.819088 0.750000 0.602492
Si Si6 0.007920 0.014578 0.734499
Si Si7 0.796712 0.250000 0.164537
Si Si8 0.298400 0.250000 0.125553
O O1 0.986682 0.117113 0.831605
O O2 0.730454 0.250000 0.091946
O O3 0.586823 0.250000 0.997973
O O4 0.503896 0.750000 0.136973
O O5 0.120838 0.613103 0.272647
O O6 0.100496 0.750000 0.428909
O O7 0.446240 0.384499 0.735488
O O8 0.082006 0.250000 0.006066
O O9 0.297057 0.114334 0.383397
O O10 0.675020 0.117121 0.275898
O O11 0.269289 0.985267 0.551219
O O12 0.796604 0.750000 0.719924
O O13 0.832201 0.886370 0.843251
#
# Coordination Sequence:
#
# PCOD9164241 Si02
#       8
#     2   2   2   4   2   4   2   2
#     4  11  23  41  55  83 127 165 192 233 304 359
#     4   9  19  33  57  95 122 143 189 239 302 355
#     4  12  22  35  63  95 117 149 206 255 279 344
#     4  10  20  40  61  87 116 155 203 242 290 351
#     4   9  17  33  60  88 121 149 176 246 312 348
#     4  10  22  38  64  91 118 157 191 244 305 357
#     4  11  24  42  59  84 122 167 195 239 299 342
#     4  12  19  34  60  93 123 147 192 244 302 352
#
# _framework density 25.397867999999999
#
# number of rings (size 3 to 8) (size 9 to 14) (size 15 to 20)
#    0.000    1.600    2.000    6.000    0.000    3.200 
#    0.000    1.000    0.000    0.000    0.000    0.000 
#    0.000    0.000    0.000    0.000    0.000    0.000 
#
# Total GULP energy -111971.449447 kJ/mol
# GULP energy per Si atom -5598.572472 kJ/mol
# Density = 2.534006 g / cm^3
# Si number density = 25.397868 Si / 1000 Ang^3
#
#
#
# Elastic Constant Matrix: (Units=GPa)
#
#
# Indices 1 2 3 4 5 6 
#
# 1 72.2838 26.3220 23.1464 0.0000 -16.1643 0.0000
# 2 26.3220 156.2220 35.8927 0.0000 -21.9296 0.0000
# 3 23.1464 35.8927 155.0347 0.0000 -31.6445 0.0000
# 4 0.0000 0.0000 0.0000 113.6144 0.0000 24.9144
# 5 -16.1643 -21.9296 -31.6445 0.0000 46.4122 0.0000
# 6 0.0000 0.0000 0.0000 24.9144 0.0000 28.7913
#
#
#
# Elastic Compliance Matrix: (Units=1/GPa)
#
#
# Indices 1 2 3 4 5 6 
#
# 1 0.015729 -0.001851 -0.001139 0.000000 0.003827 0.000000
# 2 -0.001851 0.007232 -0.000967 0.000000 0.002113 0.000000
# 3 -0.001139 -0.000967 0.007748 0.000000 0.004430 0.000000
# 4 0.000000 0.000000 0.000000 0.010863 0.000000 -0.009400
# 5 0.003827 0.002113 0.004430 0.000000 0.026897 0.000000
# 6 0.000000 0.000000 0.000000 -0.009400 0.000000 0.042867
#
#
# Mechanical properties :
#
#
# Convention : Reuss Voigt Hill
#
# Bulk Modulus (GPa) = 43.86762 61.58473 52.72617
# Shear Modulus (GPa) = 39.41721 57.64221 48.52971
#
# Velocity S-wave (km/s) = 3.94380 4.76917 4.37599
# Velocity P-wave (km/s) = 6.16829 7.39102 6.80717
#
# Compressibility (1/GPa) = 0.02279586
#
# Stress axis : x y z
#
# Youngs Moduli (GPa) = 63.57714 138.27838 129.06503
#
# Poissons Ratio (x) = 0.25601 0.14695
# Poissons Ratio (y) = 0.11771 0.12474
# Poissons Ratio (z) = 0.07239 0.13365
#
# Static dielectric constant tensor:
#      x y z
#    x 2.094920 0.000000 -0.004450 
#    y 0.000000 1.773300 0.000000 
#    z -0.004450 0.000000 2.034710 
# 
# From -- ./inp_files/58836.got.cif
#   From: 2010.05.17/outbox.cif.g08.bks.cpg/sg11_30_cif.got.tgz:58836.got - 2010.06.03 12:22:45.
