data_PCOD9164626
_publ_section_title
;
Structure prediction by ZEFSAII (Michael W. Deem and Ramdas Pophale) SiO2 
 PCOD9164626
Probable space group: P 21/M
;
_chemical_formula_sum "Si O2"
_cell_formula_units_Z 24
_cell_length_a 16.208978
_cell_length_b 8.800863
_cell_length_c 16.222910
_cell_angle_alpha 90.000000
_cell_angle_beta 36.068452
_cell_angle_gamma 90.000000
_cell_volume 1362.515925
_symmetry_space_group_name_H-M "P 21/M"
_symmetry_group_IT_number 11
_symmetry_cell_setting 'monoclinic'
loop_
_space_group_symop_operation_xyz
x,y,z
-x,1/2+y,-z
-x,-y,-z
x,1/2-y,z
loop_
_atom_site_type_symbol
_atom_site_label
_atom_site_fract_x
_atom_site_fract_y
_atom_site_fract_z
Si Si1 0.199973 0.069350 0.889373
Si Si2 0.571927 0.567642 0.861367
Si Si3 0.107015 0.931091 0.795673
Si Si4 0.461747 0.931044 0.770834
Si Si5 0.777166 0.568493 0.465505
Si Si6 0.863707 0.431633 0.566786
O O1 0.201633 0.250000 0.874281
O O2 0.190294 0.986185 0.809274
O O3 0.334530 0.017916 0.831772
O O4 0.056119 0.032084 0.054174
O O5 0.584825 0.750000 0.856697
O O6 0.482754 0.533517 0.850625
O O7 0.724516 0.495901 0.723384
O O8 0.500000 0.500000 0.000000
O O9 0.120255 0.750000 0.775811
O O10 0.162110 0.012843 0.669799
O O11 0.438210 0.750000 0.782161
O O12 0.611357 0.966651 0.607771
O O13 0.792272 0.750000 0.462506
O O14 0.852610 0.487470 0.481275
O O15 0.865484 0.250000 0.568933
O O16 0.000000 0.500000 0.500000
#
# Coordination Sequence:
#
# PCOD9164626 Si02
#       6
#     4   4   4   4   4   4
#     4  10  21  36  56  81 108 141 182 226 271 322
#     4  10  21  38  58  83 114 148 187 229 276 331
#     4  10  21  37  56  80 110 144 182 224 272 325
#     4   9  20  37  56  79 109 143 179 222 271 324
#     4  10  21  38  58  82 111 143 182 226 273 327
#     4  11  22  38  59  83 112 147 186 230 279 329
#
# _framework density 17.614473
#
# number of rings (size 3 to 8) (size 9 to 14) (size 15 to 20)
#    0.000    2.000    0.000    4.500    0.000    8.000 
#    0.000    3.333    0.000    0.000    0.000    0.000 
#    0.000    0.000    0.000    0.000    0.000    0.000 
#
# Total GULP energy -134054.890197 kJ/mol
# GULP energy per Si atom -5585.620425 kJ/mol
# Density = 1.757438 g / cm^3
# Si number density = 17.614473 Si / 1000 Ang^3
#
#
#
# Elastic Constant Matrix: (Units=GPa)
#
#
# Indices 1 2 3 4 5 6 
#
# 1 140.6181 73.6136 85.4176 0.0000 -9.2435 0.0000
# 2 73.6136 96.9919 61.0546 0.0000 2.0800 0.0000
# 3 85.4176 61.0546 111.2359 0.0000 25.3419 0.0000
# 4 0.0000 0.0000 0.0000 34.3318 0.0000 1.6646
# 5 -9.2435 2.0800 25.3419 0.0000 26.8531 0.0000
# 6 0.0000 0.0000 0.0000 1.6646 0.0000 37.2569
#
#
#
# Elastic Compliance Matrix: (Units=1/GPa)
#
#
# Indices 1 2 3 4 5 6 
#
# 1 0.029449 -0.005503 -0.028025 0.000000 0.037011 0.000000
# 2 -0.005503 0.018621 -0.006668 0.000000 0.002956 0.000000
# 3 -0.028025 -0.006668 0.046179 0.000000 -0.052711 0.000000
# 4 0.000000 0.000000 0.000000 0.029191 0.000000 -0.001304
# 5 0.037011 0.002956 -0.052711 0.000000 0.099495 0.000000
# 6 0.000000 0.000000 0.000000 -0.001304 0.000000 0.026899
#
#
# Mechanical properties :
#
#
# Convention : Reuss Voigt Hill
#
# Bulk Modulus (GPa) = 72.17221 87.66859 79.92040
# Shear Modulus (GPa) = 14.93225 28.27238 21.60231
#
# Velocity S-wave (km/s) = 2.91473 4.01067 3.50579
# Velocity P-wave (km/s) = 7.23808 8.44548 7.86498
#
# Compressibility (1/GPa) = 0.01385575
#
# Stress axis : x y z
#
# Youngs Moduli (GPa) = 33.95688 53.70283 21.65486
#
# Poissons Ratio (x) = 0.29554 0.60688
# Poissons Ratio (y) = 0.18687 0.14440
# Poissons Ratio (z) = 0.95165 0.35810
#
# Static dielectric constant tensor:
#      x y z
#    x 1.569510 0.000000 -0.001900 
#    y 0.000000 1.668000 0.000000 
#    z -0.001900 0.000000 1.578100 
# 
# From -- ./inp_files/20364.got.cif
#   From: 2010.05.17/outbox.cif.g08.bks.cpg/sg11_11_cif.got.tgz:20364.got - 2010.06.03 12:22:45.
