data_PCOD9164991
_publ_section_title
;
Structure prediction by ZEFSAII (Michael W. Deem and Ramdas Pophale) SiO2 
 PCOD9164991
Probable space group: P 21/M
;
_chemical_formula_sum "Si O2"
_cell_formula_units_Z 32
_cell_length_a 15.510721
_cell_length_b 8.996387
_cell_length_c 11.777076
_cell_angle_alpha 90.000000
_cell_angle_beta 86.285337
_cell_angle_gamma 90.000000
_cell_volume 1639.925848
_symmetry_space_group_name_H-M "P 21/M"
_symmetry_group_IT_number 11
_symmetry_cell_setting 'monoclinic'
loop_
_space_group_symop_operation_xyz
x,y,z
-x,1/2+y,-z
-x,-y,-z
x,1/2-y,z
loop_
_atom_site_type_symbol
_atom_site_label
_atom_site_fract_x
_atom_site_fract_y
_atom_site_fract_z
Si Si1 0.073135 0.571550 0.914941
Si Si2 0.043089 0.426820 0.673093
Si Si3 0.128368 0.574214 0.444978
Si Si4 0.269692 0.572973 0.942396
Si Si5 0.471028 0.423374 0.321328
Si Si6 0.345589 0.074314 0.711295
Si Si7 0.582312 0.922317 0.934817
Si Si8 0.300310 0.427117 0.463054
O O1 0.063833 0.750000 0.912297
O O2 0.168364 0.536784 0.955959
O O3 0.066034 0.506175 0.788485
O O4 0.000000 0.500000 0.000000
O O5 0.058589 0.250000 0.680989
O O6 0.942752 0.451143 0.646779
O O7 0.095330 0.491517 0.561346
O O8 0.131462 0.750000 0.466660
O O9 0.222640 0.511906 0.409446
O O10 0.279951 0.750000 0.946799
O O11 0.305700 0.514660 0.819040
O O12 0.329952 0.498800 0.031754
O O13 0.493434 0.250000 0.343019
O O14 0.556237 0.522063 0.316053
O O15 0.431698 0.430000 0.198374
O O16 0.395129 0.471937 0.412109
O O17 0.342645 0.250000 0.734953
O O18 0.295847 0.045593 0.598106
O O19 0.583630 0.750000 0.969463
O O20 0.500000 0.000000 0.000000
O O21 0.292565 0.250000 0.443880
#
# Coordination Sequence:
#
# PCOD9164991 Si02
#       8
#     4   4   4   4   4   4   4   4
#     4  11  25  43  64  91 124 162 204 253 309 365
#     4  10  21  39  63  89 120 156 199 249 301 361
#     4  10  21  37  60  90 119 155 199 246 301 360
#     4  11  24  41  62  88 119 157 201 249 300 358
#     4  10  22  39  58  82 117 156 194 241 297 355
#     4  11  22  36  59  87 116 153 198 244 295 354
#     4  11  22  38  62  89 118 155 200 249 298 353
#     4  10  22  38  56  85 121 156 195 241 298 362
#
# _framework density 19.513075000000001
#
# number of rings (size 3 to 8) (size 9 to 14) (size 15 to 20)
#    0.000    1.500    1.250    3.375    0.000    8.500 
#    0.000    2.500    0.000    0.000    0.000    0.000 
#    0.000    0.000    0.000    0.000    0.000    0.000 
#
# Total GULP energy -178915.193295 kJ/mol
# GULP energy per Si atom -5591.099790 kJ/mol
# Density = 1.946866 g / cm^3
# Si number density = 19.513075 Si / 1000 Ang^3
#
#
#
# Elastic Constant Matrix: (Units=GPa)
#
#
# Indices 1 2 3 4 5 6 
#
# 1 123.9112 54.3602 8.8678 0.0000 16.8136 0.0000
# 2 54.3602 68.8364 15.0364 0.0000 18.6963 0.0000
# 3 8.8678 15.0364 30.2945 0.0000 12.8929 0.0000
# 4 0.0000 0.0000 0.0000 26.9422 0.0000 0.8390
# 5 16.8136 18.6963 12.8929 0.0000 24.3325 0.0000
# 6 0.0000 0.0000 0.0000 0.8390 0.0000 36.4007
#
#
#
# Elastic Compliance Matrix: (Units=1/GPa)
#
#
# Indices 1 2 3 4 5 6 
#
# 1 0.012486 -0.009701 0.002143 0.000000 -0.002309 0.000000
# 2 -0.009701 0.026282 -0.005763 0.000000 -0.010437 0.000000
# 3 0.002143 -0.005763 0.043884 0.000000 -0.020305 0.000000
# 4 0.000000 0.000000 0.000000 0.037143 0.000000 -0.000856
# 5 -0.002309 -0.010437 -0.020305 0.000000 0.061471 0.000000
# 6 0.000000 0.000000 0.000000 -0.000856 0.000000 0.027492
#
#
# Mechanical properties :
#
#
# Convention : Reuss Voigt Hill
#
# Bulk Modulus (GPa) = 17.85424 42.17456 30.01440
# Shear Modulus (GPa) = 19.67950 27.18693 23.43321
#
# Velocity S-wave (km/s) = 3.17918 3.73670 3.46916
# Velocity P-wave (km/s) = 4.75878 6.34647 5.60908
#
# Compressibility (1/GPa) = 0.05600912
#
# Stress axis : x y z
#
# Youngs Moduli (GPa) = 80.08792 38.04885 22.78728
#
# Poissons Ratio (x) = 0.36913 -0.04883
# Poissons Ratio (y) = 0.77696 0.13133
# Poissons Ratio (z) = -0.17163 0.21929
#
# Static dielectric constant tensor:
#      x y z
#    x 1.686440 0.000000 0.006500 
#    y 0.000000 1.657530 0.000000 
#    z 0.006500 0.000000 1.665420 
# 
# From -- ./inp_files/38092.got.cif
#   From: 2010.05.17/outbox.cif.g08.bks.cpg/sg11_20_cif.got.tgz:38092.got - 2010.06.03 12:22:45.
