data_PCOD9164221
_publ_section_title
;
Structure prediction by ZEFSAII (Michael W. Deem and Ramdas Pophale) SiO2 
 PCOD9164221
Probable space group: P 21/M
;
_chemical_formula_sum "Si O2"
_cell_formula_units_Z 28
_cell_length_a 17.890598
_cell_length_b 13.868816
_cell_length_c 19.843623
_cell_angle_alpha 90.000000
_cell_angle_beta 166.351014
_cell_angle_gamma 90.000000
_cell_volume 1161.843318
_symmetry_space_group_name_H-M "P 21/M"
_symmetry_group_IT_number 11
_symmetry_cell_setting 'monoclinic'
loop_
_space_group_symop_operation_xyz
x,y,z
-x,1/2+y,-z
-x,-y,-z
x,1/2-y,z
loop_
_atom_site_type_symbol
_atom_site_label
_atom_site_fract_x
_atom_site_fract_y
_atom_site_fract_z
Si Si1 0.838903 0.083654 0.090156
Si Si2 0.169006 0.641177 0.604308
Si Si3 0.188505 0.459542 0.821040
Si Si4 0.528930 0.423851 0.681784
Si Si5 0.332828 0.354605 0.222514
Si Si6 0.157546 0.357328 0.545632
Si Si7 0.394393 0.609960 0.402349
O O1 0.194716 0.117458 0.415416
O O2 0.834811 0.976189 0.119112
O O3 0.790805 0.090511 0.968185
O O4 0.524016 0.129775 0.846335
O O5 0.293499 0.750000 0.714352
O O6 0.032848 0.615260 0.411920
O O7 0.893547 0.634052 0.418707
O O8 0.449849 0.570380 0.872668
O O9 0.061594 0.560467 0.679243
O O10 0.510215 0.541651 0.658496
O O11 0.594291 0.373760 0.667759
O O12 0.434976 0.250000 0.282473
O O13 0.379060 0.345617 0.343519
O O14 0.960310 0.369739 0.883733
O O15 0.049706 0.250000 0.432074
O O16 0.500000 0.500000 0.500000
#
# Coordination Sequence:
#
# PCOD9164221 Si02
#       7
#     4   4   4   4   4   4   4
#     4  12  24  42  65  93 137 180 223 258 339 412
#     4  11  25  43  71 102 131 174 230 294 350 398
#     4  12  23  46  68  99 134 178 227 287 337 412
#     4  11  22  42  65  92 128 185 213 258 333 414
#     4  11  22  40  67  99 128 162 224 286 328 379
#     4  11  26  45  70  99 134 178 232 287 350 413
#     4  10  20  39  67  93 126 168 213 262 322 384
#
# _framework density 24.099634999999999
#
# number of rings (size 3 to 8) (size 9 to 14) (size 15 to 20)
#    0.000    0.857    2.857    6.000    2.000    0.571 
#    0.000    8.571    0.000    0.000    0.000    0.000 
#    0.000    0.000    0.000    0.000    0.000    0.000 
#
# Total GULP energy -156299.809046 kJ/mol
# GULP energy per Si atom -5582.136037 kJ/mol
# Density = 2.404478 g / cm^3
# Si number density = 24.099635 Si / 1000 Ang^3
#
#
#
# Elastic Constant Matrix: (Units=GPa)
#
#
# Indices 1 2 3 4 5 6 
#
# 1 43.2152 -25.3746 9.5843 0.0000 -15.0263 0.0000
# 2 -25.3746 98.1734 18.1334 0.0000 -0.8143 0.0000
# 3 9.5843 18.1334 103.5305 0.0000 -8.4122 0.0000
# 4 0.0000 0.0000 0.0000 58.1807 0.0000 -19.1803
# 5 -15.0263 -0.8143 -8.4122 0.0000 42.9778 0.0000
# 6 0.0000 0.0000 0.0000 -19.1803 0.0000 16.1825
#
#
#
# Elastic Compliance Matrix: (Units=1/GPa)
#
#
# Indices 1 2 3 4 5 6 
#
# 1 0.033390 0.009432 -0.003841 0.000000 0.011101 0.000000
# 2 0.009432 0.013192 -0.002942 0.000000 0.002972 0.000000
# 3 -0.003841 -0.002942 0.010585 0.000000 0.000673 0.000000
# 4 0.000000 0.000000 0.000000 0.028211 0.000000 0.033437
# 5 0.011101 0.002972 0.000673 0.000000 0.027337 0.000000
# 6 0.000000 0.000000 0.000000 0.033437 0.000000 0.101427
#
#
# Mechanical properties :
#
#
# Convention : Reuss Voigt Hill
#
# Bulk Modulus (GPa) = 16.00946 27.73394 21.87170
# Shear Modulus (GPa) = 21.77082 39.63991 30.70537
#
# Velocity S-wave (km/s) = 3.00887 4.06006 3.57333
# Velocity P-wave (km/s) = 4.32764 5.78893 5.11079
#
# Compressibility (1/GPa) = 0.06246307
#
# Stress axis : x y z
#
# Youngs Moduli (GPa) = 29.94933 75.80380 94.47692
#
# Poissons Ratio (x) = -0.71496 0.36289
# Poissons Ratio (y) = -0.28247 0.27798
# Poissons Ratio (z) = 0.11504 0.22303
#
# Static dielectric constant tensor:
#      x y z
#    x 2.000030 0.000000 0.006120 
#    y 0.000000 1.962540 0.000000 
#    z 0.006120 0.000000 1.866870 
# 
# From -- ./inp_files/69870.got.cif
#   From: 2010.05.17/outbox.cif.g08.bks.cpg/sg11_35_cif.got.tgz:69870.got - 2010.06.03 12:22:45.
