data_PCOD9164428
_publ_section_title
;
Structure prediction by ZEFSAII (Michael W. Deem and Ramdas Pophale) SiO2 
 PCOD9164428
Probable space group: P 21/M
;
_chemical_formula_sum "Si O2"
_cell_formula_units_Z 30
_cell_length_a 14.881278
_cell_length_b 14.415872
_cell_length_c 13.780395
_cell_angle_alpha 90.000000
_cell_angle_beta 29.257686
_cell_angle_gamma 90.000000
_cell_volume 1444.838045
_symmetry_space_group_name_H-M "P 21/M"
_symmetry_group_IT_number 11
_symmetry_cell_setting 'monoclinic'
loop_
_space_group_symop_operation_xyz
x,y,z
-x,1/2+y,-z
-x,-y,-z
x,1/2-y,z
loop_
_atom_site_type_symbol
_atom_site_label
_atom_site_fract_x
_atom_site_fract_y
_atom_site_fract_z
Si Si1 0.762466 0.959710 0.682487
Si Si2 0.158603 0.896884 0.789835
Si Si3 0.057198 0.645504 0.523506
Si Si4 0.145569 0.750000 0.634560
Si Si5 0.463143 0.856821 0.652810
Si Si6 0.878431 0.609517 0.210853
Si Si7 0.565749 0.140365 0.095727
Si Si8 0.995395 0.353291 0.696798
O O1 0.558904 0.922283 0.856167
O O2 0.867090 0.905222 0.671116
O O3 0.878338 0.924915 0.479019
O O4 0.792532 0.070283 0.653636
O O5 0.202815 0.830023 0.660111
O O6 0.322185 0.906782 0.714202
O O7 0.113233 0.998647 0.795583
O O8 0.983241 0.859700 0.015480
O O9 0.072412 0.750000 0.464563
O O10 0.083227 0.669557 0.612149
O O11 0.400500 0.750000 0.715317
O O12 0.667631 0.861124 0.417580
O O13 0.467800 0.888905 0.760165
O O14 0.981430 0.642013 0.209883
O O15 0.516350 0.250000 0.133137
O O16 0.782368 0.132331 0.874235
O O17 0.057109 0.250000 0.611013
#
# Coordination Sequence:
#
# PCOD9164428 Si02
#       8
#     4   4   4   2   4   4   4   4
#     4  11  20  41  70  91 124 162 208 262 319 373
#     4  11  23  40  58  81 127 169 201 256 297 370
#     4   9  22  40  65  95 120 168 214 253 318 382
#     4  10  22  40  62  80 130 168 204 246 318 358
#     4  11  21  35  57  87 122 157 200 249 308 363
#     4  11  23  36  60  92 119 164 215 243 304 372
#     4  10  21  34  59  96 127 156 197 265 323 368
#     4  11  21  35  62  95 126 153 201 266 314 368
#
# _framework density 20.763573999999998
#
# number of rings (size 3 to 8) (size 9 to 14) (size 15 to 20)
#    0.400    1.067    3.333    2.800    1.867    0.000 
#    0.000    2.667    0.000    5.600    0.000    0.000 
#    0.000    0.000    0.000    0.000    0.000    0.000 
#
# Total GULP energy -167005.180627 kJ/mol
# GULP energy per Si atom -5566.839354 kJ/mol
# Density = 2.071631 g / cm^3
# Si number density = 20.763574 Si / 1000 Ang^3
#
#
#
# Elastic Constant Matrix: (Units=GPa)
#
#
# Indices 1 2 3 4 5 6 
#
# 1 100.9672 32.5362 2.5230 0.0000 -0.3001 0.0000
# 2 32.5362 118.8390 6.9432 0.0000 -7.6731 0.0000
# 3 2.5230 6.9432 57.1078 0.0000 -15.0234 0.0000
# 4 0.0000 0.0000 0.0000 18.6594 0.0000 0.0433
# 5 -0.3001 -7.6731 -15.0234 0.0000 25.2277 0.0000
# 6 0.0000 0.0000 0.0000 0.0433 0.0000 27.7004
#
#
#
# Elastic Compliance Matrix: (Units=1/GPa)
#
#
# Indices 1 2 3 4 5 6 
#
# 1 0.010885 -0.003024 -0.000381 0.000000 -0.001017 0.000000
# 2 -0.003024 0.009432 -0.000318 0.000000 0.002644 0.000000
# 3 -0.000381 -0.000318 0.020798 0.000000 0.012284 0.000000
# 4 0.000000 0.000000 0.000000 0.053592 0.000000 -0.000084
# 5 -0.001017 0.002644 0.012284 0.000000 0.047746 0.000000
# 6 0.000000 0.000000 0.000000 -0.000084 0.000000 0.036101
#
#
# Mechanical properties :
#
#
# Convention : Reuss Voigt Hill
#
# Bulk Modulus (GPa) = 29.69960 40.10210 34.90085
# Shear Modulus (GPa) = 25.35219 29.97828 27.66524
#
# Velocity S-wave (km/s) = 3.49806 3.80385 3.65416
# Velocity P-wave (km/s) = 5.53625 6.21675 5.88634
#
# Compressibility (1/GPa) = 0.03367048
#
# Stress axis : x y z
#
# Youngs Moduli (GPa) = 91.86937 106.02433 48.08199
#
# Poissons Ratio (x) = 0.32057 0.01831
# Poissons Ratio (y) = 0.27777 0.01528
# Poissons Ratio (z) = 0.03499 0.03368
#
# Static dielectric constant tensor:
#      x y z
#    x 1.747870 0.000000 0.013730 
#    y 0.000000 1.738080 0.000000 
#    z 0.013730 0.000000 1.756240 
# 
# From -- ./inp_files/52470.got.cif
#   From: 2010.05.17/outbox.cif.g08.bks.cpg/sg11_27_cif.got.tgz:52470.got - 2010.06.03 12:22:45.
