data_PCOD9164837
_publ_section_title
;
Structure prediction by ZEFSAII (Michael W. Deem and Ramdas Pophale) SiO2 
 PCOD9164837
Probable space group: P 21/M
;
_chemical_formula_sum "Si O2"
_cell_formula_units_Z 32
_cell_length_a 27.976900
_cell_length_b 9.399754
_cell_length_c 5.726675
_cell_angle_alpha 90.000000
_cell_angle_beta 89.822114
_cell_angle_gamma 90.000000
_cell_volume 1505.970699
_symmetry_space_group_name_H-M "P 21/M"
_symmetry_group_IT_number 11
_symmetry_cell_setting 'monoclinic'
loop_
_space_group_symop_operation_xyz
x,y,z
-x,1/2+y,-z
-x,-y,-z
x,1/2-y,z
loop_
_atom_site_type_symbol
_atom_site_label
_atom_site_fract_x
_atom_site_fract_y
_atom_site_fract_z
Si Si1 0.717320 0.402991 0.303986
Si Si2 0.050341 0.420044 0.005176
Si Si3 0.474018 0.592471 0.693997
Si Si4 0.646690 0.413735 0.690075
Si Si5 0.265000 0.086088 0.086183
Si Si6 0.896974 0.920621 0.493617
Si Si7 0.427828 0.091836 0.045185
Si Si8 0.806391 0.409526 0.651632
O O1 0.720434 0.250000 0.169089
O O2 0.665902 0.406818 0.426598
O O3 0.726287 0.552639 0.182628
O O4 0.760409 0.394426 0.486458
O O5 0.043249 0.250000 0.000852
O O6 0.077866 0.454236 0.758180
O O7 0.075169 0.450846 0.258921
O O8 0.000000 0.500000 0.000000
O O9 0.500000 0.500000 0.500000
O O10 0.459079 0.750000 0.613332
O O11 0.517493 0.611125 0.876084
O O12 0.431891 0.504870 0.815975
O O13 0.641113 0.250000 0.769202
O O14 0.600825 0.505033 0.758649
O O15 0.690795 0.496743 0.809699
O O16 0.265903 0.250000 0.151632
O O17 0.214637 0.012278 0.148744
O O18 0.887667 0.750000 0.492422
O O19 0.849167 0.013148 0.518806
O O20 0.407270 0.250000 0.008351
O O21 0.819672 0.250000 0.731674
#
# Coordination Sequence:
#
# PCOD9164837 Si02
#       8
#     4   4   4   4   4   4   4   4
#     4   9  20  38  57  80 113 150 192 239 287 343
#     4  10  22  40  62  89 125 163 208 261 314 375
#     4  10  21  37  57  81 110 145 183 230 284 340
#     4  10  21  38  58  81 110 147 188 232 284 343
#     4  11  22  36  58  84 115 152 189 237 293 349
#     4  10  22  39  60  91 125 162 208 259 316 374
#     4  10  21  37  57  81 111 143 184 234 283 342
#     4  10  22  39  59  85 117 154 199 248 295 355
#
# _framework density 21.248754000000002
#
# number of rings (size 3 to 8) (size 9 to 14) (size 15 to 20)
#    0.000    2.000    0.000    3.750    1.750    6.500 
#    0.000    2.500    0.000    0.000    0.000    0.000 
#    0.000    0.000    0.000    0.000    0.000    0.000 
#
# Total GULP energy -178269.666154 kJ/mol
# GULP energy per Si atom -5570.927067 kJ/mol
# Density = 2.120039 g / cm^3
# Si number density = 21.248754 Si / 1000 Ang^3
#
#
#
# Elastic Constant Matrix: (Units=GPa)
#
#
# Indices 1 2 3 4 5 6 
#
# 1 98.8879 51.9695 31.4326 0.0000 -22.8672 0.0000
# 2 51.9695 153.2673 39.9421 0.0000 -26.3815 0.0000
# 3 31.4326 39.9421 74.4139 0.0000 -16.3332 0.0000
# 4 0.0000 0.0000 0.0000 23.2122 0.0000 -5.9817
# 5 -22.8672 -26.3815 -16.3332 0.0000 31.9542 0.0000
# 6 0.0000 0.0000 0.0000 -5.9817 0.0000 26.8127
#
#
#
# Elastic Compliance Matrix: (Units=1/GPa)
#
#
# Indices 1 2 3 4 5 6 
#
# 1 0.014010 -0.002919 -0.003018 0.000000 0.006074 0.000000
# 2 -0.002919 0.008880 -0.002684 0.000000 0.003871 0.000000
# 3 -0.003018 -0.002684 0.017113 0.000000 0.004372 0.000000
# 4 0.000000 0.000000 0.000000 0.045708 0.000000 0.010197
# 5 0.006074 0.003871 0.004372 0.000000 0.041072 0.000000
# 6 0.000000 0.000000 0.000000 0.010197 0.000000 0.039571
#
#
# Mechanical properties :
#
#
# Convention : Reuss Voigt Hill
#
# Bulk Modulus (GPa) = 43.93280 63.69526 53.81403
# Shear Modulus (GPa) = 26.15299 29.94417 28.04858
#
# Velocity S-wave (km/s) = 3.51208 3.75803 3.63714
# Velocity P-wave (km/s) = 6.09645 6.99081 6.55889
#
# Compressibility (1/GPa) = 0.02276204
#
# Stress axis : x y z
#
# Youngs Moduli (GPa) = 71.37683 112.61444 58.43371
#
# Poissons Ratio (x) = 0.32867 0.17637
# Poissons Ratio (y) = 0.20831 0.15683
# Poissons Ratio (z) = 0.21543 0.30225
#
# Static dielectric constant tensor:
#      x y z
#    x 1.755830 0.000000 0.028230 
#    y 0.000000 1.760080 0.000000 
#    z 0.028230 0.000000 1.884420 
# 
# From -- ./inp_files/9682.got.cif
#   From: 2010.05.17/outbox.cif.g08.bks.cpg/sg11_5_cif.got.tgz:9682.got - 2010.06.03 12:22:45.
