data_PCOD9164144
_publ_section_title
;
Structure prediction by ZEFSAII (Michael W. Deem and Ramdas Pophale) SiO2 
 PCOD9164144
Probable space group: P 21/M
;
_chemical_formula_sum "Si O2"
_cell_formula_units_Z 32
_cell_length_a 14.932276
_cell_length_b 14.141326
_cell_length_c 22.526276
_cell_angle_alpha 90.000000
_cell_angle_beta 160.543553
_cell_angle_gamma 90.000000
_cell_volume 1584.409455
_symmetry_space_group_name_H-M "P 21/M"
_symmetry_group_IT_number 11
_symmetry_cell_setting 'monoclinic'
loop_
_space_group_symop_operation_xyz
x,y,z
-x,1/2+y,-z
-x,-y,-z
x,1/2-y,z
loop_
_atom_site_type_symbol
_atom_site_label
_atom_site_fract_x
_atom_site_fract_y
_atom_site_fract_z
Si Si1 0.672542 0.859107 0.951423
Si Si2 0.233846 0.638734 0.015715
Si Si3 0.883922 0.139379 0.197133
Si Si4 0.936949 0.143244 0.908629
Si Si5 0.255671 0.063235 0.211880
Si Si6 0.678956 0.863064 0.091235
Si Si7 0.288880 0.005463 0.649505
Si Si8 0.180802 0.976448 0.443457
O O1 0.588380 0.750000 0.902047
O O2 0.457041 0.917958 0.780422
O O3 0.698175 0.894527 0.034627
O O4 0.947375 0.862707 0.085636
O O5 0.230027 0.750000 0.027186
O O6 0.516544 0.593150 0.212037
O O7 0.186117 0.626713 0.915752
O O8 0.984287 0.589457 0.893432
O O9 0.950584 0.250000 0.248221
O O10 0.614396 0.116547 0.065886
O O11 0.114044 0.070033 0.364079
O O12 0.831928 0.250000 0.853040
O O13 0.758902 0.050342 0.808747
O O14 0.182932 0.123088 0.107777
O O15 0.561501 0.078899 0.421768
O O16 0.715366 0.750000 0.116359
O O17 0.914630 0.913136 0.274222
O O18 0.246641 0.000023 0.552736
O O19 0.000000 0.000000 0.500000
#
# Coordination Sequence:
#
# PCOD9164144 Si02
#       8
#     4   4   4   4   4   4   4   4
#     4  10  20  39  64  88 121 162 204 249 306 373
#     4  11  24  44  65  86 123 174 212 250 310 378
#     4  10  23  44  64  86 123 167 207 250 311 378
#     4  10  20  39  63  87 122 165 205 249 308 370
#     4  11  22  39  62  92 127 163 208 259 307 367
#     4  10  22  41  64  90 123 164 205 249 309 375
#     4  12  23  38  64  97 126 156 206 264 317 373
#     4  12  24  37  62  95 126 157 200 262 314 360
#
# _framework density 20.196798999999999
#
# number of rings (size 3 to 8) (size 9 to 14) (size 15 to 20)
#    0.000    1.250    2.500    3.750    0.000    3.500 
#    0.000    0.000    0.000    0.000    0.000    0.000 
#    0.000    0.000    0.000    0.000    0.000    0.000 
#
# Total GULP energy -178764.489289 kJ/mol
# GULP energy per Si atom -5586.390290 kJ/mol
# Density = 2.015083 g / cm^3
# Si number density = 20.196799 Si / 1000 Ang^3
#
#
#
# Elastic Constant Matrix: (Units=GPa)
#
#
# Indices 1 2 3 4 5 6 
#
# 1 107.8183 22.8488 30.7714 0.0000 -6.5586 0.0000
# 2 22.8488 99.1012 29.5037 0.0000 -2.3579 0.0000
# 3 30.7714 29.5037 86.3245 0.0000 -9.4196 0.0000
# 4 0.0000 0.0000 0.0000 7.8202 0.0000 -11.4694
# 5 -6.5586 -2.3579 -9.4196 0.0000 34.9859 0.0000
# 6 0.0000 0.0000 0.0000 -11.4694 0.0000 20.3168
#
#
#
# Elastic Compliance Matrix: (Units=1/GPa)
#
#
# Indices 1 2 3 4 5 6 
#
# 1 0.010547 -0.001471 -0.003144 0.000000 0.001031 0.000000
# 2 -0.001471 0.011442 -0.003433 0.000000 -0.000429 0.000000
# 3 -0.003144 -0.003433 0.014206 0.000000 0.003004 0.000000
# 4 0.000000 0.000000 0.000000 0.743305 0.000000 0.419618
# 5 0.001031 -0.000429 0.003004 0.000000 0.029556 0.000000
# 6 0.000000 0.000000 0.000000 0.419618 0.000000 0.286107
#
#
# Mechanical properties :
#
#
# Convention : Reuss Voigt Hill
#
# Bulk Modulus (GPa) = 49.75585 51.05464 50.40524
# Shear Modulus (GPa) = 4.47244 26.63258 15.55251
#
# Velocity S-wave (km/s) = 1.48971 3.63527 2.77798
# Velocity P-wave (km/s) = 5.25813 6.55391 5.94145
#
# Compressibility (1/GPa) = 0.02009814
#
# Stress axis : x y z
#
# Youngs Moduli (GPa) = 94.81634 87.39976 70.39248
#
# Poissons Ratio (x) = 0.12857 0.22133
# Poissons Ratio (y) = 0.13948 0.24165
# Poissons Ratio (z) = 0.29812 0.30004
#
# Static dielectric constant tensor:
#      x y z
#    x 1.738290 0.000000 0.016600 
#    y 0.000000 1.743210 0.000000 
#    z 0.016600 0.000000 1.689750 
# 
# From -- ./inp_files/65776.got.cif
#   From: 2010.05.17/outbox.cif.g08.bks.cpg/sg11_33_cif.got.tgz:65776.got - 2010.06.03 12:22:45.
