data_PCOD9164994
_publ_section_title
;
Structure prediction by ZEFSAII (Michael W. Deem and Ramdas Pophale) SiO2 
 PCOD9164994
Probable space group: P 21/M
;
_chemical_formula_sum "Si O2"
_cell_formula_units_Z 32
_cell_length_a 5.606086
_cell_length_b 11.377089
_cell_length_c 21.820806
_cell_angle_alpha 90.000000
_cell_angle_beta 84.388320
_cell_angle_gamma 90.000000
_cell_volume 1385.081517
_symmetry_space_group_name_H-M "P 21/M"
_symmetry_group_IT_number 11
_symmetry_cell_setting 'monoclinic'
loop_
_space_group_symop_operation_xyz
x,y,z
-x,1/2+y,-z
-x,-y,-z
x,1/2-y,z
loop_
_atom_site_type_symbol
_atom_site_label
_atom_site_fract_x
_atom_site_fract_y
_atom_site_fract_z
Si Si1 0.861947 0.087322 0.866274
Si Si2 0.836383 0.118092 0.002816
Si Si3 0.772949 0.014179 0.418671
Si Si4 0.033644 0.385603 0.299488
Si Si5 0.567711 0.883923 0.886979
Si Si6 0.731926 0.387973 0.556030
Si Si7 0.733050 0.505992 0.207007
Si Si8 0.325040 0.880538 0.266715
O O1 0.772776 0.134524 0.932595
O O2 0.743393 0.122444 0.804718
O O3 0.816228 0.950532 0.880148
O O4 0.139642 0.093917 0.844182
O O5 0.933232 0.250000 0.018963
O O6 0.607773 0.093242 0.051414
O O7 0.000000 0.000000 0.000000
O O8 0.516012 0.949813 0.414598
O O9 0.010515 0.932764 0.424271
O O10 0.850372 0.096839 0.360469
O O11 0.741640 0.084547 0.483016
O O12 0.125908 0.250000 0.297450
O O13 0.897760 0.416554 0.240095
O O14 0.209603 0.500397 0.297149
O O15 0.613024 0.750000 0.883243
O O16 0.441770 0.928388 0.828748
O O17 0.710025 0.250000 0.566530
O O18 0.605774 0.590641 0.259068
O O19 0.266865 0.750000 0.292439
#
# Coordination Sequence:
#
# PCOD9164994 Si02
#       8
#     4   4   4   4   4   4   4   4
#     4  10  21  40  61  85 119 162 206 256 324 393
#     4  11  22  38  60  89 118 154 200 255 319 389
#     4  10  23  41  67 105 140 186 236 287 346 413
#     4  11  25  44  67  98 133 179 226 277 335 399
#     4  10  21  37  60  90 123 157 203 258 319 387
#     4  10  21  42  69 102 144 187 233 288 350 410
#     4  10  22  40  63  89 126 166 214 265 326 392
#     4  10  24  43  64  93 126 168 218 274 333 398
#
# _framework density 23.103334
#
# number of rings (size 3 to 8) (size 9 to 14) (size 15 to 20)
#    0.000    1.750    1.250    1.875    1.750    9.500 
#    0.000    1.875    0.000    0.000    0.000    0.000 
#    0.000    0.000    0.000    0.000    0.000    0.000 
#
# Total GULP energy -178266.084481 kJ/mol
# GULP energy per Si atom -5570.815140 kJ/mol
# Density = 2.305075 g / cm^3
# Si number density = 23.103334 Si / 1000 Ang^3
#
#
#
# Elastic Constant Matrix: (Units=GPa)
#
#
# Indices 1 2 3 4 5 6 
#
# 1 62.5102 34.1005 17.6223 0.0000 -12.9290 0.0000
# 2 34.1005 171.9831 45.4684 0.0000 -21.8602 0.0000
# 3 17.6223 45.4684 119.3760 0.0000 -11.7542 0.0000
# 4 0.0000 0.0000 0.0000 10.1402 0.0000 -4.8273
# 5 -12.9290 -21.8602 -11.7542 0.0000 28.8754 0.0000
# 6 0.0000 0.0000 0.0000 -4.8273 0.0000 17.4787
#
#
#
# Elastic Compliance Matrix: (Units=1/GPa)
#
#
# Indices 1 2 3 4 5 6 
#
# 1 0.019047 -0.002699 -0.001193 0.000000 0.006000 0.000000
# 2 -0.002699 0.007338 -0.002051 0.000000 0.003512 0.000000
# 3 -0.001193 -0.002051 0.009510 0.000000 0.001784 0.000000
# 4 0.000000 0.000000 0.000000 0.113545 0.000000 0.031359
# 5 0.006000 0.003512 0.001784 0.000000 0.040703 0.000000
# 6 0.000000 0.000000 0.000000 0.031359 0.000000 0.065873
#
#
# Mechanical properties :
#
#
# Convention : Reuss Voigt Hill
#
# Bulk Modulus (GPa) = 41.64952 60.91686 51.28319
# Shear Modulus (GPa) = 18.12220 28.41074 23.26647
#
# Velocity S-wave (km/s) = 2.80375 3.51055 3.17687
# Velocity P-wave (km/s) = 5.34303 6.54647 5.97513
#
# Compressibility (1/GPa) = 0.02400988
#
# Stress axis : x y z
#
# Youngs Moduli (GPa) = 52.50237 136.27281 105.15428
#
# Poissons Ratio (x) = 0.36774 0.12546
# Poissons Ratio (y) = 0.14168 0.21565
# Poissons Ratio (z) = 0.06264 0.27947
#
# Static dielectric constant tensor:
#      x y z
#    x 1.934510 0.000000 -0.028720 
#    y 0.000000 1.874420 0.000000 
#    z -0.028720 0.000000 2.007880 
# 
# From -- ./inp_files/9420.got.cif
#   From: 2010.05.17/outbox.cif.g08.bks.cpg/sg11_5_cif.got.tgz:9420.got - 2010.06.03 12:22:45.
