data_PCOD9164505
_publ_section_title
;
Structure prediction by ZEFSAII (Michael W. Deem and Ramdas Pophale) SiO2 
 PCOD9164505
Probable space group: P 21/M
;
_chemical_formula_sum "Si O2"
_cell_formula_units_Z 28
_cell_length_a 26.692571
_cell_length_b 8.872792
_cell_length_c 9.746781
_cell_angle_alpha 90.000000
_cell_angle_beta 39.776026
_cell_angle_gamma 90.000000
_cell_volume 1476.889911
_symmetry_space_group_name_H-M "P 21/M"
_symmetry_group_IT_number 11
_symmetry_cell_setting 'monoclinic'
loop_
_space_group_symop_operation_xyz
x,y,z
-x,1/2+y,-z
-x,-y,-z
x,1/2-y,z
loop_
_atom_site_type_symbol
_atom_site_label
_atom_site_fract_x
_atom_site_fract_y
_atom_site_fract_z
Si Si1 0.683032 0.074574 0.788662
Si Si2 0.497961 0.571693 0.854588
Si Si3 0.916496 0.930992 0.211432
Si Si4 0.777813 0.070076 0.325329
Si Si5 0.430834 0.930283 0.554771
Si Si6 0.182266 0.427902 0.323704
Si Si7 0.253997 0.568602 0.919156
O O1 0.703028 0.250000 0.777341
O O2 0.704900 0.047878 0.582892
O O3 0.738614 0.969355 0.760268
O O4 0.591749 0.054700 0.007220
O O5 0.515802 0.750000 0.820888
O O6 0.553310 0.484584 0.633336
O O7 0.500000 0.500000 0.000000
O O8 0.919334 0.750000 0.201290
O O9 0.886333 0.976750 0.427304
O O10 0.851254 0.989540 0.241906
O O11 0.000000 0.000000 0.000000
O O12 0.792844 0.250000 0.290484
O O13 0.761301 0.019497 0.205250
O O14 0.435192 0.750000 0.555437
O O15 0.342179 0.977364 0.777827
O O16 0.500000 0.000000 0.500000
O O17 0.176379 0.250000 0.316286
O O18 0.191174 0.507273 0.158965
O O19 0.252529 0.750000 0.924172
#
# Coordination Sequence:
#
# PCOD9164505 Si02
#       7
#     4   4   4   4   4   4   4
#     4   9  18  34  54  74 101 139 182 223 270 327
#     4  11  22  35  52  76 105 141 185 234 284 332
#     4  10  21  38  60  87 114 140 172 213 261 319
#     4   9  18  35  58  81 106 141 181 223 269 318
#     4  11  23  38  54  77 110 149 193 238 282 331
#     4  10  21  35  55  83 110 136 174 221 264 311
#     4  10  21  37  56  78 109 148 187 224 271 330
#
# _framework density 18.958758
#
# number of rings (size 3 to 8) (size 9 to 14) (size 15 to 20)
#    0.000    2.000    0.000    3.429    0.000   10.286 
#    0.000    3.571    0.000    0.000    0.000    0.000 
#    0.000    0.000    0.000    0.000    0.000    0.000 
#
# Total GULP energy -156365.381059 kJ/mol
# GULP energy per Si atom -5584.477895 kJ/mol
# Density = 1.891561 g / cm^3
# Si number density = 18.958758 Si / 1000 Ang^3
#
#
#
# Elastic Constant Matrix: (Units=GPa)
#
#
# Indices 1 2 3 4 5 6 
#
# 1 45.4884 13.9516 36.7112 0.0000 9.2137 0.0000
# 2 13.9516 29.1469 33.1581 0.0000 -2.7528 0.0000
# 3 36.7112 33.1581 130.4281 0.0000 6.3478 0.0000
# 4 0.0000 0.0000 0.0000 30.7167 0.0000 5.3820
# 5 9.2137 -2.7528 6.3478 0.0000 33.7490 0.0000
# 6 0.0000 0.0000 0.0000 5.3820 0.0000 29.6220
#
#
#
# Elastic Compliance Matrix: (Units=1/GPa)
#
#
# Indices 1 2 3 4 5 6 
#
# 1 0.031293 -0.008680 -0.006208 0.000000 -0.008084 0.000000
# 2 -0.008680 0.052043 -0.011212 0.000000 0.008724 0.000000
# 3 -0.006208 -0.011212 0.012340 0.000000 -0.001541 0.000000
# 4 0.000000 0.000000 0.000000 0.033626 0.000000 -0.006110
# 5 -0.008084 0.008724 -0.001541 0.000000 0.032839 0.000000
# 6 0.000000 0.000000 0.000000 -0.006110 0.000000 0.034869
#
#
# Mechanical properties :
#
#
# Convention : Reuss Voigt Hill
#
# Bulk Modulus (GPa) = 23.00139 41.41167 32.20653
# Shear Modulus (GPa) = 18.96085 26.90038 22.93061
#
# Velocity S-wave (km/s) = 3.16588 3.77090 3.48156
# Velocity P-wave (km/s) = 5.05197 6.39140 5.76075
#
# Compressibility (1/GPa) = 0.04347563
#
# Stress axis : x y z
#
# Youngs Moduli (GPa) = 31.95572 19.21497 81.03923
#
# Poissons Ratio (x) = 0.16679 0.50308
# Poissons Ratio (y) = 0.27738 0.90861
# Poissons Ratio (z) = 0.19838 0.21544
#
# Static dielectric constant tensor:
#      x y z
#    x 1.671270 0.000000 0.059680 
#    y 0.000000 1.634870 0.000000 
#    z 0.059680 0.000000 1.741210 
# 
# From -- ./inp_files/28248.got.cif
#   From: 2010.05.17/outbox.cif.g08.bks.cpg/sg11_15_cif.got.tgz:28248.got - 2010.06.03 12:22:45.
