data_PCOD9164912
_publ_section_title
;
Structure prediction by ZEFSAII (Michael W. Deem and Ramdas Pophale) SiO2 
 PCOD9164912
Probable space group: P 21/M
;
_chemical_formula_sum "Si O2"
_cell_formula_units_Z 20
_cell_length_a 7.658465
_cell_length_b 8.335029
_cell_length_c 24.507906
_cell_angle_alpha 90.000000
_cell_angle_beta 141.082282
_cell_angle_gamma 90.000000
_cell_volume 982.778248
_symmetry_space_group_name_H-M "P 21/M"
_symmetry_group_IT_number 11
_symmetry_cell_setting 'monoclinic'
loop_
_space_group_symop_operation_xyz
x,y,z
-x,1/2+y,-z
-x,-y,-z
x,1/2-y,z
loop_
_atom_site_type_symbol
_atom_site_label
_atom_site_fract_x
_atom_site_fract_y
_atom_site_fract_z
Si Si1 0.803639 0.067605 0.905304
Si Si2 0.197725 0.941524 0.267909
Si Si3 0.804026 0.060359 0.089168
Si Si4 0.757820 0.940573 0.598392
Si Si5 0.639397 0.555281 0.282020
O O1 0.745672 0.250000 0.906553
O O2 0.517416 0.996218 0.811712
O O3 0.996028 0.048873 0.899056
O O4 0.000000 0.000000 0.000000
O O5 0.162415 0.750000 0.255153
O O6 0.452448 0.990123 0.289269
O O7 0.253939 0.986868 0.343690
O O8 0.918150 0.026272 0.177354
O O9 0.831407 0.250000 0.083589
O O10 0.500000 0.000000 0.000000
O O11 0.749499 0.750000 0.600488
O O12 0.500000 0.000000 0.500000
O O13 0.049091 0.993034 0.642052
O O14 0.641434 0.750000 0.280476
#
# Coordination Sequence:
#
# PCOD9164912 Si02
#       5
#     4   4   4   4   4
#     4  10  21  37  58  87 123 164 208 254 309 371
#     4  10  22  43  67  92 127 165 208 262 318 378
#     4  11  22  37  58  87 123 164 209 255 308 371
#     4  12  26  43  67  96 126 165 212 263 319 380
#     4   9  21  42  65  90 125 166 208 260 317 374
#
# _framework density 20.350470000000001
#
# number of rings (size 3 to 8) (size 9 to 14) (size 15 to 20)
#    0.000    1.600    0.000    6.000    2.800    5.600 
#    0.000    0.000    0.000    0.000    0.000    0.000 
#    0.000    0.000    0.000    0.000    0.000    0.000 
#
# Total GULP energy -111627.229731 kJ/mol
# GULP energy per Si atom -5581.361487 kJ/mol
# Density = 2.030415 g / cm^3
# Si number density = 20.350470 Si / 1000 Ang^3
#
#
#
# Elastic Constant Matrix: (Units=GPa)
#
#
# Indices 1 2 3 4 5 6 
#
# 1 75.2132 10.2654 55.8755 0.0000 0.3999 0.0000
# 2 10.2654 64.5538 23.5157 0.0000 0.0171 0.0000
# 3 55.8755 23.5157 181.8050 0.0000 7.4212 0.0000
# 4 0.0000 0.0000 0.0000 38.2258 0.0000 -2.4431
# 5 0.3999 0.0171 7.4212 0.0000 40.5087 0.0000
# 6 0.0000 0.0000 0.0000 -2.4431 0.0000 29.7234
#
#
#
# Elastic Compliance Matrix: (Units=1/GPa)
#
#
# Indices 1 2 3 4 5 6 
#
# 1 0.017299 -0.000842 -0.005240 0.000000 0.000790 0.000000
# 2 -0.000842 0.016304 -0.001864 0.000000 0.000343 0.000000
# 3 -0.005240 -0.001864 0.007405 0.000000 -0.001304 0.000000
# 4 0.000000 0.000000 0.000000 0.026299 0.000000 0.002162
# 5 0.000790 0.000343 -0.001304 0.000000 0.024917 0.000000
# 6 0.000000 0.000000 0.000000 0.002162 0.000000 0.033821
#
#
# Mechanical properties :
#
#
# Convention : Reuss Voigt Hill
#
# Bulk Modulus (GPa) = 39.81588 55.65391 47.73490
# Shear Modulus (GPa) = 33.26482 37.15260 35.20871
#
# Velocity S-wave (km/s) = 4.04740 4.27738 4.16398
# Velocity P-wave (km/s) = 6.43813 7.19735 6.82830
#
# Compressibility (1/GPa) = 0.02511561
#
# Stress axis : x y z
#
# Youngs Moduli (GPa) = 57.80675 61.33537 135.04113
#
# Poissons Ratio (x) = 0.05166 0.70760
# Poissons Ratio (y) = 0.04869 0.25171
# Poissons Ratio (z) = 0.30290 0.11433
#
# Static dielectric constant tensor:
#      x y z
#    x 1.762130 0.000000 -0.037530 
#    y 0.000000 1.728800 0.000000 
#    z -0.037530 0.000000 1.780920 
# 
# From -- ./inp_files/20267.got.cif
#   From: 2010.05.17/outbox.cif.g08.bks.cpg/sg11_11_cif.got.tgz:20267.got - 2010.06.03 12:22:45.
