data_PCOD9164487
_publ_section_title
;
Structure prediction by ZEFSAII (Michael W. Deem and Ramdas Pophale) SiO2 
 PCOD9164487
Probable space group: P 21/M
;
_chemical_formula_sum "Si O2"
_cell_formula_units_Z 32
_cell_length_a 20.205384
_cell_length_b 9.378840
_cell_length_c 26.125039
_cell_angle_alpha 90.000000
_cell_angle_beta 17.561540
_cell_angle_gamma 90.000000
_cell_volume 1493.797270
_symmetry_space_group_name_H-M "P 21/M"
_symmetry_group_IT_number 11
_symmetry_cell_setting 'monoclinic'
loop_
_space_group_symop_operation_xyz
x,y,z
-x,1/2+y,-z
-x,-y,-z
x,1/2-y,z
loop_
_atom_site_type_symbol
_atom_site_label
_atom_site_fract_x
_atom_site_fract_y
_atom_site_fract_z
Si Si1 0.553078 0.584102 0.686521
Si Si2 0.080789 0.090583 0.165419
Si Si3 0.677026 0.917391 0.795231
Si Si4 0.681051 0.586346 0.478796
Si Si5 0.737144 0.587967 0.859704
Si Si6 0.590519 0.418332 0.759864
Si Si7 0.084289 0.582331 0.987849
Si Si8 0.381220 0.416195 0.632122
O O1 0.536945 0.750000 0.714782
O O2 0.694392 0.580284 0.530431
O O3 0.636611 0.490803 0.671786
O O4 0.309359 0.535095 0.848390
O O5 0.017191 0.250000 0.194669
O O6 0.098745 0.093981 0.214088
O O7 0.327020 0.061478 0.964203
O O8 0.896078 0.974074 0.292306
O O9 0.675127 0.750000 0.784172
O O10 0.821972 0.939970 0.739715
O O11 0.442190 0.971897 0.990606
O O12 0.712191 0.007835 0.718126
O O13 0.640616 0.750000 0.494091
O O14 0.479170 0.488131 0.610789
O O15 0.637274 0.750000 0.931577
O O16 0.634175 0.250000 0.727570
O O17 0.114072 0.750000 0.952576
O O18 0.879816 0.569394 0.176981
O O19 0.000000 0.500000 0.000000
O O20 0.500000 0.500000 0.500000
O O21 0.435461 0.250000 0.591347
#
# Coordination Sequence:
#
# PCOD9164487 Si02
#       8
#     4   4   4   4   4   4   4   4
#     4  10  22  39  57  79 108 142 180 224 268 317
#     4   9  19  35  53  79 113 144 179 223 267 320
#     4   9  15  26  48  76 107 141 176 220 269 317
#     4  11  23  39  58  80 109 145 181 222 271 322
#     4   8  15  28  47  74 107 142 178 218 268 318
#     4  10  21  35  53  81 111 143 181 224 271 318
#     4  10  21  39  61  83 107 139 179 221 267 320
#     4  11  24  40  60  86 112 142 178 220 271 322
#
# _framework density 21.421917000000001
#
# number of rings (size 3 to 8) (size 9 to 14) (size 15 to 20)
#    0.000    2.250    1.250    2.250    1.750    5.000 
#    0.000    0.000    0.000    0.750    0.000    0.000 
#    0.000    0.000    0.000    0.000    0.000    0.000 
#
# Total GULP energy -178540.301870 kJ/mol
# GULP energy per Si atom -5579.384433 kJ/mol
# Density = 2.137316 g / cm^3
# Si number density = 21.421917 Si / 1000 Ang^3
#
#
#
# Elastic Constant Matrix: (Units=GPa)
#
#
# Indices 1 2 3 4 5 6 
#
# 1 89.3736 31.7862 -0.5265 0.0000 26.0858 0.0000
# 2 31.7862 91.7917 33.9185 0.0000 14.6039 0.0000
# 3 -0.5265 33.9185 39.7937 0.0000 -1.4658 0.0000
# 4 0.0000 0.0000 0.0000 15.9758 0.0000 4.6230
# 5 26.0858 14.6039 -1.4658 0.0000 15.3765 0.0000
# 6 0.0000 0.0000 0.0000 4.6230 0.0000 36.8090
#
#
#
# Elastic Compliance Matrix: (Units=1/GPa)
#
#
# Indices 1 2 3 4 5 6 
#
# 1 0.022509 -0.002550 0.001158 0.000000 -0.035654 0.000000
# 2 -0.002550 0.021804 -0.019290 0.000000 -0.018221 0.000000
# 3 0.001158 -0.019290 0.042338 0.000000 0.020392 0.000000
# 4 0.000000 0.000000 0.000000 0.064955 0.000000 -0.008158
# 5 -0.035654 -0.018221 0.020392 0.000000 0.144770 0.000000
# 6 0.000000 0.000000 0.000000 -0.008158 0.000000 0.028192
#
#
# Mechanical properties :
#
#
# Convention : Reuss Voigt Hill
#
# Bulk Modulus (GPa) = 22.08110 39.03503 30.55807
# Shear Modulus (GPa) = 13.12240 24.01764 18.57002
#
# Velocity S-wave (km/s) = 2.47770 3.35202 2.94746
# Velocity P-wave (km/s) = 4.30295 5.76567 5.08716
#
# Compressibility (1/GPa) = 0.04528759
#
# Stress axis : x y z
#
# Youngs Moduli (GPa) = 44.42625 45.86278 23.61949
#
# Poissons Ratio (x) = 0.11695 -0.02735
# Poissons Ratio (y) = 0.11329 0.45562
# Poissons Ratio (z) = -0.05145 0.88469
#
# Static dielectric constant tensor:
#      x y z
#    x 1.846530 0.000000 -0.008990 
#    y 0.000000 1.747530 0.000000 
#    z -0.008990 0.000000 1.792510 
# 
# From -- ./inp_files/71997.got.cif
#   From: 2010.05.17/outbox.cif.g08.bks.cpg/sg11_36_cif.got.tgz:71997.got - 2010.06.03 12:22:45.
