data_PCOD9164740
_publ_section_title
;
Structure prediction by ZEFSAII (Michael W. Deem and Ramdas Pophale) SiO2 
 PCOD9164740
Probable space group: P 21/M
;
_chemical_formula_sum "Si O2"
_cell_formula_units_Z 32
_cell_length_a 24.581837
_cell_length_b 8.555053
_cell_length_c 14.599076
_cell_angle_alpha 90.000000
_cell_angle_beta 33.196126
_cell_angle_gamma 90.000000
_cell_volume 1680.938418
_symmetry_space_group_name_H-M "P 21/M"
_symmetry_group_IT_number 11
_symmetry_cell_setting 'monoclinic'
loop_
_space_group_symop_operation_xyz
x,y,z
-x,1/2+y,-z
-x,-y,-z
x,1/2-y,z
loop_
_atom_site_type_symbol
_atom_site_label
_atom_site_fract_x
_atom_site_fract_y
_atom_site_fract_z
Si Si1 0.175415 0.938828 0.642710
Si Si2 0.934544 0.437793 0.675829
Si Si3 0.610275 0.062261 0.327656
Si Si4 0.289594 0.435633 0.998891
Si Si5 0.017560 0.561434 0.188066
Si Si6 0.415590 0.936316 0.989322
Si Si7 0.209279 0.940432 0.802915
Si Si8 0.625995 0.438476 0.742896
O O1 0.171422 0.750000 0.648988
O O2 0.188991 0.993053 0.728183
O O3 0.271764 0.985655 0.448540
O O4 0.076092 0.000478 0.735923
O O5 0.933445 0.250000 0.674627
O O6 0.821161 0.496509 0.833447
O O7 0.980716 0.488375 0.708468
O O8 0.000000 0.500000 0.500000
O O9 0.607765 0.250000 0.330150
O O10 0.685998 0.010681 0.301382
O O11 0.500000 0.000000 0.500000
O O12 0.657401 0.005082 0.165823
O O13 0.283767 0.250000 0.997926
O O14 0.354698 0.480727 0.995526
O O15 0.016080 0.750000 0.188469
O O16 0.119484 0.509957 0.995486
O O17 0.406475 0.750000 0.991218
O O18 0.376277 0.979708 0.146296
O O19 0.530930 0.985341 0.828437
O O20 0.209581 0.750000 0.801430
O O21 0.615815 0.250000 0.750841
#
# Coordination Sequence:
#
# PCOD9164740 Si02
#       8
#     4   4   4   4   4   4   4   4
#     4  10  21  36  60  90 117 154 201 248 300 363
#     4  11  24  43  65  92 127 165 209 262 318 378
#     4  11  23  42  65  94 129 167 209 258 316 377
#     4  12  25  42  65  94 125 167 213 260 316 376
#     4  10  21  40  61  85 119 159 198 248 308 364
#     4  10  21  38  60  86 122 163 201 250 308 365
#     4   9  19  39  62  84 120 160 194 245 308 361
#     4   9  20  38  58  87 122 158 200 250 304 365
#
# _framework density 19.036985000000001
#
# number of rings (size 3 to 8) (size 9 to 14) (size 15 to 20)
#    0.000    1.750    1.250    2.625    3.500    2.000 
#    0.000    1.250    0.000    0.000    0.000    0.000 
#    0.000    0.000    0.000    0.000    0.000    0.000 
#
# Total GULP energy -178821.869032 kJ/mol
# GULP energy per Si atom -5588.183407 kJ/mol
# Density = 1.899366 g / cm^3
# Si number density = 19.036985 Si / 1000 Ang^3
#
#
#
# Elastic Constant Matrix: (Units=GPa)
#
#
# Indices 1 2 3 4 5 6 
#
# 1 179.9859 37.7731 96.7053 0.0000 -21.3913 0.0000
# 2 37.7731 46.1939 36.4112 0.0000 -5.3192 0.0000
# 3 96.7053 36.4112 173.1382 0.0000 -16.0484 0.0000
# 4 0.0000 0.0000 0.0000 23.9857 0.0000 -12.4837
# 5 -21.3913 -5.3192 -16.0484 0.0000 9.1114 0.0000
# 6 0.0000 0.0000 0.0000 -12.4837 0.0000 28.0154
#
#
#
# Elastic Compliance Matrix: (Units=1/GPa)
#
#
# Indices 1 2 3 4 5 6 
#
# 1 0.009964 -0.003737 -0.003362 0.000000 0.015289 0.000000
# 2 -0.003737 0.027689 -0.003646 0.000000 0.000970 0.000000
# 3 -0.003362 -0.003646 0.008953 0.000000 0.005748 0.000000
# 4 0.000000 0.000000 0.000000 0.054280 0.000000 0.024187
# 5 0.015289 0.000970 0.005748 0.000000 0.156338 0.000000
# 6 0.000000 0.000000 0.000000 0.024187 0.000000 0.046473
#
#
# Mechanical properties :
#
#
# Convention : Reuss Voigt Hill
#
# Bulk Modulus (GPa) = 39.81510 82.34415 61.07963
# Shear Modulus (GPa) = 14.98986 27.45104 21.22045
#
# Velocity S-wave (km/s) = 2.80912 3.80147 3.34233
# Velocity P-wave (km/s) = 5.61084 7.91309 6.85925
#
# Compressibility (1/GPa) = 0.02511610
#
# Stress axis : x y z
#
# Youngs Moduli (GPa) = 100.36311 36.11536 111.69210
#
# Poissons Ratio (x) = 0.13495 0.37553
# Poissons Ratio (y) = 0.37503 0.40723
# Poissons Ratio (z) = 0.33744 0.13168
#
# Static dielectric constant tensor:
#      x y z
#    x 1.640680 0.000000 0.013290 
#    y 0.000000 1.651760 0.000000 
#    z 0.013290 0.000000 1.635500 
# 
# From -- ./inp_files/55578.got.cif
#   From: 2010.05.17/outbox.cif.g08.bks.cpg/sg11_28_cif.got.tgz:55578.got - 2010.06.03 12:22:45.
