data_PCOD9164273
_publ_section_title
;
Structure prediction by ZEFSAII (Michael W. Deem and Ramdas Pophale) SiO2 
 PCOD9164273
Probable space group: P 21/M
;
_chemical_formula_sum "Si O2"
_cell_formula_units_Z 22
_cell_length_a 15.406282
_cell_length_b 10.545766
_cell_length_c 11.792281
_cell_angle_alpha 90.000000
_cell_angle_beta 149.900808
_cell_angle_gamma 90.000000
_cell_volume 960.823160
_symmetry_space_group_name_H-M "P 21/M"
_symmetry_group_IT_number 11
_symmetry_cell_setting 'monoclinic'
loop_
_space_group_symop_operation_xyz
x,y,z
-x,1/2+y,-z
-x,-y,-z
x,1/2-y,z
loop_
_atom_site_type_symbol
_atom_site_label
_atom_site_fract_x
_atom_site_fract_y
_atom_site_fract_z
Si Si1 0.878413 0.019702 0.470293
Si Si2 0.366086 0.750000 0.750917
Si Si3 0.968506 0.524238 0.131919
Si Si4 0.853616 0.250000 0.995851
Si Si5 0.520232 0.750000 0.318559
Si Si6 0.316555 0.250000 0.737837
Si Si7 0.302753 0.487747 0.363315
Si Si8 0.646847 0.250000 0.539960
O O1 0.791821 0.881022 0.391596
O O2 0.003735 0.074270 0.711797
O O3 0.727009 0.125377 0.301358
O O4 0.000000 0.000000 0.500000
O O5 0.351707 0.750000 0.595831
O O6 0.564951 0.750000 0.015666
O O7 0.145564 0.541227 0.263891
O O8 0.957001 0.374316 0.136804
O O9 0.801272 0.554447 0.867095
O O10 0.678995 0.250000 0.870572
O O11 0.809462 0.250000 0.812495
O O12 0.555086 0.750000 0.225005
O O13 0.608060 0.873233 0.472647
O O14 0.426929 0.612308 0.500898
#
# Coordination Sequence:
#
# PCOD9164273 Si02
#       8
#     4   2   4   2   2   2   4   2
#     4  12  26  46  69  97 131 171 228 275 317 384
#     4  12  25  45  70  94 134 179 215 275 329 381
#     4  10  20  40  65  96 123 168 215 270 316 384
#     4  10  24  37  67  98 135 168 212 267 326 389
#     4  12  23  42  65  99 133 173 210 264 325 398
#     4  12  26  47  67  96 130 181 220 260 331 397
#     4  10  21  39  70  92 127 166 215 263 333 390
#     4  10  20  43  61  95 130 167 209 266 323 387
#
# _framework density 22.897031999999999
#
# number of rings (size 3 to 8) (size 9 to 14) (size 15 to 20)
#    0.000    1.091    3.636    2.182    2.545    5.818 
#    3.273    0.000    0.000    1.091    0.000    0.000 
#    0.000    0.000    0.000    0.000    0.000    0.000 
#
# Total GULP energy -122746.386389 kJ/mol
# GULP energy per Si atom -5579.381200 kJ/mol
# Density = 2.284492 g / cm^3
# Si number density = 22.897032 Si / 1000 Ang^3
#
#
#
# Elastic Constant Matrix: (Units=GPa)
#
#
# Indices 1 2 3 4 5 6 
#
# 1 124.8051 -9.2874 51.7770 0.0000 -0.9467 0.0000
# 2 -9.2874 112.5918 12.1183 0.0000 1.5349 0.0000
# 3 51.7770 12.1183 100.6130 0.0000 -27.5668 0.0000
# 4 0.0000 0.0000 0.0000 42.9015 0.0000 3.4908
# 5 -0.9467 1.5349 -27.5668 0.0000 24.8798 0.0000
# 6 0.0000 0.0000 0.0000 3.4908 0.0000 15.5927
#
#
#
# Elastic Compliance Matrix: (Units=1/GPa)
#
#
# Indices 1 2 3 4 5 6 
#
# 1 0.011810 0.002069 -0.008958 0.000000 -0.009604 0.000000
# 2 0.002069 0.009472 -0.003366 0.000000 -0.004235 0.000000
# 3 -0.008958 -0.003366 0.021421 0.000000 0.023601 0.000000
# 4 0.000000 0.000000 0.000000 0.023742 0.000000 -0.005315
# 5 -0.009604 -0.004235 0.023601 0.000000 0.066240 0.000000
# 6 0.000000 0.000000 0.000000 -0.005315 0.000000 0.065322
#
#
# Mechanical properties :
#
#
# Convention : Reuss Voigt Hill
#
# Bulk Modulus (GPa) = 45.05910 49.69175 47.37542
# Shear Modulus (GPa) = 22.13218 35.56828 28.85023
#
# Velocity S-wave (km/s) = 3.11239 3.94560 3.55350
# Velocity P-wave (km/s) = 5.71294 6.51969 6.12960
#
# Compressibility (1/GPa) = 0.02219308
#
# Stress axis : x y z
#
# Youngs Moduli (GPa) = 84.67324 105.57007 46.68281
#
# Poissons Ratio (x) = -0.21846 0.41820
# Poissons Ratio (y) = -0.17521 0.15715
# Poissons Ratio (z) = 0.75853 0.35538
#
# Static dielectric constant tensor:
#      x y z
#    x 1.938250 0.000000 -0.012570 
#    y 0.000000 2.003590 0.000000 
#    z -0.012570 0.000000 1.807780 
# 
# From -- ./inp_files/39299.got.cif
#   From: 2010.05.17/outbox.cif.g08.bks.cpg/sg11_20_cif.got.tgz:39299.got - 2010.06.03 12:22:45.
