data_PCOD9164447
_publ_section_title
;
Structure prediction by ZEFSAII (Michael W. Deem and Ramdas Pophale) SiO2 
 PCOD9164447
Probable space group: P 21/M
;
_chemical_formula_sum "Si O2"
_cell_formula_units_Z 32
_cell_length_a 17.321064
_cell_length_b 8.875144
_cell_length_c 23.384095
_cell_angle_alpha 90.000000
_cell_angle_beta 30.711005
_cell_angle_gamma 90.000000
_cell_volume 1835.875627
_symmetry_space_group_name_H-M "P 21/M"
_symmetry_group_IT_number 11
_symmetry_cell_setting 'monoclinic'
loop_
_space_group_symop_operation_xyz
x,y,z
-x,1/2+y,-z
-x,-y,-z
x,1/2-y,z
loop_
_atom_site_type_symbol
_atom_site_label
_atom_site_fract_x
_atom_site_fract_y
_atom_site_fract_z
Si Si1 0.161496 0.423418 0.897542
Si Si2 0.501209 0.569267 0.857826
Si Si3 0.381813 0.933140 0.455839
Si Si4 0.320231 0.074622 0.672557
Si Si5 0.349043 0.430738 0.124117
Si Si6 0.193872 0.930145 0.121078
Si Si7 0.465798 0.067386 0.758569
Si Si8 0.122347 0.929572 0.701052
O O1 0.138329 0.250000 0.928704
O O2 0.232356 0.427263 0.789022
O O3 0.294004 0.485706 0.854157
O O4 0.000000 0.500000 0.000000
O O5 0.499662 0.750000 0.852038
O O6 0.631393 0.531844 0.821372
O O7 0.518037 0.492392 0.786133
O O8 0.339365 0.526230 0.989618
O O9 0.536317 0.750000 0.240022
O O10 0.511894 0.981327 0.417990
O O11 0.430700 0.981155 0.361223
O O12 0.218377 0.975805 0.583567
O O13 0.327555 0.250000 0.648875
O O14 0.228426 0.976823 0.686145
O O15 0.350550 0.250000 0.117740
O O16 0.217162 0.498782 0.169297
O O17 0.500000 0.500000 0.000000
O O18 0.194493 0.750000 0.125004
O O19 0.038161 0.989132 0.194319
O O20 0.899658 0.250000 0.285560
O O21 0.389071 0.750000 0.451429
#
# Coordination Sequence:
#
# PCOD9164447 Si02
#       8
#     4   4   4   4   4   4   4   4
#     4   9  19  32  46  66  96 133 165 202 247 290
#     4   9  19  33  51  76 104 130 158 198 247 295
#     4   8  17  35  53  70  97 132 170 212 255 292
#     4   9  18  34  51  68  96 133 169 209 257 298
#     4   9  17  32  52  75 104 135 165 199 245 300
#     4  10  21  35  50  74 107 136 163 202 255 301
#     4   9  18  33  52  72  95 129 170 204 242 296
#     4  11  21  32  51  76 100 129 169 214 253 299
#
# _framework density 17.430374
#
# number of rings (size 3 to 8) (size 9 to 14) (size 15 to 20)
#    0.000    2.750    0.000    3.750    1.750    4.000 
#    0.000    3.750    0.000    0.750    0.000    0.000 
#    0.000    0.000    0.000    0.000    0.000    0.000 
#
# Total GULP energy -178313.260671 kJ/mol
# GULP energy per Si atom -5572.289396 kJ/mol
# Density = 1.739070 g / cm^3
# Si number density = 17.430374 Si / 1000 Ang^3
#
#
#
# Elastic Constant Matrix: (Units=GPa)
#
#
# Indices 1 2 3 4 5 6 
#
# 1 89.6389 16.8216 8.9057 0.0000 17.7808 0.0000
# 2 16.8216 27.2855 7.1682 0.0000 2.9298 0.0000
# 3 8.9057 7.1682 22.2563 0.0000 -2.5594 0.0000
# 4 0.0000 0.0000 0.0000 15.9314 0.0000 1.7012
# 5 17.7808 2.9298 -2.5594 0.0000 15.5859 0.0000
# 6 0.0000 0.0000 0.0000 1.7012 0.0000 33.3837
#
#
#
# Elastic Compliance Matrix: (Units=1/GPa)
#
#
# Indices 1 2 3 4 5 6 
#
# 1 0.016856 -0.006542 -0.006837 0.000000 -0.019123 0.000000
# 2 -0.006542 0.044110 -0.011909 0.000000 -0.002784 0.000000
# 3 -0.006837 -0.011909 0.053670 0.000000 0.018852 0.000000
# 4 0.000000 0.000000 0.000000 0.063113 0.000000 -0.003216
# 5 -0.019123 -0.002784 0.018852 0.000000 0.089595 0.000000
# 6 0.000000 0.000000 0.000000 -0.003216 0.000000 0.030119
#
#
# Mechanical properties :
#
#
# Convention : Reuss Voigt Hill
#
# Bulk Modulus (GPa) = 15.61030 22.77463 19.19246
# Shear Modulus (GPa) = 13.53572 20.06587 16.80079
#
# Velocity S-wave (km/s) = 2.78970 3.39662 3.10801
# Velocity P-wave (km/s) = 4.39907 5.33639 4.89024
#
# Compressibility (1/GPa) = 0.06406027
#
# Stress axis : x y z
#
# Youngs Moduli (GPa) = 59.32610 22.67039 18.63226
#
# Poissons Ratio (x) = 0.14832 0.12738
# Poissons Ratio (y) = 0.38813 0.22189
# Poissons Ratio (z) = 0.40560 0.26999
#
# Static dielectric constant tensor:
#      x y z
#    x 1.614080 0.000000 -0.000920 
#    y 0.000000 1.588790 0.000000 
#    z -0.000920 0.000000 1.598460 
# 
# From -- ./inp_files/69448.got.cif
#   From: 2010.05.17/outbox.cif.g08.bks.cpg/sg11_35_cif.got.tgz:69448.got - 2010.06.03 12:22:45.
