data_PCOD9164531
_publ_section_title
;
Structure prediction by ZEFSAII (Michael W. Deem and Ramdas Pophale) SiO2 
 PCOD9164531
Probable space group: P 21/M
;
_chemical_formula_sum "Si O2"
_cell_formula_units_Z 24
_cell_length_a 14.596033
_cell_length_b 16.880133
_cell_length_c 4.974912
_cell_angle_alpha 90.000000
_cell_angle_beta 103.743305
_cell_angle_gamma 90.000000
_cell_volume 1190.640681
_symmetry_space_group_name_H-M "P 21/M"
_symmetry_group_IT_number 11
_symmetry_cell_setting 'monoclinic'
loop_
_space_group_symop_operation_xyz
x,y,z
-x,1/2+y,-z
-x,-y,-z
x,1/2-y,z
loop_
_atom_site_type_symbol
_atom_site_label
_atom_site_fract_x
_atom_site_fract_y
_atom_site_fract_z
Si Si1 0.679920 0.387356 0.812935
Si Si2 0.215545 0.447910 0.059931
Si Si3 0.893566 0.498611 0.525200
Si Si4 0.787372 0.162471 0.396095
Si Si5 0.519318 0.907902 0.077333
Si Si6 0.624851 0.843014 0.642435
O O1 0.709700 0.479914 0.843303
O O2 0.698614 0.355162 0.529316
O O3 0.575997 0.375619 0.853378
O O4 0.752433 0.345871 0.067251
O O5 0.129339 0.463919 0.202874
O O6 0.273636 0.370042 0.173389
O O7 0.174490 0.456825 0.734281
O O8 0.859850 0.407448 0.507578
O O9 0.000000 0.500000 0.500000
O O10 0.823964 0.250000 0.473618
O O11 0.599116 0.893036 0.358061
O O12 0.551069 0.865378 0.826657
O O13 0.500000 0.000000 0.000000
O O14 0.621001 0.750000 0.579176
#
# Coordination Sequence:
#
# PCOD9164531 Si02
#       6
#     4   4   4   4   4   4
#     4  10  21  35  59  83 112 160 200 236 295 362
#     4  10  21  39  61  84 117 156 196 243 302 370
#     4  10  21  39  64  89 113 153 202 244 300 380
#     4  10  21  36  56  86 121 148 189 252 308 349
#     4  12  24  39  63  88 123 170 217 254 295 364
#     4  12  26  41  60  91 128 165 210 262 305 353
#
# _framework density 20.157215999999998
#
# number of rings (size 3 to 8) (size 9 to 14) (size 15 to 20)
#    0.000    1.333    1.667    4.000    4.667    4.000 
#    0.000    1.667    0.000    0.000    0.000    0.000 
#    0.000    0.000    0.000    0.000    0.000    0.000 
#
# Total GULP energy -134180.585136 kJ/mol
# GULP energy per Si atom -5590.857714 kJ/mol
# Density = 2.011134 g / cm^3
# Si number density = 20.157216 Si / 1000 Ang^3
#
#
#
# Elastic Constant Matrix: (Units=GPa)
#
#
# Indices 1 2 3 4 5 6 
#
# 1 88.7797 21.9578 -11.2188 0.0000 -13.5483 0.0000
# 2 21.9578 98.1601 21.2291 0.0000 5.6640 0.0000
# 3 -11.2188 21.2291 78.3276 0.0000 -8.9047 0.0000
# 4 0.0000 0.0000 0.0000 16.4327 0.0000 1.3160
# 5 -13.5483 5.6640 -8.9047 0.0000 24.9245 0.0000
# 6 0.0000 0.0000 0.0000 1.3160 0.0000 11.9682
#
#
#
# Elastic Compliance Matrix: (Units=1/GPa)
#
#
# Indices 1 2 3 4 5 6 
#
# 1 0.014718 -0.004925 0.004669 0.000000 0.010788 0.000000
# 2 -0.004925 0.012799 -0.005013 0.000000 -0.007376 0.000000
# 3 0.004669 -0.005013 0.015856 0.000000 0.009342 0.000000
# 4 0.000000 0.000000 0.000000 0.061395 0.000000 -0.006751
# 5 0.010788 -0.007376 0.009342 0.000000 0.050999 0.000000
# 6 0.000000 0.000000 0.000000 -0.006751 0.000000 0.084297
#
#
# Mechanical properties :
#
#
# Convention : Reuss Voigt Hill
#
# Bulk Modulus (GPa) = 30.45362 36.57817 33.51590
# Shear Modulus (GPa) = 19.11708 26.21837 22.66772
#
# Velocity S-wave (km/s) = 3.08295 3.61043 3.35706
# Velocity P-wave (km/s) = 5.27386 5.96373 5.62937
#
# Compressibility (1/GPa) = 0.03283681
#
# Stress axis : x y z
#
# Youngs Moduli (GPa) = 67.94350 78.13249 63.06631
#
# Poissons Ratio (x) = 0.38477 -0.29447
# Poissons Ratio (y) = 0.33460 0.31614
# Poissons Ratio (z) = -0.31724 0.39166
#
# Static dielectric constant tensor:
#      x y z
#    x 1.707890 0.000000 -0.003550 
#    y 0.000000 1.731130 0.000000 
#    z -0.003550 0.000000 1.708000 
# 
# From -- ./inp_files/6467.got.cif
#   From: 2010.05.17/outbox.cif.g08.bks.cpg/sg11_4_cif.got.tgz:6467.got - 2010.06.03 12:22:45.
