data_PCOD9164919
_publ_section_title
;
Structure prediction by ZEFSAII (Michael W. Deem and Ramdas Pophale) SiO2 
 PCOD9164919
Probable space group: P 21/M
;
_chemical_formula_sum "Si O2"
_cell_formula_units_Z 32
_cell_length_a 11.985965
_cell_length_b 14.246870
_cell_length_c 17.118744
_cell_angle_alpha 90.000000
_cell_angle_beta 31.752762
_cell_angle_gamma 90.000000
_cell_volume 1538.369033
_symmetry_space_group_name_H-M "P 21/M"
_symmetry_group_IT_number 11
_symmetry_cell_setting 'monoclinic'
loop_
_space_group_symop_operation_xyz
x,y,z
-x,1/2+y,-z
-x,-y,-z
x,1/2-y,z
loop_
_atom_site_type_symbol
_atom_site_label
_atom_site_fract_x
_atom_site_fract_y
_atom_site_fract_z
Si Si1 0.536570 0.360441 0.051103
Si Si2 0.943252 0.527409 0.410842
Si Si3 0.953385 0.140504 0.128894
Si Si4 0.656324 0.522042 0.335609
Si Si5 0.374874 0.139506 0.791810
Si Si6 0.874395 0.859583 0.798588
Si Si7 0.963702 0.859750 0.254795
Si Si8 0.343197 0.979431 0.271636
O O1 0.515125 0.250000 0.085861
O O2 0.373656 0.375404 0.075590
O O3 0.460415 0.432781 0.162290
O O4 0.784270 0.378044 0.889269
O O5 0.783692 0.513799 0.576546
O O6 0.992944 0.430809 0.334480
O O7 0.868828 0.602907 0.392385
O O8 0.166767 0.556644 0.316396
O O9 0.895747 0.250000 0.159164
O O10 0.063491 0.125017 0.148423
O O11 0.753133 0.073197 0.243723
O O12 0.127984 0.121220 0.958653
O O13 0.500000 0.500000 0.500000
O O14 0.557475 0.583660 0.325581
O O15 0.852508 0.581892 0.253094
O O16 0.405574 0.250000 0.764026
O O17 0.502353 0.100767 0.789944
O O18 0.920417 0.750000 0.753135
O O19 0.929035 0.750000 0.263503
#
# Coordination Sequence:
#
# PCOD9164919 Si02
#       8
#     4   4   4   4   4   4   4   4
#     4   9  20  37  62  92 126 166 204 247 308 369
#     4  10  21  37  58  91 127 162 200 251 305 369
#     4  10  22  40  66  95 123 159 209 260 311 364
#     4  12  25  45  66  87 124 164 213 256 310 366
#     4  11  25  42  63  92 124 163 208 258 309 363
#     4   9  18  35  62  93 126 162 205 250 302 372
#     4  11  23  39  62  91 120 160 205 254 306 361
#     4  10  22  38  59  89 126 165 205 245 311 366
#
# _framework density 20.80125
#
# number of rings (size 3 to 8) (size 9 to 14) (size 15 to 20)
#    0.000    1.750    1.250    2.250    1.750    3.500 
#    0.000    4.375    0.000    0.000    0.000    0.000 
#    0.000    0.000    0.000    0.000    0.000    0.000 
#
# Total GULP energy -178899.168465 kJ/mol
# GULP energy per Si atom -5590.599015 kJ/mol
# Density = 2.075391 g / cm^3
# Si number density = 20.801250 Si / 1000 Ang^3
#
#
#
# Elastic Constant Matrix: (Units=GPa)
#
#
# Indices 1 2 3 4 5 6 
#
# 1 53.7705 29.5877 9.1923 0.0000 8.2909 0.0000
# 2 29.5877 73.5302 36.5968 0.0000 -1.4882 0.0000
# 3 9.1923 36.5968 53.4752 0.0000 6.0267 0.0000
# 4 0.0000 0.0000 0.0000 2.7160 0.0000 9.7335
# 5 8.2909 -1.4882 6.0267 0.0000 28.6661 0.0000
# 6 0.0000 0.0000 0.0000 9.7335 0.0000 22.9636
#
#
#
# Elastic Compliance Matrix: (Units=1/GPa)
#
#
# Indices 1 2 3 4 5 6 
#
# 1 0.026757 -0.013984 0.006069 0.000000 -0.009741 0.000000
# 2 -0.013984 0.028424 -0.018100 0.000000 0.009325 0.000000
# 3 0.006069 -0.018100 0.031084 0.000000 -0.009230 0.000000
# 4 0.000000 0.000000 0.000000 -0.709385 0.000000 0.300684
# 5 -0.009741 0.009325 -0.009230 0.000000 0.040126 0.000000
# 6 0.000000 0.000000 0.000000 0.300684 0.000000 -0.083903
#
#
# Mechanical properties :
#
#
# Convention : Reuss Voigt Hill
#
# Bulk Modulus (GPa) = 29.21017 36.83662 33.02340
# Shear Modulus (GPa) = -8.28563 17.89575 4.80506
#
# Velocity S-wave (km/s) = -1.99797 2.93630 1.52151
# Velocity P-wave (km/s) = 2.95812 5.40769 4.35853
#
# Compressibility (1/GPa) = 0.03423465
#
# Stress axis : x y z
#
# Youngs Moduli (GPa) = 37.37344 35.18141 32.17077
#
# Poissons Ratio (x) = 0.49199 -0.19523
# Poissons Ratio (y) = 0.52264 0.58228
# Poissons Ratio (z) = -0.22681 0.63677
#
# Static dielectric constant tensor:
#      x y z
#    x 1.743160 0.000000 -0.030540 
#    y 0.000000 1.718410 0.000000 
#    z -0.030540 0.000000 1.748690 
# 
# From -- ./inp_files/59467.got.cif
#   From: 2010.05.17/outbox.cif.g08.bks.cpg/sg11_30_cif.got.tgz:59467.got - 2010.06.03 12:22:45.
