data_PCOD9164348
_publ_section_title
;
Structure prediction by ZEFSAII (Michael W. Deem and Ramdas Pophale) SiO2 
 PCOD9164348
Probable space group: P 21/M
;
_chemical_formula_sum "Si O2"
_cell_formula_units_Z 32
_cell_length_a 16.828114
_cell_length_b 22.751514
_cell_length_c 9.813966
_cell_angle_alpha 90.000000
_cell_angle_beta 24.997509
_cell_angle_gamma 90.000000
_cell_volume 1587.808280
_symmetry_space_group_name_H-M "P 21/M"
_symmetry_group_IT_number 11
_symmetry_cell_setting 'monoclinic'
loop_
_space_group_symop_operation_xyz
x,y,z
-x,1/2+y,-z
-x,-y,-z
x,1/2-y,z
loop_
_atom_site_type_symbol
_atom_site_label
_atom_site_fract_x
_atom_site_fract_y
_atom_site_fract_z
Si Si1 0.548422 0.316662 0.887323
Si Si2 0.044222 0.942235 0.842590
Si Si3 0.966953 0.439422 0.468531
Si Si4 0.551128 0.483364 0.766383
Si Si5 0.675172 0.879891 0.997014
Si Si6 0.459605 0.895607 0.840347
Si Si7 0.013293 0.685367 0.888191
Si Si8 0.380618 0.317113 0.644238
O O1 0.507962 0.250000 0.993387
O O2 0.772479 0.317508 0.501608
O O3 0.407522 0.335503 0.985986
O O4 0.508576 0.362105 0.068619
O O5 0.997373 0.946226 0.752025
O O6 0.269054 0.942705 0.502646
O O7 0.980767 0.879357 0.003464
O O8 0.000000 0.000000 0.000000
O O9 0.000000 0.500000 0.500000
O O10 0.104920 0.389981 0.316798
O O11 0.754191 0.418420 0.822717
O O12 0.581642 0.544754 0.641396
O O13 0.500000 0.500000 0.000000
O O14 0.396010 0.444326 0.934695
O O15 0.590699 0.856429 0.268352
O O16 0.511296 0.849853 0.644047
O O17 0.998509 0.750000 0.982085
O O18 0.842605 0.685831 0.044683
O O19 0.444273 0.250000 0.564133
#
# Coordination Sequence:
#
# PCOD9164348 Si02
#       8
#     4   4   4   4   4   4   4   4
#     4  11  22  41  70  92 121 175 227 265 319 394
#     4  12  23  41  65  98 124 171 222 265 320 390
#     4  12  24  42  63  98 133 171 210 267 333 392
#     4  12  21  39  64  95 129 166 214 274 317 386
#     4  12  22  41  65  94 134 166 211 265 332 381
#     4  12  23  43  65  94 133 170 217 269 325 389
#     4  10  20  42  66  91 126 170 219 267 323 396
#     4  11  25  42  63  95 130 166 215 270 325 388
#
# _framework density 20.153566000000001
#
# number of rings (size 3 to 8) (size 9 to 14) (size 15 to 20)
#    0.000    0.500    7.500    1.500    0.000    1.500 
#    0.000    1.875    0.000    0.000    0.000    0.000 
#    0.000    0.000    0.000    0.000    0.000    0.000 
#
# Total GULP energy -178435.079367 kJ/mol
# GULP energy per Si atom -5576.096230 kJ/mol
# Density = 2.010770 g / cm^3
# Si number density = 20.153566 Si / 1000 Ang^3
#
#
#
# Elastic Constant Matrix: (Units=GPa)
#
#
# Indices 1 2 3 4 5 6 
#
# 1 90.1577 25.2455 38.1499 0.0000 -5.8621 0.0000
# 2 25.2455 151.6042 27.6887 0.0000 2.1009 0.0000
# 3 38.1499 27.6887 33.9469 0.0000 -0.4587 0.0000
# 4 0.0000 0.0000 0.0000 31.2653 0.0000 -5.2972
# 5 -5.8621 2.1009 -0.4587 0.0000 20.6278 0.0000
# 6 0.0000 0.0000 0.0000 -5.2972 0.0000 30.6690
#
#
#
# Elastic Compliance Matrix: (Units=1/GPa)
#
#
# Indices 1 2 3 4 5 6 
#
# 1 0.021889 0.000889 -0.025249 0.000000 0.005568 0.000000
# 2 0.000889 0.007805 -0.007375 0.000000 -0.000706 0.000000
# 3 -0.025249 -0.007375 0.063780 0.000000 -0.005006 0.000000
# 4 0.000000 0.000000 0.000000 0.032949 0.000000 0.005691
# 5 0.005568 -0.000706 -0.005006 0.000000 0.050021 0.000000
# 6 0.000000 0.000000 0.000000 0.005691 0.000000 0.033589
#
#
# Mechanical properties :
#
#
# Convention : Reuss Voigt Hill
#
# Bulk Modulus (GPa) = 33.32783 50.87523 42.10153
# Shear Modulus (GPa) = 17.63647 28.82073 23.22860
#
# Velocity S-wave (km/s) = 2.96142 3.78571 3.39865
# Velocity P-wave (km/s) = 5.31660 6.66389 6.02800
#
# Compressibility (1/GPa) = 0.03000495
#
# Stress axis : x y z
#
# Youngs Moduli (GPa) = 45.68567 128.12695 15.67879
#
# Poissons Ratio (x) = -0.11394 0.39587
# Poissons Ratio (y) = -0.04063 0.11563
# Poissons Ratio (z) = 1.15351 0.94492
#
# Static dielectric constant tensor:
#      x y z
#    x 1.790000 0.000000 0.047860 
#    y 0.000000 1.750670 0.000000 
#    z 0.047860 0.000000 1.782810 
# 
# From -- ./inp_files/23367.got.cif
#   From: 2010.05.17/outbox.cif.g08.bks.cpg/sg11_12_cif.got.tgz:23367.got - 2010.06.03 12:22:45.
