data_PCOD9164889
_publ_section_title
;
Structure prediction by ZEFSAII (Michael W. Deem and Ramdas Pophale) SiO2 
 PCOD9164889
Probable space group: P 21/M
;
_chemical_formula_sum "Si O2"
_cell_formula_units_Z 28
_cell_length_a 15.210904
_cell_length_b 7.795556
_cell_length_c 20.541199
_cell_angle_alpha 90.000000
_cell_angle_beta 32.862691
_cell_angle_gamma 90.000000
_cell_volume 1321.690578
_symmetry_space_group_name_H-M "P 21/M"
_symmetry_group_IT_number 11
_symmetry_cell_setting 'monoclinic'
loop_
_space_group_symop_operation_xyz
x,y,z
-x,1/2+y,-z
-x,-y,-z
x,1/2-y,z
loop_
_atom_site_type_symbol
_atom_site_label
_atom_site_fract_x
_atom_site_fract_y
_atom_site_fract_z
Si Si1 0.402355 0.550993 0.706954
Si Si2 0.063543 0.958748 0.278923
Si Si3 0.869711 0.547650 0.210769
Si Si4 0.510880 0.050178 0.780711
Si Si5 0.839678 0.456785 0.639706
Si Si6 0.279659 0.040072 0.561850
Si Si7 0.792183 0.458110 0.949131
O O1 0.391103 0.750000 0.697559
O O2 0.230104 0.477146 0.792614
O O3 0.447028 0.533586 0.754379
O O4 0.551630 0.475451 0.572086
O O5 0.063088 0.750000 0.280238
O O6 0.137253 0.020505 0.300788
O O7 0.162799 0.008021 0.152706
O O8 0.876082 0.010282 0.384746
O O9 0.884437 0.750000 0.213123
O O10 0.762484 0.482250 0.338650
O O11 0.053152 0.483039 0.103673
O O12 0.535029 0.250000 0.750288
O O13 0.679848 0.977550 0.702582
O O14 0.373423 0.031492 0.920733
O O15 0.824458 0.250000 0.652733
O O16 0.000000 0.500000 0.500000
O O17 0.285780 0.250000 0.557171
O O18 0.779851 0.250000 0.959488
#
# Coordination Sequence:
#
# PCOD9164889 Si02
#       7
#     4   4   4   4   4   4   4
#     4  11  21  33  53  79 106 143 185 218 260 319
#     4   8  15  32  57  80 105 138 175 216 261 311
#     4   9  18  34  55  79 107 136 171 221 274 317
#     4  11  24  38  52  76 111 144 176 221 268 306
#     4  10  21  37  58  84 112 142 174 212 262 315
#     4   8  15  29  52  81 108 135 170 214 264 318
#     4   9  19  37  59  79 101 138 183 219 261 319
#
# _framework density 21.184989999999999
#
# number of rings (size 3 to 8) (size 9 to 14) (size 15 to 20)
#    0.000    2.571    0.000    3.857    0.000    4.000 
#    0.000    1.429    0.000    2.571    0.000    0.000 
#    0.000    0.000    0.000    0.000    0.000    0.000 
#
# Total GULP energy -156309.204729 kJ/mol
# GULP energy per Si atom -5582.471597 kJ/mol
# Density = 2.113677 g / cm^3
# Si number density = 21.184990 Si / 1000 Ang^3
#
#
#
# Elastic Constant Matrix: (Units=GPa)
#
#
# Indices 1 2 3 4 5 6 
#
# 1 147.8977 -8.0809 44.9191 0.0000 -17.6046 0.0000
# 2 -8.0809 23.2804 -10.0294 0.0000 -0.7618 0.0000
# 3 44.9191 -10.0294 101.2604 0.0000 -19.8738 0.0000
# 4 0.0000 0.0000 0.0000 18.9911 0.0000 1.9196
# 5 -17.6046 -0.7618 -19.8738 0.0000 8.1793 0.0000
# 6 0.0000 0.0000 0.0000 1.9196 0.0000 -4.9661
#
#
#
# Elastic Compliance Matrix: (Units=1/GPa)
#
#
# Indices 1 2 3 4 5 6 
#
# 1 0.009455 0.004252 0.000571 0.000000 0.022134 0.000000
# 2 0.004252 0.050586 0.011173 0.000000 0.041013 0.000000
# 3 0.000571 0.011173 0.021361 0.000000 0.054173 0.000000
# 4 0.000000 0.000000 0.000000 0.050676 0.000000 0.019588
# 5 0.022134 0.041013 0.054173 0.000000 0.305348 0.000000
# 6 0.000000 0.000000 0.000000 0.019588 0.000000 -0.193796
#
#
# Mechanical properties :
#
#
# Convention : Reuss Voigt Hill
#
# Bulk Modulus (GPa) = 8.81866 36.22845 22.52355
# Shear Modulus (GPa) = 20.04520 20.81618 20.43069
#
# Velocity S-wave (km/s) = 3.07937 3.13803 3.10884
# Velocity P-wave (km/s) = 4.10062 5.50162 4.85195
#
# Compressibility (1/GPa) = 0.11339593
#
# Stress axis : x y z
#
# Youngs Moduli (GPa) = 105.76416 19.76821 46.81419
#
# Poissons Ratio (x) = -0.08406 -0.02673
# Poissons Ratio (y) = -0.44974 -0.52308
# Poissons Ratio (z) = -0.06040 -0.22088
#
# Static dielectric constant tensor:
#      x y z
#    x 1.765050 0.000000 -0.013900 
#    y 0.000000 1.795780 0.000000 
#    z -0.013900 0.000000 1.737530 
# 
# From -- ./inp_files/37893.got.cif
#   From: 2010.05.17/outbox.cif.g08.bks.cpg/sg11_19_cif.got.tgz:37893.got - 2010.06.03 12:22:45.
