data_PCOD9164983
_publ_section_title
;
Structure prediction by ZEFSAII (Michael W. Deem and Ramdas Pophale) SiO2 
 PCOD9164983
Probable space group: P 21/M
;
_chemical_formula_sum "Si O2"
_cell_formula_units_Z 32
_cell_length_a 24.442370
_cell_length_b 8.737489
_cell_length_c 14.616070
_cell_angle_alpha 90.000000
_cell_angle_beta 32.913230
_cell_angle_gamma 90.000000
_cell_volume 1696.113364
_symmetry_space_group_name_H-M "P 21/M"
_symmetry_group_IT_number 11
_symmetry_cell_setting 'monoclinic'
loop_
_space_group_symop_operation_xyz
x,y,z
-x,1/2+y,-z
-x,-y,-z
x,1/2-y,z
loop_
_atom_site_type_symbol
_atom_site_label
_atom_site_fract_x
_atom_site_fract_y
_atom_site_fract_z
Si Si1 0.005538 0.065112 0.213311
Si Si2 0.798074 0.565710 0.178075
Si Si3 0.055710 0.932244 0.333684
Si Si4 0.609217 0.934670 0.324462
Si Si5 0.280423 0.433356 0.018387
Si Si6 0.817063 0.065653 0.352951
Si Si7 0.381538 0.565854 0.256727
Si Si8 0.598521 0.067660 0.982712
O O1 0.003298 0.250000 0.227006
O O2 0.914069 0.019064 0.275810
O O3 0.001065 0.989551 0.318527
O O4 0.110643 0.022715 0.017379
O O5 0.797403 0.750000 0.183838
O O6 0.692356 0.515746 0.282423
O O7 0.816608 0.500819 0.252275
O O8 0.055519 0.750000 0.338609
O O9 0.000000 0.000000 0.500000
O O10 0.170259 0.992750 0.168612
O O11 0.603921 0.750000 0.333677
O O12 0.652688 0.978949 0.163785
O O13 0.500000 0.000000 0.500000
O O14 0.268890 0.250000 0.031877
O O15 0.336399 0.484453 0.031914
O O16 0.818777 0.250000 0.344695
O O17 0.715612 0.021154 0.548779
O O18 0.395316 0.750000 0.244077
O O19 0.482386 0.484747 0.150098
O O20 0.367640 0.529945 0.168664
O O21 0.606395 0.250000 0.983980
#
# Coordination Sequence:
#
# PCOD9164983 Si02
#       8
#     4   4   4   4   4   4   4   4
#     4  10  21  42  65  87 122 161 200 255 312 362
#     4  10  21  40  61  86 122 159 200 253 311 364
#     4  12  26  43  66  96 127 164 208 254 307 373
#     4  10  23  41  62  89 124 165 205 254 311 368
#     4  11  23  43  66  92 126 164 204 255 316 371
#     4  10  22  37  61  90 117 156 203 251 307 365
#     4   9  20  39  57  84 121 158 199 249 305 362
#     4  10  21  37  60  88 119 159 204 248 302 363
#
# _framework density 18.866664
#
# number of rings (size 3 to 8) (size 9 to 14) (size 15 to 20)
#    0.000    1.750    1.250    2.250    3.500    3.500 
#    0.000    0.000    0.000    0.000    0.000    0.000 
#    0.000    0.000    0.000    0.000    0.000    0.000 
#
# Total GULP energy -178846.726605 kJ/mol
# GULP energy per Si atom -5588.960206 kJ/mol
# Density = 1.882372 g / cm^3
# Si number density = 18.866664 Si / 1000 Ang^3
#
#
#
# Elastic Constant Matrix: (Units=GPa)
#
#
# Indices 1 2 3 4 5 6 
#
# 1 127.4350 32.9371 35.6555 0.0000 20.5345 0.0000
# 2 32.9371 39.9466 29.2846 0.0000 9.3510 0.0000
# 3 35.6555 29.2846 98.8903 0.0000 24.7804 0.0000
# 4 0.0000 0.0000 0.0000 13.6848 0.0000 1.4032
# 5 20.5345 9.3510 24.7804 0.0000 16.8757 0.0000
# 6 0.0000 0.0000 0.0000 1.4032 0.0000 38.0372
#
#
#
# Elastic Compliance Matrix: (Units=1/GPa)
#
#
# Indices 1 2 3 4 5 6 
#
# 1 0.011265 -0.007362 0.000840 0.000000 -0.010862 0.000000
# 2 -0.007362 0.037179 -0.008604 0.000000 0.000990 0.000000
# 3 0.000840 -0.008604 0.018066 0.000000 -0.022784 0.000000
# 4 0.000000 0.000000 0.000000 0.073351 0.000000 -0.002706
# 5 -0.010862 0.000990 -0.022784 0.000000 0.105381 0.000000
# 6 0.000000 0.000000 0.000000 -0.002706 0.000000 0.026390
#
#
# Mechanical properties :
#
#
# Convention : Reuss Voigt Hill
#
# Bulk Modulus (GPa) = 27.57866 51.33624 39.45745
# Shear Modulus (GPa) = 15.92512 24.94584 20.43548
#
# Velocity S-wave (km/s) = 2.90847 3.64018 3.29470
# Velocity P-wave (km/s) = 5.09199 6.70350 5.95253
#
# Compressibility (1/GPa) = 0.03625992
#
# Stress axis : x y z
#
# Youngs Moduli (GPa) = 88.77028 26.89710 55.35134
#
# Poissons Ratio (x) = 0.19801 -0.04651
# Poissons Ratio (y) = 0.65349 0.47623
# Poissons Ratio (z) = -0.07458 0.23141
#
# Static dielectric constant tensor:
#      x y z
#    x 1.627560 0.000000 -0.001710 
#    y 0.000000 1.647240 0.000000 
#    z -0.001710 0.000000 1.630450 
# 
# From -- ./inp_files/55617.got.cif
#   From: 2010.05.17/outbox.cif.g08.bks.cpg/sg11_28_cif.got.tgz:55617.got - 2010.06.03 12:22:45.
