data_PCOD9164541
_publ_section_title
;
Structure prediction by ZEFSAII (Michael W. Deem and Ramdas Pophale) SiO2 
 PCOD9164541
Probable space group: P 21/M
;
_chemical_formula_sum "Si O2"
_cell_formula_units_Z 22
_cell_length_a 15.111481
_cell_length_b 10.836258
_cell_length_c 11.342011
_cell_angle_alpha 90.000000
_cell_angle_beta 31.860013
_cell_angle_gamma 90.000000
_cell_volume 980.355122
_symmetry_space_group_name_H-M "P 21/M"
_symmetry_group_IT_number 11
_symmetry_cell_setting 'monoclinic'
loop_
_space_group_symop_operation_xyz
x,y,z
-x,1/2+y,-z
-x,-y,-z
x,1/2-y,z
loop_
_atom_site_type_symbol
_atom_site_label
_atom_site_fract_x
_atom_site_fract_y
_atom_site_fract_z
Si Si1 0.612490 0.750000 0.840340
Si Si2 0.964559 0.025418 0.253241
Si Si3 0.336290 0.000579 0.930001
Si Si4 0.394886 0.750000 0.852067
Si Si5 0.955410 0.250000 0.856121
Si Si6 0.863966 0.250000 0.220312
Si Si7 0.466175 0.750000 0.252801
Si Si8 0.811691 0.498532 0.660270
O O1 0.521864 0.750000 0.818238
O O2 0.732308 0.632129 0.724146
O O3 0.474195 0.750000 0.101296
O O4 0.949929 0.122080 0.164524
O O5 0.155257 0.031518 0.082756
O O6 0.838597 0.063519 0.502504
O O7 0.941653 0.877929 0.259929
O O8 0.437825 0.124934 0.821463
O O9 0.421727 0.885933 0.766839
O O10 0.304191 0.952190 0.101468
O O11 0.185844 0.750000 0.087988
O O12 0.851172 0.250000 0.095142
O O13 0.695911 0.250000 0.484578
O O14 0.000000 0.500000 0.500000
#
# Coordination Sequence:
#
# PCOD9164541 Si02
#       8
#     2   4   4   2   2   2   2   4
#     4  10  21  35  60  90 134 162 194 243 313 379
#     4  10  21  39  66  90 116 161 209 255 309 362
#     4   9  20  39  60  89 132 162 191 246 315 377
#     4  10  22  36  64  82 124 171 202 237 312 365
#     4  10  23  47  60  84 119 166 212 263 303 355
#     4  12  25  38  65  90 119 157 221 263 301 356
#     4  10  23  38  57  92 132 156 195 250 315 365
#     4   9  19  34  60  93 125 155 198 244 307 370
#
# _framework density 22.440846000000001
#
# number of rings (size 3 to 8) (size 9 to 14) (size 15 to 20)
#    0.000    2.182    0.000    1.636    5.091    5.818 
#    0.000    3.636    8.000    0.000    0.000    0.000 
#    0.000    0.000    0.000    0.000    0.000    0.000 
#
# Total GULP energy -122611.072366 kJ/mol
# GULP energy per Si atom -5573.230562 kJ/mol
# Density = 2.238977 g / cm^3
# Si number density = 22.440846 Si / 1000 Ang^3
#
#
#
# Elastic Constant Matrix: (Units=GPa)
#
#
# Indices 1 2 3 4 5 6 
#
# 1 75.3274 49.2110 34.3833 0.0000 2.5169 0.0000
# 2 49.2110 128.8513 22.2925 0.0000 -12.3914 0.0000
# 3 34.3833 22.2925 68.5338 0.0000 2.7672 0.0000
# 4 0.0000 0.0000 0.0000 4.6290 0.0000 10.9975
# 5 2.5169 -12.3914 2.7672 0.0000 22.5288 0.0000
# 6 0.0000 0.0000 0.0000 10.9975 0.0000 22.1697
#
#
#
# Elastic Compliance Matrix: (Units=1/GPa)
#
#
# Indices 1 2 3 4 5 6 
#
# 1 0.022295 -0.007586 -0.008491 0.000000 -0.005621 0.000000
# 2 -0.007586 0.011375 -0.000182 0.000000 0.007126 0.000000
# 3 -0.008491 -0.000182 0.018970 0.000000 -0.001481 0.000000
# 4 0.000000 0.000000 0.000000 -1.210081 0.000000 0.600273
# 5 -0.005621 0.007126 -0.001481 0.000000 0.049117 0.000000
# 6 0.000000 0.000000 0.000000 0.600273 0.000000 -0.252665
#
#
# Mechanical properties :
#
#
# Convention : Reuss Voigt Hill
#
# Bulk Modulus (GPa) = 49.69592 53.83178 51.76385
# Shear Modulus (GPa) = -3.78283 20.98721 8.60219
#
# Velocity S-wave (km/s) = -1.29975 3.06146 1.96000
# Velocity P-wave (km/s) = 4.46552 6.04459 5.31404
#
# Compressibility (1/GPa) = 0.02012238
#
# Stress axis : x y z
#
# Youngs Moduli (GPa) = 44.85319 87.91145 52.71468
#
# Poissons Ratio (x) = 0.66694 0.44759
# Poissons Ratio (y) = 0.34028 0.00958
# Poissons Ratio (z) = 0.38084 0.01597
#
# Static dielectric constant tensor:
#      x y z
#    x 1.834180 0.000000 0.020550 
#    y 0.000000 1.859270 0.000000 
#    z 0.020550 0.000000 1.831410 
# 
# From -- ./inp_files/31118.got.cif
#   From: 2010.05.17/outbox.cif.g08.bks.cpg/sg11_16_cif.got.tgz:31118.got - 2010.06.03 12:22:45.
