data_PCOD9164415
_publ_section_title
;
Structure prediction by ZEFSAII (Michael W. Deem and Ramdas Pophale) SiO2 
 PCOD9164415
Probable space group: P 21/M
;
_chemical_formula_sum "Si O2"
_cell_formula_units_Z 32
_cell_length_a 9.674584
_cell_length_b 13.866649
_cell_length_c 17.131908
_cell_angle_alpha 90.000000
_cell_angle_beta 54.756928
_cell_angle_gamma 90.000000
_cell_volume 1877.059932
_symmetry_space_group_name_H-M "P 21/M"
_symmetry_group_IT_number 11
_symmetry_cell_setting 'monoclinic'
loop_
_space_group_symop_operation_xyz
x,y,z
-x,1/2+y,-z
-x,-y,-z
x,1/2-y,z
loop_
_atom_site_type_symbol
_atom_site_label
_atom_site_fract_x
_atom_site_fract_y
_atom_site_fract_z
Si Si1 0.416901 0.635833 0.185809
Si Si2 0.861389 0.463343 0.827313
Si Si3 0.197892 0.136982 0.684209
Si Si4 0.900570 0.362143 0.088747
Si Si5 0.694514 0.477760 0.455282
Si Si6 0.922010 0.139300 0.266589
Si Si7 0.752734 0.976995 0.031462
Si Si8 0.571937 0.137163 0.633208
O O1 0.433979 0.750000 0.165685
O O2 0.254206 0.594494 0.194629
O O3 0.580566 0.579260 0.101831
O O4 0.405767 0.621563 0.282489
O O5 0.037802 0.406013 0.782291
O O6 0.919874 0.567242 0.775341
O O7 0.768662 0.480773 0.939188
O O8 0.177436 0.250000 0.677493
O O9 0.374343 0.121672 0.673172
O O10 0.209748 0.076097 0.599800
O O11 0.885588 0.250000 0.070541
O O12 0.873151 0.368355 0.191009
O O13 0.778547 0.434836 0.082910
O O14 0.089329 0.403033 0.010895
O O15 0.500000 0.500000 0.500000
O O16 0.773335 0.399754 0.370170
O O17 0.688896 0.432368 0.542931
O O18 0.962043 0.250000 0.270240
O O19 0.608083 0.250000 0.603498
#
# Coordination Sequence:
#
# PCOD9164415 Si02
#       8
#     4   4   4   4   4   4   4   4
#     4  11  23  37  55  78 110 146 182 225 270 317
#     4  10  21  37  54  79 103 146 181 224 265 320
#     4   9  18  33  54  81 109 138 178 221 268 318
#     4   9  19  33  53  83 108 136 175 221 271 322
#     4   9  17  29  54  80 108 136 175 218 269 314
#     4   9  18  34  55  78 108 142 177 218 272 326
#     4  10  21  34  55  76 110 141 180 223 272 320
#     4   9  19  33  53  81 107 139 177 220 269 320
#
# _framework density 17.047939
#
# number of rings (size 3 to 8) (size 9 to 14) (size 15 to 20)
#    0.000    2.500    0.000    1.500    8.750    2.000 
#    0.000    3.125    0.000    2.250    0.000    0.000 
#    0.000    0.000    0.000    0.000    0.000    0.000 
#
# Total GULP energy -178366.508160 kJ/mol
# GULP energy per Si atom -5573.953380 kJ/mol
# Density = 1.700914 g / cm^3
# Si number density = 17.047939 Si / 1000 Ang^3
#
#
#
# Elastic Constant Matrix: (Units=GPa)
#
#
# Indices 1 2 3 4 5 6 
#
# 1 45.6830 39.3601 20.0599 0.0000 9.6537 0.0000
# 2 39.3601 134.8440 52.8368 0.0000 10.4443 0.0000
# 3 20.0599 52.8368 80.5099 0.0000 5.3871 0.0000
# 4 0.0000 0.0000 0.0000 25.4229 0.0000 1.7719
# 5 9.6537 10.4443 5.3871 0.0000 10.9832 0.0000
# 6 0.0000 0.0000 0.0000 1.7719 0.0000 28.0175
#
#
#
# Elastic Compliance Matrix: (Units=1/GPa)
#
#
# Indices 1 2 3 4 5 6 
#
# 1 0.033711 -0.007325 -0.002146 0.000000 -0.021612 0.000000
# 2 -0.007325 0.012044 -0.005938 0.000000 -0.002102 0.000000
# 3 -0.002146 -0.005938 0.016903 0.000000 -0.000758 0.000000
# 4 0.000000 0.000000 0.000000 0.039509 0.000000 -0.002499
# 5 -0.021612 -0.002102 -0.000758 0.000000 0.112415 0.000000
# 6 0.000000 0.000000 0.000000 -0.002499 0.000000 0.035850
#
#
# Mechanical properties :
#
#
# Convention : Reuss Voigt Hill
#
# Bulk Modulus (GPa) = 31.40797 53.95005 42.67901
# Shear Modulus (GPa) = 17.13134 22.80339 19.96737
#
# Velocity S-wave (km/s) = 3.17344 3.66129 3.42606
# Velocity P-wave (km/s) = 5.64721 7.04189 6.38276
#
# Compressibility (1/GPa) = 0.03183905
#
# Stress axis : x y z
#
# Youngs Moduli (GPa) = 29.66429 83.03068 59.15972
#
# Poissons Ratio (x) = 0.60821 0.12696
# Poissons Ratio (y) = 0.21729 0.35131
# Poissons Ratio (z) = 0.06366 0.49306
#
# Static dielectric constant tensor:
#      x y z
#    x 1.555570 0.000000 0.004520 
#    y 0.000000 1.585360 0.000000 
#    z 0.004520 0.000000 1.584480 
# 
# From -- ./inp_files/47614.got.cif
#   From: 2010.05.17/outbox.cif.g08.bks.cpg/sg11_24_cif.got.tgz:47614.got - 2010.06.03 12:22:45.
