data_PCOD9164663
_publ_section_title
;
Structure prediction by ZEFSAII (Michael W. Deem and Ramdas Pophale) SiO2 
 PCOD9164663
Probable space group: P 21/M
;
_chemical_formula_sum "Si O2"
_cell_formula_units_Z 32
_cell_length_a 8.943537
_cell_length_b 14.462217
_cell_length_c 14.715640
_cell_angle_alpha 90.000000
_cell_angle_beta 135.734517
_cell_angle_gamma 90.000000
_cell_volume 1328.522163
_symmetry_space_group_name_H-M "P 21/M"
_symmetry_group_IT_number 11
_symmetry_cell_setting 'monoclinic'
loop_
_space_group_symop_operation_xyz
x,y,z
-x,1/2+y,-z
-x,-y,-z
x,1/2-y,z
loop_
_atom_site_type_symbol
_atom_site_label
_atom_site_fract_x
_atom_site_fract_y
_atom_site_fract_z
Si Si1 0.206207 0.352032 0.713622
Si Si2 0.498631 0.109903 0.004424
Si Si3 0.893950 0.857616 0.032079
Si Si4 0.143124 0.854255 0.711575
Si Si5 0.670404 0.011412 0.351880
Si Si6 0.298436 0.139790 0.410859
Si Si7 0.746163 0.358541 0.557106
Si Si8 0.798461 0.526952 0.812573
O O1 0.193323 0.250000 0.669017
O O2 0.997452 0.365877 0.687325
O O3 0.410125 0.359077 0.868175
O O4 0.202785 0.423120 0.629608
O O5 0.326665 0.140966 0.005997
O O6 0.734710 0.141421 0.138174
O O7 0.500000 0.000000 0.000000
O O8 0.971395 0.750000 0.068126
O O9 0.864993 0.896016 0.916489
O O10 0.042088 0.941479 0.133640
O O11 0.147135 0.750000 0.679963
O O12 0.282505 0.916748 0.707534
O O13 0.897549 0.886631 0.609752
O O14 0.715252 0.068646 0.462535
O O15 0.422385 0.984885 0.246162
O O16 0.272004 0.250000 0.385691
O O17 0.550324 0.123553 0.541868
O O18 0.250531 0.082691 0.299801
O O19 0.715506 0.250000 0.515806
#
# Coordination Sequence:
#
# PCOD9164663 Si02
#       8
#     4   4   4   4   4   4   4   4
#     4  11  23  39  62  89 124 167 205 249 310 373
#     4  12  22  39  60  90 128 161 199 253 310 379
#     4  11  22  36  56  84 121 166 208 248 307 373
#     4  11  21  35  61  94 122 156 203 257 311 360
#     4  11  21  38  62  90 123 157 205 260 305 359
#     4   9  19  36  60  89 119 153 202 258 305 357
#     4   9  20  40  65  90 120 162 210 253 307 366
#     4  10  21  36  57  84 118 160 202 255 304 367
#
# _framework density 24.086914
#
# number of rings (size 3 to 8) (size 9 to 14) (size 15 to 20)
#    0.000    1.500    2.500    3.000    0.000    2.500 
#    0.000    0.625    2.750    0.000    0.000    0.000 
#    0.000    0.000    0.000    0.000    0.000    0.000 
#
# Total GULP energy -178850.519179 kJ/mol
# GULP energy per Si atom -5589.078724 kJ/mol
# Density = 2.403209 g / cm^3
# Si number density = 24.086914 Si / 1000 Ang^3
#
#
#
# Elastic Constant Matrix: (Units=GPa)
#
#
# Indices 1 2 3 4 5 6 
#
# 1 85.8994 42.2013 30.7058 0.0000 12.4418 0.0000
# 2 42.2013 122.6167 20.7254 0.0000 -9.0725 0.0000
# 3 30.7058 20.7254 70.6157 0.0000 10.5459 0.0000
# 4 0.0000 0.0000 0.0000 66.5447 0.0000 -62.3187
# 5 12.4418 -9.0725 10.5459 0.0000 35.8305 0.0000
# 6 0.0000 0.0000 0.0000 -62.3187 0.0000 143.4794
#
#
#
# Elastic Compliance Matrix: (Units=1/GPa)
#
#
# Indices 1 2 3 4 5 6 
#
# 1 0.016889 -0.005415 -0.004889 0.000000 -0.005797 0.000000
# 2 -0.005415 0.010648 -0.001521 0.000000 0.005024 0.000000
# 3 -0.004889 -0.001521 0.017298 0.000000 -0.003779 0.000000
# 4 0.000000 0.000000 0.000000 0.025331 0.000000 0.011002
# 5 -0.005797 0.005024 -0.003779 0.000000 0.032306 0.000000
# 6 0.000000 0.000000 0.000000 0.011002 0.000000 0.011748
#
#
# Mechanical properties :
#
#
# Convention : Reuss Voigt Hill
#
# Bulk Modulus (GPa) = 47.20305 51.82187 49.51246
# Shear Modulus (GPa) = 34.49886 61.53753 48.01820
#
# Velocity S-wave (km/s) = 3.78863 5.06000 4.46975
# Velocity P-wave (km/s) = 6.22719 7.46320 6.87303
#
# Compressibility (1/GPa) = 0.02118507
#
# Stress axis : x y z
#
# Youngs Moduli (GPa) = 59.20923 93.91340 57.81155
#
# Poissons Ratio (x) = 0.50858 0.28263
# Poissons Ratio (y) = 0.32064 0.08791
# Poissons Ratio (z) = 0.28946 0.14282
#
# Static dielectric constant tensor:
#      x y z
#    x 1.921560 0.000000 0.003610 
#    y 0.000000 1.876090 0.000000 
#    z 0.003610 0.000000 1.978270 
# 
# From -- ./inp_files/63833.got.cif
#   From: 2010.05.17/outbox.cif.g08.bks.cpg/sg11_32_cif.got.tgz:63833.got - 2010.06.03 12:22:45.
