data_PCOD9164755
_publ_section_title
;
Structure prediction by ZEFSAII (Michael W. Deem and Ramdas Pophale) SiO2 
 PCOD9164755
Probable space group: P 21/M
;
_chemical_formula_sum "Si O2"
_cell_formula_units_Z 28
_cell_length_a 8.653370
_cell_length_b 27.827923
_cell_length_c 8.695947
_cell_angle_alpha 90.000000
_cell_angle_beta 136.325975
_cell_angle_gamma 90.000000
_cell_volume 1446.042186
_symmetry_space_group_name_H-M "P 21/M"
_symmetry_group_IT_number 11
_symmetry_cell_setting 'monoclinic'
loop_
_space_group_symop_operation_xyz
x,y,z
-x,1/2+y,-z
-x,-y,-z
x,1/2-y,z
loop_
_atom_site_type_symbol
_atom_site_label
_atom_site_fract_x
_atom_site_fract_y
_atom_site_fract_z
Si Si1 0.466935 0.617842 0.339177
Si Si2 0.057034 0.111900 0.469366
Si Si3 0.274319 0.949932 0.966883
Si Si4 0.263674 0.058489 0.892412
Si Si5 0.212910 0.694521 0.562752
Si Si6 0.649312 0.860868 0.795735
Si Si7 0.902709 0.194355 0.882461
O O1 0.696831 0.624765 0.412793
O O2 0.531590 0.615229 0.563969
O O3 0.300291 0.662656 0.199238
O O4 0.347275 0.570942 0.183914
O O5 0.090180 0.076346 0.638604
O O6 0.919661 0.083253 0.242042
O O7 0.928101 0.159049 0.432187
O O8 0.210444 0.005714 0.917577
O O9 0.491975 0.944131 0.012958
O O10 0.274968 0.098355 0.032019
O O11 0.206784 0.750000 0.606573
O O12 0.465260 0.674235 0.738239
O O13 0.119348 0.691927 0.319999
O O14 0.863715 0.829631 0.902427
O O15 0.889928 0.250000 0.918214
#
# Coordination Sequence:
#
# PCOD9164755 Si02
#       7
#     4   4   4   4   4   4   4
#     4  10  24  38  59  87 127 158 196 247 304 361
#     4  11  20  40  61  89 125 156 201 254 296 359
#     4  10  21  40  58  92 123 161 200 248 303 359
#     4  10  21  36  66  88 119 164 205 245 302 354
#     4  10  21  36  62  91 116 152 201 248 301 356
#     4  11  20  40  62  89 119 157 199 252 294 358
#     4  10  21  40  62  86 119 160 200 246 302 361
#
# _framework density 19.363197
#
# number of rings (size 3 to 8) (size 9 to 14) (size 15 to 20)
#    0.000    1.714    2.857    1.714    0.000    1.714 
#    0.000    5.000    0.000    0.000    0.000    0.000 
#    0.000    0.000    0.000    0.000    0.000    0.000 
#
# Total GULP energy -156448.478717 kJ/mol
# GULP energy per Si atom -5587.445668 kJ/mol
# Density = 1.931913 g / cm^3
# Si number density = 19.363197 Si / 1000 Ang^3
#
#
#
# Elastic Constant Matrix: (Units=GPa)
#
#
# Indices 1 2 3 4 5 6 
#
# 1 3.6786 1.1285 0.5819 0.0000 18.5310 0.0000
# 2 1.1285 88.8625 16.8763 0.0000 9.6936 0.0000
# 3 0.5819 16.8763 76.4967 0.0000 11.5670 0.0000
# 4 0.0000 0.0000 0.0000 23.2430 0.0000 -3.7137
# 5 18.5310 9.6936 11.5670 0.0000 21.0954 0.0000
# 6 0.0000 0.0000 0.0000 -3.7137 0.0000 20.7619
#
#
#
# Elastic Compliance Matrix: (Units=1/GPa)
#
#
# Indices 1 2 3 4 5 6 
#
# 1 -0.069850 -0.004917 -0.008727 0.000000 0.068403 0.000000
# 2 -0.004917 0.011775 -0.002612 0.000000 0.000341 0.000000
# 3 -0.008727 -0.002612 0.013493 0.000000 0.001468 0.000000
# 4 0.000000 0.000000 0.000000 0.044289 0.000000 0.007922
# 5 0.068403 0.000341 0.001468 0.000000 -0.013646 0.000000
# 6 0.000000 0.000000 0.000000 0.007922 0.000000 0.049582
#
#
# Mechanical properties :
#
#
# Convention : Reuss Voigt Hill
#
# Bulk Modulus (GPa) = -12.97111 22.91236 4.97063
# Shear Modulus (GPa) = 117.76426 23.05014 70.40720
#
# Velocity S-wave (km/s) = 7.80709 3.45397 6.03658
# Velocity P-wave (km/s) = 8.63447 5.26927 7.15260
#
# Compressibility (1/GPa) = -0.07709440
#
# Stress axis : x y z
#
# Youngs Moduli (GPa) = -14.31642 84.92854 74.11184
#
# Poissons Ratio (x) = 0.41762 0.64677
# Poissons Ratio (y) = -0.07040 0.19357
# Poissons Ratio (z) = -0.12494 0.22182
#
# Static dielectric constant tensor:
#      x y z
#    x 1.672430 0.000000 -0.009110 
#    y 0.000000 1.636450 0.000000 
#    z -0.009110 0.000000 1.670160 
# 
# From -- ./inp_files/3213.got.cif
#   From: 2010.05.17/outbox.cif.g08.bks.cpg/sg11_2_cif.got.tgz:3213.got - 2010.06.03 12:22:45.
