data_PCOD9164149
_publ_section_title
;
Structure prediction by ZEFSAII (Michael W. Deem and Ramdas Pophale) SiO2 
 PCOD9164149
Probable space group: P 21/M
;
_chemical_formula_sum "Si O2"
_cell_formula_units_Z 32
_cell_length_a 10.653540
_cell_length_b 18.420434
_cell_length_c 13.443844
_cell_angle_alpha 90.000000
_cell_angle_beta 146.079784
_cell_angle_gamma 90.000000
_cell_volume 1472.248038
_symmetry_space_group_name_H-M "P 21/M"
_symmetry_group_IT_number 11
_symmetry_cell_setting 'monoclinic'
loop_
_space_group_symop_operation_xyz
x,y,z
-x,1/2+y,-z
-x,-y,-z
x,1/2-y,z
loop_
_atom_site_type_symbol
_atom_site_label
_atom_site_fract_x
_atom_site_fract_y
_atom_site_fract_z
Si Si1 0.454301 0.103903 0.266982
Si Si2 0.909214 0.333850 0.605924
Si Si3 0.946265 0.934456 0.122826
Si Si4 0.343352 0.945805 0.959248
Si Si5 0.350173 0.333672 0.416811
Si Si6 0.977377 0.332477 0.323260
Si Si7 0.323577 0.333518 0.729890
Si Si8 0.403083 0.962301 0.336356
O O1 0.693293 0.139791 0.401051
O O2 0.376094 0.137327 0.321732
O O3 0.478470 0.016987 0.299957
O O4 0.256135 0.111596 0.057740
O O5 0.875607 0.250000 0.611571
O O6 0.925750 0.386353 0.711105
O O7 0.141446 0.339619 0.699092
O O8 0.135311 0.957721 0.168543
O O9 0.837094 0.004662 0.102230
O O10 0.487263 0.893295 0.125822
O O11 0.214119 0.892025 0.799565
O O12 0.500000 0.000000 0.000000
O O13 0.418594 0.250000 0.465583
O O14 0.498821 0.382191 0.589192
O O15 0.098865 0.338480 0.295634
O O16 0.894099 0.250000 0.281992
O O17 0.170968 0.344387 0.532089
O O18 0.410253 0.250000 0.784941
O O19 0.500000 0.000000 0.500000
#
# Coordination Sequence:
#
# PCOD9164149 Si02
#       8
#     4   4   4   4   4   4   4   4
#     4  11  24  40  66  95 130 171 210 264 329 388
#     4  11  24  43  65  94 132 169 216 269 321 386
#     4  12  25  41  64 100 131 172 212 264 332 382
#     4  12  25  40  65  98 132 168 218 269 317 388
#     4  10  21  41  67  94 125 170 218 265 316 381
#     4  10  24  45  69  92 128 175 217 267 323 377
#     4  10  24  45  68  93 128 174 218 267 323 381
#     4  10  20  39  63  88 130 167 205 259 319 378
#
# _framework density 21.735468000000001
#
# number of rings (size 3 to 8) (size 9 to 14) (size 15 to 20)
#    0.000    1.250    3.750    2.625    3.500    1.500 
#    0.000    0.000    0.000    0.000    0.000    0.000 
#    0.000    0.000    0.000    0.000    0.000    0.000 
#
# Total GULP energy -178899.471205 kJ/mol
# GULP energy per Si atom -5590.608475 kJ/mol
# Density = 2.168600 g / cm^3
# Si number density = 21.735468 Si / 1000 Ang^3
#
#
#
# Elastic Constant Matrix: (Units=GPa)
#
#
# Indices 1 2 3 4 5 6 
#
# 1 22.8548 30.8913 -3.9878 0.0000 4.1603 0.0000
# 2 30.8913 165.2119 64.3195 0.0000 12.5069 0.0000
# 3 -3.9878 64.3195 97.9254 0.0000 8.1190 0.0000
# 4 0.0000 0.0000 0.0000 42.6314 0.0000 9.6466
# 5 4.1603 12.5069 8.1190 0.0000 24.9419 0.0000
# 6 0.0000 0.0000 0.0000 9.6466 0.0000 21.8016
#
#
#
# Elastic Compliance Matrix: (Units=1/GPa)
#
#
# Indices 1 2 3 4 5 6 
#
# 1 0.075242 -0.020038 0.016889 0.000000 -0.008000 0.000000
# 2 -0.020038 0.013612 -0.009730 0.000000 -0.000316 0.000000
# 3 0.016889 -0.009730 0.017595 0.000000 -0.003665 0.000000
# 4 0.000000 0.000000 0.000000 0.026067 0.000000 -0.011534
# 5 -0.008000 -0.000316 -0.003665 0.000000 0.042779 0.000000
# 6 0.000000 0.000000 0.000000 -0.011534 0.000000 0.050971
#
#
# Mechanical properties :
#
#
# Convention : Reuss Voigt Hill
#
# Bulk Modulus (GPa) = 12.39332 52.04868 32.22100
# Shear Modulus (GPa) = 17.92627 30.85960 24.39293
#
# Velocity S-wave (km/s) = 2.87496 3.77209 3.35366
# Velocity P-wave (km/s) = 4.09081 6.55514 5.46373
#
# Compressibility (1/GPa) = 0.08068866
#
# Stress axis : x y z
#
# Youngs Moduli (GPa) = 13.29050 73.46680 56.83593
#
# Poissons Ratio (x) = 1.47214 -0.95989
# Poissons Ratio (y) = 0.26632 0.55303
# Poissons Ratio (z) = -0.22446 0.71485
#
# Static dielectric constant tensor:
#      x y z
#    x 1.826710 0.000000 -0.001190 
#    y 0.000000 1.785290 0.000000 
#    z -0.001190 0.000000 1.778110 
# 
# From -- ./inp_files/50726.got.cif
#   From: 2010.05.17/outbox.cif.g08.bks.cpg/sg11_26_cif.got.tgz:50726.got - 2010.06.03 12:22:45.
