data_PCOD9164029
_publ_section_title
;
Structure prediction by ZEFSAII (Michael W. Deem and Ramdas Pophale) SiO2 
 PCOD9164029
Probable space group: P 21/M
;
_chemical_formula_sum "Si O2"
_cell_formula_units_Z 32
_cell_length_a 10.597035
_cell_length_b 15.202956
_cell_length_c 13.912593
_cell_angle_alpha 90.000000
_cell_angle_beta 45.137439
_cell_angle_gamma 90.000000
_cell_volume 1588.710495
_symmetry_space_group_name_H-M "P 21/M"
_symmetry_group_IT_number 11
_symmetry_cell_setting 'monoclinic'
loop_
_space_group_symop_operation_xyz
x,y,z
-x,1/2+y,-z
-x,-y,-z
x,1/2-y,z
loop_
_atom_site_type_symbol
_atom_site_label
_atom_site_fract_x
_atom_site_fract_y
_atom_site_fract_z
Si Si1 0.249673 0.464017 0.891746
Si Si2 0.375121 0.149508 0.187081
Si Si3 0.478391 0.348360 0.450919
Si Si4 0.156194 0.150652 0.121016
Si Si5 0.187180 0.920944 0.608929
Si Si6 0.365653 0.013359 0.347094
Si Si7 0.212693 0.846834 0.978445
Si Si8 0.863139 0.897670 0.254325
O O1 0.463600 0.461606 0.784492
O O2 0.195161 0.567195 0.920937
O O3 0.196222 0.417993 0.822298
O O4 0.164212 0.416763 0.029048
O O5 0.320739 0.250000 0.241315
O O6 0.314599 0.132959 0.111162
O O7 0.293717 0.076377 0.301882
O O8 0.588789 0.145913 0.085095
O O9 0.519384 0.250000 0.393114
O O10 0.635478 0.383795 0.434889
O O11 0.445649 0.418526 0.383893
O O12 0.295171 0.345902 0.609154
O O13 0.171319 0.250000 0.075478
O O14 0.976922 0.142023 0.280355
O O15 0.234967 0.948618 0.474506
O O16 0.132469 0.011232 0.690720
O O17 0.194864 0.750000 0.942098
O O18 0.057362 0.855423 0.140997
#
# Coordination Sequence:
#
# PCOD9164029 Si02
#       8
#     4   4   4   4   4   4   4   4
#     4  11  21  40  60  88 125 157 193 246 299 355
#     4   9  21  41  61  87 118 152 206 259 287 347
#     4  11  21  35  60  89 121 160 195 238 302 361
#     4  11  25  41  61  87 120 162 205 245 298 353
#     4  11  21  40  59  88 121 160 195 243 298 363
#     4  10  20  38  64  85 117 156 199 243 305 348
#     4  10  21  35  59  87 115 154 197 243 299 347
#     4  11  20  38  56  88 128 153 192 251 296 359
#
# _framework density 20.142122000000001
#
# number of rings (size 3 to 8) (size 9 to 14) (size 15 to 20)
#    0.000    1.500    3.750    2.250    0.000    4.000 
#    0.000    0.000    0.000    0.000    0.000    0.000 
#    0.000    0.000    0.000    0.000    0.000    0.000 
#
# Total GULP energy -178668.073823 kJ/mol
# GULP energy per Si atom -5583.377307 kJ/mol
# Density = 2.009628 g / cm^3
# Si number density = 20.142122 Si / 1000 Ang^3
#
#
#
# Elastic Constant Matrix: (Units=GPa)
#
#
# Indices 1 2 3 4 5 6 
#
# 1 25.6424 13.2751 1.7213 0.0000 2.5343 0.0000
# 2 13.2751 78.1410 22.4410 0.0000 3.8632 0.0000
# 3 1.7213 22.4410 109.7412 0.0000 -4.1853 0.0000
# 4 0.0000 0.0000 0.0000 2.8834 0.0000 -18.3533
# 5 2.5343 3.8632 -4.1853 0.0000 12.4951 0.0000
# 6 0.0000 0.0000 0.0000 -18.3533 0.0000 -10.2581
#
#
#
# Elastic Compliance Matrix: (Units=1/GPa)
#
#
# Indices 1 2 3 4 5 6 
#
# 1 0.043320 -0.007202 0.000550 0.000000 -0.006375 0.000000
# 2 -0.007202 0.015135 -0.003145 0.000000 -0.004272 0.000000
# 3 0.000550 -0.003145 0.009906 0.000000 0.004179 0.000000
# 4 0.000000 0.000000 0.000000 0.027995 0.000000 -0.050088
# 5 -0.006375 -0.004272 0.004179 0.000000 0.084045 0.000000
# 6 0.000000 0.000000 0.000000 -0.050088 0.000000 -0.007869
#
#
# Mechanical properties :
#
#
# Convention : Reuss Voigt Hill
#
# Bulk Modulus (GPa) = 20.50563 32.04441 26.27502
# Shear Modulus (GPa) = 23.99437 12.76323 18.37880
#
# Velocity S-wave (km/s) = 3.45520 2.51999 3.02397
# Velocity P-wave (km/s) = 5.11082 4.94073 5.02649
#
# Compressibility (1/GPa) = 0.04876709
#
# Stress axis : x y z
#
# Youngs Moduli (GPa) = 23.08418 66.07047 100.94675
#
# Poissons Ratio (x) = 0.47586 -0.05554
# Poissons Ratio (y) = 0.16626 0.31748
# Poissons Ratio (z) = -0.01270 0.20779
#
# Static dielectric constant tensor:
#      x y z
#    x 1.694830 0.000000 -0.033720 
#    y 0.000000 1.736270 0.000000 
#    z -0.033720 0.000000 1.732960 
# 
# From -- ./inp_files/50364.got.cif
#   From: 2010.05.17/outbox.cif.g08.bks.cpg/sg11_26_cif.got.tgz:50364.got - 2010.06.03 12:22:45.
