data_PCOD9164990
_publ_section_title
;
Structure prediction by ZEFSAII (Michael W. Deem and Ramdas Pophale) SiO2 
 PCOD9164990
Probable space group: P 21/M
;
_chemical_formula_sum "Si O2"
_cell_formula_units_Z 20
_cell_length_a 11.060723
_cell_length_b 15.879424
_cell_length_c 5.082039
_cell_angle_alpha 90.000000
_cell_angle_beta 90.106531
_cell_angle_gamma 90.000000
_cell_volume 892.597167
_symmetry_space_group_name_H-M "P 21/M"
_symmetry_group_IT_number 11
_symmetry_cell_setting 'monoclinic'
loop_
_space_group_symop_operation_xyz
x,y,z
-x,1/2+y,-z
-x,-y,-z
x,1/2-y,z
loop_
_atom_site_type_symbol
_atom_site_label
_atom_site_fract_x
_atom_site_fract_y
_atom_site_fract_z
Si Si1 0.010123 0.079938 0.189905
Si Si2 0.196757 0.998002 0.577263
Si Si3 0.230736 0.344285 0.936568
Si Si4 0.572817 0.072473 0.654018
Si Si5 0.516674 0.842666 0.834034
O O1 0.872145 0.081772 0.288414
O O2 0.095067 0.052178 0.429650
O O3 0.093402 0.148166 0.044698
O O4 0.000000 0.000000 0.000000
O O5 0.290487 0.958412 0.374886
O O6 0.251887 0.070229 0.767552
O O7 0.244184 0.250000 0.813917
O O8 0.337004 0.349438 0.156277
O O9 0.539065 0.147445 0.454253
O O10 0.500000 0.000000 0.500000
O O11 0.536300 0.093156 0.950173
O O12 0.486844 0.750000 0.935153
#
# Coordination Sequence:
#
# PCOD9164990 Si02
#       5
#     4   4   4   4   4
#     4   9  20  38  60  87 114 154 206 256 312 359
#     4  10  21  37  63  88 120 159 209 261 301 372
#     4  10  21  37  60  89 123 157 201 257 316 367
#     4  12  23  39  68  94 127 168 216 252 318 383
#     4  11  25  42  62  94 133 168 207 265 317 373
#
# _framework density 22.406521999999999
#
# number of rings (size 3 to 8) (size 9 to 14) (size 15 to 20)
#    0.000    1.600    2.000    2.400    5.600    0.800 
#    0.000    2.000    0.000    1.200    0.000    0.000 
#    0.000    0.000    0.000    0.000    0.000    0.000 
#
# Total GULP energy -111415.427549 kJ/mol
# GULP energy per Si atom -5570.771377 kJ/mol
# Density = 2.235552 g / cm^3
# Si number density = 22.406522 Si / 1000 Ang^3
#
#
#
# Elastic Constant Matrix: (Units=GPa)
#
#
# Indices 1 2 3 4 5 6 
#
# 1 57.2117 26.7906 -6.9392 0.0000 -21.1458 0.0000
# 2 26.7906 89.9189 11.1926 0.0000 -9.8222 0.0000
# 3 -6.9392 11.1926 60.5539 0.0000 3.0687 0.0000
# 4 0.0000 0.0000 0.0000 26.5752 0.0000 -2.1284
# 5 -21.1458 -9.8222 3.0687 0.0000 33.2741 0.0000
# 6 0.0000 0.0000 0.0000 -2.1284 0.0000 26.6292
#
#
#
# Elastic Compliance Matrix: (Units=1/GPa)
#
#
# Indices 1 2 3 4 5 6 
#
# 1 0.026406 -0.006727 0.003536 0.000000 0.014469 0.000000
# 2 -0.006727 0.013535 -0.003274 0.000000 0.000022 0.000000
# 3 0.003536 -0.003274 0.017542 0.000000 -0.000337 0.000000
# 4 0.000000 0.000000 0.000000 0.037871 0.000000 0.003027
# 5 0.014469 0.000022 -0.000337 0.000000 0.039286 0.000000
# 6 0.000000 0.000000 0.000000 0.003027 0.000000 0.037795
#
#
# Mechanical properties :
#
#
# Convention : Reuss Voigt Hill
#
# Bulk Modulus (GPa) = 22.44505 29.97473 26.20989
# Shear Modulus (GPa) = 24.97304 29.07172 27.02238
#
# Velocity S-wave (km/s) = 3.34210 3.60594 3.47653
# Velocity P-wave (km/s) = 4.99317 5.54471 5.27615
#
# Compressibility (1/GPa) = 0.04455326
#
# Stress axis : x y z
#
# Youngs Moduli (GPa) = 37.87047 73.88059 57.00724
#
# Poissons Ratio (x) = 0.49700 -0.20158
# Poissons Ratio (y) = 0.25476 0.18663
# Poissons Ratio (z) = -0.13391 0.24187
#
# Static dielectric constant tensor:
#      x y z
#    x 2.029190 0.000000 0.050560 
#    y 0.000000 1.829600 0.000000 
#    z 0.050560 0.000000 1.983680 
# 
# From -- ./inp_files/4136.got.cif
#   From: 2010.05.17/outbox.cif.g08.bks.cpg/sg11_3_cif.got.tgz:4136.got - 2010.06.03 12:22:45.
