data_PCOD9164589
_publ_section_title
;
Structure prediction by ZEFSAII (Michael W. Deem and Ramdas Pophale) SiO2 
 PCOD9164589
Probable space group: P 21/M
;
_chemical_formula_sum "Si O2"
_cell_formula_units_Z 32
_cell_length_a 21.757911
_cell_length_b 8.758332
_cell_length_c 27.381476
_cell_angle_alpha 90.000000
_cell_angle_beta 19.394303
_cell_angle_gamma 90.000000
_cell_volume 1732.693012
_symmetry_space_group_name_H-M "P 21/M"
_symmetry_group_IT_number 11
_symmetry_cell_setting 'monoclinic'
loop_
_space_group_symop_operation_xyz
x,y,z
-x,1/2+y,-z
-x,-y,-z
x,1/2-y,z
loop_
_atom_site_type_symbol
_atom_site_label
_atom_site_fract_x
_atom_site_fract_y
_atom_site_fract_z
Si Si1 0.116479 0.433604 0.868587
Si Si2 0.090307 0.930097 0.355718
Si Si3 0.874795 0.066550 0.958004
Si Si4 0.098124 0.567591 0.591965
Si Si5 0.522110 0.433979 0.537887
Si Si6 0.257196 0.933444 0.326575
Si Si7 0.478707 0.567965 0.252120
Si Si8 0.107466 0.433498 0.691965
O O1 0.107814 0.250000 0.876629
O O2 0.331917 0.476021 0.708063
O O3 0.021756 0.483963 0.888833
O O4 0.000000 0.500000 0.000000
O O5 0.095185 0.750000 0.342448
O O6 0.254547 0.969139 0.270930
O O7 0.059721 0.017308 0.328141
O O8 0.908077 0.973750 0.523851
O O9 0.871338 0.250000 0.961117
O O10 0.949600 0.017818 0.848941
O O11 0.670728 0.007343 0.122365
O O12 0.099800 0.750000 0.594297
O O13 0.297999 0.520138 0.418891
O O14 0.074588 0.494902 0.662456
O O15 0.500000 0.500000 0.500000
O O16 0.535883 0.250000 0.525422
O O17 0.699705 0.502263 0.431536
O O18 0.217790 0.750000 0.360603
O O19 0.432111 0.964267 0.229939
O O20 0.495114 0.750000 0.245453
O O21 0.115666 0.250000 0.685336
#
# Coordination Sequence:
#
# PCOD9164589 Si02
#       8
#     4   4   4   4   4   4   4   4
#     4  10  23  41  58  82 112 141 177 223 271 318
#     4   9  15  26  48  76 106 142 180 220 270 321
#     4  10  22  40  56  77 110 143 178 224 269 320
#     4  10  21  36  53  81 114 142 179 228 273 320
#     4  11  22  40  62  84 110 141 181 225 268 320
#     4   8  15  28  46  73 109 143 178 223 269 316
#     4   9  19  34  53  79 111 144 178 220 269 321
#     4  11  23  40  59  80 108 144 184 226 272 322
#
# _framework density 18.468361000000002
#
# number of rings (size 3 to 8) (size 9 to 14) (size 15 to 20)
#    0.000    2.250    1.250    2.250    1.750    5.500 
#    0.000    0.000    0.000    0.750    0.000    0.000 
#    0.000    0.000    0.000    0.000    0.000    0.000 
#
# Total GULP energy -178434.246018 kJ/mol
# GULP energy per Si atom -5576.070188 kJ/mol
# Density = 1.842633 g / cm^3
# Si number density = 18.468361 Si / 1000 Ang^3
#
#
#
# Elastic Constant Matrix: (Units=GPa)
#
#
# Indices 1 2 3 4 5 6 
#
# 1 85.1406 16.6014 -3.0950 0.0000 23.0218 0.0000
# 2 16.6014 25.8194 3.6621 0.0000 8.1396 0.0000
# 3 -3.0950 3.6621 30.7947 0.0000 16.6990 0.0000
# 4 0.0000 0.0000 0.0000 23.6708 0.0000 -0.0798
# 5 23.0218 8.1396 16.6990 0.0000 23.7860 0.0000
# 6 0.0000 0.0000 0.0000 -0.0798 0.0000 34.5165
#
#
#
# Elastic Compliance Matrix: (Units=1/GPa)
#
#
# Indices 1 2 3 4 5 6 
#
# 1 0.024112 -0.007030 0.023591 0.000000 -0.037493 0.000000
# 2 -0.007030 0.045884 -0.002160 0.000000 -0.007381 0.000000
# 3 0.023591 -0.002160 0.076024 0.000000 -0.075466 0.000000
# 4 0.000000 0.000000 0.000000 0.042246 0.000000 0.000098
# 5 -0.037493 -0.007381 -0.075466 0.000000 0.133837 0.000000
# 6 0.000000 0.000000 0.000000 0.000098 0.000000 0.028972
#
#
# Mechanical properties :
#
#
# Convention : Reuss Voigt Hill
#
# Bulk Modulus (GPa) = 5.72016 19.56574 12.64295
# Shear Modulus (GPa) = 13.13901 24.70041 18.91971
#
# Velocity S-wave (km/s) = 2.67017 3.66108 3.20416
# Velocity P-wave (km/s) = 3.55111 5.33746 4.53315
#
# Compressibility (1/GPa) = 0.17482028
#
# Stress axis : x y z
#
# Youngs Moduli (GPa) = 41.47389 21.79422 13.15381
#
# Poissons Ratio (x) = 0.15320 -0.31031
# Poissons Ratio (y) = 0.29154 0.02842
# Poissons Ratio (z) = -0.97839 0.04708
#
# Static dielectric constant tensor:
#      x y z
#    x 1.665050 0.000000 -0.002390 
#    y 0.000000 1.616990 0.000000 
#    z -0.002390 0.000000 1.609800 
# 
# From -- ./inp_files/72058.got.cif
#   From: 2010.05.17/outbox.cif.g08.bks.cpg/sg11_37_cif.got.tgz:72058.got - 2010.06.03 12:22:45.
