data_PCOD9164122
_publ_section_title
;
Structure prediction by ZEFSAII (Michael W. Deem and Ramdas Pophale) SiO2 
 PCOD9164122
Probable space group: P 21/M
;
_chemical_formula_sum "Si O2"
_cell_formula_units_Z 28
_cell_length_a 19.183090
_cell_length_b 11.880956
_cell_length_c 12.363122
_cell_angle_alpha 90.000000
_cell_angle_beta 152.340284
_cell_angle_gamma 90.000000
_cell_volume 1308.041166
_symmetry_space_group_name_H-M "P 21/M"
_symmetry_group_IT_number 11
_symmetry_cell_setting 'monoclinic'
loop_
_space_group_symop_operation_xyz
x,y,z
-x,1/2+y,-z
-x,-y,-z
x,1/2-y,z
loop_
_atom_site_type_symbol
_atom_site_label
_atom_site_fract_x
_atom_site_fract_y
_atom_site_fract_z
Si Si1 0.713670 0.049153 0.335034
Si Si2 0.759900 0.958454 0.626628
Si Si3 0.349826 0.412531 0.156504
Si Si4 0.510391 0.127782 0.599065
Si Si5 0.922992 0.379319 0.986926
Si Si6 0.957421 0.622693 0.162573
Si Si7 0.400947 0.371558 0.978966
O O1 0.565487 0.122839 0.150787
O O2 0.874611 0.108765 0.560493
O O3 0.707652 0.967440 0.431900
O O4 0.691941 0.973753 0.199374
O O5 0.635269 0.911647 0.534887
O O6 0.909140 0.883294 0.830333
O O7 0.807461 0.083049 0.734238
O O8 0.357123 0.545007 0.189269
O O9 0.460890 0.372562 0.405566
O O10 0.409154 0.384581 0.119694
O O11 0.181446 0.372803 0.945066
O O12 0.552946 0.250000 0.692293
O O13 0.892989 0.250000 0.984688
O O14 0.927516 0.498820 0.062889
O O15 0.952997 0.750000 0.104340
O O16 0.331831 0.250000 0.859703
#
# Coordination Sequence:
#
# PCOD9164122 Si02
#       7
#     4   4   4   4   4   4   4
#     4  10  24  42  64  94 124 166 223 265 323 383
#     4  10  20  39  61  94 132 171 212 264 330 390
#     4  11  24  42  63  98 127 173 218 264 324 390
#     4  11  22  40  64  94 134 174 213 267 327 393
#     4  10  22  36  63 102 138 170 214 270 327 391
#     4  11  23  43  68  96 135 178 217 267 331 395
#     4  11  23  44  67  91 126 167 218 275 326 384
#
# _framework density 21.406054999999999
#
# number of rings (size 3 to 8) (size 9 to 14) (size 15 to 20)
#    0.000    1.429    2.857    2.143    0.000    9.714 
#    0.000    0.714    0.000    0.000    0.000    0.000 
#    0.000    0.000    0.000    0.000    0.000    0.000 
#
# Total GULP energy -156045.335234 kJ/mol
# GULP energy per Si atom -5573.047687 kJ/mol
# Density = 2.135733 g / cm^3
# Si number density = 21.406055 Si / 1000 Ang^3
#
#
#
# Elastic Constant Matrix: (Units=GPa)
#
#
# Indices 1 2 3 4 5 6 
#
# 1 82.9085 38.0188 24.8610 0.0000 1.7633 0.0000
# 2 38.0188 172.2951 26.0911 0.0000 2.7904 0.0000
# 3 24.8610 26.0911 43.5629 0.0000 3.0543 0.0000
# 4 0.0000 0.0000 0.0000 -74.8612 0.0000 -0.5247
# 5 1.7633 2.7904 3.0543 0.0000 31.4871 0.0000
# 6 0.0000 0.0000 0.0000 -0.5247 0.0000 8.1159
#
#
#
# Elastic Compliance Matrix: (Units=1/GPa)
#
#
# Indices 1 2 3 4 5 6 
#
# 1 0.015313 -0.002261 -0.007389 0.000000 0.000060 0.000000
# 2 -0.002261 0.006718 -0.002719 0.000000 -0.000205 0.000000
# 3 -0.007389 -0.002719 0.028951 0.000000 -0.002154 0.000000
# 4 0.000000 0.000000 0.000000 -0.013352 0.000000 -0.000863
# 5 0.000060 -0.000205 -0.002154 0.000000 0.031983 0.000000
# 6 0.000000 0.000000 0.000000 -0.000863 0.000000 0.123160
#
#
# Mechanical properties :
#
#
# Convention : Reuss Voigt Hill
#
# Bulk Modulus (GPa) = 38.10291 52.96759 45.53525
# Shear Modulus (GPa) = 22.09865 6.93473 14.51669
#
# Velocity S-wave (km/s) = 3.21651 1.80184 2.60697
# Velocity P-wave (km/s) = 5.62435 5.39692 5.51181
#
# Compressibility (1/GPa) = 0.02624472
#
# Stress axis : x y z
#
# Youngs Moduli (GPa) = 65.30561 148.85501 34.54057
#
# Poissons Ratio (x) = 0.33655 0.25521
# Poissons Ratio (y) = 0.14765 0.09391
# Poissons Ratio (z) = 0.48253 0.40472
#
# Static dielectric constant tensor:
#      x y z
#    x 1.817970 0.000000 -0.007890 
#    y 0.000000 2.362100 0.000000 
#    z -0.007890 0.000000 1.769200 
# 
# From -- ./inp_files/43251.got.cif
#   From: 2010.05.17/outbox.cif.g08.bks.cpg/sg11_22_cif.got.tgz:43251.got - 2010.06.03 12:22:45.
