data_PCOD9164179
_publ_section_title
;
Structure prediction by ZEFSAII (Michael W. Deem and Ramdas Pophale) SiO2 
 PCOD9164179
Probable space group: P 21/M
;
_chemical_formula_sum "Si O2"
_cell_formula_units_Z 30
_cell_length_a 11.918165
_cell_length_b 9.337651
_cell_length_c 14.817075
_cell_angle_alpha 90.000000
_cell_angle_beta 76.350366
_cell_angle_gamma 90.000000
_cell_volume 1602.386069
_symmetry_space_group_name_H-M "P 21/M"
_symmetry_group_IT_number 11
_symmetry_cell_setting 'monoclinic'
loop_
_space_group_symop_operation_xyz
x,y,z
-x,1/2+y,-z
-x,-y,-z
x,1/2-y,z
loop_
_atom_site_type_symbol
_atom_site_label
_atom_site_fract_x
_atom_site_fract_y
_atom_site_fract_z
Si Si1 0.138535 0.082713 0.208207
Si Si2 0.537659 0.250000 0.511645
Si Si3 0.084194 0.414836 0.687122
Si Si4 0.881299 0.078614 0.493138
Si Si5 0.713792 0.588634 0.651933
Si Si6 0.457536 0.977020 0.641310
Si Si7 0.269696 0.415945 0.808920
Si Si8 0.119654 0.422237 0.002429
O O1 0.101226 0.250000 0.221948
O O2 0.250003 0.068223 0.250927
O O3 0.152123 0.049680 0.100254
O O4 0.039779 0.982537 0.268265
O O5 0.484063 0.126747 0.588588
O O6 0.581346 0.373087 0.431251
O O7 0.074367 0.250000 0.657855
O O8 0.143142 0.512061 0.600063
O O9 0.159799 0.416930 0.762793
O O10 0.892289 0.250000 0.489441
O O11 0.781766 0.027583 0.579845
O O12 0.000000 0.000000 0.500000
O O13 0.753537 0.750000 0.617747
O O14 0.579402 0.578758 0.657032
O O15 0.367545 0.995374 0.739535
O O16 0.307976 0.250000 0.810659
O O17 0.220549 0.466793 0.914186
O O18 0.104319 0.250000 0.994540
O O19 0.000000 0.500000 0.000000
#
# Coordination Sequence:
#
# PCOD9164179 Si02
#       8
#     4   2   4   4   4   4   4   4
#     4  10  21  39  61  87 119 162 205 249 311 372
#     4  10  24  40  64  86 120 164 214 254 300 364
#     4  11  22  36  59  88 123 159 202 253 311 365
#     4  12  25  38  56  86 122 162 205 249 303 372
#     4  11  24  41  60  85 127 167 206 257 313 370
#     4  11  23  42  62  92 123 165 212 256 310 367
#     4  10  22  39  62  90 126 158 202 262 315 368
#     4  10  20  39  64  92 121 159 205 259 317 372
#
# _framework density 18.722079000000001
#
# number of rings (size 3 to 8) (size 9 to 14) (size 15 to 20)
#    0.000    1.333    4.000    1.600    4.667    0.000 
#    2.400    0.667    0.000    0.000    0.000    0.000 
#    0.000    0.000    0.000    0.000    0.000    0.000 
#
# Total GULP energy -167016.248337 kJ/mol
# GULP energy per Si atom -5567.208278 kJ/mol
# Density = 1.867947 g / cm^3
# Si number density = 18.722079 Si / 1000 Ang^3
#
#
#
# Elastic Constant Matrix: (Units=GPa)
#
#
# Indices 1 2 3 4 5 6 
#
# 1 31.1971 17.2335 18.9376 0.0000 -13.3544 0.0000
# 2 17.2335 116.3268 49.5669 0.0000 3.1616 0.0000
# 3 18.9376 49.5669 138.1211 0.0000 -10.3644 0.0000
# 4 0.0000 0.0000 0.0000 -1.0897 0.0000 25.5343
# 5 -13.3544 3.1616 -10.3644 0.0000 25.2160 0.0000
# 6 0.0000 0.0000 0.0000 25.5343 0.0000 -8.7510
#
#
#
# Elastic Compliance Matrix: (Units=1/GPa)
#
#
# Indices 1 2 3 4 5 6 
#
# 1 0.048070 -0.006866 -0.002221 0.000000 0.025406 0.000000
# 2 -0.006866 0.011332 -0.003616 0.000000 -0.006543 0.000000
# 3 -0.002221 -0.003616 0.009068 0.000000 0.003005 0.000000
# 4 0.000000 0.000000 0.000000 0.013621 0.000000 0.039744
# 5 0.025406 -0.006543 0.003005 0.000000 0.055168 0.000000
# 6 0.000000 0.000000 0.000000 0.039744 0.000000 0.001696
#
#
# Mechanical properties :
#
#
# Convention : Reuss Voigt Hill
#
# Bulk Modulus (GPa) = 23.22073 50.79124 37.00598
# Shear Modulus (GPa) = 27.97732 16.40220 22.18976
#
# Velocity S-wave (km/s) = 3.86987 2.96309 3.44644
# Velocity P-wave (km/s) = 5.69190 6.23655 5.97043
#
# Compressibility (1/GPa) = 0.04306498
#
# Stress axis : x y z
#
# Youngs Moduli (GPa) = 20.80281 88.24213 110.28081
#
# Poissons Ratio (x) = 0.60586 0.24488
# Poissons Ratio (y) = 0.14283 0.39883
# Poissons Ratio (z) = 0.04619 0.31913
#
# Static dielectric constant tensor:
#      x y z
#    x 1.663990 0.000000 0.022440 
#    y 0.000000 1.603770 0.000000 
#    z 0.022440 0.000000 1.644450 
# 
# From -- ./inp_files/38335.got.cif
#   From: 2010.05.17/outbox.cif.g08.bks.cpg/sg11_20_cif.got.tgz:38335.got - 2010.06.03 12:22:45.
