data_PCOD9164285
_publ_section_title
;
Structure prediction by ZEFSAII (Michael W. Deem and Ramdas Pophale) SiO2 
 PCOD9164285
Probable space group: P 21/M
;
_chemical_formula_sum "Si O2"
_cell_formula_units_Z 32
_cell_length_a 8.237080
_cell_length_b 19.417757
_cell_length_c 11.767316
_cell_angle_alpha 90.000000
_cell_angle_beta 56.457303
_cell_angle_gamma 90.000000
_cell_volume 1568.707480
_symmetry_space_group_name_H-M "P 21/M"
_symmetry_group_IT_number 11
_symmetry_cell_setting 'monoclinic'
loop_
_space_group_symop_operation_xyz
x,y,z
-x,1/2+y,-z
-x,-y,-z
x,1/2-y,z
loop_
_atom_site_type_symbol
_atom_site_label
_atom_site_fract_x
_atom_site_fract_y
_atom_site_fract_z
Si Si1 0.488286 0.924921 0.126730
Si Si2 0.805001 0.831537 0.397456
Si Si3 0.266573 0.170354 0.321484
Si Si4 0.195008 0.831536 0.102546
Si Si5 0.784170 0.548024 0.828689
Si Si6 0.784166 0.451974 0.328690
Si Si7 0.488281 0.075080 0.626729
Si Si8 0.266573 0.829646 0.821490
O O1 0.369378 0.873794 0.091251
O O2 0.500006 0.898505 0.249998
O O3 0.366051 0.995907 0.172944
O O4 0.695025 0.938556 0.987575
O O5 0.759381 0.750000 0.412662
O O6 0.827193 0.850086 0.521287
O O7 0.630633 0.873794 0.408746
O O8 0.000006 0.843009 0.250002
O O9 0.217487 0.250000 0.314810
O O10 0.208525 0.118166 0.245676
O O11 0.500000 0.166752 0.249996
O O12 0.240627 0.750000 0.087338
O O13 0.172804 0.850086 0.978719
O O14 0.000003 0.517720 0.749999
O O15 0.633942 0.504091 0.327063
O O16 0.695023 0.438551 0.487574
O O17 0.791473 0.381834 0.254319
O O18 0.217489 0.750000 0.814815
#
# Coordination Sequence:
#
# PCOD9164285 Si02
#       8
#     4   4   4   4   4   4   4   4
#     4  11  25  41  61  90 125 161 199 254 308 357
#     4  10  22  41  65  93 124 162 202 245 303 363
#     4  10  20  40  67  89 121 163 203 247 296 360
#     4  10  22  41  65  93 124 162 202 245 303 363
#     4  11  25  41  62  91 122 159 207 252 301 363
#     4  11  25  41  62  91 122 159 207 252 301 363
#     4  11  25  41  61  90 125 161 199 254 308 357
#     4  10  20  40  67  89 121 163 203 247 296 360
#
# _framework density 20.398959000000001
#
# number of rings (size 3 to 8) (size 9 to 14) (size 15 to 20)
#    0.000    1.500    2.500    1.500    7.000    2.000 
#    0.000    0.000    0.000    0.000    0.000    0.000 
#    0.000    0.000    0.000    0.000    0.000    0.000 
#
# Total GULP energy -178936.223000 kJ/mol
# GULP energy per Si atom -5591.756969 kJ/mol
# Density = 2.035253 g / cm^3
# Si number density = 20.398959 Si / 1000 Ang^3
#
#
#
# Elastic Constant Matrix: (Units=GPa)
#
#
# Indices 1 2 3 4 5 6 
#
# 1 36.0217 17.4773 34.5466 0.0000 0.4773 0.0000
# 2 17.4773 65.2693 29.0019 0.0000 13.9764 0.0000
# 3 34.5466 29.0019 139.9667 0.0000 -5.0817 0.0000
# 4 0.0000 0.0000 0.0000 17.7477 0.0000 3.3798
# 5 0.4773 13.9764 -5.0817 0.0000 33.8275 0.0000
# 6 0.0000 0.0000 0.0000 3.3798 0.0000 4.4773
#
#
#
# Elastic Compliance Matrix: (Units=1/GPa)
#
#
# Indices 1 2 3 4 5 6 
#
# 1 0.038953 -0.007076 -0.008106 0.000000 0.001156 0.000000
# 2 -0.007076 0.020316 -0.002779 0.000000 -0.008712 0.000000
# 3 -0.008106 -0.002779 0.009821 0.000000 0.002738 0.000000
# 4 0.000000 0.000000 0.000000 0.065805 0.000000 -0.049674
# 5 0.001156 -0.008712 0.002738 0.000000 0.033556 0.000000
# 6 0.000000 0.000000 0.000000 -0.049674 0.000000 0.260847
#
#
# Mechanical properties :
#
#
# Convention : Reuss Voigt Hill
#
# Bulk Modulus (GPa) = 30.15083 44.81215 37.48149
# Shear Modulus (GPa) = 10.49808 21.89263 16.19536
#
# Velocity S-wave (km/s) = 2.27102 3.27956 2.82073
# Velocity P-wave (km/s) = 4.65719 6.02961 5.38728
#
# Compressibility (1/GPa) = 0.03316658
#
# Stress axis : x y z
#
# Youngs Moduli (GPa) = 25.67175 49.22109 101.82613
#
# Poissons Ratio (x) = 0.34830 0.82543
# Poissons Ratio (y) = 0.18166 0.28302
# Poissons Ratio (z) = 0.20810 0.13681
#
# Static dielectric constant tensor:
#      x y z
#    x 1.677430 0.000000 -0.010640 
#    y 0.000000 1.723280 0.000000 
#    z -0.010640 0.000000 1.741490 
# 
# From -- ./inp_files/32801.got.cif
#   From: 2010.05.17/outbox.cif.g08.bks.cpg/sg11_17_cif.got.tgz:32801.got - 2010.06.03 12:22:45.
