data_PCOD9164614
_publ_section_title
;
Structure prediction by ZEFSAII (Michael W. Deem and Ramdas Pophale) SiO2 
 PCOD9164614
Probable space group: P 21/M
;
_chemical_formula_sum "Si O2"
_cell_formula_units_Z 32
_cell_length_a 24.552076
_cell_length_b 9.129858
_cell_length_c 12.916679
_cell_angle_alpha 90.000000
_cell_angle_beta 31.992301
_cell_angle_gamma 90.000000
_cell_volume 1533.978992
_symmetry_space_group_name_H-M "P 21/M"
_symmetry_group_IT_number 11
_symmetry_cell_setting 'monoclinic'
loop_
_space_group_symop_operation_xyz
x,y,z
-x,1/2+y,-z
-x,-y,-z
x,1/2-y,z
loop_
_atom_site_type_symbol
_atom_site_label
_atom_site_fract_x
_atom_site_fract_y
_atom_site_fract_z
Si Si1 0.576403 0.583954 0.953530
Si Si2 0.634473 0.078781 0.183497
Si Si3 0.805563 0.921515 0.030627
Si Si4 0.248538 0.080628 0.649708
Si Si5 0.755236 0.422629 0.771714
Si Si6 0.456511 0.583563 0.365340
Si Si7 0.028939 0.926916 0.642205
Si Si8 0.083218 0.924812 0.791644
O O1 0.592190 0.750000 0.891488
O O2 0.520445 0.588243 0.155244
O O3 0.500000 0.500000 0.000000
O O4 0.684396 0.504810 0.802307
O O5 0.611968 0.250000 0.234880
O O6 0.707374 0.013000 0.153725
O O7 0.531367 0.987436 0.329435
O O8 0.701805 0.063584 0.969311
O O9 0.790002 0.750000 0.027388
O O10 0.814587 0.926524 0.140501
O O11 0.912825 0.979842 0.810397
O O12 0.254499 0.250000 0.608960
O O13 0.359109 0.016641 0.499331
O O14 0.192481 0.985144 0.653772
O O15 0.755985 0.250000 0.743335
O O16 0.873319 0.475697 0.582451
O O17 0.427130 0.750000 0.439727
O O18 0.021193 0.750000 0.646501
O O19 0.060199 0.961330 0.709862
O O20 0.078335 0.750000 0.810906
O O21 0.000000 0.000000 0.000000
#
# Coordination Sequence:
#
# PCOD9164614 Si02
#       8
#     4   4   4   4   4   4   4   4
#     4  10  21  36  55  81 113 149 190 233 283 340
#     4  10  21  38  60  87 115 146 189 245 292 334
#     4  10  21  39  60  82 113 155 193 231 286 348
#     4  11  23  39  59  87 118 152 194 240 288 342
#     4   9  19  37  59  82 113 149 188 235 286 338
#     4  10  22  40  60  83 113 153 193 234 289 349
#     4   9  19  37  59  83 114 154 192 227 281 344
#     4  11  21  37  59  84 118 157 195 237 285 341
#
# _framework density 20.860780999999999
#
# number of rings (size 3 to 8) (size 9 to 14) (size 15 to 20)
#    0.000    2.000    1.250    1.875    1.750    4.000 
#    0.000    1.250    0.000    0.000    0.000    0.000 
#    0.000    0.000    0.000    0.000    0.000    0.000 
#
# Total GULP energy -178806.284096 kJ/mol
# GULP energy per Si atom -5587.696378 kJ/mol
# Density = 2.081330 g / cm^3
# Si number density = 20.860781 Si / 1000 Ang^3
#
#
#
# Elastic Constant Matrix: (Units=GPa)
#
#
# Indices 1 2 3 4 5 6 
#
# 1 67.7576 22.8396 -9.9100 0.0000 -18.5310 0.0000
# 2 22.8396 71.9177 -1.2030 0.0000 -1.5510 0.0000
# 3 -9.9100 -1.2030 57.7923 0.0000 -14.3824 0.0000
# 4 0.0000 0.0000 0.0000 27.6415 0.0000 -8.7853
# 5 -18.5310 -1.5510 -14.3824 0.0000 29.8662 0.0000
# 6 0.0000 0.0000 0.0000 -8.7853 0.0000 27.7780
#
#
#
# Elastic Compliance Matrix: (Units=1/GPa)
#
#
# Indices 1 2 3 4 5 6 
#
# 1 0.023229 -0.006848 0.008338 0.000000 0.018072 0.000000
# 2 -0.006848 0.015954 -0.001924 0.000000 -0.004347 0.000000
# 3 0.008338 -0.001924 0.022673 0.000000 0.015992 0.000000
# 4 0.000000 0.000000 0.000000 0.040220 0.000000 0.012720
# 5 0.018072 -0.004347 0.015992 0.000000 0.052171 0.000000
# 6 0.000000 0.000000 0.000000 0.012720 0.000000 0.040023
#
#
# Mechanical properties :
#
#
# Convention : Reuss Voigt Hill
#
# Bulk Modulus (GPa) = 16.39656 24.54677 20.47167
# Shear Modulus (GPa) = 23.20549 29.43988 26.32268
#
# Velocity S-wave (km/s) = 3.33888 3.76074 3.55607
# Velocity P-wave (km/s) = 4.76878 5.53625 5.16678
#
# Compressibility (1/GPa) = 0.06098840
#
# Stress axis : x y z
#
# Youngs Moduli (GPa) = 43.04992 62.68191 44.10551
#
# Poissons Ratio (x) = 0.42923 -0.36776
# Poissons Ratio (y) = 0.29480 0.08485
# Poissons Ratio (z) = -0.35896 0.12059
#
# Static dielectric constant tensor:
#      x y z
#    x 1.726450 0.000000 0.028760 
#    y 0.000000 1.710930 0.000000 
#    z 0.028760 0.000000 1.800850 
# 
# From -- ./inp_files/51778.got.cif
#   From: 2010.05.17/outbox.cif.g08.bks.cpg/sg11_26_cif.got.tgz:51778.got - 2010.06.03 12:22:45.
