data_PCOD9164100
_publ_section_title
;
Structure prediction by ZEFSAII (Michael W. Deem and Ramdas Pophale) SiO2 
 PCOD9164100
Probable space group: P 21/M
;
_chemical_formula_sum "Si O2"
_cell_formula_units_Z 28
_cell_length_a 17.341811
_cell_length_b 13.030062
_cell_length_c 5.627829
_cell_angle_alpha 90.000000
_cell_angle_beta 81.781951
_cell_angle_gamma 90.000000
_cell_volume 1258.632981
_symmetry_space_group_name_H-M "P 21/M"
_symmetry_group_IT_number 11
_symmetry_cell_setting 'monoclinic'
loop_
_space_group_symop_operation_xyz
x,y,z
-x,1/2+y,-z
-x,-y,-z
x,1/2-y,z
loop_
_atom_site_type_symbol
_atom_site_label
_atom_site_fract_x
_atom_site_fract_y
_atom_site_fract_z
Si Si1 0.093573 0.126870 0.506920
Si Si2 0.944657 0.458876 0.822402
Si Si3 0.650358 0.636184 0.729037
Si Si4 0.563006 0.545437 0.151865
Si Si5 0.519960 0.144339 0.424783
Si Si6 0.235760 0.988848 0.574187
Si Si7 0.782712 0.369475 0.928803
O O1 0.107331 0.250000 0.494372
O O2 0.157326 0.060145 0.626777
O O3 0.005075 0.101920 0.626410
O O4 0.096146 0.062521 0.260763
O O5 0.875936 0.382154 0.917436
O O6 0.000000 0.500000 0.000000
O O7 0.683441 0.750000 0.739279
O O8 0.560625 0.645020 0.686585
O O9 0.697666 0.570859 0.520629
O O10 0.640097 0.580585 0.985896
O O11 0.515118 0.635560 0.297652
O O12 0.570023 0.454251 0.339600
O O13 0.500000 0.500000 0.000000
O O14 0.563275 0.250000 0.364953
O O15 0.246500 0.926012 0.814928
O O16 0.233258 0.919081 0.329560
O O17 0.759178 0.250000 0.936667
#
# Coordination Sequence:
#
# PCOD9164100 Si02
#       7
#     4   4   4   4   4   4   4
#     4  10  21  37  58  88 125 158 199 262 319 365
#     4  10  20  39  58  89 117 157 212 260 307 377
#     4  10  21  37  61  89 120 161 198 249 315 367
#     4   9  18  34  57  85 121 153 197 249 293 368
#     4   9  18  34  59  89 117 156 199 246 306 362
#     4  11  24  42  63  93 128 158 214 253 303 377
#     4  11  24  44  66  86 121 170 210 257 312 368
#
# _framework density 22.246357
#
# number of rings (size 3 to 8) (size 9 to 14) (size 15 to 20)
#    0.000    2.000    1.429    1.714    2.000    1.714 
#    0.000    2.857    0.000    2.571    0.000    0.000 
#    0.000    0.000    0.000    0.000    0.000    0.000 
#
# Total GULP energy -155916.629750 kJ/mol
# GULP energy per Si atom -5568.451062 kJ/mol
# Density = 2.219572 g / cm^3
# Si number density = 22.246357 Si / 1000 Ang^3
#
#
#
# Elastic Constant Matrix: (Units=GPa)
#
#
# Indices 1 2 3 4 5 6 
#
# 1 39.7569 26.7227 15.9342 0.0000 -12.5154 0.0000
# 2 26.7227 187.2341 58.8857 0.0000 -12.9319 0.0000
# 3 15.9342 58.8857 114.6042 0.0000 -16.6392 0.0000
# 4 0.0000 0.0000 0.0000 14.4394 0.0000 -4.1859
# 5 -12.5154 -12.9319 -16.6392 0.0000 37.4550 0.0000
# 6 0.0000 0.0000 0.0000 -4.1859 0.0000 17.8114
#
#
#
# Elastic Compliance Matrix: (Units=1/GPa)
#
#
# Indices 1 2 3 4 5 6 
#
# 1 0.030612 -0.003378 -0.001288 0.000000 0.008490 0.000000
# 2 -0.003378 0.006765 -0.003026 0.000000 -0.000137 0.000000
# 3 -0.001288 -0.003026 0.010952 0.000000 0.003390 0.000000
# 4 0.000000 0.000000 0.000000 0.074318 0.000000 0.017466
# 5 0.008490 -0.000137 0.003390 0.000000 0.030994 0.000000
# 6 0.000000 0.000000 0.000000 0.017466 0.000000 0.060248
#
#
# Mechanical properties :
#
#
# Convention : Reuss Voigt Hill
#
# Bulk Modulus (GPa) = 30.35332 60.52004 45.43668
# Shear Modulus (GPa) = 20.81114 29.94467 25.37790
#
# Velocity S-wave (km/s) = 3.06189 3.67283 3.38119
# Velocity P-wave (km/s) = 5.11605 6.72680 5.97594
#
# Compressibility (1/GPa) = 0.03294533
#
# Stress axis : x y z
#
# Youngs Moduli (GPa) = 32.66680 147.81280 91.30740
#
# Poissons Ratio (x) = 0.49924 0.11761
# Poissons Ratio (y) = 0.11033 0.27634
# Poissons Ratio (z) = 0.04208 0.44735
#
# Static dielectric constant tensor:
#      x y z
#    x 1.878750 0.000000 0.059030 
#    y 0.000000 1.862900 0.000000 
#    z 0.059030 0.000000 1.968540 
# 
# From -- ./inp_files/8756.got.cif
#   From: 2010.05.17/outbox.cif.g08.bks.cpg/sg11_5_cif.got.tgz:8756.got - 2010.06.03 12:22:45.
