data_PCOD9164191
_publ_section_title
;
Structure prediction by ZEFSAII (Michael W. Deem and Ramdas Pophale) SiO2 
 PCOD9164191
Probable space group: P 21/M
;
_chemical_formula_sum "Si O2"
_cell_formula_units_Z 28
_cell_length_a 16.640362
_cell_length_b 8.807817
_cell_length_c 19.784010
_cell_angle_alpha 90.000000
_cell_angle_beta 148.966519
_cell_angle_gamma 90.000000
_cell_volume 1494.881598
_symmetry_space_group_name_H-M "P 21/M"
_symmetry_group_IT_number 11
_symmetry_cell_setting 'monoclinic'
loop_
_space_group_symop_operation_xyz
x,y,z
-x,1/2+y,-z
-x,-y,-z
x,1/2-y,z
loop_
_atom_site_type_symbol
_atom_site_label
_atom_site_fract_x
_atom_site_fract_y
_atom_site_fract_z
Si Si1 0.030067 0.433562 0.095416
Si Si2 0.667765 0.932700 0.605025
Si Si3 0.162154 0.430679 0.644357
Si Si4 0.102332 0.931605 0.741606
Si Si5 0.430538 0.569723 0.744031
Si Si6 0.767657 0.066862 0.016317
Si Si7 0.739195 0.568483 0.501750
O O1 0.030524 0.250000 0.092090
O O2 0.196582 0.483052 0.245976
O O3 0.000000 0.500000 0.000000
O O4 0.895590 0.476748 0.052169
O O5 0.659965 0.750000 0.603114
O O6 0.716483 0.971470 0.563632
O O7 0.500000 0.000000 0.500000
O O8 0.156212 0.250000 0.633209
O O9 0.176798 0.480195 0.732878
O O10 0.305161 0.495253 0.704240
O O11 0.000000 0.500000 0.500000
O O12 0.121667 0.750000 0.745583
O O13 0.917300 0.963208 0.609334
O O14 0.171235 0.971056 0.864547
O O15 0.424528 0.750000 0.746272
O O16 0.602568 0.508952 0.883135
O O17 0.377120 0.519183 0.630883
O O18 0.751506 0.250000 0.001867
O O19 0.714363 0.750000 0.476369
#
# Coordination Sequence:
#
# PCOD9164191 Si02
#       7
#     4   4   4   4   4   4   4
#     4  10  22  41  63  89 123 163 205 249 305 366
#     4  10  22  40  62  92 125 161 205 253 307 366
#     4  12  24  40  63  93 127 162 203 254 308 366
#     4  10  20  39  68  92 117 161 209 256 307 363
#     4  12  26  41  61  93 127 163 206 256 307 367
#     4  10  22  43  66  89 122 166 209 253 309 370
#     4  10  20  39  65  89 120 163 207 255 309 365
#
# _framework density 18.730581999999998
#
# number of rings (size 3 to 8) (size 9 to 14) (size 15 to 20)
#    0.000    1.429    2.857    2.571    2.000    2.857 
#    0.000    0.000    0.000    0.000    0.000    0.000 
#    0.000    0.000    0.000    0.000    0.000    0.000 
#
# Total GULP energy -156530.395770 kJ/mol
# GULP energy per Si atom -5590.371278 kJ/mol
# Density = 1.868795 g / cm^3
# Si number density = 18.730582 Si / 1000 Ang^3
#
#
#
# Elastic Constant Matrix: (Units=GPa)
#
#
# Indices 1 2 3 4 5 6 
#
# 1 124.0823 43.4026 78.9534 0.0000 -8.3939 0.0000
# 2 43.4026 52.4601 62.4503 0.0000 -4.6803 0.0000
# 3 78.9534 62.4503 167.9937 0.0000 -1.7084 0.0000
# 4 0.0000 0.0000 0.0000 24.8961 0.0000 -0.7819
# 5 -8.3939 -4.6803 -1.7084 0.0000 37.4201 0.0000
# 6 0.0000 0.0000 0.0000 -0.7819 0.0000 35.2785
#
#
#
# Elastic Compliance Matrix: (Units=1/GPa)
#
#
# Indices 1 2 3 4 5 6 
#
# 1 0.012601 -0.005788 -0.003751 0.000000 0.001931 0.000000
# 2 -0.005788 0.037372 -0.011143 0.000000 0.002867 0.000000
# 3 -0.003751 -0.011143 0.011841 0.000000 -0.001695 0.000000
# 4 0.000000 0.000000 0.000000 0.040195 0.000000 0.000891
# 5 0.001931 0.002867 -0.001695 0.000000 0.027438 0.000000
# 6 0.000000 0.000000 0.000000 0.000891 0.000000 0.028366
#
#
# Mechanical properties :
#
#
# Convention : Reuss Voigt Hill
#
# Bulk Modulus (GPa) = 48.90144 79.34987 64.12565
# Shear Modulus (GPa) = 24.27264 30.16760 27.22012
#
# Velocity S-wave (km/s) = 3.60374 4.01759 3.81628
# Velocity P-wave (km/s) = 6.59397 7.99857 7.32999
#
# Compressibility (1/GPa) = 0.02044929
#
# Stress axis : x y z
#
# Youngs Moduli (GPa) = 79.35811 26.75809 84.45397
#
# Poissons Ratio (x) = 0.15487 0.31679
# Poissons Ratio (y) = 0.45930 0.94111
# Poissons Ratio (z) = 0.29768 0.29818
#
# Static dielectric constant tensor:
#      x y z
#    x 1.629640 0.000000 -0.010840 
#    y 0.000000 1.629260 0.000000 
#    z -0.010840 0.000000 1.624760 
# 
# From -- ./inp_files/60136.got.cif
#   From: 2010.05.17/outbox.cif.g08.bks.cpg/sg11_31_cif.got.tgz:60136.got - 2010.06.03 12:22:45.
