data_PCOD9164010
_publ_section_title
;
Structure prediction by ZEFSAII (Michael W. Deem and Ramdas Pophale) SiO2 
 PCOD9164010
Probable space group: P 21/M
;
_chemical_formula_sum "Si O2"
_cell_formula_units_Z 28
_cell_length_a 10.385097
_cell_length_b 8.701265
_cell_length_c 20.500785
_cell_angle_alpha 90.000000
_cell_angle_beta 128.187536
_cell_angle_gamma 90.000000
_cell_volume 1456.066597
_symmetry_space_group_name_H-M "P 21/M"
_symmetry_group_IT_number 11
_symmetry_cell_setting 'monoclinic'
loop_
_space_group_symop_operation_xyz
x,y,z
-x,1/2+y,-z
-x,-y,-z
x,1/2-y,z
loop_
_atom_site_type_symbol
_atom_site_label
_atom_site_fract_x
_atom_site_fract_y
_atom_site_fract_z
Si Si1 0.991586 0.433402 0.309972
Si Si2 0.971191 0.065008 0.062888
Si Si3 0.873358 0.433166 0.513448
Si Si4 0.400954 0.934965 0.030019
Si Si5 0.367158 0.064620 0.779160
Si Si6 0.441414 0.434961 0.652160
Si Si7 0.819386 0.065666 0.755106
O O1 0.995832 0.250000 0.311381
O O2 0.080120 0.497952 0.402089
O O3 0.081273 0.497226 0.274263
O O4 0.804151 0.490138 0.254091
O O5 0.978554 0.250000 0.064181
O O6 0.788663 0.017739 0.028765
O O7 0.103022 0.999087 0.154342
O O8 0.000000 0.000000 0.000000
O O9 0.889309 0.250000 0.520363
O O10 0.693187 0.482688 0.434114
O O11 0.000000 0.500000 0.500000
O O12 0.404713 0.750000 0.027748
O O13 0.491650 0.980202 0.125557
O O14 0.500000 0.000000 0.000000
O O15 0.349872 0.250000 0.776186
O O16 0.410393 0.023731 0.718279
O O17 0.420332 0.250000 0.639889
O O18 0.627143 0.473634 0.691542
O O19 0.833289 0.250000 0.759425
#
# Coordination Sequence:
#
# PCOD9164010 Si02
#       7
#     4   4   4   4   4   4   4
#     4  12  25  41  63  93 128 168 209 257 311 374
#     4  11  23  41  64  92 126 167 212 260 313 377
#     4  12  24  41  66  96 127 162 205 255 311 372
#     4  10  22  38  58  87 121 160 205 256 311 366
#     4  10  20  38  63  88 118 159 207 260 313 368
#     4  10  22  41  66  92 122 161 208 259 310 369
#     4  11  24  43  65  93 128 168 209 259 318 373
#
# _framework density 19.229890000000001
#
# number of rings (size 3 to 8) (size 9 to 14) (size 15 to 20)
#    0.000    1.143    1.429    5.143    0.000    8.000 
#    0.000    1.429    0.000    0.000    0.000    0.000 
#    0.000    0.000    0.000    0.000    0.000    0.000 
#
# Total GULP energy -156662.829897 kJ/mol
# GULP energy per Si atom -5595.101068 kJ/mol
# Density = 1.918612 g / cm^3
# Si number density = 19.229890 Si / 1000 Ang^3
#
#
#
# Elastic Constant Matrix: (Units=GPa)
#
#
# Indices 1 2 3 4 5 6 
#
# 1 65.6464 17.3296 -10.3534 0.0000 8.8130 0.0000
# 2 17.3296 57.8323 21.7240 0.0000 9.8818 0.0000
# 3 -10.3534 21.7240 81.7502 0.0000 9.7265 0.0000
# 4 0.0000 0.0000 0.0000 34.8264 0.0000 -5.4012
# 5 8.8130 9.8818 9.7265 0.0000 38.6298 0.0000
# 6 0.0000 0.0000 0.0000 -5.4012 0.0000 21.9522
#
#
#
# Elastic Compliance Matrix: (Units=1/GPa)
#
#
# Indices 1 2 3 4 5 6 
#
# 1 0.018131 -0.006489 0.004449 0.000000 -0.003596 0.000000
# 2 -0.006489 0.022071 -0.006382 0.000000 -0.002558 0.000000
# 3 0.004449 -0.006382 0.014864 0.000000 -0.003125 0.000000
# 4 0.000000 0.000000 0.000000 0.029853 0.000000 0.007345
# 5 -0.003596 -0.002558 -0.003125 0.000000 0.028148 0.000000
# 6 0.000000 0.000000 0.000000 0.007345 0.000000 0.047361
#
#
# Mechanical properties :
#
#
# Convention : Reuss Voigt Hill
#
# Bulk Modulus (GPa) = 26.16556 29.18103 27.67330
# Shear Modulus (GPa) = 26.31399 30.85025 28.58212
#
# Velocity S-wave (km/s) = 3.70319 4.00970 3.85949
# Velocity P-wave (km/s) = 5.64987 6.05349 5.85516
#
# Compressibility (1/GPa) = 0.03821818
#
# Stress axis : x y z
#
# Youngs Moduli (GPa) = 55.15523 45.30920 67.27844
#
# Poissons Ratio (x) = 0.29403 -0.29929
# Poissons Ratio (y) = 0.35793 0.42940
# Poissons Ratio (z) = -0.24536 0.28918
#
# Static dielectric constant tensor:
#      x y z
#    x 1.667100 0.000000 -0.011260 
#    y 0.000000 1.650270 0.000000 
#    z -0.011260 0.000000 1.655200 
# 
# From -- ./inp_files/63422.got.cif
#   From: 2010.05.17/outbox.cif.g08.bks.cpg/sg11_32_cif.got.tgz:63422.got - 2010.06.03 12:22:45.
