data_PCOD9164089
_publ_section_title
;
Structure prediction by ZEFSAII (Michael W. Deem and Ramdas Pophale) SiO2 
 PCOD9164089
Probable space group: P 21/M
;
_chemical_formula_sum "Si O2"
_cell_formula_units_Z 20
_cell_length_a 10.335286
_cell_length_b 15.188308
_cell_length_c 9.424634
_cell_angle_alpha 90.000000
_cell_angle_beta 32.090851
_cell_angle_gamma 90.000000
_cell_volume 785.970430
_symmetry_space_group_name_H-M "P 21/M"
_symmetry_group_IT_number 11
_symmetry_cell_setting 'monoclinic'
loop_
_space_group_symop_operation_xyz
x,y,z
-x,1/2+y,-z
-x,-y,-z
x,1/2-y,z
loop_
_atom_site_type_symbol
_atom_site_label
_atom_site_fract_x
_atom_site_fract_y
_atom_site_fract_z
Si Si1 0.362204 0.399530 0.462300
Si Si2 0.234304 0.250000 0.349621
Si Si3 0.701970 0.046963 0.909441
Si Si4 0.568516 0.649494 0.287232
Si Si5 0.940020 0.439112 0.280708
Si Si6 0.732941 0.250000 0.781998
O O1 0.264098 0.331214 0.434227
O O2 0.581246 0.449035 0.178882
O O3 0.457148 0.357898 0.518356
O O4 0.162181 0.471118 0.695209
O O5 0.446807 0.250000 0.038043
O O6 0.997547 0.250000 0.470484
O O7 0.752757 0.149791 0.831852
O O8 0.500000 0.000000 0.000000
O O9 0.931243 0.981901 0.702220
O O10 0.573327 0.750000 0.243926
O O11 0.311364 0.613728 0.461888
O O12 0.835784 0.611639 0.999050
#
# Coordination Sequence:
#
# PCOD9164089 Si02
#       6
#     4   2   4   4   4   2
#     4  11  23  45  74 107 144 188 241 299 360 425
#     4  10  20  38  70 100 133 177 234 294 331 420
#     4  11  26  48  76 108 146 192 250 302 359 437
#     4  12  27  45  71 108 151 194 239 298 370 443
#     4  12  25  46  73 106 145 190 242 303 367 425
#     4  10  22  44  68 100 133 187 240 296 353 404
#
# _framework density 25.446248000000001
#
# number of rings (size 3 to 8) (size 9 to 14) (size 15 to 20)
#    0.000    0.800    5.000    1.800    2.800    0.800 
#    3.600    0.000    0.000    0.000    0.000    0.000 
#    0.000    0.000    0.000    0.000    0.000    0.000 
#
# Total GULP energy -111482.736888 kJ/mol
# GULP energy per Si atom -5574.136844 kJ/mol
# Density = 2.538833 g / cm^3
# Si number density = 25.446248 Si / 1000 Ang^3
#
#
#
# Elastic Constant Matrix: (Units=GPa)
#
#
# Indices 1 2 3 4 5 6 
#
# 1 103.4959 49.3180 70.2810 0.0000 -2.7687 0.0000
# 2 49.3180 150.9879 57.8055 0.0000 -12.1279 0.0000
# 3 70.2810 57.8055 189.3516 0.0000 -29.3823 0.0000
# 4 0.0000 0.0000 0.0000 22.9422 0.0000 -47.6331
# 5 -2.7687 -12.1279 -29.3823 0.0000 55.7752 0.0000
# 6 0.0000 0.0000 0.0000 -47.6331 0.0000 -99.3236
#
#
#
# Elastic Compliance Matrix: (Units=1/GPa)
#
#
# Indices 1 2 3 4 5 6 
#
# 1 0.014270 -0.003040 -0.004750 0.000000 -0.002455 0.000000
# 2 -0.003040 0.008158 -0.001209 0.000000 0.000986 0.000000
# 3 -0.004750 -0.001209 0.007989 0.000000 0.003710 0.000000
# 4 0.000000 0.000000 0.000000 0.021841 0.000000 -0.010474
# 5 -0.002455 0.000986 0.003710 0.000000 0.019976 0.000000
# 6 0.000000 0.000000 0.000000 -0.010474 0.000000 -0.005045
#
#
# Mechanical properties :
#
#
# Convention : Reuss Voigt Hill
#
# Bulk Modulus (GPa) = 80.51559 88.73827 84.62693
# Shear Modulus (GPa) = 55.97412 13.64081 34.80747
#
# Velocity S-wave (km/s) = 4.69518 2.31782 3.70250
# Velocity P-wave (km/s) = 7.81685 6.48934 7.18383
#
# Compressibility (1/GPa) = 0.01241996
#
# Stress axis : x y z
#
# Youngs Moduli (GPa) = 70.07465 122.57665 125.17433
#
# Poissons Ratio (x) = 0.37264 0.59452
# Poissons Ratio (y) = 0.21303 0.15136
# Poissons Ratio (z) = 0.33282 0.14821
#
# Static dielectric constant tensor:
#      x y z
#    x 2.086460 0.000000 -0.012940 
#    y 0.000000 1.727190 0.000000 
#    z -0.012940 0.000000 2.005200 
# 
# From -- ./inp_files/35672.got.cif
#   From: 2010.05.17/outbox.cif.g08.bks.cpg/sg11_18_cif.got.tgz:35672.got - 2010.06.03 12:22:45.
