data_PCOD9164908
_publ_section_title
;
Structure prediction by ZEFSAII (Michael W. Deem and Ramdas Pophale) SiO2 
 PCOD9164908
Probable space group: P 21/M
;
_chemical_formula_sum "Si O2"
_cell_formula_units_Z 30
_cell_length_a 20.146692
_cell_length_b 7.426995
_cell_length_c 7.626258
_cell_angle_alpha 90.000000
_cell_angle_beta 93.139562
_cell_angle_gamma 90.000000
_cell_volume 1139.399557
_symmetry_space_group_name_H-M "P 21/M"
_symmetry_group_IT_number 11
_symmetry_cell_setting 'monoclinic'
loop_
_space_group_symop_operation_xyz
x,y,z
-x,1/2+y,-z
-x,-y,-z
x,1/2-y,z
loop_
_atom_site_type_symbol
_atom_site_label
_atom_site_fract_x
_atom_site_fract_y
_atom_site_fract_z
Si Si1 0.523137 0.037811 0.808181
Si Si2 0.334004 0.455032 0.287957
Si Si3 0.616546 0.531729 0.327105
Si Si4 0.864983 0.042493 0.540897
Si Si5 0.942490 0.750000 0.909338
Si Si6 0.056529 0.956418 0.779027
Si Si7 0.754327 0.540722 0.249747
Si Si8 0.197084 0.547912 0.119585
O O1 0.530899 0.250000 0.775768
O O2 0.459068 0.965055 0.693630
O O3 0.595495 0.955846 0.798105
O O4 0.500000 0.000000 0.000000
O O5 0.310291 0.250000 0.295052
O O6 0.353550 0.518856 0.482467
O O7 0.272828 0.555984 0.198166
O O8 0.609891 0.750000 0.311163
O O9 0.677901 0.475273 0.211364
O O10 0.884103 0.250000 0.577952
O O11 0.917533 0.971246 0.404151
O O12 0.844269 0.954913 0.726714
O O13 0.796871 0.043129 0.413354
O O14 0.928244 0.591635 0.059412
O O15 0.978817 0.907800 0.788067
O O16 0.085181 0.750000 0.801536
O O17 0.748903 0.750000 0.296540
O O18 0.793358 0.528224 0.073167
O O19 0.172247 0.750000 0.102076
#
# Coordination Sequence:
#
# PCOD9164908 Si02
#       8
#     4   4   4   4   2   4   4   4
#     4  11  22  37  55  79 106 142 187 234 293 355
#     4  11  21  38  58  79 107 142 187 244 294 349
#     4   9  20  37  56  77 106 142 185 238 293 346
#     4  10  21  37  58  87 119 157 197 245 293 348
#     4   8  14  28  52  86 118 158 198 242 296 350
#     4   8  15  29  51  84 123 152 199 249 291 350
#     4  11  22  38  59  85 117 154 196 244 296 355
#     4  11  23  39  58  84 118 156 194 241 299 355
#
# _framework density 26.329657000000001
#
# number of rings (size 3 to 8) (size 9 to 14) (size 15 to 20)
#    0.400    1.600    1.333    2.800    0.933    1.600 
#    0.000    4.000    0.000    0.000    0.000    5.600 
#    0.000    0.000    0.000    0.000    0.000    0.000 
#
# Total GULP energy -167036.261073 kJ/mol
# GULP energy per Si atom -5567.875369 kJ/mol
# Density = 2.626973 g / cm^3
# Si number density = 26.329657 Si / 1000 Ang^3
#
#
#
# Elastic Constant Matrix: (Units=GPa)
#
#
# Indices 1 2 3 4 5 6 
#
# 1 142.8572 -25.8857 34.1700 0.0000 -29.1498 0.0000
# 2 -25.8857 90.0189 -17.3509 0.0000 -7.6277 0.0000
# 3 34.1700 -17.3509 124.6579 0.0000 -42.5903 0.0000
# 4 0.0000 0.0000 0.0000 115.9020 0.0000 84.9505
# 5 -29.1498 -7.6277 -42.5903 0.0000 56.6507 0.0000
# 6 0.0000 0.0000 0.0000 84.9505 0.0000 111.0705
#
#
#
# Elastic Compliance Matrix: (Units=1/GPa)
#
#
# Indices 1 2 3 4 5 6 
#
# 1 0.008501 0.002733 -0.000444 0.000000 0.004409 0.000000
# 2 0.002733 0.012892 0.002851 0.000000 0.005285 0.000000
# 3 -0.000444 0.002851 0.011564 0.000000 0.008849 0.000000
# 4 0.000000 0.000000 0.000000 0.019635 0.000000 -0.015018
# 5 0.004409 0.005285 0.008849 0.000000 0.027285 0.000000
# 6 0.000000 0.000000 0.000000 -0.015018 0.000000 0.020489
#
#
# Mechanical properties :
#
#
# Convention : Reuss Voigt Hill
#
# Bulk Modulus (GPa) = 23.12840 37.71119 30.41980
# Shear Modulus (GPa) = 47.84765 81.16467 64.50616
#
# Velocity S-wave (km/s) = 4.26755 5.55817 4.95506
# Velocity P-wave (km/s) = 5.75203 7.45284 6.65698
#
# Compressibility (1/GPa) = 0.04323688
#
# Stress axis : x y z
#
# Youngs Moduli (GPa) = 117.63615 77.56768 86.47613
#
# Poissons Ratio (x) = -0.21196 0.03836
# Poissons Ratio (y) = -0.32144 -0.24656
# Poissons Ratio (z) = 0.05218 -0.22116
#
# Static dielectric constant tensor:
#      x y z
#    x 2.512210 0.000000 0.093400 
#    y 0.000000 1.774420 0.000000 
#    z 0.093400 0.000000 2.108260 
# 
# From -- ./inp_files/25850.got.cif
#   From: 2010.05.17/outbox.cif.g08.bks.cpg/sg11_13_cif.got.tgz:25850.got - 2010.06.03 12:22:45.
