data_PCOD9164301
_publ_section_title
;
Structure prediction by ZEFSAII (Michael W. Deem and Ramdas Pophale) SiO2 
 PCOD9164301
Probable space group: P 21/M
;
_chemical_formula_sum "Si O2"
_cell_formula_units_Z 20
_cell_length_a 14.378382
_cell_length_b 11.803595
_cell_length_c 6.258484
_cell_angle_alpha 90.000000
_cell_angle_beta 129.194112
_cell_angle_gamma 90.000000
_cell_volume 823.190696
_symmetry_space_group_name_H-M "P 21/M"
_symmetry_group_IT_number 11
_symmetry_cell_setting 'monoclinic'
loop_
_space_group_symop_operation_xyz
x,y,z
-x,1/2+y,-z
-x,-y,-z
x,1/2-y,z
loop_
_atom_site_type_symbol
_atom_site_label
_atom_site_fract_x
_atom_site_fract_y
_atom_site_fract_z
Si Si1 0.820176 0.878189 0.815121
Si Si2 0.624457 0.003966 0.803609
Si Si3 0.438779 0.750000 0.283821
Si Si4 0.721080 0.448716 0.345739
Si Si5 0.449164 0.750000 0.787100
Si Si6 0.029734 0.876871 0.439155
O O1 0.789650 0.750000 0.715224
O O2 0.726011 0.927950 0.848868
O O3 0.796746 0.961869 0.589464
O O4 0.951548 0.879754 0.108463
O O5 0.500000 0.000000 0.500000
O O6 0.642495 0.138995 0.830487
O O7 0.632626 0.978576 0.065667
O O8 0.506700 0.750000 0.622455
O O9 0.493944 0.750000 0.112423
O O10 0.635930 0.360679 0.341432
O O11 0.828743 0.380475 0.391667
O O12 0.999241 0.750000 0.492210
O O13 0.000000 0.000000 0.500000
#
# Coordination Sequence:
#
# PCOD9164301 Si02
#       6
#     4   4   2   4   2   4
#     4  11  25  43  64  99 138 175 229 291 360 426
#     4  11  25  43  67  97 136 181 232 292 350 423
#     4  10  22  44  68  99 131 182 242 288 349 418
#     4  11  22  44  67  97 133 179 232 283 356 426
#     4  10  20  40  72  99 129 174 238 296 335 414
#     4  11  23  42  70 101 136 181 231 294 362 431
#
# _framework density 24.295708000000001
#
# number of rings (size 3 to 8) (size 9 to 14) (size 15 to 20)
#    0.000    1.200    5.000    0.600    1.400    2.400 
#    1.800    0.000    0.000    0.000    0.000    0.000 
#    0.000    0.000    0.000    0.000    0.000    0.000 
#
# Total GULP energy -111342.408406 kJ/mol
# GULP energy per Si atom -5567.120420 kJ/mol
# Density = 2.424041 g / cm^3
# Si number density = 24.295708 Si / 1000 Ang^3
#
#
#
# Elastic Constant Matrix: (Units=GPa)
#
#
# Indices 1 2 3 4 5 6 
#
# 1 63.4378 15.0839 42.1905 0.0000 6.5437 0.0000
# 2 15.0839 165.5395 41.0286 0.0000 -3.8590 0.0000
# 3 42.1905 41.0286 178.4599 0.0000 15.4137 0.0000
# 4 0.0000 0.0000 0.0000 -45.7731 0.0000 -20.0984
# 5 6.5437 -3.8590 15.4137 0.0000 39.2076 0.0000
# 6 0.0000 0.0000 0.0000 -20.0984 0.0000 31.1643
#
#
#
# Elastic Compliance Matrix: (Units=1/GPa)
#
#
# Indices 1 2 3 4 5 6 
#
# 1 0.018864 -0.000726 -0.004156 0.000000 -0.001586 0.000000
# 2 -0.000726 0.006494 -0.001436 0.000000 0.001325 0.000000
# 3 -0.004156 -0.001436 0.007110 0.000000 -0.002243 0.000000
# 4 0.000000 0.000000 0.000000 -0.017026 0.000000 -0.010980
# 5 -0.001586 0.001325 -0.002243 0.000000 0.026782 0.000000
# 6 0.000000 0.000000 0.000000 -0.010980 0.000000 0.025007
#
#
# Mechanical properties :
#
#
# Convention : Reuss Voigt Hill
#
# Bulk Modulus (GPa) = 50.42262 67.11591 58.76927
# Shear Modulus (GPa) = 57.81981 25.52871 41.67426
#
# Velocity S-wave (km/s) = 4.88365 3.24504 4.14610
# Velocity P-wave (km/s) = 7.25250 6.45949 6.86745
#
# Compressibility (1/GPa) = 0.01983237
#
# Stress axis : x y z
#
# Youngs Moduli (GPa) = 53.01237 153.99499 140.65144
#
# Poissons Ratio (x) = 0.11177 0.58451
# Poissons Ratio (y) = 0.03848 0.20194
# Poissons Ratio (z) = 0.22031 0.22110
#
# Static dielectric constant tensor:
#      x y z
#    x 2.056280 0.000000 -0.278070 
#    y 0.000000 2.022960 0.000000 
#    z -0.278070 0.000000 2.267730 
# 
# From -- ./inp_files/7759.got.cif
#   From: 2010.05.17/outbox.cif.g08.bks.cpg/sg11_4_cif.got.tgz:7759.got - 2010.06.03 12:22:45.
