data_PCOD9164246
_publ_section_title
;
Structure prediction by ZEFSAII (Michael W. Deem and Ramdas Pophale) SiO2 
 PCOD9164246
Probable space group: P 21/M
;
_chemical_formula_sum "Si O2"
_cell_formula_units_Z 24
_cell_length_a 12.953449
_cell_length_b 9.712837
_cell_length_c 10.123546
_cell_angle_alpha 90.000000
_cell_angle_beta 101.220730
_cell_angle_gamma 90.000000
_cell_volume 1249.344451
_symmetry_space_group_name_H-M "P 21/M"
_symmetry_group_IT_number 11
_symmetry_cell_setting 'monoclinic'
loop_
_space_group_symop_operation_xyz
x,y,z
-x,1/2+y,-z
-x,-y,-z
x,1/2-y,z
loop_
_atom_site_type_symbol
_atom_site_label
_atom_site_fract_x
_atom_site_fract_y
_atom_site_fract_z
Si Si1 0.737200 0.545701 0.963792
Si Si2 0.737781 0.954731 0.654553
Si Si3 0.352834 0.750000 0.364978
Si Si4 0.550816 0.750000 0.918342
Si Si5 0.036468 0.089284 0.384553
Si Si6 0.647816 0.250000 0.940066
Si Si7 0.961971 0.910353 0.116034
Si Si8 0.448378 0.250000 0.394602
O O1 0.760822 0.576101 0.815041
O O2 0.627358 0.621039 0.965686
O O3 0.718155 0.384623 0.975068
O O4 0.835409 0.593386 0.073535
O O5 0.836662 0.908400 0.594537
O O6 0.628357 0.878855 0.596857
O O7 0.717654 0.115645 0.634489
O O8 0.391462 0.750000 0.222020
O O9 0.449808 0.750000 0.489371
O O10 0.524922 0.750000 0.755235
O O11 0.448685 0.750000 0.983009
O O12 0.000509 0.250000 0.375897
O O13 0.000000 0.000000 0.500000
O O14 0.997886 0.999783 0.249801
O O15 0.999933 0.750000 0.125842
O O16 0.000000 0.000000 0.000000
#
# Coordination Sequence:
#
# PCOD9164246 Si02
#       8
#     4   4   2   2   4   2   4   2
#     4  10  21  39  64  93 129 167 211 259 326 386
#     4  10  21  40  66  88 128 170 210 263 326 386
#     4  10  22  38  62  92 120 166 220 262 305 394
#     4  10  20  40  62  87 130 166 204 265 329 376
#     4  12  27  47  68  96 137 175 218 275 340 391
#     4  10  22  38  60  91 128 166 206 267 321 378
#     4  12  25  41  72 102 131 171 227 274 320 401
#     4  10  20  40  64  88 120 168 218 258 319 386
#
# _framework density 19.210073999999999
#
# number of rings (size 3 to 8) (size 9 to 14) (size 15 to 20)
#    0.000    1.333    3.333    2.000    4.667    0.000 
#    6.000    0.000    0.000    0.000    0.000    0.000 
#    0.000    0.000    0.000    0.000    0.000    0.000 
#
# Total GULP energy -134033.433642 kJ/mol
# GULP energy per Si atom -5584.726402 kJ/mol
# Density = 1.916635 g / cm^3
# Si number density = 19.210074 Si / 1000 Ang^3
#
#
#
# Elastic Constant Matrix: (Units=GPa)
#
#
# Indices 1 2 3 4 5 6 
#
# 1 73.2991 18.7950 38.5810 0.0000 -10.6400 0.0000
# 2 18.7950 179.2610 49.5396 0.0000 -7.4291 0.0000
# 3 38.5810 49.5396 102.1569 0.0000 -2.9617 0.0000
# 4 0.0000 0.0000 0.0000 -18.2373 0.0000 -2.3168
# 5 -10.6400 -7.4291 -2.9617 0.0000 37.7478 0.0000
# 6 0.0000 0.0000 0.0000 -2.3168 0.0000 6.2992
#
#
#
# Elastic Compliance Matrix: (Units=1/GPa)
#
#
# Indices 1 2 3 4 5 6 
#
# 1 0.017759 0.000165 -0.006656 0.000000 0.004516 0.000000
# 2 0.000165 0.006483 -0.003175 0.000000 0.001073 0.000000
# 3 -0.006656 -0.003175 0.013801 0.000000 -0.001418 0.000000
# 4 0.000000 0.000000 0.000000 -0.052385 0.000000 -0.019267
# 5 0.004516 0.001073 -0.001418 0.000000 0.027865 0.000000
# 6 0.000000 0.000000 0.000000 -0.019267 0.000000 0.151663
#
#
# Mechanical properties :
#
#
# Convention : Reuss Voigt Hill
#
# Bulk Modulus (GPa) = 53.44464 63.17202 58.30833
# Shear Modulus (GPa) = 26.21152 21.68204 23.94678
#
# Velocity S-wave (km/s) = 3.69788 3.36323 3.53452
# Velocity P-wave (km/s) = 6.79072 6.93094 6.86119
#
# Compressibility (1/GPa) = 0.01871095
#
# Stress axis : x y z
#
# Youngs Moduli (GPa) = 56.30801 154.24759 72.45796
#
# Poissons Ratio (x) = -0.02538 0.48228
# Poissons Ratio (y) = -0.00926 0.23005
# Poissons Ratio (z) = 0.37479 0.48972
#
# Static dielectric constant tensor:
#      x y z
#    x 1.654750 0.000000 0.002610 
#    y 0.000000 1.688080 0.000000 
#    z 0.002610 0.000000 1.672550 
# 
# From -- ./inp_files/20666.got.cif
#   From: 2010.05.17/outbox.cif.g08.bks.cpg/sg11_11_cif.got.tgz:20666.got - 2010.06.03 12:22:45.
