data_PCOD9164227
_publ_section_title
;
Structure prediction by ZEFSAII (Michael W. Deem and Ramdas Pophale) SiO2 
 PCOD9164227
Probable space group: P 21/M
;
_chemical_formula_sum "Si O2"
_cell_formula_units_Z 30
_cell_length_a 10.767730
_cell_length_b 16.245086
_cell_length_c 8.682234
_cell_angle_alpha 90.000000
_cell_angle_beta 116.569669
_cell_angle_gamma 90.000000
_cell_volume 1358.329551
_symmetry_space_group_name_H-M "P 21/M"
_symmetry_group_IT_number 11
_symmetry_cell_setting 'monoclinic'
loop_
_space_group_symop_operation_xyz
x,y,z
-x,1/2+y,-z
-x,-y,-z
x,1/2-y,z
loop_
_atom_site_type_symbol
_atom_site_label
_atom_site_fract_x
_atom_site_fract_y
_atom_site_fract_z
Si Si1 0.252800 0.152873 0.266271
Si Si2 0.939360 0.402153 0.105954
Si Si3 0.800872 0.250000 0.216719
Si Si4 0.479956 0.906345 0.432736
Si Si5 0.730558 0.842765 0.062881
Si Si6 0.266983 0.608658 0.568102
Si Si7 0.569741 0.959108 0.184730
Si Si8 0.991635 0.077846 0.782851
O O1 0.228009 0.250000 0.237440
O O2 0.105633 0.112490 0.220461
O O3 0.372242 0.136184 0.454414
O O4 0.305302 0.122265 0.127254
O O5 0.860448 0.324698 0.134361
O O6 0.920407 0.492538 0.170137
O O7 0.919733 0.414077 0.911068
O O8 0.750215 0.178226 0.313601
O O9 0.363714 0.866234 0.475538
O O10 0.460446 0.916207 0.239944
O O11 0.500000 0.000000 0.500000
O O12 0.679430 0.750000 0.038104
O O13 0.668106 0.890032 0.170153
O O14 0.896382 0.849553 0.164190
O O15 0.341187 0.528979 0.681442
O O16 0.119417 0.583971 0.413219
O O17 0.500000 0.000000 0.000000
#
# Coordination Sequence:
#
# PCOD9164227 Si02
#       8
#     4   4   2   4   4   4   4   4
#     4  10  20  39  68  96 131 171 224 284 335 400
#     4  10  21  42  70 102 130 184 233 275 347 414
#     4  12  26  40  64 104 144 176 226 288 348 416
#     4  10  22  41  66  91 128 175 223 271 337 402
#     4  10  22  40  66 100 134 176 228 281 338 409
#     4  11  26  44  64 101 141 184 223 285 355 410
#     4  11  24  46  71  98 133 178 237 289 345 413
#     4  10  23  43  70  96 142 184 226 280 348 428
#
# _framework density 22.085951000000001
#
# number of rings (size 3 to 8) (size 9 to 14) (size 15 to 20)
#    0.000    1.600    0.667    4.000    2.800    6.933 
#    1.200    0.000    0.000    0.000    0.000    0.000 
#    0.000    0.000    0.000    0.000    0.000    0.000 
#
# Total GULP energy -167103.710884 kJ/mol
# GULP energy per Si atom -5570.123696 kJ/mol
# Density = 2.203568 g / cm^3
# Si number density = 22.085951 Si / 1000 Ang^3
#
#
#
# Elastic Constant Matrix: (Units=GPa)
#
#
# Indices 1 2 3 4 5 6 
#
# 1 41.8850 20.6347 27.1096 0.0000 -34.7053 0.0000
# 2 20.6347 93.2689 11.4642 0.0000 -27.1930 0.0000
# 3 27.1096 11.4642 80.9764 0.0000 -15.7994 0.0000
# 4 0.0000 0.0000 0.0000 24.5786 0.0000 -2.7494
# 5 -34.7053 -27.1930 -15.7994 0.0000 41.0067 0.0000
# 6 0.0000 0.0000 0.0000 -2.7494 0.0000 11.4994
#
#
#
# Elastic Compliance Matrix: (Units=1/GPa)
#
#
# Indices 1 2 3 4 5 6 
#
# 1 0.100956 0.003437 -0.018565 0.000000 0.080568 0.000000
# 2 0.003437 0.013411 -0.000807 0.000000 0.011491 0.000000
# 3 -0.018565 -0.000807 0.016769 0.000000 -0.009787 0.000000
# 4 0.000000 0.000000 0.000000 0.041804 0.000000 0.009995
# 5 0.080568 0.011491 -0.009787 0.000000 0.096423 0.000000
# 6 0.000000 0.000000 0.000000 0.009995 0.000000 0.089351
#
#
# Mechanical properties :
#
#
# Convention : Reuss Voigt Hill
#
# Bulk Modulus (GPa) = 10.07409 37.17193 23.62301
# Shear Modulus (GPa) = 11.80154 25.87837 18.83996
#
# Velocity S-wave (km/s) = 2.31410 3.42674 2.92383
# Velocity P-wave (km/s) = 3.42218 5.70297 4.70293
#
# Compressibility (1/GPa) = 0.09926451
#
# Stress axis : x y z
#
# Youngs Moduli (GPa) = 9.90534 74.56694 59.63238
#
# Poissons Ratio (x) = -0.25627 1.10708
# Poissons Ratio (y) = -0.03404 0.04814
# Poissons Ratio (z) = 0.18389 0.06019
#
# Static dielectric constant tensor:
#      x y z
#    x 1.874890 0.000000 -0.015570 
#    y 0.000000 1.802470 0.000000 
#    z -0.015570 0.000000 1.845970 
# 
# From -- ./inp_files/18119.got.cif
#   From: 2010.05.17/outbox.cif.g08.bks.cpg/sg11_10_cif.got.tgz:18119.got - 2010.06.03 12:22:45.
