data_PCOD9164482
_publ_section_title
;
Structure prediction by ZEFSAII (Michael W. Deem and Ramdas Pophale) SiO2 
 PCOD9164482
Probable space group: P 21/M
;
_chemical_formula_sum "Si O2"
_cell_formula_units_Z 32
_cell_length_a 11.130089
_cell_length_b 7.597517
_cell_length_c 15.274023
_cell_angle_alpha 90.000000
_cell_angle_beta 94.069615
_cell_angle_gamma 90.000000
_cell_volume 1288.330615
_symmetry_space_group_name_H-M "P 21/M"
_symmetry_group_IT_number 11
_symmetry_cell_setting 'monoclinic'
loop_
_space_group_symop_operation_xyz
x,y,z
-x,1/2+y,-z
-x,-y,-z
x,1/2-y,z
loop_
_atom_site_type_symbol
_atom_site_label
_atom_site_fract_x
_atom_site_fract_y
_atom_site_fract_z
Si Si1 0.215547 0.966081 0.373155
Si Si2 0.551084 0.447472 0.276113
Si Si3 0.776456 0.037129 0.823588
Si Si4 0.972915 0.539615 0.097029
Si Si5 0.212746 0.048288 0.795022
Si Si6 0.316533 0.956130 0.552801
Si Si7 0.941589 0.951351 0.380617
Si Si8 0.446740 0.451803 0.092684
O O1 0.211929 0.750000 0.373946
O O2 0.256557 0.016279 0.277601
O O3 0.306151 0.026751 0.453795
O O4 0.077574 0.024275 0.388162
O O5 0.502314 0.250000 0.287811
O O6 0.684567 0.436093 0.242151
O O7 0.587868 0.533458 0.371853
O O8 0.486539 0.537778 0.188824
O O9 0.775116 0.250000 0.827114
O O10 0.912395 0.973590 0.843988
O O11 0.695819 0.970325 0.900170
O O12 0.965577 0.750000 0.109809
O O13 0.843400 0.472408 0.120390
O O14 0.000000 0.500000 0.000000
O O15 0.257308 0.250000 0.807220
O O16 0.101461 0.053806 0.722008
O O17 0.345746 0.750000 0.550350
O O18 0.176270 0.968560 0.578549
O O19 0.949366 0.750000 0.413546
O O20 0.482629 0.250000 0.104041
O O21 0.500000 0.500000 0.000000
#
# Coordination Sequence:
#
# PCOD9164482 Si02
#       8
#     4   4   4   4   4   4   4   4
#     4   9  16  30  54  79 109 148 184 216 263 328
#     4   9  20  37  55  78 111 143 179 229 279 320
#     4  10  21  40  61  83 113 148 187 229 276 329
#     4  10  21  35  53  79 112 145 178 222 275 330
#     4   9  17  31  52  78 108 143 178 217 265 322
#     4   9  17  30  51  80 110 145 184 220 265 323
#     4   9  15  27  47  74 110 148 181 216 258 309
#     4  11  25  44  63  82 106 141 186 237 286 331
#
# _framework density 24.838345
#
# number of rings (size 3 to 8) (size 9 to 14) (size 15 to 20)
#    0.000    2.500    1.250    0.750    1.750    2.000 
#    0.000    1.875    0.000    0.000    0.000    0.000 
#    0.000    0.000    0.000    0.000    0.000    0.000 
#
# Total GULP energy -178328.359484 kJ/mol
# GULP energy per Si atom -5572.761234 kJ/mol
# Density = 2.478181 g / cm^3
# Si number density = 24.838345 Si / 1000 Ang^3
#
#
#
# Elastic Constant Matrix: (Units=GPa)
#
#
# Indices 1 2 3 4 5 6 
#
# 1 48.5829 3.4841 12.5925 0.0000 -4.7801 0.0000
# 2 3.4841 61.3087 3.8491 0.0000 5.8896 0.0000
# 3 12.5925 3.8491 115.0040 0.0000 -3.2531 0.0000
# 4 0.0000 0.0000 0.0000 9.9229 0.0000 -4.9482
# 5 -4.7801 5.8896 -3.2531 0.0000 26.2030 0.0000
# 6 0.0000 0.0000 0.0000 -4.9482 0.0000 17.1231
#
#
#
# Elastic Compliance Matrix: (Units=1/GPa)
#
#
# Indices 1 2 3 4 5 6 
#
# 1 0.021656 -0.001477 -0.002208 0.000000 0.004008 0.000000
# 2 -0.001477 0.016823 -0.000518 0.000000 -0.004115 0.000000
# 3 -0.002208 -0.000518 0.008978 0.000000 0.000828 0.000000
# 4 0.000000 0.000000 0.000000 0.117744 0.000000 0.034025
# 5 0.004008 -0.004115 0.000828 0.000000 0.039923 0.000000
# 6 0.000000 0.000000 0.000000 0.034025 0.000000 0.068233
#
#
# Mechanical properties :
#
#
# Convention : Reuss Voigt Hill
#
# Bulk Modulus (GPa) = 25.60807 29.41633 27.51220
# Shear Modulus (GPa) = 16.96179 24.31444 20.63812
#
# Velocity S-wave (km/s) = 2.61605 3.13214 2.88566
# Velocity P-wave (km/s) = 4.41103 4.99492 4.71203
#
# Compressibility (1/GPa) = 0.03905020
#
# Stress axis : x y z
#
# Youngs Moduli (GPa) = 46.17629 59.44371 111.38443
#
# Poissons Ratio (x) = 0.08780 0.24598
# Poissons Ratio (y) = 0.06821 0.05766
# Poissons Ratio (z) = 0.10198 0.03077
#
# Static dielectric constant tensor:
#      x y z
#    x 2.072240 0.000000 0.047570 
#    y 0.000000 1.918180 0.000000 
#    z 0.047570 0.000000 2.056350 
# 
# From -- ./inp_files/49302.got.cif
#   From: 2010.05.17/outbox.cif.g08.bks.cpg/sg11_25_cif.got.tgz:49302.got - 2010.06.03 12:22:45.
