data_PCOD9164450
_publ_section_title
;
Structure prediction by ZEFSAII (Michael W. Deem and Ramdas Pophale) SiO2 
 PCOD9164450
Probable space group: P 21/M
;
_chemical_formula_sum "Si O2"
_cell_formula_units_Z 32
_cell_length_a 13.715740
_cell_length_b 7.303469
_cell_length_c 14.227889
_cell_angle_alpha 90.000000
_cell_angle_beta 55.535034
_cell_angle_gamma 90.000000
_cell_volume 1175.073433
_symmetry_space_group_name_H-M "P 21/M"
_symmetry_group_IT_number 11
_symmetry_cell_setting 'monoclinic'
loop_
_space_group_symop_operation_xyz
x,y,z
-x,1/2+y,-z
-x,-y,-z
x,1/2-y,z
loop_
_atom_site_type_symbol
_atom_site_label
_atom_site_fract_x
_atom_site_fract_y
_atom_site_fract_z
Si Si1 0.838059 0.045446 0.094228
Si Si2 0.486822 0.462405 0.128584
Si Si3 0.062786 0.456939 0.313088
Si Si4 0.418702 0.029493 0.713450
Si Si5 0.128547 0.975643 0.728364
Si Si6 0.748961 0.972651 0.658999
Si Si7 0.346900 0.536161 0.496952
Si Si8 0.257369 0.973426 0.053973
O O1 0.882011 0.250000 0.054062
O O2 0.908818 0.965855 0.145321
O O3 0.802396 0.964174 0.012777
O O4 0.710071 0.054369 0.215280
O O5 0.476458 0.250000 0.110118
O O6 0.532262 0.477647 0.211005
O O7 0.355992 0.542507 0.214422
O O8 0.604548 0.532700 0.011136
O O9 0.025542 0.250000 0.355442
O O10 0.123906 0.536753 0.372801
O O11 0.960059 0.539569 0.305411
O O12 0.173529 0.455477 0.180708
O O13 0.409632 0.250000 0.713179
O O14 0.520879 0.961701 0.588100
O O15 0.124201 0.750000 0.731421
O O16 0.256794 0.041044 0.622031
O O17 0.747810 0.750000 0.663844
O O18 0.716309 0.022855 0.570714
O O19 0.359218 0.750000 0.510865
O O20 0.257969 0.750000 0.051638
#
# Coordination Sequence:
#
# PCOD9164450 Si02
#       8
#     4   4   4   4   4   4   4   4
#     4   9  18  34  54  72  97 135 166 193 243 304
#     4   8  15  30  50  71  99 132 160 190 242 307
#     4  10  21  35  51  72  98 131 171 209 242 283
#     4   9  16  27  47  77 104 122 154 204 247 286
#     4   9  19  36  53  70  97 134 172 202 238 295
#     4   9  18  33  52  75 102 130 162 201 245 292
#     4   9  18  33  53  75 100 131 163 198 244 295
#     4   9  18  32  50  72  97 127 164 204 247 294
#
# _framework density 27.232339
#
# number of rings (size 3 to 8) (size 9 to 14) (size 15 to 20)
#    0.000    3.000    0.000    1.125    0.000    5.000 
#    0.000    1.875    0.000    0.000    0.000    0.000 
#    0.000    0.000    0.000    0.000    0.000    0.000 
#
# Total GULP energy -178764.793065 kJ/mol
# GULP energy per Si atom -5586.399783 kJ/mol
# Density = 2.717036 g / cm^3
# Si number density = 27.232339 Si / 1000 Ang^3
#
#
#
# Elastic Constant Matrix: (Units=GPa)
#
#
# Indices 1 2 3 4 5 6 
#
# 1 74.7503 18.1565 7.9140 0.0000 0.5006 0.0000
# 2 18.1565 142.1327 16.1779 0.0000 -1.5043 0.0000
# 3 7.9140 16.1779 86.9696 0.0000 4.0185 0.0000
# 4 0.0000 0.0000 0.0000 6.7103 0.0000 -0.8755
# 5 0.5006 -1.5043 4.0185 0.0000 47.4802 0.0000
# 6 0.0000 0.0000 0.0000 -0.8755 0.0000 4.4214
#
#
#
# Elastic Compliance Matrix: (Units=1/GPa)
#
#
# Indices 1 2 3 4 5 6 
#
# 1 0.013884 -0.001667 -0.000948 0.000000 -0.000119 0.000000
# 2 -0.001667 0.007394 -0.001240 0.000000 0.000357 0.000000
# 3 -0.000948 -0.001240 0.011863 0.000000 -0.001033 0.000000
# 4 0.000000 0.000000 0.000000 0.152976 0.000000 0.030292
# 5 -0.000119 0.000357 -0.001033 0.000000 0.021161 0.000000
# 6 0.000000 0.000000 0.000000 0.030292 0.000000 0.232173
#
#
# Mechanical properties :
#
#
# Convention : Reuss Voigt Hill
#
# Bulk Modulus (GPa) = 39.32269 43.14994 41.23631
# Shear Modulus (GPa) = 10.97365 29.16266 20.06816
#
# Velocity S-wave (km/s) = 2.00957 3.27599 2.71758
# Velocity P-wave (km/s) = 4.45596 5.49445 5.00223
#
# Compressibility (1/GPa) = 0.02543061
#
# Stress axis : x y z
#
# Youngs Moduli (GPa) = 72.02580 135.25295 84.29606
#
# Poissons Ratio (x) = 0.22546 0.07990
# Poissons Ratio (y) = 0.12006 0.10454
# Poissons Ratio (z) = 0.06827 0.16773
#
# Static dielectric constant tensor:
#      x y z
#    x 2.247060 0.000000 0.004950 
#    y 0.000000 1.983400 0.000000 
#    z 0.004950 0.000000 2.110280 
# 
# From -- ./inp_files/51709.got.cif
#   From: 2010.05.17/outbox.cif.g08.bks.cpg/sg11_26_cif.got.tgz:51709.got - 2010.06.03 12:22:45.
