data_PCOD9164664
_publ_section_title
;
Structure prediction by ZEFSAII (Michael W. Deem and Ramdas Pophale) SiO2 
 PCOD9164664
Probable space group: P 21/M
;
_chemical_formula_sum "Si O2"
_cell_formula_units_Z 28
_cell_length_a 5.630974
_cell_length_b 21.484784
_cell_length_c 8.824955
_cell_angle_alpha 90.000000
_cell_angle_beta 105.119787
_cell_angle_gamma 90.000000
_cell_volume 1030.686254
_symmetry_space_group_name_H-M "P 21/M"
_symmetry_group_IT_number 11
_symmetry_cell_setting 'monoclinic'
loop_
_space_group_symop_operation_xyz
x,y,z
-x,1/2+y,-z
-x,-y,-z
x,1/2-y,z
loop_
_atom_site_type_symbol
_atom_site_label
_atom_site_fract_x
_atom_site_fract_y
_atom_site_fract_z
Si Si1 0.064648 0.586748 0.084539
Si Si2 0.337134 0.181523 0.921277
Si Si3 0.983278 0.377111 0.522621
Si Si4 0.404272 0.006321 0.313253
Si Si5 0.472067 0.821087 0.367963
Si Si6 0.791784 0.325449 0.170808
Si Si7 0.896758 0.497763 0.262421
O O1 0.245933 0.646246 0.411862
O O2 0.876848 0.528575 0.092261
O O3 0.889094 0.636748 0.138785
O O4 0.115058 0.623939 0.939226
O O5 0.228786 0.250000 0.901212
O O6 0.534586 0.179600 0.816945
O O7 0.495283 0.171623 0.098164
O O8 0.691942 0.445098 0.796781
O O9 0.258982 0.349785 0.564551
O O10 0.880837 0.350784 0.345508
O O11 0.034412 0.447325 0.602466
O O12 0.147170 0.041401 0.291690
O O13 0.639754 0.030980 0.264681
O O14 0.500000 0.000000 0.500000
O O15 0.472898 0.750000 0.420625
O O16 0.852369 0.250000 0.160154
#
# Coordination Sequence:
#
# PCOD9164664 Si02
#       7
#     4   4   4   4   4   4   4
#     4  10  21  37  64  89 128 158 213 254 321 364
#     4  10  21  36  57  84 121 165 217 261 306 360
#     4  12  24  39  59  86 126 169 210 251 312 363
#     4  10  21  40  71 101 119 149 205 270 328 382
#     4  11  22  38  57  82 116 164 220 265 298 351
#     4  11  24  39  56  88 132 177 217 255 299 363
#     4  10  21  38  65  93 123 157 201 260 315 378
#
# _framework density 27.166364999999999
#
# number of rings (size 3 to 8) (size 9 to 14) (size 15 to 20)
#    0.857    0.571    1.429    4.714    2.000    0.000 
#    0.000    0.000    0.000    1.714    0.000    0.000 
#    0.000    0.000    0.000    0.000    0.000    0.000 
#
# Total GULP energy -156063.114243 kJ/mol
# GULP energy per Si atom -5573.682652 kJ/mol
# Density = 2.710453 g / cm^3
# Si number density = 27.166365 Si / 1000 Ang^3
#
#
#
# Elastic Constant Matrix: (Units=GPa)
#
#
# Indices 1 2 3 4 5 6 
#
# 1 220.5027 53.5229 64.9828 0.0000 -0.8720 0.0000
# 2 53.5229 106.7701 62.8761 0.0000 16.7364 0.0000
# 3 64.9828 62.8761 156.0687 0.0000 9.4533 0.0000
# 4 0.0000 0.0000 0.0000 36.2069 0.0000 7.0991
# 5 -0.8720 16.7364 9.4533 0.0000 40.7338 0.0000
# 6 0.0000 0.0000 0.0000 7.0991 0.0000 36.3065
#
#
#
# Elastic Compliance Matrix: (Units=1/GPa)
#
#
# Indices 1 2 3 4 5 6 
#
# 1 0.005492 -0.002053 -0.001540 0.000000 0.001319 0.000000
# 2 -0.002053 0.013708 -0.004385 0.000000 -0.004658 0.000000
# 3 -0.001540 -0.004385 0.008832 0.000000 -0.000281 0.000000
# 4 0.000000 0.000000 0.000000 0.028720 0.000000 -0.005616
# 5 0.001319 -0.004658 -0.000281 0.000000 0.026557 0.000000
# 6 0.000000 0.000000 0.000000 -0.005616 0.000000 0.028641
#
#
# Mechanical properties :
#
#
# Convention : Reuss Voigt Hill
#
# Bulk Modulus (GPa) = 82.80895 94.01167 88.41031
# Shear Modulus (GPa) = 37.89792 42.78009 40.33900
#
# Velocity S-wave (km/s) = 3.73906 3.97261 3.85760
# Velocity P-wave (km/s) = 7.01350 7.46480 7.24266
#
# Compressibility (1/GPa) = 0.01207599
#
# Stress axis : x y z
#
# Youngs Moduli (GPa) = 182.06901 72.94975 113.22135
#
# Poissons Ratio (x) = 0.14979 0.17430
# Poissons Ratio (y) = 0.37386 0.49653
# Poissons Ratio (z) = 0.28030 0.31992
#
# Static dielectric constant tensor:
#      x y z
#    x 2.076050 0.000000 -0.047580 
#    y 0.000000 2.240540 0.000000 
#    z -0.047580 0.000000 2.403490 
# 
# From -- ./inp_files/10745.got.cif
#   From: 2010.05.17/outbox.cif.g08.bks.cpg/sg11_6_cif.got.tgz:10745.got - 2010.06.03 12:22:45.
