data_PCOD9164435
_publ_section_title
;
Structure prediction by ZEFSAII (Michael W. Deem and Ramdas Pophale) SiO2 
 PCOD9164435
Probable space group: P 21/M
;
_chemical_formula_sum "Si O2"
_cell_formula_units_Z 28
_cell_length_a 15.037848
_cell_length_b 8.643975
_cell_length_c 13.991111
_cell_angle_alpha 90.000000
_cell_angle_beta 103.399730
_cell_angle_gamma 90.000000
_cell_volume 1769.150076
_symmetry_space_group_name_H-M "P 21/M"
_symmetry_group_IT_number 11
_symmetry_cell_setting 'monoclinic'
loop_
_space_group_symop_operation_xyz
x,y,z
-x,1/2+y,-z
-x,-y,-z
x,1/2-y,z
loop_
_atom_site_type_symbol
_atom_site_label
_atom_site_fract_x
_atom_site_fract_y
_atom_site_fract_z
Si Si1 0.892360 0.933578 0.574541
Si Si2 0.934007 0.935245 0.279040
Si Si3 0.213023 0.565079 0.632789
Si Si4 0.599759 0.436080 0.413048
Si Si5 0.792429 0.437134 0.734541
Si Si6 0.404403 0.935825 0.365607
Si Si7 0.967788 0.064556 0.891442
O O1 0.893958 0.750000 0.559969
O O2 0.849586 0.016691 0.472610
O O3 0.829878 0.980336 0.649240
O O4 0.992205 0.993979 0.629030
O O5 0.939690 0.750000 0.286078
O O6 0.967762 0.983748 0.181764
O O7 0.834655 0.991452 0.286681
O O8 0.213206 0.750000 0.642102
O O9 0.315238 0.511409 0.630316
O O10 0.600832 0.250000 0.413178
O O11 0.611671 0.485030 0.527383
O O12 0.500245 0.493668 0.357078
O O13 0.798718 0.250000 0.721275
O O14 0.685784 0.476556 0.717143
O O15 0.863774 0.478119 0.835763
O O16 0.413030 0.750000 0.367848
O O17 0.971402 0.250000 0.896686
O O18 0.000000 0.000000 0.000000
#
# Coordination Sequence:
#
# PCOD9164435 Si02
#       7
#     4   4   4   4   4   4   4
#     4  11  20  29  44  67  93 126 162 195 227 272
#     4  10  21  35  48  66  92 123 156 193 233 280
#     4  11  20  32  46  64  94 130 161 193 230 273
#     4   9  18  29  43  64  93 127 160 195 229 265
#     4   9  17  32  49  68  95 128 158 193 236 277
#     4   9  16  29  46  64  91 126 161 194 229 270
#     4   9  19  34  53  72  95 119 148 191 238 285
#
# _framework density 15.826809000000001
#
# number of rings (size 3 to 8) (size 9 to 14) (size 15 to 20)
#    0.000    2.286    1.429    3.429    0.000    4.571 
#    0.000    0.000    0.000    0.000    0.000    1.000 
#    0.000    0.000    0.000    0.000    0.000    0.000 
#
# Total GULP energy -156103.057591 kJ/mol
# GULP energy per Si atom -5575.109200 kJ/mol
# Density = 1.579079 g / cm^3
# Si number density = 15.826809 Si / 1000 Ang^3
#
#
#
# Elastic Constant Matrix: (Units=GPa)
#
#
# Indices 1 2 3 4 5 6 
#
# 1 152.1685 19.1495 53.6960 0.0000 1.2441 0.0000
# 2 19.1495 13.8918 7.3462 0.0000 1.6665 0.0000
# 3 53.6960 7.3462 73.0900 0.0000 9.0104 0.0000
# 4 0.0000 0.0000 0.0000 21.8454 0.0000 -0.2928
# 5 1.2441 1.6665 9.0104 0.0000 12.1021 0.0000
# 6 0.0000 0.0000 0.0000 -0.2928 0.0000 27.4298
#
#
#
# Elastic Compliance Matrix: (Units=1/GPa)
#
#
# Indices 1 2 3 4 5 6 
#
# 1 0.010542 -0.011365 -0.007335 0.000000 0.005942 0.000000
# 2 -0.011365 0.088585 0.000887 0.000000 -0.011691 0.000000
# 3 -0.007335 0.000887 0.020813 0.000000 -0.014864 0.000000
# 4 0.000000 0.000000 0.000000 0.045783 0.000000 0.000489
# 5 0.005942 -0.011691 -0.014864 0.000000 0.094696 0.000000
# 6 0.000000 0.000000 0.000000 0.000489 0.000000 0.036462
#
#
# Mechanical properties :
#
#
# Convention : Reuss Voigt Hill
#
# Bulk Modulus (GPa) = 11.86035 44.39266 28.12650
# Shear Modulus (GPa) = 13.86535 22.87270 18.36902
#
# Velocity S-wave (km/s) = 2.96305 3.80569 3.41049
# Velocity P-wave (km/s) = 4.38365 6.88628 5.77223
#
# Compressibility (1/GPa) = 0.08431455
#
# Stress axis : x y z
#
# Youngs Moduli (GPa) = 94.86284 11.28858 48.04583
#
# Poissons Ratio (x) = 0.12830 0.35240
# Poissons Ratio (y) = 1.07816 -0.04263
# Poissons Ratio (z) = 0.69578 -0.01002
#
# Static dielectric constant tensor:
#      x y z
#    x 1.564670 0.000000 -0.004220 
#    y 0.000000 1.541890 0.000000 
#    z -0.004220 0.000000 1.507590 
# 
# From -- ./inp_files/50976.got.cif
#   From: 2010.05.17/outbox.cif.g08.bks.cpg/sg11_26_cif.got.tgz:50976.got - 2010.06.03 12:22:45.
