data_PCOD9164402
_publ_section_title
;
Structure prediction by ZEFSAII (Michael W. Deem and Ramdas Pophale) SiO2 
 PCOD9164402
Probable space group: P 21/M
;
_chemical_formula_sum "Si O2"
_cell_formula_units_Z 28
_cell_length_a 26.531181
_cell_length_b 8.700981
_cell_length_c 9.714122
_cell_angle_alpha 90.000000
_cell_angle_beta 40.197997
_cell_angle_gamma 90.000000
_cell_volume 1447.365337
_symmetry_space_group_name_H-M "P 21/M"
_symmetry_group_IT_number 11
_symmetry_cell_setting 'monoclinic'
loop_
_space_group_symop_operation_xyz
x,y,z
-x,1/2+y,-z
-x,-y,-z
x,1/2-y,z
loop_
_atom_site_type_symbol
_atom_site_label
_atom_site_fract_x
_atom_site_fract_y
_atom_site_fract_z
Si Si1 0.074581 0.065326 0.425976
Si Si2 0.991569 0.065856 0.866873
Si Si3 0.275292 0.933602 0.333439
Si Si4 0.677141 0.931772 0.326954
Si Si5 0.242633 0.566328 0.089988
Si Si6 0.416858 0.434269 0.216325
Si Si7 0.817319 0.433369 0.206517
O O1 0.075059 0.250000 0.412825
O O2 0.056923 0.019779 0.621568
O O3 0.159355 0.999716 0.213318
O O4 0.000000 0.000000 0.500000
O O5 0.991930 0.250000 0.875089
O O6 0.905722 0.021495 0.991661
O O7 0.000000 0.000000 0.000000
O O8 0.288455 0.750000 0.301034
O O9 0.258832 0.987039 0.212766
O O10 0.203679 0.958944 0.588861
O O11 0.350219 0.008950 0.249777
O O12 0.670606 0.750000 0.318899
O O13 0.609263 0.982961 0.574338
O O14 0.755464 0.971765 0.248672
O O15 0.689508 0.013862 0.155677
O O16 0.237192 0.750000 0.100733
O O17 0.418427 0.250000 0.211589
O O18 0.500000 0.500000 0.000000
O O19 0.807185 0.250000 0.199854
#
# Coordination Sequence:
#
# PCOD9164402 Si02
#       7
#     4   4   4   4   4   4   4
#     4  11  23  37  54  79 111 149 192 238 285 332
#     4  10  21  34  50  74 103 137 180 228 278 326
#     4   9  19  35  57  83 111 145 185 228 276 327
#     4  10  21  36  56  83 110 140 178 221 267 321
#     4  11  22  37  57  81 111 149 189 230 278 332
#     4  10  21  38  62  89 116 144 178 220 269 327
#     4   9  17  33  54  75 102 138 181 227 272 325
#
# _framework density 19.345497000000002
#
# number of rings (size 3 to 8) (size 9 to 14) (size 15 to 20)
#    0.000    2.000    0.000    3.429    0.000    6.857 
#    0.000    3.571    0.000    0.000    0.000    0.000 
#    0.000    0.000    0.000    0.000    0.000    0.000 
#
# Total GULP energy -156340.295790 kJ/mol
# GULP energy per Si atom -5583.581993 kJ/mol
# Density = 1.930147 g / cm^3
# Si number density = 19.345497 Si / 1000 Ang^3
#
#
#
# Elastic Constant Matrix: (Units=GPa)
#
#
# Indices 1 2 3 4 5 6 
#
# 1 45.1881 12.6472 30.8376 0.0000 9.5377 0.0000
# 2 12.6472 31.8526 31.4952 0.0000 2.9166 0.0000
# 3 30.8376 31.4952 135.9610 0.0000 1.8008 0.0000
# 4 0.0000 0.0000 0.0000 28.7401 0.0000 2.2494
# 5 9.5377 2.9166 1.8008 0.0000 35.2873 0.0000
# 6 0.0000 0.0000 0.0000 2.2494 0.0000 28.5382
#
#
#
# Elastic Compliance Matrix: (Units=1/GPa)
#
#
# Indices 1 2 3 4 5 6 
#
# 1 0.028684 -0.005714 -0.005089 0.000000 -0.007021 0.000000
# 2 -0.005714 0.042156 -0.008449 0.000000 -0.001509 0.000000
# 3 -0.005089 -0.008449 0.010446 0.000000 0.001541 0.000000
# 4 0.000000 0.000000 0.000000 0.035011 0.000000 -0.002760
# 5 -0.007021 -0.001509 0.001541 0.000000 0.030283 0.000000
# 6 0.000000 0.000000 0.000000 -0.002760 0.000000 0.035258
#
#
# Mechanical properties :
#
#
# Convention : Reuss Voigt Hill
#
# Bulk Modulus (GPa) = 23.37492 40.32909 31.85201
# Shear Modulus (GPa) = 21.31254 27.71454 24.51354
#
# Velocity S-wave (km/s) = 3.32276 3.78909 3.56356
# Velocity P-wave (km/s) = 5.17977 6.32732 5.78208
#
# Compressibility (1/GPa) = 0.04278089
#
# Stress axis : x y z
#
# Youngs Moduli (GPa) = 34.86277 23.72127 95.72816
#
# Poissons Ratio (x) = 0.13555 0.48718
# Poissons Ratio (y) = 0.19921 0.80885
# Poissons Ratio (z) = 0.17742 0.20043
#
# Static dielectric constant tensor:
#      x y z
#    x 1.663170 0.000000 0.035360 
#    y 0.000000 1.652530 0.000000 
#    z 0.035360 0.000000 1.700440 
# 
# From -- ./inp_files/28465.got.cif
#   From: 2010.05.17/outbox.cif.g08.bks.cpg/sg11_15_cif.got.tgz:28465.got - 2010.06.03 12:22:45.
