data_PCOD9164786
_publ_section_title
;
Structure prediction by ZEFSAII (Michael W. Deem and Ramdas Pophale) SiO2 
 PCOD9164786
Probable space group: P 21/M
;
_chemical_formula_sum "Si O2"
_cell_formula_units_Z 28
_cell_length_a 14.419514
_cell_length_b 8.973801
_cell_length_c 16.731198
_cell_angle_alpha 90.000000
_cell_angle_beta 139.444820
_cell_angle_gamma 90.000000
_cell_volume 1407.627528
_symmetry_space_group_name_H-M "P 21/M"
_symmetry_group_IT_number 11
_symmetry_cell_setting 'monoclinic'
loop_
_space_group_symop_operation_xyz
x,y,z
-x,1/2+y,-z
-x,-y,-z
x,1/2-y,z
loop_
_atom_site_type_symbol
_atom_site_label
_atom_site_fract_x
_atom_site_fract_y
_atom_site_fract_z
Si Si1 0.326985 0.572519 0.714865
Si Si2 0.424823 0.928113 0.373465
Si Si3 0.299050 0.428424 0.535410
Si Si4 0.658246 0.070160 0.099773
Si Si5 0.665179 0.928092 0.940799
Si Si6 0.171330 0.424711 0.282950
Si Si7 0.094316 0.575815 0.993513
O O1 0.315215 0.750000 0.699131
O O2 0.257032 0.497010 0.592372
O O3 0.273843 0.532667 0.769380
O O4 0.496838 0.535625 0.824281
O O5 0.421753 0.750000 0.376708
O O6 0.535043 0.968082 0.375368
O O7 0.500000 0.000000 0.500000
O O8 0.266263 0.990346 0.279000
O O9 0.289178 0.250000 0.534043
O O10 0.210349 0.475956 0.398321
O O11 0.650397 0.250000 0.088393
O O12 0.720231 0.000283 0.059893
O O13 0.500000 0.000000 0.000000
O O14 0.678872 0.750000 0.952332
O O15 0.758500 0.995376 0.930666
O O16 0.212465 0.250000 0.305489
O O17 0.007657 0.436013 0.151363
O O18 0.118240 0.750000 0.026793
O O19 0.000000 0.500000 0.000000
#
# Coordination Sequence:
#
# PCOD9164786 Si02
#       7
#     4   4   4   4   4   4   4
#     4   9  19  32  51  81 112 137 167 212 266 317
#     4   9  17  29  46  70  97 131 172 213 257 308
#     4   9  18  31  49  75 103 133 171 213 263 315
#     4   9  17  32  53  79 109 141 175 216 267 319
#     4  10  21  37  55  79 109 142 179 219 267 319
#     4   9  20  37  52  70 100 138 177 220 265 310
#     4  11  24  40  57  77 105 142 183 225 266 314
#
# _framework density 19.891625000000001
#
# number of rings (size 3 to 8) (size 9 to 14) (size 15 to 20)
#    0.000    2.571    0.000    3.429    2.000    7.429 
#    0.000    0.000    0.000    0.857    0.000    0.000 
#    0.000    0.000    0.000    0.000    0.000    0.000 
#
# Total GULP energy -156096.562519 kJ/mol
# GULP energy per Si atom -5574.877233 kJ/mol
# Density = 1.984635 g / cm^3
# Si number density = 19.891625 Si / 1000 Ang^3
#
#
#
# Elastic Constant Matrix: (Units=GPa)
#
#
# Indices 1 2 3 4 5 6 
#
# 1 77.5648 25.6951 13.0127 0.0000 -27.3113 0.0000
# 2 25.6951 41.1841 18.2758 0.0000 -8.0404 0.0000
# 3 13.0127 18.2758 56.3433 0.0000 -22.9460 0.0000
# 4 0.0000 0.0000 0.0000 21.2446 0.0000 -6.0908
# 5 -27.3113 -8.0404 -22.9460 0.0000 37.5482 0.0000
# 6 0.0000 0.0000 0.0000 -6.0908 0.0000 31.2128
#
#
#
# Elastic Compliance Matrix: (Units=1/GPa)
#
#
# Indices 1 2 3 4 5 6 
#
# 1 0.022293 -0.013288 0.006133 0.000000 0.017117 0.000000
# 2 -0.013288 0.036295 -0.012614 0.000000 -0.009602 0.000000
# 3 0.006133 -0.012614 0.028145 0.000000 0.018959 0.000000
# 4 0.000000 0.000000 0.000000 0.049860 0.000000 0.009730
# 5 0.017117 -0.009602 0.018959 0.000000 0.048613 0.000000
# 6 0.000000 0.000000 0.000000 0.009730 0.000000 0.033937
#
#
# Mechanical properties :
#
#
# Convention : Reuss Voigt Hill
#
# Bulk Modulus (GPa) = 21.18973 32.11770 26.65372
# Shear Modulus (GPa) = 18.22069 25.87501 22.04785
#
# Velocity S-wave (km/s) = 3.02983 3.61057 3.33287
# Velocity P-wave (km/s) = 4.78702 5.79336 5.31407
#
# Compressibility (1/GPa) = 0.04719268
#
# Stress axis : x y z
#
# Youngs Moduli (GPa) = 44.85753 27.55198 35.53062
#
# Poissons Ratio (x) = 0.36612 -0.21790
# Poissons Ratio (y) = 0.59608 0.44820
# Poissons Ratio (z) = -0.27510 0.34755
#
# Static dielectric constant tensor:
#      x y z
#    x 1.908650 0.000000 0.109160 
#    y 0.000000 1.661860 0.000000 
#    z 0.109160 0.000000 1.855120 
# 
# From -- ./inp_files/60126.got.cif
#   From: 2010.05.17/outbox.cif.g08.bks.cpg/sg11_31_cif.got.tgz:60126.got - 2010.06.03 12:22:45.
