data_PCOD9164611
_publ_section_title
;
Structure prediction by ZEFSAII (Michael W. Deem and Ramdas Pophale) SiO2 
 PCOD9164611
Probable space group: P 21/M
;
_chemical_formula_sum "Si O2"
_cell_formula_units_Z 28
_cell_length_a 9.296666
_cell_length_b 10.950929
_cell_length_c 16.441028
_cell_angle_alpha 90.000000
_cell_angle_beta 58.138085
_cell_angle_gamma 90.000000
_cell_volume 1421.608206
_symmetry_space_group_name_H-M "P 21/M"
_symmetry_group_IT_number 11
_symmetry_cell_setting 'monoclinic'
loop_
_space_group_symop_operation_xyz
x,y,z
-x,1/2+y,-z
-x,-y,-z
x,1/2-y,z
loop_
_atom_site_type_symbol
_atom_site_label
_atom_site_fract_x
_atom_site_fract_y
_atom_site_fract_z
Si Si1 0.888282 0.393341 0.243903
Si Si2 0.279822 0.111671 0.107104
Si Si3 0.777779 0.613797 0.602988
Si Si4 0.546042 0.379846 0.538088
Si Si5 0.476969 0.611575 0.121198
Si Si6 0.425446 0.019669 0.735062
Si Si7 0.111545 0.511624 0.577693
O O1 0.856423 0.250000 0.273354
O O2 0.745052 0.442853 0.226523
O O3 0.879919 0.474581 0.328381
O O4 0.079318 0.401438 0.154395
O O5 0.308882 0.250000 0.132503
O O6 0.347862 0.999595 0.141160
O O7 0.383019 0.105611 0.991999
O O8 0.796157 0.750000 0.627221
O O9 0.590198 0.566489 0.675501
O O10 0.823316 0.603577 0.493387
O O11 0.921270 0.536565 0.606096
O O12 0.500000 0.500000 0.500000
O O13 0.511217 0.250000 0.507468
O O14 0.447397 0.390233 0.651986
O O15 0.747665 0.390109 0.494397
O O16 0.404052 0.750000 0.141390
O O17 0.560067 0.586211 0.183546
#
# Coordination Sequence:
#
# PCOD9164611 Si02
#       7
#     4   4   4   4   4   4   4
#     4  11  21  37  58  88 121 158 204 250 300 360
#     4   9  21  41  68  92 118 157 203 251 302 365
#     4  10  21  37  56  83 115 155 205 250 293 352
#     4  11  22  37  56  80 114 157 197 242 292 347
#     4  10  21  42  65  91 124 157 197 251 311 364
#     4  11  23  36  58  88 121 157 198 243 303 360
#     4  10  21  36  55  80 113 153 197 248 298 343
#
# _framework density 19.696003000000001
#
# number of rings (size 3 to 8) (size 9 to 14) (size 15 to 20)
#    0.000    1.714    1.429    3.000    0.000    5.143 
#    0.000    7.143    0.000    0.000    0.000    0.000 
#    0.000    0.000    0.000    0.000    0.000    0.000 
#
# Total GULP energy -156154.398281 kJ/mol
# GULP energy per Si atom -5576.942796 kJ/mol
# Density = 1.965117 g / cm^3
# Si number density = 19.696003 Si / 1000 Ang^3
#
#
#
# Elastic Constant Matrix: (Units=GPa)
#
#
# Indices 1 2 3 4 5 6 
#
# 1 118.8157 59.5634 31.5716 0.0000 -11.4375 0.0000
# 2 59.5634 101.8091 44.5414 0.0000 4.1002 0.0000
# 3 31.5716 44.5414 53.9512 0.0000 2.0380 0.0000
# 4 0.0000 0.0000 0.0000 1.2287 0.0000 11.0864
# 5 -11.4375 4.1002 2.0380 0.0000 34.3002 0.0000
# 6 0.0000 0.0000 0.0000 11.0864 0.0000 22.7176
#
#
#
# Elastic Compliance Matrix: (Units=1/GPa)
#
#
# Indices 1 2 3 4 5 6 
#
# 1 0.012912 -0.006846 -0.002103 0.000000 0.005249 0.000000
# 2 -0.006846 0.019046 -0.011572 0.000000 -0.003872 0.000000
# 3 -0.002103 -0.011572 0.029359 0.000000 -0.001062 0.000000
# 4 0.000000 0.000000 0.000000 -0.239148 0.000000 0.116706
# 5 0.005249 -0.003872 -0.001062 0.000000 0.031431 0.000000
# 6 0.000000 0.000000 0.000000 0.116706 0.000000 -0.012935
#
#
# Mechanical properties :
#
#
# Convention : Reuss Voigt Hill
#
# Bulk Modulus (GPa) = 49.31636 60.65877 54.98756
# Shear Modulus (GPa) = -44.82884 20.90928 -11.95978
#
# Velocity S-wave (km/s) = -4.77596 3.26175 -2.46685
# Velocity P-wave (km/s) = 2.30650 6.71191 4.45701
#
# Compressibility (1/GPa) = 0.02027725
#
# Stress axis : x y z
#
# Youngs Moduli (GPa) = 77.44595 52.50435 34.06072
#
# Poissons Ratio (x) = 0.35944 0.07161
# Poissons Ratio (y) = 0.53018 0.39414
# Poissons Ratio (z) = 0.16283 0.60757
#
# Static dielectric constant tensor:
#      x y z
#    x 1.705630 0.000000 0.014320 
#    y 0.000000 1.734540 0.000000 
#    z 0.014320 0.000000 1.698230 
# 
# From -- ./inp_files/47115.got.cif
#   From: 2010.05.17/outbox.cif.g08.bks.cpg/sg11_24_cif.got.tgz:47115.got - 2010.06.03 12:22:45.
