data_PCOD9164510
_publ_section_title
;
Structure prediction by ZEFSAII (Michael W. Deem and Ramdas Pophale) SiO2 
 PCOD9164510
Probable space group: P 21/M
;
_chemical_formula_sum "Si O2"
_cell_formula_units_Z 32
_cell_length_a 20.550028
_cell_length_b 8.842618
_cell_length_c 25.796179
_cell_angle_alpha 90.000000
_cell_angle_beta 159.483276
_cell_angle_gamma 90.000000
_cell_volume 1642.906541
_symmetry_space_group_name_H-M "P 21/M"
_symmetry_group_IT_number 11
_symmetry_cell_setting 'monoclinic'
loop_
_space_group_symop_operation_xyz
x,y,z
-x,1/2+y,-z
-x,-y,-z
x,1/2-y,z
loop_
_atom_site_type_symbol
_atom_site_label
_atom_site_fract_x
_atom_site_fract_y
_atom_site_fract_z
Si Si1 0.796227 0.571325 0.999205
Si Si2 0.827991 0.568539 0.902396
Si Si3 0.844697 0.924361 0.419175
Si Si4 0.564059 0.929160 0.404705
Si Si5 0.211857 0.931828 0.818069
Si Si6 0.621953 0.426867 0.338254
Si Si7 0.033797 0.067279 0.268933
Si Si8 0.625567 0.924384 0.155301
O O1 0.836350 0.750000 0.033174
O O2 0.910975 0.487777 0.129149
O O3 0.838558 0.523456 0.971279
O O4 0.573951 0.552372 0.837657
O O5 0.830278 0.750000 0.902342
O O6 0.632030 0.511094 0.732903
O O7 0.000000 0.500000 0.000000
O O8 0.885667 0.750000 0.463105
O O9 0.672877 0.926410 0.250803
O O10 0.788942 0.021685 0.426809
O O11 0.000000 0.000000 0.500000
O O12 0.539248 0.750000 0.393092
O O13 0.749950 0.979487 0.573696
O O14 0.612963 0.968383 0.381736
O O15 0.202380 0.750000 0.810276
O O16 0.058825 0.985109 0.745445
O O17 0.225074 0.988748 0.768865
O O18 0.416119 0.980634 0.991013
O O19 0.633199 0.250000 0.361474
O O20 0.031465 0.250000 0.268259
O O21 0.632182 0.750000 0.142750
#
# Coordination Sequence:
#
# PCOD9164510 Si02
#       8
#     4   4   4   4   4   4   4   4
#     4   9  20  37  59  87 116 147 187 231 278 334
#     4  10  21  40  65  93 121 154 193 231 276 334
#     4  11  23  36  51  73 103 140 187 240 293 346
#     4  10  21  37  58  88 121 154 192 235 284 339
#     4   9  18  33  52  72 100 136 176 228 279 333
#     4  10  21  38  57  80 110 148 195 243 290 346
#     4  10  21  35  55  84 115 148 190 235 283 337
#     4   9  19  34  49  70  97 133 182 229 284 343
#
# _framework density 19.477674
#
# number of rings (size 3 to 8) (size 9 to 14) (size 15 to 20)
#    0.000    2.250    0.000    3.000    1.750    6.500 
#    0.000    3.125    0.000    0.000    0.000    0.000 
#    0.000    0.000    0.000    0.000    0.000    0.000 
#
# Total GULP energy -178536.107625 kJ/mol
# GULP energy per Si atom -5579.253363 kJ/mol
# Density = 1.943334 g / cm^3
# Si number density = 19.477674 Si / 1000 Ang^3
#
#
#
# Elastic Constant Matrix: (Units=GPa)
#
#
# Indices 1 2 3 4 5 6 
#
# 1 61.8880 15.7730 20.6312 0.0000 27.0524 0.0000
# 2 15.7730 26.0530 13.7370 0.0000 7.2642 0.0000
# 3 20.6312 13.7370 78.6904 0.0000 12.5919 0.0000
# 4 0.0000 0.0000 0.0000 26.3925 0.0000 0.0195
# 5 27.0524 7.2642 12.5919 0.0000 34.7883 0.0000
# 6 0.0000 0.0000 0.0000 0.0195 0.0000 29.3897
#
#
#
# Elastic Compliance Matrix: (Units=1/GPa)
#
#
# Indices 1 2 3 4 5 6 
#
# 1 0.027695 -0.010293 -0.002507 0.000000 -0.018480 0.000000
# 2 -0.010293 0.047547 -0.005619 0.000000 0.000109 0.000000
# 3 -0.002507 -0.005619 0.014698 0.000000 -0.002197 0.000000
# 4 0.000000 0.000000 0.000000 0.037890 0.000000 -0.000025
# 5 -0.018480 0.000109 -0.002197 0.000000 0.043888 0.000000
# 6 0.000000 0.000000 0.000000 -0.000025 0.000000 0.034025
#
#
# Mechanical properties :
#
#
# Convention : Reuss Voigt Hill
#
# Bulk Modulus (GPa) = 18.83172 29.65707 24.24439
# Shear Modulus (GPa) = 19.20995 25.88014 22.54504
#
# Velocity S-wave (km/s) = 3.14388 3.64910 3.40587
# Velocity P-wave (km/s) = 4.78205 5.74576 5.28591
#
# Compressibility (1/GPa) = 0.05310191
#
# Stress axis : x y z
#
# Youngs Moduli (GPa) = 36.10748 21.03181 68.03695
#
# Poissons Ratio (x) = 0.21647 0.17059
# Poissons Ratio (y) = 0.37164 0.38232
# Poissons Ratio (z) = 0.09053 0.11818
#
# Static dielectric constant tensor:
#      x y z
#    x 1.677920 0.000000 -0.016680 
#    y 0.000000 1.684740 0.000000 
#    z -0.016680 0.000000 1.738680 
# 
# From -- ./inp_files/72186.got.cif
#   From: 2010.05.17/outbox.cif.g08.bks.cpg/sg11_37_cif.got.tgz:72186.got - 2010.06.03 12:22:45.
