data_PCOD9164661
_publ_section_title
;
Structure prediction by ZEFSAII (Michael W. Deem and Ramdas Pophale) SiO2 
 PCOD9164661
Probable space group: P 21/M
;
_chemical_formula_sum "Si O2"
_cell_formula_units_Z 28
_cell_length_a 10.841227
_cell_length_b 9.344606
_cell_length_c 16.626716
_cell_angle_alpha 90.000000
_cell_angle_beta 62.218639
_cell_angle_gamma 90.000000
_cell_volume 1490.246004
_symmetry_space_group_name_H-M "P 21/M"
_symmetry_group_IT_number 11
_symmetry_cell_setting 'monoclinic'
loop_
_space_group_symop_operation_xyz
x,y,z
-x,1/2+y,-z
-x,-y,-z
x,1/2-y,z
loop_
_atom_site_type_symbol
_atom_site_label
_atom_site_fract_x
_atom_site_fract_y
_atom_site_fract_z
Si Si1 0.576385 0.422901 0.051814
Si Si2 0.708086 0.083203 0.595643
Si Si3 0.427086 0.417194 0.595415
Si Si4 0.668628 0.582095 0.764741
Si Si5 0.183768 0.581546 0.611079
Si Si6 0.075782 0.415573 0.202972
Si Si7 0.906335 0.421270 0.961681
O O1 0.566113 0.250000 0.043503
O O2 0.484804 0.461015 0.158521
O O3 0.500000 0.500000 0.000000
O O4 0.739848 0.457489 0.014499
O O5 0.742990 0.250000 0.595055
O O6 0.541533 0.071042 0.630056
O O7 0.785635 0.033157 0.490036
O O8 0.731702 0.998802 0.669628
O O9 0.500000 0.500000 0.500000
O O10 0.408855 0.250000 0.582807
O O11 0.280027 0.495330 0.644355
O O12 0.666362 0.750000 0.745962
O O13 0.770001 0.561395 0.809881
O O14 0.223560 0.750000 0.600853
O O15 0.028105 0.567560 0.690134
O O16 0.062823 0.250000 0.179283
O O17 0.044750 0.522025 0.140198
O O18 0.919549 0.250000 0.965166
O O19 0.000000 0.500000 0.000000
#
# Coordination Sequence:
#
# PCOD9164661 Si02
#       7
#     4   4   4   4   4   4   4
#     4  10  21  39  63  88 114 150 195 241 296 356
#     4   9  19  34  51  78 114 148 188 235 281 335
#     4   9  17  31  51  75 105 143 188 236 286 339
#     4  10  21  36  57  84 112 147 193 239 289 350
#     4   9  19  35  55  79 112 154 192 234 290 346
#     4  10  21  39  60  82 114 154 194 241 297 352
#     4  11  24  41  63  92 123 155 196 247 302 363
#
# _framework density 18.788844000000001
#
# number of rings (size 3 to 8) (size 9 to 14) (size 15 to 20)
#    0.000    2.286    1.429    1.714    0.000    6.857 
#    0.000    4.286    0.000    0.000    0.000    0.000 
#    0.000    0.000    0.000    0.000    0.000    0.000 
#
# Total GULP energy -156016.873730 kJ/mol
# GULP energy per Si atom -5572.031205 kJ/mol
# Density = 1.874608 g / cm^3
# Si number density = 18.788844 Si / 1000 Ang^3
#
#
#
# Elastic Constant Matrix: (Units=GPa)
#
#
# Indices 1 2 3 4 5 6 
#
# 1 72.7958 44.8383 36.2042 0.0000 -11.7715 0.0000
# 2 44.8383 55.5127 39.8782 0.0000 8.8995 0.0000
# 3 36.2042 39.8782 97.9888 0.0000 -0.5921 0.0000
# 4 0.0000 0.0000 0.0000 28.6180 0.0000 5.6455
# 5 -11.7715 8.8995 -0.5921 0.0000 21.3700 0.0000
# 6 0.0000 0.0000 0.0000 5.6455 0.0000 30.5242
#
#
#
# Elastic Compliance Matrix: (Units=1/GPa)
#
#
# Indices 1 2 3 4 5 6 
#
# 1 0.054201 -0.053700 0.002144 0.000000 0.052279 0.000000
# 2 -0.053700 0.081474 -0.013702 0.000000 -0.063890 0.000000
# 3 0.002144 -0.013702 0.015034 0.000000 0.007304 0.000000
# 4 0.000000 0.000000 0.000000 0.036266 0.000000 -0.006707
# 5 0.052279 -0.063890 0.007304 0.000000 0.102401 0.000000
# 6 0.000000 0.000000 0.000000 -0.006707 0.000000 0.034001
#
#
# Mechanical properties :
#
#
# Convention : Reuss Voigt Hill
#
# Bulk Modulus (GPa) = 49.52519 52.01540 50.77029
# Shear Modulus (GPa) = 10.85483 23.12755 16.99119
#
# Velocity S-wave (km/s) = 2.40620 3.51225 3.01046
# Velocity P-wave (km/s) = 5.84259 6.64772 6.25811
#
# Compressibility (1/GPa) = 0.02019175
#
# Stress axis : x y z
#
# Youngs Moduli (GPa) = 18.44990 12.27386 66.51785
#
# Poissons Ratio (x) = 0.65911 -0.14263
# Poissons Ratio (y) = 0.99076 0.91146
# Poissons Ratio (z) = -0.03956 0.16818
#
# Static dielectric constant tensor:
#      x y z
#    x 1.700190 0.000000 -0.027080 
#    y 0.000000 1.642740 0.000000 
#    z -0.027080 0.000000 1.662950 
# 
# From -- ./inp_files/49138.got.cif
#   From: 2010.05.17/outbox.cif.g08.bks.cpg/sg11_25_cif.got.tgz:49138.got - 2010.06.03 12:22:45.
