data_PCOD9164374
_publ_section_title
;
Structure prediction by ZEFSAII (Michael W. Deem and Ramdas Pophale) SiO2 
 PCOD9164374
Probable space group: P 21/M
;
_chemical_formula_sum "Si O2"
_cell_formula_units_Z 24
_cell_length_a 5.166442
_cell_length_b 20.775541
_cell_length_c 11.546275
_cell_angle_alpha 90.000000
_cell_angle_beta 90.453424
_cell_angle_gamma 90.000000
_cell_volume 1239.287866
_symmetry_space_group_name_H-M "P 21/M"
_symmetry_group_IT_number 11
_symmetry_cell_setting 'monoclinic'
loop_
_space_group_symop_operation_xyz
x,y,z
-x,1/2+y,-z
-x,-y,-z
x,1/2-y,z
loop_
_atom_site_type_symbol
_atom_site_label
_atom_site_fract_x
_atom_site_fract_y
_atom_site_fract_z
Si Si1 0.937897 0.428406 0.945368
Si Si2 0.304905 0.073985 0.449378
Si Si3 0.563273 0.963447 0.121194
Si Si4 0.773486 0.675044 0.726984
Si Si5 0.715446 0.172692 0.128211
Si Si6 0.802162 0.008420 0.352280
O O1 0.721548 0.439330 0.846106
O O2 0.222972 0.409128 0.904395
O O3 0.812639 0.375349 0.028519
O O4 0.000000 0.500000 0.000000
O O5 0.269750 0.143749 0.396882
O O6 0.596239 0.052305 0.421309
O O7 0.092301 0.032855 0.374244
O O8 0.234451 0.059543 0.581518
O O9 0.699917 0.004841 0.221388
O O10 0.500000 0.000000 0.000000
O O11 0.724683 0.750000 0.720177
O O12 0.560874 0.651165 0.820124
O O13 0.063292 0.664696 0.773353
O O14 0.708153 0.250000 0.097932
#
# Coordination Sequence:
#
# PCOD9164374 Si02
#       6
#     4   4   4   4   4   4
#     4  10  21  32  50  80 104 147 179 221 276 316
#     4  10  21  34  57  74 111 143 175 230 271 333
#     4  10  21  32  50  79 110 143 180 221 265 330
#     4  10  21  34  55  80 104 144 181 226 280 324
#     4  10  21  36  53  78 113 144 183 230 278 335
#     4  10  21  36  51  83 107 146 178 219 286 319
#
# _framework density 19.365962
#
# number of rings (size 3 to 8) (size 9 to 14) (size 15 to 20)
#    0.000    2.000    0.000    3.000   14.000    0.000 
#    0.000    0.000    0.000    2.000    0.000    0.000 
#    0.000    0.000    0.000    0.000    0.000    0.000 
#
# Total GULP energy -133660.016958 kJ/mol
# GULP energy per Si atom -5569.167373 kJ/mol
# Density = 1.932188 g / cm^3
# Si number density = 19.365962 Si / 1000 Ang^3
#
#
#
# Elastic Constant Matrix: (Units=GPa)
#
#
# Indices 1 2 3 4 5 6 
#
# 1 114.6597 -5.6560 1.2690 0.0000 13.6928 0.0000
# 2 -5.6560 27.3187 7.9578 0.0000 2.5155 0.0000
# 3 1.2690 7.9578 60.2140 0.0000 9.7670 0.0000
# 4 0.0000 0.0000 0.0000 33.5213 0.0000 -5.3271
# 5 13.6928 2.5155 9.7670 0.0000 22.3299 0.0000
# 6 0.0000 0.0000 0.0000 -5.3271 0.0000 20.4881
#
#
#
# Elastic Compliance Matrix: (Units=1/GPa)
#
#
# Indices 1 2 3 4 5 6 
#
# 1 0.009598 0.002426 0.000512 0.000000 -0.006383 0.000000
# 2 0.002426 0.038789 -0.004550 0.000000 -0.003867 0.000000
# 3 0.000512 -0.004550 0.018477 0.000000 -0.007883 0.000000
# 4 0.000000 0.000000 0.000000 0.031118 0.000000 0.008091
# 5 -0.006383 -0.003867 -0.007883 0.000000 0.052581 0.000000
# 6 0.000000 0.000000 0.000000 0.008091 0.000000 0.050913
#
#
# Mechanical properties :
#
#
# Convention : Reuss Voigt Hill
#
# Bulk Modulus (GPa) = 15.71371 23.25934 19.48652
# Shear Modulus (GPa) = 22.13261 28.50930 25.32096
#
# Velocity S-wave (km/s) = 3.38429 3.84100 3.61986
# Velocity P-wave (km/s) = 4.83766 5.63095 5.24931
#
# Compressibility (1/GPa) = 0.06363871
#
# Stress axis : x y z
#
# Youngs Moduli (GPa) = 104.19197 25.78072 54.12227
#
# Poissons Ratio (x) = -0.06253 -0.02774
# Poissons Ratio (y) = -0.25272 0.24627
# Poissons Ratio (z) = -0.05340 0.11731
#
# Static dielectric constant tensor:
#      x y z
#    x 1.833660 0.000000 -0.066080 
#    y 0.000000 1.730350 0.000000 
#    z -0.066080 0.000000 1.741180 
# 
# From -- ./inp_files/29843.got.cif
#   From: 2010.05.17/outbox.cif.g08.bks.cpg/sg11_15_cif.got.tgz:29843.got - 2010.06.03 12:22:45.
