data_PCOD9164770
_publ_section_title
;
Structure prediction by ZEFSAII (Michael W. Deem and Ramdas Pophale) SiO2 
 PCOD9164770
Probable space group: P 21/M
;
_chemical_formula_sum "Si O2"
_cell_formula_units_Z 28
_cell_length_a 14.148256
_cell_length_b 7.400439
_cell_length_c 13.549490
_cell_angle_alpha 90.000000
_cell_angle_beta 62.453569
_cell_angle_gamma 90.000000
_cell_volume 1257.850061
_symmetry_space_group_name_H-M "P 21/M"
_symmetry_group_IT_number 11
_symmetry_cell_setting 'monoclinic'
loop_
_space_group_symop_operation_xyz
x,y,z
-x,1/2+y,-z
-x,-y,-z
x,1/2-y,z
loop_
_atom_site_type_symbol
_atom_site_label
_atom_site_fract_x
_atom_site_fract_y
_atom_site_fract_z
Si Si1 0.883666 0.536278 0.601700
Si Si2 0.585621 0.465153 0.872292
Si Si3 0.243113 0.531487 0.063204
Si Si4 0.188895 0.471675 0.568219
Si Si5 0.386134 0.465709 0.603629
Si Si6 0.966898 0.047738 0.766236
Si Si7 0.414456 0.034610 0.809729
O O1 0.868911 0.750000 0.624552
O O2 0.808013 0.473307 0.548836
O O3 0.895532 0.443472 0.700916
O O4 0.000000 0.500000 0.500000
O O5 0.599990 0.250000 0.852980
O O6 0.692907 0.537797 0.870467
O O7 0.525074 0.536397 0.804715
O O8 0.500000 0.500000 0.000000
O O9 0.238100 0.750000 0.071272
O O10 0.120992 0.464270 0.118157
O O11 0.317810 0.491925 0.933333
O O12 0.183406 0.250000 0.567806
O O13 0.290474 0.532441 0.580841
O O14 0.079489 0.532679 0.676066
O O15 0.500000 0.500000 0.500000
O O16 0.369974 0.250000 0.617084
O O17 0.387934 0.537129 0.714489
O O18 0.992492 0.250000 0.789199
O O19 0.429222 0.250000 0.793733
#
# Coordination Sequence:
#
# PCOD9164770 Si02
#       7
#     4   4   4   4   4   4   4
#     4   9  16  28  47  70  96 128 161 195 235 282
#     4   8  14  26  43  65  91 119 151 189 232 276
#     4   9  17  29  48  72  98 126 156 191 236 288
#     4   8  16  32  50  68  97 132 162 193 241 295
#     4  10  21  37  54  71  92 124 164 205 245 288
#     4   9  17  30  49  74 102 132 161 194 238 291
#     4   9  18  32  49  68  94 125 158 197 240 282
#
# _framework density 22.260203000000001
#
# number of rings (size 3 to 8) (size 9 to 14) (size 15 to 20)
#    0.000    3.143    0.000    1.286    0.000    2.286 
#    0.000    5.714    0.000    5.143    0.000    0.000 
#    0.000    0.000    0.000    0.000    0.000    0.000 
#
# Total GULP energy -155972.661769 kJ/mol
# GULP energy per Si atom -5570.452206 kJ/mol
# Density = 2.220954 g / cm^3
# Si number density = 22.260203 Si / 1000 Ang^3
#
#
#
# Elastic Constant Matrix: (Units=GPa)
#
#
# Indices 1 2 3 4 5 6 
#
# 1 148.2222 -1.3227 54.7326 0.0000 6.9994 0.0000
# 2 -1.3227 86.4205 -5.4644 0.0000 7.8335 0.0000
# 3 54.7326 -5.4644 67.4091 0.0000 9.0716 0.0000
# 4 0.0000 0.0000 0.0000 15.7879 0.0000 -3.4912
# 5 6.9994 7.8335 9.0716 0.0000 41.3150 0.0000
# 6 0.0000 0.0000 0.0000 -3.4912 0.0000 9.5968
#
#
#
# Elastic Compliance Matrix: (Units=1/GPa)
#
#
# Indices 1 2 3 4 5 6 
#
# 1 0.009647 -0.000366 -0.007885 0.000000 0.000166 0.000000
# 2 -0.000366 0.011898 0.001604 0.000000 -0.002546 0.000000
# 3 -0.007885 0.001604 0.021875 0.000000 -0.003771 0.000000
# 4 0.000000 0.000000 0.000000 0.068881 0.000000 0.025058
# 5 0.000166 -0.002546 -0.003771 0.000000 0.025487 0.000000
# 6 0.000000 0.000000 0.000000 0.025058 0.000000 0.113317
#
#
# Mechanical properties :
#
#
# Convention : Reuss Voigt Hill
#
# Bulk Modulus (GPa) = 33.19360 44.21585 38.70472
# Shear Modulus (GPa) = 18.21892 30.28035 24.24964
#
# Velocity S-wave (km/s) = 2.86397 3.69221 3.30414
# Velocity P-wave (km/s) = 5.08728 6.17113 5.65523
#
# Compressibility (1/GPa) = 0.03012629
#
# Stress axis : x y z
#
# Youngs Moduli (GPa) = 103.65776 84.04803 45.71515
#
# Poissons Ratio (x) = 0.03076 0.36046
# Poissons Ratio (y) = 0.03794 -0.07334
# Poissons Ratio (z) = 0.81734 -0.13484
#
# Static dielectric constant tensor:
#      x y z
#    x 1.830770 0.000000 0.030200 
#    y 0.000000 1.883200 0.000000 
#    z 0.030200 0.000000 1.763400 
# 
# From -- ./inp_files/37450.got.cif
#   From: 2010.05.17/outbox.cif.g08.bks.cpg/sg11_19_cif.got.tgz:37450.got - 2010.06.03 12:22:45.
