data_PCOD9164639
_publ_section_title
;
Structure prediction by ZEFSAII (Michael W. Deem and Ramdas Pophale) SiO2 
 PCOD9164639
Probable space group: P 21/M
;
_chemical_formula_sum "Si O2"
_cell_formula_units_Z 28
_cell_length_a 22.170091
_cell_length_b 11.879355
_cell_length_c 5.014932
_cell_angle_alpha 90.000000
_cell_angle_beta 85.075558
_cell_angle_gamma 90.000000
_cell_volume 1315.889244
_symmetry_space_group_name_H-M "P 21/M"
_symmetry_group_IT_number 11
_symmetry_cell_setting 'monoclinic'
loop_
_space_group_symop_operation_xyz
x,y,z
-x,1/2+y,-z
-x,-y,-z
x,1/2-y,z
loop_
_atom_site_type_symbol
_atom_site_label
_atom_site_fract_x
_atom_site_fract_y
_atom_site_fract_z
Si Si1 0.398933 0.123415 0.469607
Si Si2 0.227487 0.513658 0.898481
Si Si3 0.484403 0.876597 0.878293
Si Si4 0.814292 0.879005 0.583676
Si Si5 0.891724 0.126863 0.951426
Si Si6 0.931061 0.494829 0.435748
Si Si7 0.363604 0.985222 0.975343
O O1 0.377746 0.250000 0.417538
O O2 0.471658 0.122187 0.395773
O O3 0.372300 0.033635 0.269607
O O4 0.380711 0.087806 0.770768
O O5 0.220274 0.459732 0.610328
O O6 0.204730 0.418557 0.115705
O O7 0.178730 0.612079 0.952810
O O8 0.295127 0.547337 0.943235
O O9 0.496705 0.750000 0.993339
O O10 0.500000 0.000000 0.000000
O O11 0.412403 0.889669 0.883181
O O12 0.799127 0.750000 0.543697
O O13 0.886180 0.900813 0.510314
O O14 0.914648 0.250000 0.006530
O O15 0.901600 0.099837 0.638495
O O16 0.924978 0.037825 0.129603
O O17 0.000000 0.500000 0.500000
#
# Coordination Sequence:
#
# PCOD9164639 Si02
#       7
#     4   4   4   4   4   4   4
#     4  10  21  36  56  83 114 147 188 239 293 346
#     4  10  22  36  54  81 113 146 192 234 273 332
#     4   9  20  39  61  87 119 153 192 243 299 354
#     4  10  21  37  56  80 115 153 185 231 287 335
#     4  10  21  38  58  80 112 149 181 225 280 327
#     4  10  21  38  58  86 113 140 186 234 274 337
#     4  11  21  36  57  83 111 150 193 236 286 343
#
# _framework density 21.278383999999999
#
# number of rings (size 3 to 8) (size 9 to 14) (size 15 to 20)
#    0.000    2.000    0.000    3.000    0.000    5.714 
#    0.000    5.714    0.000    6.857    0.000    0.000 
#    0.000    0.000    0.000    0.000    0.000    0.000 
#
# Total GULP energy -156179.567971 kJ/mol
# GULP energy per Si atom -5577.841713 kJ/mol
# Density = 2.122995 g / cm^3
# Si number density = 21.278384 Si / 1000 Ang^3
#
#
#
# Elastic Constant Matrix: (Units=GPa)
#
#
# Indices 1 2 3 4 5 6 
#
# 1 111.7442 8.0598 -7.3273 0.0000 -4.1045 0.0000
# 2 8.0598 50.6223 2.3018 0.0000 1.4190 0.0000
# 3 -7.3273 2.3018 54.4104 0.0000 6.4371 0.0000
# 4 0.0000 0.0000 0.0000 11.0183 0.0000 6.8544
# 5 -4.1045 1.4190 6.4371 0.0000 22.4186 0.0000
# 6 0.0000 0.0000 0.0000 6.8544 0.0000 4.7940
#
#
#
# Elastic Compliance Matrix: (Units=1/GPa)
#
#
# Indices 1 2 3 4 5 6 
#
# 1 0.009189 -0.001555 0.001131 0.000000 0.001456 0.000000
# 2 -0.001555 0.020079 -0.000906 0.000000 -0.001296 0.000000
# 3 0.001131 -0.000906 0.019190 0.000000 -0.005246 0.000000
# 4 0.000000 0.000000 0.000000 0.820999 0.000000 -1.173849
# 5 0.001456 -0.001296 -0.005246 0.000000 0.046461 0.000000
# 6 0.000000 0.000000 0.000000 -1.173849 0.000000 1.886943
#
#
# Mechanical properties :
#
#
# Convention : Reuss Voigt Hill
#
# Bulk Modulus (GPa) = 21.83481 24.76060 23.29771
# Shear Modulus (GPa) = 1.77256 21.89570 11.83413
#
# Velocity S-wave (km/s) = 0.91370 3.21130 2.36086
# Velocity P-wave (km/s) = 3.37593 5.04100 4.29002
#
# Compressibility (1/GPa) = 0.04579842
#
# Stress axis : x y z
#
# Youngs Moduli (GPa) = 108.82782 49.80265 52.11034
#
# Poissons Ratio (x) = 0.07745 -0.05894
# Poissons Ratio (y) = 0.16925 0.04719
# Poissons Ratio (z) = -0.12308 0.04510
#
# Static dielectric constant tensor:
#      x y z
#    x 1.817330 0.000000 0.001600 
#    y 0.000000 1.746260 0.000000 
#    z 0.001600 0.000000 1.739290 
# 
# From -- ./inp_files/8747.got.cif
#   From: 2010.05.17/outbox.cif.g08.bks.cpg/sg11_5_cif.got.tgz:8747.got - 2010.06.03 12:22:45.
