data_PCOD9164386
_publ_section_title
;
Structure prediction by ZEFSAII (Michael W. Deem and Ramdas Pophale) SiO2 
 PCOD9164386
Probable space group: P 21/M
;
_chemical_formula_sum "Si O2"
_cell_formula_units_Z 20
_cell_length_a 5.271266
_cell_length_b 18.480827
_cell_length_c 13.003224
_cell_angle_alpha 90.000000
_cell_angle_beta 57.037937
_cell_angle_gamma 90.000000
_cell_volume 1062.833872
_symmetry_space_group_name_H-M "P 21/M"
_symmetry_group_IT_number 11
_symmetry_cell_setting 'monoclinic'
loop_
_space_group_symop_operation_xyz
x,y,z
-x,1/2+y,-z
-x,-y,-z
x,1/2-y,z
loop_
_atom_site_type_symbol
_atom_site_label
_atom_site_fract_x
_atom_site_fract_y
_atom_site_fract_z
Si Si1 0.204861 0.420931 0.152422
Si Si2 0.923907 0.335790 0.389578
Si Si3 0.324069 0.471200 0.693666
Si Si4 0.307128 0.454685 0.915327
Si Si5 0.280631 0.086864 0.488582
O O1 0.159535 0.359633 0.247495
O O2 0.434257 0.484566 0.133214
O O3 0.884164 0.461828 0.225802
O O4 0.305259 0.401524 0.014173
O O5 0.909166 0.250000 0.400608
O O6 0.051363 0.370873 0.466372
O O7 0.592123 0.367689 0.436315
O O8 0.338198 0.423849 0.793654
O O9 0.627117 0.510808 0.586868
O O10 0.181531 0.432543 0.626175
O O11 0.000000 0.500000 0.000000
#
# Coordination Sequence:
#
# PCOD9164386 Si02
#       5
#     4   4   4   4   4
#     4   9  18  30  52  79 108 135 172 216 276 310
#     4  11  22  37  53  75 108 145 181 214 254 327
#     4   9  18  30  53  80 111 131 167 227 274 313
#     4   9  16  30  49  80 107 128 165 222 274 312
#     4  10  21  33  54  81 106 138 177 213 270 314
#
# _framework density 18.817618
#
# number of rings (size 3 to 8) (size 9 to 14) (size 15 to 20)
#    0.000    2.400    2.000    0.600    2.800    2.400 
#    0.000    0.000    0.000    2.400    0.000    0.000 
#    0.000    0.000    0.000    0.000    0.000    0.000 
#
# Total GULP energy -111352.057031 kJ/mol
# GULP energy per Si atom -5567.602852 kJ/mol
# Density = 1.877479 g / cm^3
# Si number density = 18.817618 Si / 1000 Ang^3
#
#
#
# Elastic Constant Matrix: (Units=GPa)
#
#
# Indices 1 2 3 4 5 6 
#
# 1 60.5883 12.9970 26.3679 0.0000 13.1533 0.0000
# 2 12.9970 66.6389 35.7473 0.0000 16.3209 0.0000
# 3 26.3679 35.7473 151.4293 0.0000 43.5331 0.0000
# 4 0.0000 0.0000 0.0000 16.3740 0.0000 0.7045
# 5 13.1533 16.3209 43.5331 0.0000 35.4077 0.0000
# 6 0.0000 0.0000 0.0000 0.7045 0.0000 17.9374
#
#
#
# Elastic Compliance Matrix: (Units=1/GPa)
#
#
# Indices 1 2 3 4 5 6 
#
# 1 0.018469 -0.001730 -0.001646 0.000000 -0.004040 0.000000
# 2 -0.001730 0.017828 -0.002675 0.000000 -0.004286 0.000000
# 3 -0.001646 -0.002675 0.010814 0.000000 -0.011451 0.000000
# 4 0.000000 0.000000 0.000000 0.061176 0.000000 -0.002403
# 5 -0.004040 -0.004286 -0.011451 0.000000 0.045797 0.000000
# 6 0.000000 0.000000 0.000000 -0.002403 0.000000 0.055844
#
#
# Mechanical properties :
#
#
# Convention : Reuss Voigt Hill
#
# Bulk Modulus (GPa) = 28.56427 47.65344 38.10885
# Shear Modulus (GPa) = 21.39490 27.51345 24.45417
#
# Velocity S-wave (km/s) = 3.37554 3.82790 3.60882
# Velocity P-wave (km/s) = 5.51406 6.70194 6.13681
#
# Compressibility (1/GPa) = 0.03500877
#
# Stress axis : x y z
#
# Youngs Moduli (GPa) = 54.14375 56.09012 92.47427
#
# Poissons Ratio (x) = 0.09702 0.15225
# Poissons Ratio (y) = 0.09365 0.24740
# Poissons Ratio (z) = 0.08914 0.15006
#
# Static dielectric constant tensor:
#      x y z
#    x 1.764200 0.000000 0.021150 
#    y 0.000000 1.618340 0.000000 
#    z 0.021150 0.000000 1.767560 
# 
# From -- ./inp_files/4315.got.cif
#   From: 2010.05.17/outbox.cif.g08.bks.cpg/sg11_3_cif.got.tgz:4315.got - 2010.06.03 12:22:45.
