data_PCOD9164136
_publ_section_title
;
Structure prediction by ZEFSAII (Michael W. Deem and Ramdas Pophale) SiO2 
 PCOD9164136
Probable space group: P 21/M
;
_chemical_formula_sum "Si O2"
_cell_formula_units_Z 30
_cell_length_a 14.856099
_cell_length_b 9.265662
_cell_length_c 12.368363
_cell_angle_alpha 90.000000
_cell_angle_beta 109.804283
_cell_angle_gamma 90.000000
_cell_volume 1601.829782
_symmetry_space_group_name_H-M "P 21/M"
_symmetry_group_IT_number 11
_symmetry_cell_setting 'monoclinic'
loop_
_space_group_symop_operation_xyz
x,y,z
-x,1/2+y,-z
-x,-y,-z
x,1/2-y,z
loop_
_atom_site_type_symbol
_atom_site_label
_atom_site_fract_x
_atom_site_fract_y
_atom_site_fract_z
Si Si1 0.201766 0.921361 0.916286
Si Si2 0.991561 0.579018 0.882761
Si Si3 0.203324 0.423462 0.321463
Si Si4 0.150412 0.484943 0.528461
Si Si5 0.691457 0.583510 0.231875
Si Si6 0.979505 0.250000 0.451844
Si Si7 0.506710 0.421257 0.119168
Si Si8 0.698214 0.920487 0.853202
O O1 0.218937 0.750000 0.915287
O O2 0.088573 0.947813 0.855224
O O3 0.262172 0.008939 0.854180
O O4 0.232660 0.981992 0.045375
O O5 0.987680 0.750000 0.902033
O O6 0.897019 0.540824 0.778708
O O7 0.000000 0.500000 0.000000
O O8 0.205621 0.250000 0.342867
O O9 0.202304 0.505263 0.434090
O O10 0.284531 0.454914 0.265531
O O11 0.229402 0.425111 0.642989
O O12 0.101736 0.624946 0.559220
O O13 0.063809 0.373952 0.472515
O O14 0.667910 0.750000 0.198781
O O15 0.595532 0.494387 0.216337
O O16 0.522020 0.250000 0.109879
O O17 0.408366 0.440778 0.145032
O O18 0.500000 0.500000 0.000000
O O19 0.723668 0.750000 0.877794
#
# Coordination Sequence:
#
# PCOD9164136 Si02
#       8
#     4   4   4   4   4   2   4   4
#     4  11  23  35  57  90 126 161 204 259 316 370
#     4  10  21  34  53  84 120 161 199 244 302 368
#     4  10  20  39  63  85 126 172 208 250 309 380
#     4  11  24  43  65  97 127 169 214 259 312 375
#     4  12  25  40  64  94 126 162 212 265 319 383
#     4  10  24  42  66  90 128 168 214 258 302 364
#     4  11  23  40  65  95 125 162 212 269 325 376
#     4  10  21  40  63  88 119 165 209 253 314 379
#
# _framework density 18.728581999999999
#
# number of rings (size 3 to 8) (size 9 to 14) (size 15 to 20)
#    0.000    1.333    4.000    1.200    5.600    1.067 
#    2.400    0.667    0.000    0.000    0.000    0.000 
#    0.000    0.000    0.000    0.000    0.000    0.000 
#
# Total GULP energy -167029.108412 kJ/mol
# GULP energy per Si atom -5567.636947 kJ/mol
# Density = 1.868595 g / cm^3
# Si number density = 18.728582 Si / 1000 Ang^3
#
#
#
# Elastic Constant Matrix: (Units=GPa)
#
#
# Indices 1 2 3 4 5 6 
#
# 1 107.6115 45.1530 23.2764 0.0000 -4.1823 0.0000
# 2 45.1530 80.3832 5.9634 0.0000 -2.7553 0.0000
# 3 23.2764 5.9634 54.7821 0.0000 -9.3086 0.0000
# 4 0.0000 0.0000 0.0000 4.8627 0.0000 -5.6397
# 5 -4.1823 -2.7553 -9.3086 0.0000 13.4048 0.0000
# 6 0.0000 0.0000 0.0000 -5.6397 0.0000 30.6378
#
#
#
# Elastic Compliance Matrix: (Units=1/GPa)
#
#
# Indices 1 2 3 4 5 6 
#
# 1 0.013351 -0.007154 -0.005030 0.000000 -0.000798 0.000000
# 2 -0.007154 0.016415 0.001640 0.000000 0.002281 0.000000
# 3 -0.005030 0.001640 0.022679 0.000000 0.014517 0.000000
# 4 0.000000 0.000000 0.000000 0.261467 0.000000 0.048130
# 5 -0.000798 0.002281 0.014517 0.000000 0.084901 0.000000
# 6 0.000000 0.000000 0.000000 0.048130 0.000000 0.041499
#
#
# Mechanical properties :
#
#
# Convention : Reuss Voigt Hill
#
# Bulk Modulus (GPa) = 31.88806 43.50693 37.69750
# Shear Modulus (GPa) = 10.59651 21.00667 15.80159
#
# Velocity S-wave (km/s) = 2.38122 3.35272 2.90783
# Velocity P-wave (km/s) = 4.96222 6.18614 5.60767
#
# Compressibility (1/GPa) = 0.03135970
#
# Stress axis : x y z
#
# Youngs Moduli (GPa) = 74.89892 60.91834 44.09292
#
# Poissons Ratio (x) = 0.43581 0.22177
# Poissons Ratio (y) = 0.53582 -0.07233
# Poissons Ratio (z) = 0.37671 -0.09993
#
# Static dielectric constant tensor:
#      x y z
#    x 1.666330 0.000000 -0.009560 
#    y 0.000000 1.639380 0.000000 
#    z -0.009560 0.000000 1.662480 
# 
# From -- ./inp_files/38318.got.cif
#   From: 2010.05.17/outbox.cif.g08.bks.cpg/sg11_20_cif.got.tgz:38318.got - 2010.06.03 12:22:45.
