data_PCOD9164051
_publ_section_title
;
Structure prediction by ZEFSAII (Michael W. Deem and Ramdas Pophale) SiO2 
 PCOD9164051
Probable space group: P 21/M
;
_chemical_formula_sum "Si O2"
_cell_formula_units_Z 32
_cell_length_a 13.393462
_cell_length_b 8.392065
_cell_length_c 14.568426
_cell_angle_alpha 90.000000
_cell_angle_beta 94.023407
_cell_angle_gamma 90.000000
_cell_volume 1633.438050
_symmetry_space_group_name_H-M "P 21/M"
_symmetry_group_IT_number 11
_symmetry_cell_setting 'monoclinic'
loop_
_space_group_symop_operation_xyz
x,y,z
-x,1/2+y,-z
-x,-y,-z
x,1/2-y,z
loop_
_atom_site_type_symbol
_atom_site_label
_atom_site_fract_x
_atom_site_fract_y
_atom_site_fract_z
Si Si1 0.402192 0.439568 0.940108
Si Si2 0.008151 0.942544 0.708142
Si Si3 0.620250 0.055983 0.717699
Si Si4 0.049159 0.440908 0.096636
Si Si5 0.272411 0.559578 0.090125
Si Si6 0.796680 0.442496 0.390120
Si Si7 0.601443 0.556974 0.271302
Si Si8 0.196867 0.556980 0.398071
O O1 0.409267 0.250000 0.936439
O O2 0.395154 0.497702 0.834897
O O3 0.500000 0.500000 0.000000
O O4 0.308566 0.489192 0.996314
O O5 0.008516 0.750000 0.705974
O O6 0.008446 0.992783 0.814798
O O7 0.104965 0.999462 0.658380
O O8 0.904830 0.999538 0.656207
O O9 0.621029 0.250000 0.716234
O O10 0.654601 0.008247 0.822306
O O11 0.506087 0.005301 0.694692
O O12 0.704950 0.002178 0.651757
O O13 0.052072 0.250000 0.095883
O O14 0.161464 0.506499 0.108358
O O15 0.000000 0.500000 0.000000
O O16 0.276765 0.750000 0.084296
O O17 0.799003 0.250000 0.390581
O O18 0.695927 0.495969 0.333482
O O19 0.799612 0.496084 0.496051
O O20 0.603651 0.750000 0.271763
O O21 0.196628 0.750000 0.396131
#
# Coordination Sequence:
#
# PCOD9164051 Si02
#       8
#     4   4   4   4   4   4   4   4
#     4  11  22  37  58  87 118 156 201 242 288 351
#     4  10  22  40  60  86 121 153 192 247 297 348
#     4   9  18  36  60  86 117 152 193 241 293 348
#     4  11  24  40  58  87 122 158 199 245 298 359
#     4  11  21  38  61  85 118 158 195 247 305 354
#     4  10  23  40  58  87 121 154 194 244 300 351
#     4  10  22  40  58  83 119 158 197 239 292 353
#     4  10  20  38  65  89 113 151 198 244 296 359
#
# _framework density 19.590579999999999
#
# number of rings (size 3 to 8) (size 9 to 14) (size 15 to 20)
#    0.000    1.750    2.500    1.500    1.750    3.000 
#    0.000    0.625    0.000    0.000    0.000    0.000 
#    0.000    0.000    0.000    0.000    0.000    0.000 
#
# Total GULP energy -178764.701944 kJ/mol
# GULP energy per Si atom -5586.396936 kJ/mol
# Density = 1.954599 g / cm^3
# Si number density = 19.590580 Si / 1000 Ang^3
#
#
#
# Elastic Constant Matrix: (Units=GPa)
#
#
# Indices 1 2 3 4 5 6 
#
# 1 149.1405 8.2530 90.3905 0.0000 -16.2493 0.0000
# 2 8.2530 11.4388 16.8994 0.0000 0.1280 0.0000
# 3 90.3905 16.8994 163.0706 0.0000 -1.2349 0.0000
# 4 0.0000 0.0000 0.0000 21.5087 0.0000 6.1106
# 5 -16.2493 0.1280 -1.2349 0.0000 30.2664 0.0000
# 6 0.0000 0.0000 0.0000 6.1106 0.0000 33.0522
#
#
#
# Elastic Compliance Matrix: (Units=1/GPa)
#
#
# Indices 1 2 3 4 5 6 
#
# 1 0.010997 0.001116 -0.006169 0.000000 0.005648 0.000000
# 2 0.001116 0.103362 -0.011332 0.000000 -0.000301 0.000000
# 3 -0.006169 -0.011332 0.010705 0.000000 -0.002827 0.000000
# 4 0.000000 0.000000 0.000000 0.049070 0.000000 -0.009072
# 5 0.005648 -0.000301 -0.002827 0.000000 0.035958 0.000000
# 6 0.000000 0.000000 0.000000 -0.009072 0.000000 0.031932
#
#
# Mechanical properties :
#
#
# Convention : Reuss Voigt Hill
#
# Bulk Modulus (GPa) = 10.83503 61.63729 36.23616
# Shear Modulus (GPa) = 16.36341 30.83926 23.60134
#
# Velocity S-wave (km/s) = 2.89324 3.97191 3.47469
# Velocity P-wave (km/s) = 4.08703 7.25023 5.88513
#
# Compressibility (1/GPa) = 0.09229320
#
# Stress axis : x y z
#
# Youngs Moduli (GPa) = 90.93035 9.67475 93.41720
#
# Poissons Ratio (x) = -0.01079 0.57627
# Poissons Ratio (y) = -0.10146 1.05864
# Poissons Ratio (z) = 0.56093 0.10964
#
# Static dielectric constant tensor:
#      x y z
#    x 1.666630 0.000000 -0.025610 
#    y 0.000000 1.680830 0.000000 
#    z -0.025610 0.000000 1.682180 
# 
# From -- ./inp_files/49341.got.cif
#   From: 2010.05.17/outbox.cif.g08.bks.cpg/sg11_25_cif.got.tgz:49341.got - 2010.06.03 12:22:45.
