data_PCOD9164813
_publ_section_title
;
Structure prediction by ZEFSAII (Michael W. Deem and Ramdas Pophale) SiO2 
 PCOD9164813
Probable space group: P 21/M
;
_chemical_formula_sum "Si O2"
_cell_formula_units_Z 20
_cell_length_a 7.065630
_cell_length_b 18.448219
_cell_length_c 9.195603
_cell_angle_alpha 90.000000
_cell_angle_beta 48.268418
_cell_angle_gamma 90.000000
_cell_volume 894.504111
_symmetry_space_group_name_H-M "P 21/M"
_symmetry_group_IT_number 11
_symmetry_cell_setting 'monoclinic'
loop_
_space_group_symop_operation_xyz
x,y,z
-x,1/2+y,-z
-x,-y,-z
x,1/2-y,z
loop_
_atom_site_type_symbol
_atom_site_label
_atom_site_fract_x
_atom_site_fract_y
_atom_site_fract_z
Si Si1 0.257205 0.831935 0.295260
Si Si2 0.737807 0.834460 0.382096
Si Si3 0.595459 0.544901 0.655352
Si Si4 0.270872 0.420517 0.914366
Si Si5 0.045178 0.923421 0.650198
O O1 0.350782 0.750000 0.245079
O O2 0.476881 0.886949 0.139738
O O3 0.014466 0.838052 0.316106
O O4 0.166094 0.855697 0.502835
O O5 0.666095 0.750000 0.407589
O O6 0.562998 0.882061 0.579673
O O7 0.756366 0.873775 0.217891
O O8 0.348590 0.502670 0.836432
O O9 0.790491 0.557812 0.688535
O O10 0.754709 0.488606 0.472530
O O11 0.043148 0.412863 0.141763
#
# Coordination Sequence:
#
# PCOD9164813 Si02
#       5
#     4   4   4   4   4
#     4   9  20  38  55  79 118 153 184 229 280 331
#     4  10  21  37  56  81 115 150 185 227 278 334
#     4   9  19  37  57  82 113 146 183 229 280 331
#     4  11  20  35  62  86 108 145 191 233 276 326
#     4   9  19  35  60  86 110 145 189 231 277 329
#
# _framework density 22.358756
#
# number of rings (size 3 to 8) (size 9 to 14) (size 15 to 20)
#    0.000    2.400    0.000    3.000    0.000    2.400 
#    0.000    8.000    0.000   15.600    0.000    0.000 
#    0.000    0.000    0.000    0.000    0.000    0.000 
#
# Total GULP energy -111911.712747 kJ/mol
# GULP energy per Si atom -5595.585637 kJ/mol
# Density = 2.230787 g / cm^3
# Si number density = 22.358756 Si / 1000 Ang^3
#
#
#
# Elastic Constant Matrix: (Units=GPa)
#
#
# Indices 1 2 3 4 5 6 
#
# 1 63.6225 19.5778 19.3624 0.0000 7.1263 0.0000
# 2 19.5778 84.7778 15.4423 0.0000 15.0517 0.0000
# 3 19.3624 15.4423 95.6959 0.0000 -1.8486 0.0000
# 4 0.0000 0.0000 0.0000 10.2247 0.0000 1.4472
# 5 7.1263 15.0517 -1.8486 0.0000 18.6009 0.0000
# 6 0.0000 0.0000 0.0000 1.4472 0.0000 33.8241
#
#
#
# Elastic Compliance Matrix: (Units=1/GPa)
#
#
# Indices 1 2 3 4 5 6 
#
# 1 0.018128 -0.002670 -0.003336 0.000000 -0.005116 0.000000
# 2 -0.002670 0.014762 -0.002057 0.000000 -0.011127 0.000000
# 3 -0.003336 -0.002057 0.011536 0.000000 0.004089 0.000000
# 4 0.000000 0.000000 0.000000 0.098398 0.000000 -0.004210
# 5 -0.005116 -0.011127 0.004089 0.000000 0.065131 0.000000
# 6 0.000000 0.000000 0.000000 -0.004210 0.000000 0.029745
#
#
# Mechanical properties :
#
#
# Convention : Reuss Voigt Hill
#
# Bulk Modulus (GPa) = 35.33602 39.20681 37.27142
# Shear Modulus (GPa) = 18.99275 25.17754 22.08514
#
# Velocity S-wave (km/s) = 2.91770 3.35934 3.14628
# Velocity P-wave (km/s) = 5.21431 5.71142 5.46852
#
# Compressibility (1/GPa) = 0.02829974
#
# Stress axis : x y z
#
# Youngs Moduli (GPa) = 55.16455 67.73979 86.68836
#
# Poissons Ratio (x) = 0.18089 0.28917
# Poissons Ratio (y) = 0.14731 0.17830
# Poissons Ratio (z) = 0.18401 0.13933
#
# Static dielectric constant tensor:
#      x y z
#    x 1.908460 0.000000 0.016320 
#    y 0.000000 1.816410 0.000000 
#    z 0.016320 0.000000 1.763250 
# 
# From -- ./inp_files/2284.got.cif
#   From: 2010.05.17/outbox.cif.g08.bks.cpg/sg11_2_cif.got.tgz:2284.got - 2010.06.03 12:22:45.
