data_PCOD9164388
_publ_section_title
;
Structure prediction by ZEFSAII (Michael W. Deem and Ramdas Pophale) SiO2 
 PCOD9164388
Probable space group: P 21/M
;
_chemical_formula_sum "Si O2"
_cell_formula_units_Z 32
_cell_length_a 20.403177
_cell_length_b 14.843292
_cell_length_c 14.236159
_cell_angle_alpha 90.000000
_cell_angle_beta 23.310241
_cell_angle_gamma 90.000000
_cell_volume 1706.072603
_symmetry_space_group_name_H-M "P 21/M"
_symmetry_group_IT_number 11
_symmetry_cell_setting 'monoclinic'
loop_
_space_group_symop_operation_xyz
x,y,z
-x,1/2+y,-z
-x,-y,-z
x,1/2-y,z
loop_
_atom_site_type_symbol
_atom_site_label
_atom_site_fract_x
_atom_site_fract_y
_atom_site_fract_z
Si Si1 0.077285 0.587011 0.945956
Si Si2 0.554364 0.641216 0.000071
Si Si3 0.682430 0.533239 0.283216
Si Si4 0.191862 0.479000 0.233209
Si Si5 0.711492 0.645614 0.065350
Si Si6 0.642176 0.147860 0.563998
Si Si7 0.435647 0.856182 0.943807
Si Si8 0.279478 0.351015 0.581798
O O1 0.192696 0.551356 0.877736
O O2 0.198315 0.622278 0.705368
O O3 0.000000 0.500000 0.000000
O O4 0.915975 0.643658 0.185304
O O5 0.583205 0.750000 0.975221
O O6 0.720553 0.585393 0.803969
O O7 0.483914 0.628024 0.988995
O O8 0.423373 0.605937 0.252011
O O9 0.500000 0.500000 0.500000
O O10 0.738248 0.606247 0.133294
O O11 0.682099 0.579182 0.385873
O O12 0.000000 0.500000 0.500000
O O13 0.209138 0.421168 0.114917
O O14 0.297752 0.571779 0.093652
O O15 0.763952 0.750000 0.987103
O O16 0.515633 0.642538 0.297664
O O17 0.672283 0.250000 0.552156
O O18 0.386029 0.750000 0.999817
O O19 0.599614 0.869071 0.664374
O O20 0.314983 0.250000 0.569394
#
# Coordination Sequence:
#
# PCOD9164388 Si02
#       8
#     4   4   4   4   4   4   4   4
#     4  10  21  33  55  85 117 154 192 243 300 354
#     4   9  20  39  65  89 114 157 208 255 303 363
#     4  11  20  36  58  88 120 156 199 246 300 365
#     4  11  23  39  61  90 120 159 197 257 316 369
#     4  10  21  38  62  87 118 159 203 250 303 364
#     4   9  17  34  58  84 114 150 197 248 297 350
#     4  10  22  41  62  86 119 161 205 251 305 368
#     4  10  22  39  57  81 121 161 197 243 296 359
#
# _framework density 18.756529
#
# number of rings (size 3 to 8) (size 9 to 14) (size 15 to 20)
#    0.000    2.000    1.250    3.000    5.250    2.000 
#    4.500    0.000    0.000    3.750    0.000    0.000 
#    0.000    0.000    0.000    0.000    0.000    0.000 
#
# Total GULP energy -178325.763944 kJ/mol
# GULP energy per Si atom -5572.680123 kJ/mol
# Density = 1.871384 g / cm^3
# Si number density = 18.756529 Si / 1000 Ang^3
#
#
#
# Elastic Constant Matrix: (Units=GPa)
#
#
# Indices 1 2 3 4 5 6 
#
# 1 84.8260 40.8408 42.5086 0.0000 8.5932 0.0000
# 2 40.8408 96.0520 64.0920 0.0000 0.8942 0.0000
# 3 42.5086 64.0920 148.9340 0.0000 -6.8429 0.0000
# 4 0.0000 0.0000 0.0000 28.8216 0.0000 3.5436
# 5 8.5932 0.8942 -6.8429 0.0000 22.7352 0.0000
# 6 0.0000 0.0000 0.0000 3.5436 0.0000 33.0214
#
#
#
# Elastic Compliance Matrix: (Units=1/GPa)
#
#
# Indices 1 2 3 4 5 6 
#
# 1 0.016290 -0.004983 -0.002818 0.000000 -0.006809 0.000000
# 2 -0.004983 0.016270 -0.005600 0.000000 -0.000442 0.000000
# 3 -0.002818 -0.005600 0.010128 0.000000 0.004334 0.000000
# 4 0.000000 0.000000 0.000000 0.035160 0.000000 -0.003773
# 5 -0.006809 -0.000442 0.004334 0.000000 0.047880 0.000000
# 6 0.000000 0.000000 0.000000 -0.003773 0.000000 0.030688
#
#
# Mechanical properties :
#
#
# Convention : Reuss Voigt Hill
#
# Bulk Modulus (GPa) = 62.94584 69.41053 66.17818
# Shear Modulus (GPa) = 26.52335 29.07367 27.79851
#
# Velocity S-wave (km/s) = 3.76451 3.94135 3.85394
# Velocity P-wave (km/s) = 7.24760 7.60254 7.42719
#
# Compressibility (1/GPa) = 0.01588667
#
# Stress axis : x y z
#
# Youngs Moduli (GPa) = 61.38816 61.46154 98.73896
#
# Poissons Ratio (x) = 0.30623 0.27826
# Poissons Ratio (y) = 0.30587 0.55293
# Poissons Ratio (z) = 0.17300 0.34418
#
# Static dielectric constant tensor:
#      x y z
#    x 1.645180 0.000000 0.016580 
#    y 0.000000 1.709880 0.000000 
#    z 0.016580 0.000000 1.702520 
# 
# From -- ./inp_files/54980.got.cif
#   From: 2010.05.17/outbox.cif.g08.bks.cpg/sg11_28_cif.got.tgz:54980.got - 2010.06.03 12:22:45.
