data_PCOD9164276
_publ_section_title
;
Structure prediction by ZEFSAII (Michael W. Deem and Ramdas Pophale) SiO2 
 PCOD9164276
Probable space group: P 21/M
;
_chemical_formula_sum "Si O2"
_cell_formula_units_Z 22
_cell_length_a 16.142065
_cell_length_b 11.777108
_cell_length_c 13.501294
_cell_angle_alpha 90.000000
_cell_angle_beta 153.226921
_cell_angle_gamma 90.000000
_cell_volume 1156.185571
_symmetry_space_group_name_H-M "P 21/M"
_symmetry_group_IT_number 11
_symmetry_cell_setting 'monoclinic'
loop_
_space_group_symop_operation_xyz
x,y,z
-x,1/2+y,-z
-x,-y,-z
x,1/2-y,z
loop_
_atom_site_type_symbol
_atom_site_label
_atom_site_fract_x
_atom_site_fract_y
_atom_site_fract_z
Si Si1 0.964272 0.250000 0.741942
Si Si2 0.023775 0.886060 0.658838
Si Si3 0.700860 0.528835 0.173768
Si Si4 0.410295 0.750000 0.582740
Si Si5 0.691004 0.464337 0.655949
Si Si6 0.726754 0.750000 0.069278
Si Si7 0.005132 0.992874 0.856185
O O1 0.744347 0.250000 0.496831
O O2 0.014837 0.131202 0.851408
O O3 0.063032 0.250000 0.741964
O O4 0.016294 0.750000 0.650907
O O5 0.843473 0.937098 0.412510
O O6 0.199466 0.930994 0.784211
O O7 0.027219 0.935860 0.773329
O O8 0.500000 0.500000 0.000000
O O9 0.685498 0.638258 0.086815
O O10 0.366837 0.855335 0.467710
O O11 0.608309 0.750000 0.842577
O O12 0.500000 0.500000 0.500000
O O13 0.810661 0.534972 0.702620
O O14 0.835789 0.451672 0.899964
#
# Coordination Sequence:
#
# PCOD9164276 Si02
#       7
#     2   4   4   2   4   2   4
#     4  10  20  40  66  88 118 170 218 262 310 376
#     4  11  25  45  66  96 133 172 213 270 330 386
#     4  11  27  43  68  97 130 169 222 269 327 390
#     4  10  24  36  65  92 121 165 216 263 320 373
#     4  10  22  40  59  92 125 162 215 261 315 381
#     4  12  22  42  67  94 123 171 218 267 320 385
#     4  10  22  40  65  89 127 168 212 262 322 375
#
# _framework density 19.028088
#
# number of rings (size 3 to 8) (size 9 to 14) (size 15 to 20)
#    0.000    1.455    2.727    1.091    7.636    0.000 
#    3.273    0.000    0.000    0.000    0.000    0.000 
#    0.000    0.000    0.000    0.000    0.000    0.000 
#
# Total GULP energy -122739.558789 kJ/mol
# GULP energy per Si atom -5579.070854 kJ/mol
# Density = 1.898478 g / cm^3
# Si number density = 19.028088 Si / 1000 Ang^3
#
#
#
# Elastic Constant Matrix: (Units=GPa)
#
#
# Indices 1 2 3 4 5 6 
#
# 1 187.0714 61.9425 70.1616 0.0000 28.1782 0.0000
# 2 61.9425 62.9835 29.5075 0.0000 4.8007 0.0000
# 3 70.1616 29.5075 80.0429 0.0000 11.0074 0.0000
# 4 0.0000 0.0000 0.0000 14.9650 0.0000 -4.2165
# 5 28.1782 4.8007 11.0074 0.0000 49.8570 0.0000
# 6 0.0000 0.0000 0.0000 -4.2165 0.0000 24.5201
#
#
#
# Elastic Compliance Matrix: (Units=1/GPa)
#
#
# Indices 1 2 3 4 5 6 
#
# 1 0.010652 -0.007319 -0.006093 0.000000 -0.003970 0.000000
# 2 -0.007319 0.024225 -0.002849 0.000000 0.002433 0.000000
# 3 -0.006093 -0.002849 0.018949 0.000000 -0.000465 0.000000
# 4 0.000000 0.000000 0.000000 0.070225 0.000000 0.012076
# 5 -0.003970 0.002433 -0.000465 0.000000 0.022170 0.000000
# 6 0.000000 0.000000 0.000000 0.012076 0.000000 0.042860
#
#
# Mechanical properties :
#
#
# Convention : Reuss Voigt Hill
#
# Bulk Modulus (GPa) = 46.94285 72.59121 59.76703
# Shear Modulus (GPa) = 21.86229 29.10082 25.48155
#
# Velocity S-wave (km/s) = 3.39329 3.91495 3.66342
# Velocity P-wave (km/s) = 6.33059 7.65951 7.02654
#
# Compressibility (1/GPa) = 0.02130250
#
# Stress axis : x y z
#
# Youngs Moduli (GPa) = 93.87625 41.28021 52.77402
#
# Poissons Ratio (x) = 0.30213 0.32156
# Poissons Ratio (y) = 0.68708 0.15038
# Poissons Ratio (z) = 0.57200 0.11763
#
# Static dielectric constant tensor:
#      x y z
#    x 1.690950 0.000000 0.021210 
#    y 0.000000 1.658490 0.000000 
#    z 0.021210 0.000000 1.644720 
# 
# From -- ./inp_files/39294.got.cif
#   From: 2010.05.17/outbox.cif.g08.bks.cpg/sg11_20_cif.got.tgz:39294.got - 2010.06.03 12:22:45.
