data_PCOD9164324
_publ_section_title
;
Structure prediction by ZEFSAII (Michael W. Deem and Ramdas Pophale) SiO2 
 PCOD9164324
Probable space group: P 21/M
;
_chemical_formula_sum "Si O2"
_cell_formula_units_Z 32
_cell_length_a 23.523726
_cell_length_b 8.481404
_cell_length_c 15.321688
_cell_angle_alpha 90.000000
_cell_angle_beta 148.815855
_cell_angle_gamma 90.000000
_cell_volume 1582.830392
_symmetry_space_group_name_H-M "P 21/M"
_symmetry_group_IT_number 11
_symmetry_cell_setting 'monoclinic'
loop_
_space_group_symop_operation_xyz
x,y,z
-x,1/2+y,-z
-x,-y,-z
x,1/2-y,z
loop_
_atom_site_type_symbol
_atom_site_label
_atom_site_fract_x
_atom_site_fract_y
_atom_site_fract_z
Si Si1 0.335061 0.561522 0.026981
Si Si2 0.259773 0.440418 0.537875
Si Si3 0.911177 0.934075 0.314743
Si Si4 0.032342 0.062891 0.308918
Si Si5 0.496535 0.564176 0.897201
Si Si6 0.061551 0.440573 0.994311
Si Si7 0.725356 0.940402 0.636645
Si Si8 0.511951 0.441110 0.615055
O O1 0.334905 0.750000 0.029698
O O2 0.211175 0.505848 0.846268
O O3 0.415754 0.509584 0.054601
O O4 0.388155 0.506526 0.190028
O O5 0.273299 0.250000 0.558949
O O6 0.161091 0.481543 0.473137
O O7 0.374387 0.521430 0.706283
O O8 0.229581 0.485718 0.399026
O O9 0.899461 0.750000 0.315815
O O10 0.000000 0.000000 0.500000
O O11 0.964844 0.969067 0.291597
O O12 0.024381 0.250000 0.315761
O O13 0.984832 0.023841 0.151637
O O14 0.514821 0.750000 0.922192
O O15 0.500000 0.500000 0.000000
O O16 0.052332 0.250000 0.975460
O O17 0.189119 0.486003 0.176692
O O18 0.000000 0.500000 0.000000
O O19 0.722157 0.750000 0.632966
O O20 0.601423 0.994075 0.487655
O O21 0.500000 0.500000 0.500000
O O22 0.515000 0.250000 0.616404
#
# Coordination Sequence:
#
# PCOD9164324 Si02
#       8
#     4   4   4   4   4   4   4   4
#     4  11  24  47  73 100 135 176 225 279 335 399
#     4  10  20  41  67  92 129 171 216 271 332 394
#     4  12  28  50  73  98 132 176 225 282 339 402
#     4  11  24  43  67  96 132 175 225 279 334 397
#     4  12  26  43  68 101 133 169 214 270 335 400
#     4  11  21  36  59  92 131 174 218 266 324 392
#     4   9  18  37  60  86 124 171 212 260 324 386
#     4  10  22  40  64  92 128 172 218 270 328 390
#
# _framework density 20.216949
#
# number of rings (size 3 to 8) (size 9 to 14) (size 15 to 20)
#    0.000    1.250    2.500    3.375    3.500    2.000 
#    0.000    0.625    0.000    0.000    0.000    0.000 
#    0.000    0.000    0.000    0.000    0.000    0.000 
#
# Total GULP energy -178751.431378 kJ/mol
# GULP energy per Si atom -5585.982231 kJ/mol
# Density = 2.017093 g / cm^3
# Si number density = 20.216949 Si / 1000 Ang^3
#
#
#
# Elastic Constant Matrix: (Units=GPa)
#
#
# Indices 1 2 3 4 5 6 
#
# 1 89.0614 23.2286 67.4179 0.0000 -0.9445 0.0000
# 2 23.2286 62.0633 35.3330 0.0000 9.3889 0.0000
# 3 67.4179 35.3330 152.9236 0.0000 11.1153 0.0000
# 4 0.0000 0.0000 0.0000 34.0688 0.0000 -2.6059
# 5 -0.9445 9.3889 11.1153 0.0000 36.1887 0.0000
# 6 0.0000 0.0000 0.0000 -2.6059 0.0000 32.4577
#
#
#
# Elastic Compliance Matrix: (Units=1/GPa)
#
#
# Indices 1 2 3 4 5 6 
#
# 1 0.017572 -0.002933 -0.007321 0.000000 0.003468 0.000000
# 2 -0.002933 0.019507 -0.002905 0.000000 -0.004245 0.000000
# 3 -0.007321 -0.002905 0.010635 0.000000 -0.002704 0.000000
# 4 0.000000 0.000000 0.000000 0.029534 0.000000 0.002371
# 5 0.003468 -0.004245 -0.002704 0.000000 0.029655 0.000000
# 6 0.000000 0.000000 0.000000 0.002371 0.000000 0.031000
#
#
# Mechanical properties :
#
#
# Convention : Reuss Voigt Hill
#
# Bulk Modulus (GPa) = 46.74283 61.77860 54.26071
# Shear Modulus (GPa) = 29.17956 32.41430 30.79693
#
# Velocity S-wave (km/s) = 3.80323 4.00850 3.90721
# Velocity P-wave (km/s) = 6.51589 7.21444 6.87405
#
# Compressibility (1/GPa) = 0.02139366
#
# Stress axis : x y z
#
# Youngs Moduli (GPa) = 56.90849 51.26459 94.03276
#
# Poissons Ratio (x) = 0.15038 0.68843
# Poissons Ratio (y) = 0.16694 0.27318
# Poissons Ratio (z) = 0.41664 0.14893
#
# Static dielectric constant tensor:
#      x y z
#    x 1.703120 0.000000 -0.025530 
#    y 0.000000 1.683550 0.000000 
#    z -0.025530 0.000000 1.739810 
# 
# From -- ./inp_files/55730.got.cif
#   From: 2010.05.17/outbox.cif.g08.bks.cpg/sg11_28_cif.got.tgz:55730.got - 2010.06.03 12:22:45.
