data_PCOD9164012
_publ_section_title
;
Structure prediction by ZEFSAII (Michael W. Deem and Ramdas Pophale) SiO2 
 PCOD9164012
Probable space group: P 21/M
;
_chemical_formula_sum "Si O2"
_cell_formula_units_Z 32
_cell_length_a 24.496933
_cell_length_b 9.063076
_cell_length_c 15.304057
_cell_angle_alpha 90.000000
_cell_angle_beta 150.930445
_cell_angle_gamma 90.000000
_cell_volume 1650.877720
_symmetry_space_group_name_H-M "P 21/M"
_symmetry_group_IT_number 11
_symmetry_cell_setting 'monoclinic'
loop_
_space_group_symop_operation_xyz
x,y,z
-x,1/2+y,-z
-x,-y,-z
x,1/2-y,z
loop_
_atom_site_type_symbol
_atom_site_label
_atom_site_fract_x
_atom_site_fract_y
_atom_site_fract_z
Si Si1 0.990764 0.928093 0.717668
Si Si2 0.630182 0.071864 0.985810
Si Si3 0.704884 0.586995 0.609426
Si Si4 0.230845 0.570753 0.988826
Si Si5 0.614118 0.423125 0.635175
Si Si6 0.245847 0.573259 0.660302
Si Si7 0.619911 0.925297 0.306530
Si Si8 0.042278 0.082249 0.973247
O O1 0.983511 0.750000 0.710670
O O2 0.099578 0.971351 0.811154
O O3 0.874249 0.996320 0.521797
O O4 0.014163 0.991193 0.847275
O O5 0.623587 0.250000 0.968065
O O6 0.693812 0.017587 0.987487
O O7 0.704724 0.038627 0.175032
O O8 0.501996 0.025014 0.827370
O O9 0.650586 0.750000 0.543738
O O10 0.639467 0.465647 0.571579
O O11 0.706102 0.558255 0.508157
O O12 0.825348 0.591960 0.822885
O O13 0.231278 0.750000 0.986056
O O14 0.290344 0.525997 0.162761
O O15 0.500000 0.500000 0.500000
O O16 0.604399 0.250000 0.631652
O O17 0.234929 0.750000 0.636909
O O18 0.333219 0.513272 0.710177
O O19 0.612892 0.750000 0.275158
O O20 0.997758 0.250000 0.903846
O O21 0.000000 0.000000 0.000000
#
# Coordination Sequence:
#
# PCOD9164012 Si02
#       8
#     4   4   4   4   4   4   4   4
#     4  11  22  39  61  85 117 159 206 249 297 361
#     4   9  19  37  61  87 117 154 199 250 307 364
#     4  10  21  36  56  84 115 150 190 232 285 346
#     4   9  19  37  60  85 116 156 199 243 297 362
#     4  11  21  35  57  85 117 155 194 236 284 344
#     4  11  23  38  59  88 119 154 199 256 311 358
#     4  10  20  38  63  88 119 158 198 244 300 371
#     4  11  22  36  57  86 122 157 195 242 292 349
#
# _framework density 19.383628000000002
#
# number of rings (size 3 to 8) (size 9 to 14) (size 15 to 20)
#    0.000    1.750    1.250    3.375    0.000    4.500 
#    0.000    0.625    0.000    6.750    0.000    0.000 
#    0.000    0.000    0.000    0.000    0.000    0.000 
#
# Total GULP energy -178582.258514 kJ/mol
# GULP energy per Si atom -5580.695579 kJ/mol
# Density = 1.933951 g / cm^3
# Si number density = 19.383628 Si / 1000 Ang^3
#
#
#
# Elastic Constant Matrix: (Units=GPa)
#
#
# Indices 1 2 3 4 5 6 
#
# 1 105.1792 33.5596 19.7542 0.0000 3.7532 0.0000
# 2 33.5596 61.0841 23.2703 0.0000 -0.4648 0.0000
# 3 19.7542 23.2703 72.6110 0.0000 2.6135 0.0000
# 4 0.0000 0.0000 0.0000 21.0364 0.0000 0.6901
# 5 3.7532 -0.4648 2.6135 0.0000 31.1824 0.0000
# 6 0.0000 0.0000 0.0000 0.6901 0.0000 28.1609
#
#
#
# Elastic Compliance Matrix: (Units=1/GPa)
#
#
# Indices 1 2 3 4 5 6 
#
# 1 0.011691 -0.005970 -0.001217 0.000000 -0.001394 0.000000
# 2 -0.005970 0.021715 -0.005389 0.000000 0.001494 0.000000
# 3 -0.001217 -0.005389 0.015876 0.000000 -0.001264 0.000000
# 4 0.000000 0.000000 0.000000 0.047575 0.000000 -0.001166
# 5 -0.001394 0.001494 -0.001264 0.000000 0.032365 0.000000
# 6 0.000000 0.000000 0.000000 -0.001166 0.000000 0.035539
#
#
# Mechanical properties :
#
#
# Convention : Reuss Voigt Hill
#
# Bulk Modulus (GPa) = 41.44263 43.56031 42.50147
# Shear Modulus (GPa) = 25.25822 26.89528 26.07675
#
# Velocity S-wave (km/s) = 3.61372 3.72899 3.67181
# Velocity P-wave (km/s) = 6.23206 6.40797 6.32063
#
# Compressibility (1/GPa) = 0.02412974
#
# Stress axis : x y z
#
# Youngs Moduli (GPa) = 85.53793 46.05123 62.98950
#
# Poissons Ratio (x) = 0.27492 0.07667
# Poissons Ratio (y) = 0.51065 0.33944
# Poissons Ratio (z) = 0.10411 0.24816
#
# Static dielectric constant tensor:
#      x y z
#    x 2.319030 0.000000 0.086700 
#    y 0.000000 1.667110 0.000000 
#    z 0.086700 0.000000 1.697850 
# 
# From -- ./inp_files/55776.got.cif
#   From: 2010.05.17/outbox.cif.g08.bks.cpg/sg11_28_cif.got.tgz:55776.got - 2010.06.03 12:22:45.
