data_PCOD9164836
_publ_section_title
;
Structure prediction by ZEFSAII (Michael W. Deem and Ramdas Pophale) SiO2 
 PCOD9164836
Probable space group: P 21/M
;
_chemical_formula_sum "Si O2"
_cell_formula_units_Z 32
_cell_length_a 13.043426
_cell_length_b 13.798295
_cell_length_c 18.587329
_cell_angle_alpha 90.000000
_cell_angle_beta 152.433428
_cell_angle_gamma 90.000000
_cell_volume 1548.130826
_symmetry_space_group_name_H-M "P 21/M"
_symmetry_group_IT_number 11
_symmetry_cell_setting 'monoclinic'
loop_
_space_group_symop_operation_xyz
x,y,z
-x,1/2+y,-z
-x,-y,-z
x,1/2-y,z
loop_
_atom_site_type_symbol
_atom_site_label
_atom_site_fract_x
_atom_site_fract_y
_atom_site_fract_z
Si Si1 0.487769 0.867801 0.951861
Si Si2 0.922065 0.368564 0.399340
Si Si3 0.324070 0.041398 0.201203
Si Si4 0.588734 0.636970 0.322320
Si Si5 0.794723 0.134184 0.477545
Si Si6 0.352570 0.864562 0.026491
Si Si7 0.983752 0.504550 0.866690
Si Si8 0.995294 0.866258 0.241163
O O1 0.478037 0.750000 0.946610
O O2 0.290851 0.902085 0.777759
O O3 0.445005 0.898886 0.007358
O O4 0.733067 0.889696 0.076860
O O5 0.918243 0.250000 0.397802
O O6 0.901279 0.400627 0.469142
O O7 0.156763 0.392994 0.509736
O O8 0.536250 0.107250 0.318620
O O9 0.421712 0.932175 0.260160
O O10 0.146120 0.046909 0.026111
O O11 0.201750 0.056368 0.200508
O O12 0.560504 0.750000 0.322469
O O13 0.529678 0.624602 0.201026
O O14 0.817939 0.250000 0.491465
O O15 0.910980 0.101787 0.623291
O O16 0.305600 0.750000 0.991124
O O17 0.133820 0.919769 0.916180
O O18 0.896463 0.425460 0.756368
O O19 0.022296 0.750000 0.250698
#
# Coordination Sequence:
#
# PCOD9164836 Si02
#       8
#     4   4   4   4   4   4   4   4
#     4   9  17  31  54  83 110 137 174 219 267 322
#     4   9  17  31  54  83 110 137 174 219 267 322
#     4  10  22  38  56  80 108 142 186 228 266 314
#     4   9  18  34  55  79 109 142 175 217 270 324
#     4  10  21  37  57  81 110 144 179 219 270 322
#     4   9  18  34  55  79 109 142 175 217 270 324
#     4  10  22  38  56  80 108 142 186 228 266 314
#     4  10  21  37  57  81 110 144 179 219 270 322
#
# _framework density 20.670088
#
# number of rings (size 3 to 8) (size 9 to 14) (size 15 to 20)
#    0.000    2.500    0.000    1.500    0.000    8.000 
#    0.000    2.500    0.000    3.000    0.000    0.000 
#    0.000    0.000    0.000    0.000    0.000    0.000 
#
# Total GULP energy -178802.804808 kJ/mol
# GULP energy per Si atom -5587.587650 kJ/mol
# Density = 2.062304 g / cm^3
# Si number density = 20.670088 Si / 1000 Ang^3
#
#
#
# Elastic Constant Matrix: (Units=GPa)
#
#
# Indices 1 2 3 4 5 6 
#
# 1 75.6266 5.7729 -7.3702 0.0000 2.5353 0.0000
# 2 5.7729 40.8144 -5.0618 0.0000 -13.0017 0.0000
# 3 -7.3702 -5.0618 47.7605 0.0000 -1.0607 0.0000
# 4 0.0000 0.0000 0.0000 25.2239 0.0000 1.2177
# 5 2.5353 -13.0017 -1.0607 0.0000 17.7436 0.0000
# 6 0.0000 0.0000 0.0000 1.2177 0.0000 25.3289
#
#
#
# Elastic Compliance Matrix: (Units=1/GPa)
#
#
# Indices 1 2 3 4 5 6 
#
# 1 0.013758 -0.003036 0.001711 0.000000 -0.004088 0.000000
# 2 -0.003036 0.033379 0.003627 0.000000 0.025109 0.000000
# 3 0.001711 0.003627 0.021669 0.000000 0.003709 0.000000
# 4 0.000000 0.000000 0.000000 0.039737 0.000000 -0.001910
# 5 -0.004088 0.025109 0.003709 0.000000 0.075563 0.000000
# 6 0.000000 0.000000 0.000000 -0.001910 0.000000 0.039572
#
#
# Mechanical properties :
#
#
# Convention : Reuss Voigt Hill
#
# Bulk Modulus (GPa) = 13.62247 16.76481 15.19364
# Shear Modulus (GPa) = 20.52999 25.04999 22.78999
#
# Velocity S-wave (km/s) = 3.15496 3.48501 3.32408
# Velocity P-wave (km/s) = 4.45830 4.93173 4.70098
#
# Compressibility (1/GPa) = 0.07340813
#
# Stress axis : x y z
#
# Youngs Moduli (GPa) = 72.68295 29.95881 46.14989
#
# Poissons Ratio (x) = 0.09096 -0.07894
# Poissons Ratio (y) = 0.22068 -0.16737
# Poissons Ratio (z) = -0.12433 -0.10865
#
# Static dielectric constant tensor:
#      x y z
#    x 1.696330 0.000000 -0.014040 
#    y 0.000000 1.775850 0.000000 
#    z -0.014040 0.000000 1.720620 
# 
# From -- ./inp_files/41663.got.cif
#   From: 2010.05.17/outbox.cif.g08.bks.cpg/sg11_21_cif.got.tgz:41663.got - 2010.06.03 12:22:45.
