data_PCOD9164320
_publ_section_title
;
Structure prediction by ZEFSAII (Michael W. Deem and Ramdas Pophale) SiO2 
 PCOD9164320
Probable space group: P 21/M
;
_chemical_formula_sum "Si O2"
_cell_formula_units_Z 32
_cell_length_a 29.418790
_cell_length_b 8.522864
_cell_length_c 12.402102
_cell_angle_alpha 90.000000
_cell_angle_beta 147.528760
_cell_angle_gamma 90.000000
_cell_volume 1669.474581
_symmetry_space_group_name_H-M "P 21/M"
_symmetry_group_IT_number 11
_symmetry_cell_setting 'monoclinic'
loop_
_space_group_symop_operation_xyz
x,y,z
-x,1/2+y,-z
-x,-y,-z
x,1/2-y,z
loop_
_atom_site_type_symbol
_atom_site_label
_atom_site_fract_x
_atom_site_fract_y
_atom_site_fract_z
Si Si1 0.848673 0.938435 0.953014
Si Si2 0.749856 0.438761 0.144017
Si Si3 0.749022 0.440036 0.394931
Si Si4 0.590501 0.561448 0.215456
Si Si5 0.089276 0.936002 0.141349
Si Si6 0.403526 0.060447 0.311255
Si Si7 0.656267 0.940288 0.573137
Si Si8 0.096228 0.438398 0.695356
O O1 0.855908 0.750000 0.957424
O O2 0.752090 0.986136 0.742260
O O3 0.900673 0.016599 0.962646
O O4 0.872302 0.980008 0.121704
O O5 0.748379 0.250000 0.137204
O O6 0.751323 0.487457 0.273294
O O7 0.834910 0.495895 0.252017
O O8 0.664895 0.500542 0.913598
O O9 0.747767 0.250000 0.394390
O O10 0.665675 0.499990 0.289645
O O11 0.831742 0.495242 0.627722
O O12 0.592968 0.750000 0.218235
O O13 0.603465 0.507406 0.364905
O O14 0.500000 0.500000 0.000000
O O15 0.089760 0.750000 0.152540
O O16 0.000000 0.000000 0.000000
O O17 0.403687 0.250000 0.306530
O O18 0.370921 0.006630 0.363588
O O19 0.500000 0.000000 0.500000
O O20 0.653340 0.750000 0.570810
O O21 0.095926 0.250000 0.683833
O O22 0.000000 0.500000 0.500000
#
# Coordination Sequence:
#
# PCOD9164320 Si02
#       8
#     4   4   4   4   4   4   4   4
#     4  10  20  41  66  88 120 161 202 253 311 365
#     4  11  24  43  64  89 125 168 208 255 313 370
#     4  10  24  44  62  86 125 166 204 253 311 364
#     4  11  23  40  64  92 122 160 203 250 305 366
#     4  11  24  41  63  93 124 161 207 257 307 367
#     4  11  23  42  64  93 126 164 208 254 310 371
#     4   9  19  39  64  86 118 159 198 247 309 362
#     4  11  24  42  65  93 126 163 206 257 312 373
#
# _framework density 19.167707
#
# number of rings (size 3 to 8) (size 9 to 14) (size 15 to 20)
#    0.000    1.500    2.500    1.875    3.500    2.500 
#    0.000    1.875    0.000    0.000    0.000    0.000 
#    0.000    0.000    0.000    0.000    0.000    0.000 
#
# Total GULP energy -178676.894668 kJ/mol
# GULP energy per Si atom -5583.652958 kJ/mol
# Density = 1.912408 g / cm^3
# Si number density = 19.167707 Si / 1000 Ang^3
#
#
#
# Elastic Constant Matrix: (Units=GPa)
#
#
# Indices 1 2 3 4 5 6 
#
# 1 104.6733 23.5509 12.1331 0.0000 -0.9959 0.0000
# 2 23.5509 31.1337 19.7112 0.0000 -5.5086 0.0000
# 3 12.1331 19.7112 81.1788 0.0000 0.2011 0.0000
# 4 0.0000 0.0000 0.0000 33.8983 0.0000 3.9305
# 5 -0.9959 -5.5086 0.2011 0.0000 38.1662 0.0000
# 6 0.0000 0.0000 0.0000 3.9305 0.0000 35.5981
#
#
#
# Elastic Compliance Matrix: (Units=1/GPa)
#
#
# Indices 1 2 3 4 5 6 
#
# 1 0.011568 -0.009265 0.000523 0.000000 -0.001038 0.000000
# 2 -0.009265 0.046578 -0.009941 0.000000 0.006533 0.000000
# 3 0.000523 -0.009941 0.014658 0.000000 -0.001498 0.000000
# 4 0.000000 0.000000 0.000000 0.029883 0.000000 -0.003299
# 5 -0.001038 0.006533 -0.001498 0.000000 0.027125 0.000000
# 6 0.000000 0.000000 0.000000 -0.003299 0.000000 0.028456
#
#
# Mechanical properties :
#
#
# Convention : Reuss Voigt Hill
#
# Bulk Modulus (GPa) = 28.21875 36.41959 32.31917
# Shear Modulus (GPa) = 24.10274 32.30521 28.20398
#
# Velocity S-wave (km/s) = 3.54992 4.10981 3.84009
# Velocity P-wave (km/s) = 5.61753 6.44690 6.04645
#
# Compressibility (1/GPa) = 0.03543743
#
# Stress axis : x y z
#
# Youngs Moduli (GPa) = 86.44812 21.46933 68.22312
#
# Poissons Ratio (x) = 0.19892 -0.03571
# Poissons Ratio (y) = 0.80097 0.67821
# Poissons Ratio (z) = -0.04525 0.21343
#
# Static dielectric constant tensor:
#      x y z
#    x 1.436250 0.000000 0.236310 
#    y 0.000000 1.658330 0.000000 
#    z 0.236310 0.000000 1.417190 
# 
# From -- ./inp_files/45242.got.cif
#   From: 2010.05.17/outbox.cif.g08.bks.cpg/sg11_23_cif.got.tgz:45242.got - 2010.06.03 12:22:45.
