data_PCOD9164612
_publ_section_title
;
Structure prediction by ZEFSAII (Michael W. Deem and Ramdas Pophale) SiO2 
 PCOD9164612
Probable space group: P 21/M
;
_chemical_formula_sum "Si O2"
_cell_formula_units_Z 32
_cell_length_a 14.236143
_cell_length_b 26.812941
_cell_length_c 8.701988
_cell_angle_alpha 90.000000
_cell_angle_beta 34.624956
_cell_angle_gamma 90.000000
_cell_volume 1887.375011
_symmetry_space_group_name_H-M "P 21/M"
_symmetry_group_IT_number 11
_symmetry_cell_setting 'monoclinic'
loop_
_space_group_symop_operation_xyz
x,y,z
-x,1/2+y,-z
-x,-y,-z
x,1/2-y,z
loop_
_atom_site_type_symbol
_atom_site_label
_atom_site_fract_x
_atom_site_fract_y
_atom_site_fract_z
Si Si1 0.556004 0.106723 0.579426
Si Si2 0.876823 0.117760 0.937670
Si Si3 0.891027 0.532149 0.264795
Si Si4 0.971746 0.809129 0.029003
Si Si5 0.671792 0.883660 0.399427
Si Si6 0.651478 0.368616 0.955866
Si Si7 0.310425 0.807983 0.394457
Si Si8 0.631163 0.461973 0.757695
O O1 0.405208 0.106536 0.664460
O O2 0.575012 0.157557 0.651850
O O3 0.561385 0.062808 0.695921
O O4 0.720952 0.103432 0.254459
O O5 0.801557 0.130479 0.874279
O O6 0.000193 0.071034 0.783051
O O7 0.962493 0.165362 0.902542
O O8 0.762010 0.567309 0.345615
O O9 0.794400 0.492702 0.498201
O O10 0.000000 0.500000 0.000000
O O11 0.944392 0.750000 0.080010
O O12 0.807693 0.839852 0.208219
O O13 0.121041 0.817267 0.705567
O O14 0.519725 0.869030 0.717198
O O15 0.664321 0.324317 0.815215
O O16 0.659448 0.418200 0.841376
O O17 0.345257 0.750000 0.370649
O O18 0.500000 0.500000 0.000000
#
# Coordination Sequence:
#
# PCOD9164612 Si02
#       8
#     4   4   4   4   4   4   4   4
#     4   9  19  36  57  78 107 141 180 221 260 317
#     4   9  19  36  56  80 105 140 184 217 259 320
#     4  11  21  36  57  78 107 146 183 216 263 320
#     4   9  19  37  58  79 107 140 176 219 265 318
#     4  10  21  36  56  82 106 140 184 222 259 314
#     4  10  21  36  55  81 111 138 177 224 267 315
#     4   9  19  37  58  80 108 140 172 217 274 321
#     4  11  21  36  53  80 113 142 175 222 272 310
#
# _framework density 16.954764000000001
#
# number of rings (size 3 to 8) (size 9 to 14) (size 15 to 20)
#    0.000    2.250    2.500    0.000    1.750    3.500 
#    2.250    2.500    0.000    0.000    0.000    0.000 
#    0.000    0.000    0.000    0.000    0.000    0.000 
#
# Total GULP energy -178449.212699 kJ/mol
# GULP energy per Si atom -5576.537897 kJ/mol
# Density = 1.691617 g / cm^3
# Si number density = 16.954764 Si / 1000 Ang^3
#
#
#
# Elastic Constant Matrix: (Units=GPa)
#
#
# Indices 1 2 3 4 5 6 
#
# 1 113.8905 16.6524 21.1510 0.0000 -4.9681 0.0000
# 2 16.6524 66.7437 18.7417 0.0000 -4.2854 0.0000
# 3 21.1510 18.7417 52.0990 0.0000 1.3491 0.0000
# 4 0.0000 0.0000 0.0000 34.1580 0.0000 -1.0313
# 5 -4.9681 -4.2854 1.3491 0.0000 26.2876 0.0000
# 6 0.0000 0.0000 0.0000 -1.0313 0.0000 5.9859
#
#
#
# Elastic Compliance Matrix: (Units=1/GPa)
#
#
# Indices 1 2 3 4 5 6 
#
# 1 0.009704 -0.001320 -0.003511 0.000000 0.001799 0.000000
# 2 -0.001320 0.017090 -0.005685 0.000000 0.002828 0.000000
# 3 -0.003511 -0.005685 0.022736 0.000000 -0.002757 0.000000
# 4 0.000000 0.000000 0.000000 0.029429 0.000000 0.005070
# 5 0.001799 0.002828 -0.002757 0.000000 0.038983 0.000000
# 6 0.000000 0.000000 0.000000 0.005070 0.000000 0.167932
#
#
# Mechanical properties :
#
#
# Convention : Reuss Voigt Hill
#
# Bulk Modulus (GPa) = 35.09073 38.42480 36.75776
# Shear Modulus (GPa) = 15.80249 25.03218 20.41733
#
# Velocity S-wave (km/s) = 3.05624 3.84658 3.47396
# Velocity P-wave (km/s) = 5.76158 6.51464 6.14965
#
# Compressibility (1/GPa) = 0.02849755
#
# Stress axis : x y z
#
# Youngs Moduli (GPa) = 103.05129 58.51384 43.98233
#
# Poissons Ratio (x) = 0.07721 0.15444
# Poissons Ratio (y) = 0.13598 0.25005
# Poissons Ratio (z) = 0.36186 0.33267
#
# Static dielectric constant tensor:
#      x y z
#    x 1.556560 0.000000 -0.003690 
#    y 0.000000 1.560020 0.000000 
#    z -0.003690 0.000000 1.560100 
# 
# From -- ./inp_files/15086.got.cif
#   From: 2010.05.17/outbox.cif.g08.bks.cpg/sg11_8_cif.got.tgz:15086.got - 2010.06.03 12:22:45.
