data_PCOD9164079
_publ_section_title
;
Structure prediction by ZEFSAII (Michael W. Deem and Ramdas Pophale) SiO2 
 PCOD9164079
Probable space group: P 21/M
;
_chemical_formula_sum "Si O2"
_cell_formula_units_Z 30
_cell_length_a 10.487613
_cell_length_b 14.789504
_cell_length_c 14.969852
_cell_angle_alpha 90.000000
_cell_angle_beta 34.216687
_cell_angle_gamma 90.000000
_cell_volume 1305.673442
_symmetry_space_group_name_H-M "P 21/M"
_symmetry_group_IT_number 11
_symmetry_cell_setting 'monoclinic'
loop_
_space_group_symop_operation_xyz
x,y,z
-x,1/2+y,-z
-x,-y,-z
x,1/2-y,z
loop_
_atom_site_type_symbol
_atom_site_label
_atom_site_fract_x
_atom_site_fract_y
_atom_site_fract_z
Si Si1 0.163318 0.750000 0.943477
Si Si2 0.300864 0.850820 0.418046
Si Si3 0.742923 0.926406 0.087977
Si Si4 0.472909 0.938482 0.929284
Si Si5 0.239859 0.586888 0.785518
Si Si6 0.977950 0.153986 0.810185
Si Si7 0.161590 0.357337 0.414213
Si Si8 0.293330 0.036010 0.520121
O O1 0.303032 0.669794 0.813146
O O2 0.021979 0.672948 0.084247
O O3 0.266852 0.750000 0.474780
O O4 0.546862 0.857203 0.228875
O O5 0.102335 0.868041 0.460463
O O6 0.286642 0.930898 0.498445
O O7 0.639879 0.994280 0.075948
O O8 0.775045 0.992079 0.154133
O O9 0.979957 0.888544 0.912586
O O10 0.690805 0.896005 0.754478
O O11 0.287135 0.861193 0.056508
O O12 0.500000 0.000000 0.000000
O O13 0.456437 0.571205 0.598088
O O14 0.056006 0.250000 0.723379
O O15 0.117530 0.069762 0.695571
O O16 0.204753 0.250000 0.398805
O O17 0.221622 0.413086 0.468763
#
# Coordination Sequence:
#
# PCOD9164079 Si02
#       8
#     2   4   4   4   4   4   4   4
#     4  10  20  38  66  96 130 160 214 278 332 376
#     4  10  22  38  59  91 128 166 226 271 319 384
#     4  10  21  41  62  95 121 169 224 257 328 392
#     4  12  23  39  64  91 138 175 211 273 338 390
#     4  10  21  38  70  91 125 166 216 276 311 395
#     4  10  22  37  60 102 132 160 214 272 334 388
#     4  11  22  38  64  92 125 172 224 263 322 396
#     4  11  21  38  66  96 128 168 221 273 330 388
#
# _framework density 22.976648999999998
#
# number of rings (size 3 to 8) (size 9 to 14) (size 15 to 20)
#    0.400    1.067    4.000    2.000    6.533    0.000 
#    0.000    1.333    2.933    0.800    0.000    0.000 
#    0.000    0.000    0.000    0.000    0.000    0.000 
#
# Total GULP energy -167051.118354 kJ/mol
# GULP energy per Si atom -5568.370612 kJ/mol
# Density = 2.292435 g / cm^3
# Si number density = 22.976649 Si / 1000 Ang^3
#
#
#
# Elastic Constant Matrix: (Units=GPa)
#
#
# Indices 1 2 3 4 5 6 
#
# 1 54.0857 29.8352 26.0551 0.0000 -7.6304 0.0000
# 2 29.8352 131.9395 35.8266 0.0000 4.9658 0.0000
# 3 26.0551 35.8266 121.8900 0.0000 -18.1164 0.0000
# 4 0.0000 0.0000 0.0000 38.8884 0.0000 -2.2982
# 5 -7.6304 4.9658 -18.1164 0.0000 33.9931 0.0000
# 6 0.0000 0.0000 0.0000 -2.2982 0.0000 2.2363
#
#
#
# Elastic Compliance Matrix: (Units=1/GPa)
#
#
# Indices 1 2 3 4 5 6 
#
# 1 0.023030 -0.004568 -0.002946 0.000000 0.004267 0.000000
# 2 -0.004568 0.009379 -0.002320 0.000000 -0.003632 0.000000
# 3 -0.002946 -0.002320 0.010282 0.000000 0.005158 0.000000
# 4 0.000000 0.000000 0.000000 0.027377 0.000000 0.028135
# 5 0.004267 -0.003632 0.005158 0.000000 0.033655 0.000000
# 6 0.000000 0.000000 0.000000 0.028135 0.000000 0.476085
#
#
# Mechanical properties :
#
#
# Convention : Reuss Voigt Hill
#
# Bulk Modulus (GPa) = 43.43516 54.59434 49.01475
# Shear Modulus (GPa) = 8.23517 29.43676 18.83597
#
# Velocity S-wave (km/s) = 1.89524 3.58321 2.86630
# Velocity P-wave (km/s) = 4.87179 6.39778 5.68621
#
# Compressibility (1/GPa) = 0.02302282
#
# Stress axis : x y z
#
# Youngs Moduli (GPa) = 43.42076 106.62168 97.25436
#
# Poissons Ratio (x) = 0.48710 0.28651
# Poissons Ratio (y) = 0.19837 0.22563
# Poissons Ratio (z) = 0.12792 0.24736
#
# Static dielectric constant tensor:
#      x y z
#    x 1.985680 0.000000 -0.021730 
#    y 0.000000 1.843520 0.000000 
#    z -0.021730 0.000000 1.889240 
# 
# From -- ./inp_files/59374.got.cif
#   From: 2010.05.17/outbox.cif.g08.bks.cpg/sg11_30_cif.got.tgz:59374.got - 2010.06.03 12:22:45.
