data_PCOD9164588
_publ_section_title
;
Structure prediction by ZEFSAII (Michael W. Deem and Ramdas Pophale) SiO2 
 PCOD9164588
Probable space group: P 21/M
;
_chemical_formula_sum "Si O2"
_cell_formula_units_Z 28
_cell_length_a 14.537501
_cell_length_b 12.907049
_cell_length_c 13.001197
_cell_angle_alpha 90.000000
_cell_angle_beta 30.667945
_cell_angle_gamma 90.000000
_cell_volume 1244.293516
_symmetry_space_group_name_H-M "P 21/M"
_symmetry_group_IT_number 11
_symmetry_cell_setting 'monoclinic'
loop_
_space_group_symop_operation_xyz
x,y,z
-x,1/2+y,-z
-x,-y,-z
x,1/2-y,z
loop_
_atom_site_type_symbol
_atom_site_label
_atom_site_fract_x
_atom_site_fract_y
_atom_site_fract_z
Si Si1 0.869859 0.871283 0.529997
Si Si2 0.484150 0.869028 0.833423
Si Si3 0.047134 0.078573 0.131385
Si Si4 0.680658 0.076547 0.411886
Si Si5 0.197447 0.637991 0.930673
Si Si6 0.311069 0.363010 0.706252
Si Si7 0.205933 0.473439 0.182031
O O1 0.918653 0.750000 0.479723
O O2 0.697186 0.889150 0.622719
O O3 0.040843 0.943485 0.343629
O O4 0.800241 0.905300 0.709935
O O5 0.464678 0.750000 0.892518
O O6 0.373286 0.871433 0.833755
O O7 0.384501 0.957297 0.995855
O O8 0.836449 0.103347 0.341984
O O9 0.160996 0.094944 0.124653
O O10 0.135281 0.131202 0.946742
O O11 0.070393 0.956840 0.081585
O O12 0.740476 0.127296 0.245904
O O13 0.478512 0.114177 0.622662
O O14 0.681365 0.955063 0.382695
O O15 0.113006 0.750000 0.030854
O O16 0.330634 0.250000 0.640975
#
# Coordination Sequence:
#
# PCOD9164588 Si02
#       7
#     4   4   4   4   4   4   4
#     4  10  21  37  58  82 106 138 178 220 273 327
#     4   9  18  34  57  84 111 140 178 224 271 317
#     4  10  22  36  54  80 110 144 180 219 265 320
#     4  10  21  36  53  80 113 144 183 223 260 309
#     4   9  17  32  55  81 109 142 181 223 265 310
#     4  10  21  36  54  76 107 147 186 223 263 310
#     4  10  21  37  57  80 110 141 175 223 270 320
#
# _framework density 22.502728000000001
#
# number of rings (size 3 to 8) (size 9 to 14) (size 15 to 20)
#    0.000    2.286    0.000    3.000    0.000    8.571 
#    0.000    1.429    0.000    0.000    0.000    0.000 
#    0.000    0.000    0.000    0.000    0.000    0.000 
#
# Total GULP energy -156516.795931 kJ/mol
# GULP energy per Si atom -5589.885569 kJ/mol
# Density = 2.245151 g / cm^3
# Si number density = 22.502728 Si / 1000 Ang^3
#
#
#
# Elastic Constant Matrix: (Units=GPa)
#
#
# Indices 1 2 3 4 5 6 
#
# 1 49.9385 6.3986 9.3310 0.0000 -11.5932 0.0000
# 2 6.3986 73.4330 4.4475 0.0000 -4.6410 0.0000
# 3 9.3310 4.4475 58.1361 0.0000 -22.5618 0.0000
# 4 0.0000 0.0000 0.0000 5.4841 0.0000 -0.6960
# 5 -11.5932 -4.6410 -22.5618 0.0000 44.3126 0.0000
# 6 0.0000 0.0000 0.0000 -0.6960 0.0000 6.4217
#
#
#
# Elastic Compliance Matrix: (Units=1/GPa)
#
#
# Indices 1 2 3 4 5 6 
#
# 1 0.021595 -0.001491 -0.001520 0.000000 0.004720 0.000000
# 2 -0.001491 0.013829 -0.000508 0.000000 0.000799 0.000000
# 3 -0.001520 -0.000508 0.021571 0.000000 0.010532 0.000000
# 4 0.000000 0.000000 0.000000 0.184888 0.000000 0.020038
# 5 0.004720 0.000799 0.010532 0.000000 0.029248 0.000000
# 6 0.000000 0.000000 0.000000 0.020038 0.000000 0.157895
#
#
# Mechanical properties :
#
#
# Convention : Reuss Voigt Hill
#
# Bulk Modulus (GPa) = 20.01783 24.65132 22.33457
# Shear Modulus (GPa) = 11.04440 21.99904 16.52172
#
# Velocity S-wave (km/s) = 2.21781 3.13008 2.71257
# Velocity P-wave (km/s) = 3.93361 4.90324 4.44494
#
# Compressibility (1/GPa) = 0.04995546
#
# Stress axis : x y z
#
# Youngs Moduli (GPa) = 46.30602 72.31119 46.35798
#
# Poissons Ratio (x) = 0.10784 0.07049
# Poissons Ratio (y) = 0.06906 0.02357
# Poissons Ratio (z) = 0.07041 0.03676
#
# Static dielectric constant tensor:
#      x y z
#    x 1.835910 0.000000 -0.015320 
#    y 0.000000 1.867580 0.000000 
#    z -0.015320 0.000000 1.830830 
# 
# From -- ./inp_files/52432.got.cif
#   From: 2010.05.17/outbox.cif.g08.bks.cpg/sg11_27_cif.got.tgz:52432.got - 2010.06.03 12:22:45.
