data_PCOD9164177
_publ_section_title
;
Structure prediction by ZEFSAII (Michael W. Deem and Ramdas Pophale) SiO2 
 PCOD9164177
Probable space group: P 21/M
;
_chemical_formula_sum "Si O2"
_cell_formula_units_Z 30
_cell_length_a 14.790399
_cell_length_b 12.014494
_cell_length_c 7.998360
_cell_angle_alpha 90.000000
_cell_angle_beta 66.844678
_cell_angle_gamma 90.000000
_cell_volume 1306.804970
_symmetry_space_group_name_H-M "P 21/M"
_symmetry_group_IT_number 11
_symmetry_cell_setting 'monoclinic'
loop_
_space_group_symop_operation_xyz
x,y,z
-x,1/2+y,-z
-x,-y,-z
x,1/2-y,z
loop_
_atom_site_type_symbol
_atom_site_label
_atom_site_fract_x
_atom_site_fract_y
_atom_site_fract_z
Si Si1 0.422535 0.118509 0.813938
Si Si2 0.858991 0.250000 0.451613
Si Si3 0.114712 0.125263 0.729707
Si Si4 0.724927 0.468824 0.542728
Si Si5 0.430845 0.882388 0.595757
Si Si6 0.208863 0.375222 0.027125
Si Si7 0.014829 0.047031 0.306151
Si Si8 0.442644 0.381078 0.173070
O O1 0.403200 0.250000 0.803749
O O2 0.481527 0.093932 0.601916
O O3 0.314324 0.069856 0.923874
O O4 0.474865 0.109168 0.956100
O O5 0.778127 0.352337 0.553639
O O6 0.943108 0.152997 0.341131
O O7 0.095775 0.250000 0.681774
O O8 0.193591 0.060291 0.561087
O O9 0.158164 0.130794 0.883079
O O10 0.018211 0.050235 0.795174
O O11 0.664524 0.438590 0.416879
O O12 0.645907 0.534123 0.716821
O O13 0.411651 0.750000 0.600553
O O14 0.470003 0.901134 0.756297
O O15 0.222425 0.250000 0.083323
O O16 0.129561 0.431624 0.200746
O O17 0.000000 0.000000 0.500000
O O18 0.412693 0.250000 0.219499
#
# Coordination Sequence:
#
# PCOD9164177 Si02
#       8
#     4   2   4   4   4   4   4   4
#     4   9  20  36  59  96 130 167 220 266 319 383
#     4  10  24  42  60  98 126 172 218 260 342 398
#     4  10  23  40  66  99 125 165 225 269 326 394
#     4  11  21  39  65  91 130 176 214 266 328 394
#     4  10  20  39  64  91 134 179 218 266 328 386
#     4  10  20  40  64  94 132 169 213 273 326 384
#     4  11  24  41  69  95 132 167 213 270 335 406
#     4  10  21  36  61  96 128 166 227 271 317 382
#
# _framework density 22.956754
#
# number of rings (size 3 to 8) (size 9 to 14) (size 15 to 20)
#    0.000    1.867    1.333    2.000    4.667    2.667 
#    0.000    0.000    0.000    0.000    0.000    0.000 
#    0.000    0.000    0.000    0.000    0.000    0.000 
#
# Total GULP energy -167026.292783 kJ/mol
# GULP energy per Si atom -5567.543093 kJ/mol
# Density = 2.290450 g / cm^3
# Si number density = 22.956754 Si / 1000 Ang^3
#
#
#
# Elastic Constant Matrix: (Units=GPa)
#
#
# Indices 1 2 3 4 5 6 
#
# 1 85.1070 32.4686 37.9178 0.0000 -7.2804 0.0000
# 2 32.4686 151.6392 44.4125 0.0000 -9.7725 0.0000
# 3 37.9178 44.4125 106.6585 0.0000 -4.2361 0.0000
# 4 0.0000 0.0000 0.0000 31.8072 0.0000 6.2604
# 5 -7.2804 -9.7725 -4.2361 0.0000 38.8223 0.0000
# 6 0.0000 0.0000 0.0000 6.2604 0.0000 85.5551
#
#
#
# Elastic Compliance Matrix: (Units=1/GPa)
#
#
# Indices 1 2 3 4 5 6 
#
# 1 0.014505 -0.001708 -0.004373 0.000000 0.001813 0.000000
# 2 -0.001708 0.007806 -0.002589 0.000000 0.001362 0.000000
# 3 -0.004373 -0.002589 0.012002 0.000000 -0.000162 0.000000
# 4 0.000000 0.000000 0.000000 0.031899 0.000000 -0.002334
# 5 0.001813 0.001362 -0.000162 0.000000 0.026424 0.000000
# 6 0.000000 0.000000 0.000000 -0.002334 0.000000 0.011859
#
#
# Mechanical properties :
#
#
# Convention : Reuss Voigt Hill
#
# Bulk Modulus (GPa) = 58.91955 63.66696 61.29326
# Shear Modulus (GPa) = 39.21742 46.47731 42.84736
#
# Velocity S-wave (km/s) = 4.13766 4.50439 4.32492
# Velocity P-wave (km/s) = 6.96765 7.40583 7.19008
#
# Compressibility (1/GPa) = 0.01697229
#
# Stress axis : x y z
#
# Youngs Moduli (GPa) = 68.94113 128.09877 83.31789
#
# Poissons Ratio (x) = 0.21880 0.36438
# Poissons Ratio (y) = 0.11776 0.21573
# Poissons Ratio (z) = 0.30151 0.33168
#
# Static dielectric constant tensor:
#      x y z
#    x 1.945550 0.000000 0.056440 
#    y 0.000000 2.001360 0.000000 
#    z 0.056440 0.000000 1.899160 
# 
# From -- ./inp_files/21318.got.cif
#   From: 2010.05.17/outbox.cif.g08.bks.cpg/sg11_11_cif.got.tgz:21318.got - 2010.06.03 12:22:45.
