data_PCOD9164857
_publ_section_title
;
Structure prediction by ZEFSAII (Michael W. Deem and Ramdas Pophale) SiO2 
 PCOD9164857
Probable space group: P 21/M
;
_chemical_formula_sum "Si O2"
_cell_formula_units_Z 28
_cell_length_a 11.139433
_cell_length_b 8.918169
_cell_length_c 15.300679
_cell_angle_alpha 90.000000
_cell_angle_beta 66.903067
_cell_angle_gamma 90.000000
_cell_volume 1398.179590
_symmetry_space_group_name_H-M "P 21/M"
_symmetry_group_IT_number 11
_symmetry_cell_setting 'monoclinic'
loop_
_space_group_symop_operation_xyz
x,y,z
-x,1/2+y,-z
-x,-y,-z
x,1/2-y,z
loop_
_atom_site_type_symbol
_atom_site_label
_atom_site_fract_x
_atom_site_fract_y
_atom_site_fract_z
Si Si1 0.607392 0.427658 0.151804
Si Si2 0.645800 0.568944 0.457998
Si Si3 0.321592 0.422458 0.044328
Si Si4 0.794579 0.571530 0.237842
Si Si5 0.855271 0.567896 0.550473
Si Si6 0.319430 0.069039 0.241499
Si Si7 0.982365 0.580624 0.912869
O O1 0.629712 0.250000 0.148094
O O2 0.714624 0.513856 0.176909
O O3 0.465541 0.459578 0.233759
O O4 0.610029 0.482526 0.050811
O O5 0.500000 0.500000 0.500000
O O6 0.632022 0.750000 0.465163
O O7 0.718238 0.526689 0.346992
O O8 0.747358 0.527197 0.506883
O O9 0.372323 0.250000 0.030410
O O10 0.319927 0.487854 0.142343
O O11 0.169891 0.415925 0.062701
O O12 0.803639 0.750000 0.233091
O O13 0.937233 0.501635 0.185740
O O14 0.865481 0.750000 0.546269
O O15 0.790966 0.517605 0.660722
O O16 0.000000 0.500000 0.500000
O O17 0.304945 0.250000 0.238966
O O18 0.032323 0.750000 0.905435
O O19 0.000000 0.500000 0.000000
#
# Coordination Sequence:
#
# PCOD9164857 Si02
#       7
#     4   4   4   4   4   4   4
#     4  11  21  36  60  88 116 153 195 238 291 352
#     4  10  23  42  65  93 124 160 205 259 310 362
#     4  10  21  37  57  83 117 154 190 235 290 349
#     4  11  23  38  58  85 121 157 194 244 296 349
#     4  10  22  42  64  89 122 158 202 254 304 362
#     4   9  20  38  60  84 115 153 192 236 291 353
#     4  11  22  36  57  84 117 155 196 240 291 349
#
# _framework density 20.026039000000001
#
# number of rings (size 3 to 8) (size 9 to 14) (size 15 to 20)
#    0.000    1.714    1.429    2.571    2.000    3.429 
#    0.000    2.857    0.000    0.000    0.000    0.000 
#    0.000    0.000    0.000    0.000    0.000    0.000 
#
# Total GULP energy -156326.432295 kJ/mol
# GULP energy per Si atom -5583.086868 kJ/mol
# Density = 1.998046 g / cm^3
# Si number density = 20.026039 Si / 1000 Ang^3
#
#
#
# Elastic Constant Matrix: (Units=GPa)
#
#
# Indices 1 2 3 4 5 6 
#
# 1 92.1740 20.3879 50.6005 0.0000 -13.2224 0.0000
# 2 20.3879 49.2412 35.3813 0.0000 -12.1131 0.0000
# 3 50.6005 35.3813 142.0336 0.0000 -24.2183 0.0000
# 4 0.0000 0.0000 0.0000 24.8246 0.0000 -12.4584
# 5 -13.2224 -12.1131 -24.2183 0.0000 40.4902 0.0000
# 6 0.0000 0.0000 0.0000 -12.4584 0.0000 22.0735
#
#
#
# Elastic Compliance Matrix: (Units=1/GPa)
#
#
# Indices 1 2 3 4 5 6 
#
# 1 0.013828 -0.002461 -0.004085 0.000000 0.001336 0.000000
# 2 -0.002461 0.025812 -0.004870 0.000000 0.004005 0.000000
# 3 -0.004085 -0.004870 0.010282 0.000000 0.003359 0.000000
# 4 0.000000 0.000000 0.000000 0.056202 0.000000 0.031721
# 5 0.001336 0.004005 0.003359 0.000000 0.028341 0.000000
# 6 0.000000 0.000000 0.000000 0.031721 0.000000 0.063206
#
#
# Mechanical properties :
#
#
# Convention : Reuss Voigt Hill
#
# Bulk Modulus (GPa) = 36.91654 55.13200 46.02427
# Shear Modulus (GPa) = 21.78331 29.28293 25.53312
#
# Velocity S-wave (km/s) = 3.30168 3.82808 3.57458
# Velocity P-wave (km/s) = 5.74535 6.86504 6.33000
#
# Compressibility (1/GPa) = 0.02708813
#
# Stress axis : x y z
#
# Youngs Moduli (GPa) = 72.31810 38.74192 97.25804
#
# Poissons Ratio (x) = 0.09535 0.39734
# Poissons Ratio (y) = 0.17799 0.47366
# Poissons Ratio (z) = 0.29545 0.18868
#
# Static dielectric constant tensor:
#      x y z
#    x 1.725960 0.000000 0.008980 
#    y 0.000000 1.686310 0.000000 
#    z 0.008980 0.000000 1.710270 
# 
# From -- ./inp_files/37901.got.cif
#   From: 2010.05.17/outbox.cif.g08.bks.cpg/sg11_19_cif.got.tgz:37901.got - 2010.06.03 12:22:45.
