data_PCOD9164347
_publ_section_title
;
Structure prediction by ZEFSAII (Michael W. Deem and Ramdas Pophale) SiO2 
 PCOD9164347
Probable space group: P 21/M
;
_chemical_formula_sum "Si O2"
_cell_formula_units_Z 28
_cell_length_a 5.188346
_cell_length_b 13.144998
_cell_length_c 18.968806
_cell_angle_alpha 90.000000
_cell_angle_beta 120.421309
_cell_angle_gamma 90.000000
_cell_volume 1115.579778
_symmetry_space_group_name_H-M "P 21/M"
_symmetry_group_IT_number 11
_symmetry_cell_setting 'monoclinic'
loop_
_space_group_symop_operation_xyz
x,y,z
-x,1/2+y,-z
-x,-y,-z
x,1/2-y,z
loop_
_atom_site_type_symbol
_atom_site_label
_atom_site_fract_x
_atom_site_fract_y
_atom_site_fract_z
Si Si1 0.709623 0.128201 0.506044
Si Si2 0.839091 0.523938 0.716550
Si Si3 0.402953 0.428287 0.827189
Si Si4 0.656682 0.866383 0.340707
Si Si5 0.029718 0.371799 0.406015
Si Si6 0.274490 0.361853 0.166220
Si Si7 0.753832 0.071387 0.002059
O O1 0.694377 0.250000 0.508611
O O2 0.003694 0.103843 0.592557
O O3 0.806743 0.104951 0.439007
O O4 0.369226 0.097314 0.475322
O O5 0.580525 0.445012 0.660653
O O6 0.009430 0.573369 0.674226
O O7 0.733896 0.615693 0.751582
O O8 0.059602 0.455244 0.795291
O O9 0.392761 0.373687 0.750334
O O10 0.547827 0.540850 0.838544
O O11 0.581995 0.373605 0.913977
O O12 0.607346 0.750000 0.358225
O O13 0.021000 0.250000 0.394391
O O14 0.401472 0.250000 0.168915
O O15 0.942361 0.367087 0.085825
O O16 0.500000 0.000000 0.000000
O O17 0.000000 0.000000 0.000000
#
# Coordination Sequence:
#
# PCOD9164347 Si02
#       7
#     4   4   4   4   4   4   4
#     4   9  21  41  62  89 128 172 218 271 323 386
#     4  11  23  39  63  95 129 170 211 273 326 393
#     4  10  23  41  65  94 132 169 211 271 325 385
#     4  10  24  43  63  88 123 172 226 276 329 384
#     4  10  22  39  62  93 131 170 212 266 329 394
#     4  10  22  40  65  97 131 172 213 258 323 390
#     4  10  20  42  66  90 130 170 210 258 313 377
#
# _framework density 25.099056000000001
#
# number of rings (size 3 to 8) (size 9 to 14) (size 15 to 20)
#    0.000    2.000    1.429    0.429    6.000    3.429 
#    0.000    0.000    0.000    0.000    0.000    0.000 
#    0.000    0.000    0.000    0.000    0.000    0.000 
#
# Total GULP energy -156647.458000 kJ/mol
# GULP energy per Si atom -5594.552071 kJ/mol
# Density = 2.504193 g / cm^3
# Si number density = 25.099056 Si / 1000 Ang^3
#
#
#
# Elastic Constant Matrix: (Units=GPa)
#
#
# Indices 1 2 3 4 5 6 
#
# 1 97.8719 9.5987 21.7359 0.0000 14.2968 0.0000
# 2 9.5987 114.3097 20.8436 0.0000 10.1857 0.0000
# 3 21.7359 20.8436 151.7296 0.0000 22.4857 0.0000
# 4 0.0000 0.0000 0.0000 20.8635 0.0000 5.4478
# 5 14.2968 10.1857 22.4857 0.0000 49.4408 0.0000
# 6 0.0000 0.0000 0.0000 5.4478 0.0000 16.8284
#
#
#
# Elastic Compliance Matrix: (Units=1/GPa)
#
#
# Indices 1 2 3 4 5 6 
#
# 1 0.010884 -0.000484 -0.001116 0.000000 -0.002540 0.000000
# 2 -0.000484 0.009083 -0.000988 0.000000 -0.001282 0.000000
# 3 -0.001116 -0.000988 0.007300 0.000000 -0.002794 0.000000
# 4 0.000000 0.000000 0.000000 0.052356 0.000000 -0.016949
# 5 -0.002540 -0.001282 -0.002794 0.000000 0.022495 0.000000
# 6 0.000000 0.000000 0.000000 -0.016949 0.000000 0.064910
#
#
# Mechanical properties :
#
#
# Convention : Reuss Voigt Hill
#
# Bulk Modulus (GPa) = 45.26965 52.02974 48.64969
# Shear Modulus (GPa) = 27.84425 38.20874 33.02650
#
# Velocity S-wave (km/s) = 3.33434 3.90592 3.63139
# Velocity P-wave (km/s) = 5.73579 6.41221 6.08341
#
# Compressibility (1/GPa) = 0.02208986
#
# Stress axis : x y z
#
# Youngs Moduli (GPa) = 91.87935 110.09249 136.97873
#
# Poissons Ratio (x) = 0.05329 0.15290
# Poissons Ratio (y) = 0.04448 0.13540
# Poissons Ratio (z) = 0.10256 0.10883
#
# Static dielectric constant tensor:
#      x y z
#    x 1.988170 0.000000 0.015080 
#    y 0.000000 1.984990 0.000000 
#    z 0.015080 0.000000 2.062050 
# 
# From -- ./inp_files/57000.got.cif
#   From: 2010.05.17/outbox.cif.g08.bks.cpg/sg11_29_cif.got.tgz:57000.got - 2010.06.03 12:22:45.
