data_PCOD9164335
_publ_section_title
;
Structure prediction by ZEFSAII (Michael W. Deem and Ramdas Pophale) SiO2 
 PCOD9164335
Probable space group: P 21/M
;
_chemical_formula_sum "Si O2"
_cell_formula_units_Z 26
_cell_length_a 14.750178
_cell_length_b 13.886369
_cell_length_c 8.695461
_cell_angle_alpha 90.000000
_cell_angle_beta 143.830593
_cell_angle_gamma 90.000000
_cell_volume 1051.136624
_symmetry_space_group_name_H-M "P 21/M"
_symmetry_group_IT_number 11
_symmetry_cell_setting 'monoclinic'
loop_
_space_group_symop_operation_xyz
x,y,z
-x,1/2+y,-z
-x,-y,-z
x,1/2-y,z
loop_
_atom_site_type_symbol
_atom_site_label
_atom_site_fract_x
_atom_site_fract_y
_atom_site_fract_z
Si Si1 0.855120 0.039113 0.900006
Si Si2 0.062371 0.750000 0.387408
Si Si3 0.326797 0.903053 0.762846
Si Si4 0.632049 0.643723 0.593516
Si Si5 0.087284 0.750000 0.091517
Si Si6 0.344374 0.117444 0.730608
Si Si7 0.703260 0.366879 0.934195
Si Si8 0.089132 0.250000 0.481860
O O1 0.853017 0.079913 0.072616
O O2 0.742789 0.947403 0.769158
O O3 0.820641 0.147683 0.782648
O O4 0.000000 0.000000 0.000000
O O5 0.178153 0.839669 0.539940
O O6 0.985013 0.750000 0.449177
O O7 0.988729 0.750000 0.114731
O O8 0.318390 0.004574 0.671527
O O9 0.496322 0.862250 0.962754
O O10 0.333138 0.916387 0.955124
O O11 0.661980 0.750000 0.705275
O O12 0.643366 0.656246 0.424456
O O13 0.452045 0.620549 0.378379
O O14 0.992261 0.750000 0.801040
O O15 0.202568 0.159447 0.626814
O O16 0.721600 0.250000 0.978324
#
# Coordination Sequence:
#
# PCOD9164335 Si02
#       8
#     4   2   4   4   2   4   4   2
#     4  12  25  40  66  94 142 189 240 302 357 439
#     4  12  25  41  67 103 145 182 242 300 356 434
#     4  10  21  41  72 106 130 182 242 305 366 431
#     4  10  21  39  68  98 134 188 243 296 367 440
#     4  12  28  46  66 106 150 198 250 296 376 450
#     4  10  21  41  73  98 136 183 243 296 367 440
#     4  10  20  41  69  99 136 185 239 301 373 444
#     4  12  25  45  73  99 145 202 236 290 380 446
#
# _framework density 24.735128
#
# number of rings (size 3 to 8) (size 9 to 14) (size 15 to 20)
#    0.000    1.231    2.308    3.692    1.077    1.846 
#    0.000    0.000    1.692    7.385    0.000    0.000 
#    0.000    0.000    0.000    0.000    0.000    0.000 
#
# Total GULP energy -144804.486256 kJ/mol
# GULP energy per Si atom -5569.403318 kJ/mol
# Density = 2.467883 g / cm^3
# Si number density = 24.735128 Si / 1000 Ang^3
#
#
#
# Elastic Constant Matrix: (Units=GPa)
#
#
# Indices 1 2 3 4 5 6 
#
# 1 160.1726 38.5406 49.8047 0.0000 11.8251 0.0000
# 2 38.5406 169.4739 17.5345 0.0000 11.0379 0.0000
# 3 49.8047 17.5345 45.5326 0.0000 6.5986 0.0000
# 4 0.0000 0.0000 0.0000 31.5174 0.0000 10.3047
# 5 11.8251 11.0379 6.5986 0.0000 31.5331 0.0000
# 6 0.0000 0.0000 0.0000 10.3047 0.0000 52.6453
#
#
#
# Elastic Compliance Matrix: (Units=1/GPa)
#
#
# Indices 1 2 3 4 5 6 
#
# 1 0.009712 -0.001095 -0.010034 0.000000 -0.001159 0.000000
# 2 -0.001095 0.006359 -0.001019 0.000000 -0.001602 0.000000
# 3 -0.010034 -0.001019 0.033757 0.000000 -0.002944 0.000000
# 4 0.000000 0.000000 0.000000 0.033898 0.000000 -0.006635
# 5 -0.001159 -0.001602 -0.002944 0.000000 0.033324 0.000000
# 6 0.000000 0.000000 0.000000 -0.006635 0.000000 0.020294
#
#
# Mechanical properties :
#
#
# Convention : Reuss Voigt Hill
#
# Bulk Modulus (GPa) = 39.16571 65.21541 52.19056
# Shear Modulus (GPa) = 29.38566 41.09246 35.23906
#
# Velocity S-wave (km/s) = 3.45050 4.08033 3.77856
# Velocity P-wave (km/s) = 5.63409 6.97291 6.33895
#
# Compressibility (1/GPa) = 0.02553254
#
# Stress axis : x y z
#
# Youngs Moduli (GPa) = 102.96222 157.24684 29.62378
#
# Poissons Ratio (x) = 0.17219 0.29724
# Poissons Ratio (y) = 0.11275 0.03019
# Poissons Ratio (z) = 1.03311 0.16024
#
# Static dielectric constant tensor:
#      x y z
#    x 1.993970 0.000000 0.033050 
#    y 0.000000 2.047880 0.000000 
#    z 0.033050 0.000000 2.099710 
# 
# From -- ./inp_files/22463.got.cif
#   From: 2010.05.17/outbox.cif.g08.bks.cpg/sg11_12_cif.got.tgz:22463.got - 2010.06.03 12:22:45.
