data_PCOD9164988
_publ_section_title
;
Structure prediction by ZEFSAII (Michael W. Deem and Ramdas Pophale) SiO2 
 PCOD9164988
Probable space group: P 21/M
;
_chemical_formula_sum "Si O2"
_cell_formula_units_Z 28
_cell_length_a 9.672052
_cell_length_b 8.761652
_cell_length_c 26.487528
_cell_angle_alpha 90.000000
_cell_angle_beta 38.446795
_cell_angle_gamma 90.000000
_cell_volume 1395.687322
_symmetry_space_group_name_H-M "P 21/M"
_symmetry_group_IT_number 11
_symmetry_cell_setting 'monoclinic'
loop_
_space_group_symop_operation_xyz
x,y,z
-x,1/2+y,-z
-x,-y,-z
x,1/2-y,z
loop_
_atom_site_type_symbol
_atom_site_label
_atom_site_fract_x
_atom_site_fract_y
_atom_site_fract_z
Si Si1 0.334619 0.068838 0.006232
Si Si2 0.943027 0.930291 0.178532
Si Si3 0.129670 0.932773 0.696356
Si Si4 0.751384 0.068340 0.073272
Si Si5 0.482985 0.069958 0.761948
Si Si6 0.041757 0.066854 0.367216
Si Si7 0.432194 0.933662 0.464893
O O1 0.355151 0.250000 0.997033
O O2 0.092190 0.020967 0.095932
O O3 0.500000 0.000000 0.000000
O O4 0.370374 0.993396 0.941742
O O5 0.993226 0.750000 0.160610
O O6 0.687374 0.953812 0.235431
O O7 0.985236 0.990884 0.222665
O O8 0.123404 0.750000 0.702200
O O9 0.021697 0.975043 0.672921
O O10 0.385204 0.990962 0.623116
O O11 0.765903 0.250000 0.067887
O O12 0.621778 0.014173 0.159790
O O13 0.000000 0.000000 0.000000
O O14 0.487115 0.250000 0.771513
O O15 0.730569 0.010955 0.682075
O O16 0.067676 0.250000 0.360299
O O17 0.829525 0.029266 0.463232
O O18 0.455619 0.750000 0.457327
O O19 0.500000 0.000000 0.500000
#
# Coordination Sequence:
#
# PCOD9164988 Si02
#       7
#     4   4   4   4   4   4   4
#     4  12  26  44  66  91 122 159 200 250 304 358
#     4  11  24  42  61  86 122 159 200 248 300 358
#     4  10  21  37  60  89 120 156 199 246 301 359
#     4  12  24  42  66  90 120 159 204 248 298 359
#     4  11  24  40  61  88 120 158 203 247 298 357
#     4   9  20  37  59  88 120 153 196 246 296 355
#     4   9  17  33  57  86 119 154 195 243 297 354
#
# _framework density 20.061800000000002
#
# number of rings (size 3 to 8) (size 9 to 14) (size 15 to 20)
#    0.000    1.429    1.429    5.143    2.000    5.143 
#    0.000    0.714    0.000    0.000    0.000    0.000 
#    0.000    0.000    0.000    0.000    0.000    0.000 
#
# Total GULP energy -156478.178201 kJ/mol
# GULP energy per Si atom -5588.506364 kJ/mol
# Density = 2.001614 g / cm^3
# Si number density = 20.061800 Si / 1000 Ang^3
#
#
#
# Elastic Constant Matrix: (Units=GPa)
#
#
# Indices 1 2 3 4 5 6 
#
# 1 55.9557 22.5387 -9.4411 0.0000 -12.0223 0.0000
# 2 22.5387 84.6449 4.7656 0.0000 -13.2949 0.0000
# 3 -9.4411 4.7656 27.3531 0.0000 -11.9274 0.0000
# 4 0.0000 0.0000 0.0000 36.3707 0.0000 -5.0210
# 5 -12.0223 -13.2949 -11.9274 0.0000 39.5059 0.0000
# 6 0.0000 0.0000 0.0000 -5.0210 0.0000 29.4364
#
#
#
# Elastic Compliance Matrix: (Units=1/GPa)
#
#
# Indices 1 2 3 4 5 6 
#
# 1 0.024604 -0.005804 0.013723 0.000000 0.009677 0.000000
# 2 -0.005804 0.013846 -0.003632 0.000000 0.001797 0.000000
# 3 0.013723 -0.003632 0.049769 0.000000 0.017980 0.000000
# 4 0.000000 0.000000 0.000000 0.028158 0.000000 0.004803
# 5 0.009677 0.001797 0.017980 0.000000 0.034291 0.000000
# 6 0.000000 0.000000 0.000000 0.004803 0.000000 0.034791
#
#
# Mechanical properties :
#
#
# Convention : Reuss Voigt Hill
#
# Bulk Modulus (GPa) = 10.33134 22.63111 16.48123
# Shear Modulus (GPa) = 23.90654 31.06865 27.48760
#
# Velocity S-wave (km/s) = 3.45577 3.93955 3.70556
# Velocity P-wave (km/s) = 4.59173 5.65673 5.15183
#
# Compressibility (1/GPa) = 0.09679287
#
# Stress axis : x y z
#
# Youngs Moduli (GPa) = 40.64416 72.22191 20.09298
#
# Poissons Ratio (x) = 0.41917 -0.27574
# Poissons Ratio (y) = 0.23590 0.07298
# Poissons Ratio (z) = -0.55777 0.26232
#
# Static dielectric constant tensor:
#      x y z
#    x 1.688960 0.000000 -0.034600 
#    y 0.000000 1.666740 0.000000 
#    z -0.034600 0.000000 1.714100 
# 
# From -- ./inp_files/70844.got.cif
#   From: 2010.05.17/outbox.cif.g08.bks.cpg/sg11_36_cif.got.tgz:70844.got - 2010.06.03 12:22:45.
