data_PCOD9164515
_publ_section_title
;
Structure prediction by ZEFSAII (Michael W. Deem and Ramdas Pophale) SiO2 
 PCOD9164515
Probable space group: P 21/M
;
_chemical_formula_sum "Si O2"
_cell_formula_units_Z 28
_cell_length_a 5.408140
_cell_length_b 12.886674
_cell_length_c 22.005975
_cell_angle_alpha 90.000000
_cell_angle_beta 112.890995
_cell_angle_gamma 90.000000
_cell_volume 1412.879937
_symmetry_space_group_name_H-M "P 21/M"
_symmetry_group_IT_number 11
_symmetry_cell_setting 'monoclinic'
loop_
_space_group_symop_operation_xyz
x,y,z
-x,1/2+y,-z
-x,-y,-z
x,1/2-y,z
loop_
_atom_site_type_symbol
_atom_site_label
_atom_site_fract_x
_atom_site_fract_y
_atom_site_fract_z
Si Si1 0.762832 0.364674 0.508488
Si Si2 0.842737 0.578142 0.027562
Si Si3 0.627407 0.931592 0.421581
Si Si4 0.304665 0.865773 0.152484
Si Si5 0.435597 0.557896 0.896901
Si Si6 0.826365 0.129652 0.247203
Si Si7 0.636640 0.999361 0.725606
O O1 0.718950 0.250000 0.479248
O O2 0.577736 0.379411 0.550410
O O3 0.678773 0.452983 0.453030
O O4 0.078921 0.379628 0.552615
O O5 0.721513 0.501611 0.065970
O O6 0.038447 0.645831 0.086515
O O7 0.639608 0.624343 0.958343
O O8 0.000000 0.500000 0.000000
O O9 0.495698 0.941417 0.343395
O O10 0.430515 0.750000 0.168262
O O11 0.453528 0.959344 0.131296
O O12 0.263421 0.916756 0.214791
O O13 0.274880 0.623432 0.832459
O O14 0.856601 0.250000 0.268199
O O15 0.596156 0.072504 0.265610
O O16 0.109820 0.068342 0.273578
#
# Coordination Sequence:
#
# PCOD9164515 Si02
#       7
#     4   4   4   4   4   4   4
#     4  10  21  39  64  94 125 161 207 249 293 357
#     4   9  17  35  57  77 109 149 194 250 304 349
#     4  10  22  40  63  92 128 166 198 249 307 347
#     4  10  21  35  56  83 116 160 199 243 303 364
#     4   9  19  36  56  80 115 148 196 262 300 358
#     4  11  23  40  63  88 118 161 206 252 307 356
#     4  11  23  43  60  90 127 158 200 252 293 366
#
# _framework density 19.817678999999998
#
# number of rings (size 3 to 8) (size 9 to 14) (size 15 to 20)
#    0.000    2.000    1.429    1.714    0.000    3.429 
#    0.000    5.714    0.000    0.000    0.000    0.000 
#    0.000    0.000    0.000    0.000    0.000    0.000 
#
# Total GULP energy -155892.770236 kJ/mol
# GULP energy per Si atom -5567.598937 kJ/mol
# Density = 1.977257 g / cm^3
# Si number density = 19.817679 Si / 1000 Ang^3
#
#
#
# Elastic Constant Matrix: (Units=GPa)
#
#
# Indices 1 2 3 4 5 6 
#
# 1 83.8983 16.9527 -3.3713 0.0000 2.0740 0.0000
# 2 16.9527 109.2075 0.8412 0.0000 1.1577 0.0000
# 3 -3.3713 0.8412 57.3712 0.0000 4.3895 0.0000
# 4 0.0000 0.0000 0.0000 -6.3492 0.0000 -0.6925
# 5 2.0740 1.1577 4.3895 0.0000 19.6750 0.0000
# 6 0.0000 0.0000 0.0000 -0.6925 0.0000 1.2825
#
#
#
# Elastic Compliance Matrix: (Units=1/GPa)
#
#
# Indices 1 2 3 4 5 6 
#
# 1 0.012375 -0.001913 0.000861 0.000000 -0.001384 0.000000
# 2 -0.001913 0.009459 -0.000228 0.000000 -0.000304 0.000000
# 3 0.000861 -0.000228 0.017794 0.000000 -0.004047 0.000000
# 4 0.000000 0.000000 0.000000 -0.148739 0.000000 -0.080321
# 5 -0.001384 -0.000304 -0.004047 0.000000 0.051893 0.000000
# 6 0.000000 0.000000 0.000000 -0.080321 0.000000 0.736368
#
#
# Mechanical properties :
#
#
# Convention : Reuss Voigt Hill
#
# Bulk Modulus (GPa) = 26.97743 31.03580 29.00662
# Shear Modulus (GPa) = 7.20394 18.65861 12.93128
#
# Velocity S-wave (km/s) = 1.90866 3.07174 2.55720
# Velocity P-wave (km/s) = 4.30113 5.31746 4.83607
#
# Compressibility (1/GPa) = 0.03706802
#
# Stress axis : x y z
#
# Youngs Moduli (GPa) = 80.81107 105.72159 56.19885
#
# Poissons Ratio (x) = 0.20224 -0.04839
# Poissons Ratio (y) = 0.15458 0.01280
# Poissons Ratio (z) = -0.06959 0.02409
#
# Static dielectric constant tensor:
#      x y z
#    x 1.762610 0.000000 0.073940 
#    y 0.000000 1.703650 0.000000 
#    z 0.073940 0.000000 1.610190 
# 
# From -- ./inp_files/8629.got.cif
#   From: 2010.05.17/outbox.cif.g08.bks.cpg/sg11_5_cif.got.tgz:8629.got - 2010.06.03 12:22:45.
