data_PCOD9164239
_publ_section_title
;
Structure prediction by ZEFSAII (Michael W. Deem and Ramdas Pophale) SiO2 
 PCOD9164239
Probable space group: P 21/M
;
_chemical_formula_sum "Si O2"
_cell_formula_units_Z 32
_cell_length_a 24.029956
_cell_length_b 13.569365
_cell_length_c 16.260350
_cell_angle_alpha 90.000000
_cell_angle_beta 19.116870
_cell_angle_gamma 90.000000
_cell_volume 1736.395050
_symmetry_space_group_name_H-M "P 21/M"
_symmetry_group_IT_number 11
_symmetry_cell_setting 'monoclinic'
loop_
_space_group_symop_operation_xyz
x,y,z
-x,1/2+y,-z
-x,-y,-z
x,1/2-y,z
loop_
_atom_site_type_symbol
_atom_site_label
_atom_site_fract_x
_atom_site_fract_y
_atom_site_fract_z
Si Si1 0.550256 0.640207 0.162349
Si Si2 0.428294 0.633664 0.995902
Si Si3 0.682559 0.513390 0.416494
Si Si4 0.801848 0.559561 0.425316
Si Si5 0.810963 0.485748 0.795119
Si Si6 0.353697 0.864860 0.831775
Si Si7 0.837510 0.137551 0.073294
Si Si8 0.309952 0.861993 0.347045
O O1 0.541282 0.750000 0.206374
O O2 0.431593 0.569257 0.379986
O O3 0.475420 0.637418 0.174795
O O4 0.734997 0.594874 0.909358
O O5 0.412713 0.750000 0.000200
O O6 0.306855 0.571265 0.106238
O O7 0.369144 0.616874 0.172018
O O8 0.622542 0.601628 0.708665
O O9 0.789074 0.559016 0.343436
O O10 0.543492 0.589759 0.575050
O O11 0.789817 0.452116 0.200748
O O12 0.809039 0.447662 0.450368
O O13 0.965048 0.620808 0.224592
O O14 0.000000 0.500000 0.500000
O O15 0.772818 0.426130 0.932097
O O16 0.356687 0.750000 0.852364
O O17 0.281760 0.870919 0.840073
O O18 0.817281 0.250000 0.134763
O O19 0.239384 0.750000 0.449612
#
# Coordination Sequence:
#
# PCOD9164239 Si02
#       8
#     4   4   4   4   4   4   4   4
#     4   9  18  35  56  80 109 146 191 233 284 339
#     4  11  21  36  57  83 117 156 195 233 285 351
#     4  10  20  40  61  84 111 156 191 238 292 344
#     4  11  21  37  61  86 120 151 191 240 293 341
#     4  11  23  35  56  83 113 155 191 235 287 333
#     4  10  22  41  61  85 119 153 193 240 289 344
#     4  11  24  38  60  90 116 148 194 248 290 339
#     4   9  19  34  57  82 110 150 187 230 284 341
#
# _framework density 18.428985999999998
#
# number of rings (size 3 to 8) (size 9 to 14) (size 15 to 20)
#    0.000    1.750    3.750    2.250    1.750    2.000 
#    0.000    3.125    0.000    0.750    0.000    0.000 
#    0.000    0.000    0.000    0.000    0.000    0.000 
#
# Total GULP energy -178487.316804 kJ/mol
# GULP energy per Si atom -5577.728650 kJ/mol
# Density = 1.838704 g / cm^3
# Si number density = 18.428986 Si / 1000 Ang^3
#
#
#
# Elastic Constant Matrix: (Units=GPa)
#
#
# Indices 1 2 3 4 5 6 
#
# 1 59.4230 18.3774 8.2692 0.0000 -1.4135 0.0000
# 2 18.3774 65.1960 -1.7615 0.0000 -10.6311 0.0000
# 3 8.2692 -1.7615 55.2779 0.0000 -6.5459 0.0000
# 4 0.0000 0.0000 0.0000 12.7988 0.0000 0.8385
# 5 -1.4135 -10.6311 -6.5459 0.0000 17.6814 0.0000
# 6 0.0000 0.0000 0.0000 0.8385 0.0000 25.0660
#
#
#
# Elastic Compliance Matrix: (Units=1/GPa)
#
#
# Indices 1 2 3 4 5 6 
#
# 1 0.019091 -0.006024 -0.003447 0.000000 -0.003372 0.000000
# 2 -0.006024 0.019086 0.002940 0.000000 0.012083 0.000000
# 3 -0.003447 0.002940 0.019742 0.000000 0.008801 0.000000
# 4 0.000000 0.000000 0.000000 0.078304 0.000000 -0.002620
# 5 -0.003372 0.012083 0.008801 0.000000 0.066810 0.000000
# 6 0.000000 0.000000 0.000000 -0.002620 0.000000 0.039982
#
#
# Mechanical properties :
#
#
# Convention : Reuss Voigt Hill
#
# Bulk Modulus (GPa) = 22.29331 25.51856 23.90593
# Shear Modulus (GPa) = 18.44810 21.44336 19.94573
#
# Velocity S-wave (km/s) = 3.16735 3.41481 3.29340
# Velocity P-wave (km/s) = 5.04968 5.42448 5.24043
#
# Compressibility (1/GPa) = 0.04485651
#
# Stress axis : x y z
#
# Youngs Moduli (GPa) = 52.38036 52.39385 50.65346
#
# Poissons Ratio (x) = 0.31564 0.17461
# Poissons Ratio (y) = 0.31556 -0.14893
# Poissons Ratio (z) = 0.18057 -0.15405
#
# Static dielectric constant tensor:
#      x y z
#    x 1.654670 0.000000 0.007580 
#    y 0.000000 1.693150 0.000000 
#    z 0.007580 0.000000 1.616540 
# 
# From -- ./inp_files/39675.got.cif
#   From: 2010.05.17/outbox.cif.g08.bks.cpg/sg11_20_cif.got.tgz:39675.got - 2010.06.03 12:22:45.
