data_PCOD9164776
_publ_section_title
;
Structure prediction by ZEFSAII (Michael W. Deem and Ramdas Pophale) SiO2 
 PCOD9164776
Probable space group: P 21/M
;
_chemical_formula_sum "Si O2"
_cell_formula_units_Z 28
_cell_length_a 14.079517
_cell_length_b 8.693810
_cell_length_c 12.962054
_cell_angle_alpha 90.000000
_cell_angle_beta 74.406734
_cell_angle_gamma 90.000000
_cell_volume 1528.218917
_symmetry_space_group_name_H-M "P 21/M"
_symmetry_group_IT_number 11
_symmetry_cell_setting 'monoclinic'
loop_
_space_group_symop_operation_xyz
x,y,z
-x,1/2+y,-z
-x,-y,-z
x,1/2-y,z
loop_
_atom_site_type_symbol
_atom_site_label
_atom_site_fract_x
_atom_site_fract_y
_atom_site_fract_z
Si Si1 0.449916 0.566136 0.615552
Si Si2 0.081523 0.935724 0.615469
Si Si3 0.292007 0.934644 0.160197
Si Si4 0.711362 0.933315 0.054737
Si Si5 0.502615 0.934626 0.828029
Si Si6 0.768520 0.436358 0.252322
Si Si7 0.130827 0.564642 0.372586
O O1 0.500000 0.500000 0.500000
O O2 0.449702 0.750000 0.607245
O O3 0.506076 0.525818 0.705103
O O4 0.336328 0.517934 0.665893
O O5 0.076524 0.750000 0.617689
O O6 0.144207 0.983644 0.696556
O O7 0.133940 0.982191 0.492138
O O8 0.971639 0.001587 0.642633
O O9 0.296319 0.750000 0.155872
O O10 0.222267 0.984222 0.275417
O O11 0.401227 0.000629 0.145255
O O12 0.251534 0.997479 0.063728
O O13 0.711762 0.750000 0.051102
O O14 0.599153 0.994082 0.101501
O O15 0.769670 0.992889 0.138065
O O16 0.497295 0.750000 0.840465
O O17 0.768270 0.250000 0.243151
O O18 0.127707 0.750000 0.371158
#
# Coordination Sequence:
#
# PCOD9164776 Si02
#       7
#     4   4   4   4   4   4   4
#     4   9  19  32  49  75 109 142 176 219 261 316
#     4   9  18  36  60  82 109 143 177 220 275 326
#     4  11  22  36  57  81 110 145 183 226 272 322
#     4  11  22  37  56  80 110 144 185 227 269 323
#     4  10  21  37  54  77 110 147 185 223 269 319
#     4   9  19  36  57  78 107 145 181 221 272 324
#     4   9  20  36  56  84 112 140 177 223 272 325
#
# _framework density 18.321984
#
# number of rings (size 3 to 8) (size 9 to 14) (size 15 to 20)
#    0.000    2.286    0.000    3.429    2.000    4.571 
#    0.000    0.714    0.000    0.000    0.000    0.000 
#    0.000    0.000    0.000    0.000    0.000    0.000 
#
# Total GULP energy -156288.211029 kJ/mol
# GULP energy per Si atom -5581.721822 kJ/mol
# Density = 1.828028 g / cm^3
# Si number density = 18.321984 Si / 1000 Ang^3
#
#
#
# Elastic Constant Matrix: (Units=GPa)
#
#
# Indices 1 2 3 4 5 6 
#
# 1 76.8202 17.6141 34.8737 0.0000 28.2708 0.0000
# 2 17.6141 40.4532 23.1564 0.0000 6.9455 0.0000
# 3 34.8737 23.1564 73.0065 0.0000 12.7929 0.0000
# 4 0.0000 0.0000 0.0000 29.5128 0.0000 3.3777
# 5 28.2708 6.9455 12.7929 0.0000 23.9605 0.0000
# 6 0.0000 0.0000 0.0000 3.3777 0.0000 27.9424
#
#
#
# Elastic Compliance Matrix: (Units=1/GPa)
#
#
# Indices 1 2 3 4 5 6 
#
# 1 0.026915 -0.002966 -0.007173 0.000000 -0.027067 0.000000
# 2 -0.002966 0.030885 -0.008190 0.000000 -0.001080 0.000000
# 3 -0.007173 -0.008190 0.019662 0.000000 0.000339 0.000000
# 4 0.000000 0.000000 0.000000 0.034359 0.000000 -0.004153
# 5 -0.027067 -0.001080 0.000339 0.000000 0.073804 0.000000
# 6 0.000000 0.000000 0.000000 -0.004153 0.000000 0.036290
#
#
# Mechanical properties :
#
#
# Convention : Reuss Voigt Hill
#
# Bulk Modulus (GPa) = 24.50752 37.95203 31.22977
# Shear Modulus (GPa) = 18.37062 23.92551 21.14806
#
# Velocity S-wave (km/s) = 3.16991 3.61756 3.40110
# Velocity P-wave (km/s) = 5.17714 6.18125 5.70134
#
# Compressibility (1/GPa) = 0.04080381
#
# Stress axis : x y z
#
# Youngs Moduli (GPa) = 37.15431 32.37808 50.85942
#
# Poissons Ratio (x) = 0.09604 0.36481
# Poissons Ratio (y) = 0.11020 0.41654
# Poissons Ratio (z) = 0.26650 0.26518
#
# Static dielectric constant tensor:
#      x y z
#    x 1.606960 0.000000 0.013550 
#    y 0.000000 1.626660 0.000000 
#    z 0.013550 0.000000 1.645230 
# 
# From -- ./inp_files/37396.got.cif
#   From: 2010.05.17/outbox.cif.g08.bks.cpg/sg11_19_cif.got.tgz:37396.got - 2010.06.03 12:22:45.
