data_PCOD9164594
_publ_section_title
;
Structure prediction by ZEFSAII (Michael W. Deem and Ramdas Pophale) SiO2 
 PCOD9164594
Probable space group: P 21/M
;
_chemical_formula_sum "Si O2"
_cell_formula_units_Z 32
_cell_length_a 24.870105
_cell_length_b 8.207393
_cell_length_c 18.136087
_cell_angle_alpha 90.000000
_cell_angle_beta 26.765869
_cell_angle_gamma 90.000000
_cell_volume 1667.141668
_symmetry_space_group_name_H-M "P 21/M"
_symmetry_group_IT_number 11
_symmetry_cell_setting 'monoclinic'
loop_
_space_group_symop_operation_xyz
x,y,z
-x,1/2+y,-z
-x,-y,-z
x,1/2-y,z
loop_
_atom_site_type_symbol
_atom_site_label
_atom_site_fract_x
_atom_site_fract_y
_atom_site_fract_z
Si Si1 0.375676 0.446653 0.486905
Si Si2 0.693501 0.947693 0.587358
Si Si3 0.796120 0.436646 0.720906
Si Si4 0.533721 0.556437 0.040973
Si Si5 0.362096 0.446454 0.663748
Si Si6 0.349080 0.052483 0.840831
Si Si7 0.898547 0.939829 0.446277
Si Si8 0.142330 0.059020 0.201701
O O1 0.372039 0.250000 0.491828
O O2 0.309931 0.502338 0.493372
O O3 0.323311 0.504546 0.629943
O O4 0.515302 0.496073 0.311921
O O5 0.692178 0.750000 0.591264
O O6 0.807457 0.001623 0.495467
O O7 0.573462 0.007921 0.774025
O O8 0.811813 0.250000 0.679306
O O9 0.833427 0.542726 0.605114
O O10 0.868705 0.472156 0.706177
O O11 0.658446 0.472845 0.908329
O O12 0.550101 0.750000 0.022231
O O13 0.500000 0.500000 0.000000
O O14 0.500000 0.500000 0.500000
O O15 0.355594 0.250000 0.671253
O O16 0.309306 0.501158 0.806900
O O17 0.349366 0.250000 0.841744
O O18 0.256007 0.996564 0.016392
O O19 0.923675 0.750000 0.401747
O O20 0.022804 0.033029 0.301430
O O21 0.160012 0.250000 0.195157
#
# Coordination Sequence:
#
# PCOD9164594 Si02
#       8
#     4   4   4   4   4   4   4   4
#     4   9  17  30  52  81 108 135 167 209 256 311
#     4  10  21  36  54  77 106 139 177 217 262 314
#     4  12  24  39  58  79 104 135 175 219 268 317
#     4  12  23  36  55  79 107 139 173 212 261 310
#     4   8  14  27  48  75 106 135 165 201 253 310
#     4   9  18  32  51  77 107 138 168 208 258 313
#     4  11  23  39  56  73 100 138 180 223 266 312
#     4  11  23  38  55  76 103 136 179 223 265 312
#
# _framework density 19.19453
#
# number of rings (size 3 to 8) (size 9 to 14) (size 15 to 20)
#    0.000    1.750    1.250    4.125    0.000    4.000 
#    0.000    0.000    0.000    0.750    0.000    0.000 
#    0.000    0.000    0.000    0.000    0.000    0.250 
#
# Total GULP energy -178634.133403 kJ/mol
# GULP energy per Si atom -5582.316669 kJ/mol
# Density = 1.915084 g / cm^3
# Si number density = 19.194530 Si / 1000 Ang^3
#
#
#
# Elastic Constant Matrix: (Units=GPa)
#
#
# Indices 1 2 3 4 5 6 
#
# 1 137.1282 -2.1515 31.8162 0.0000 19.1354 0.0000
# 2 -2.1515 22.6649 -4.4236 0.0000 3.3856 0.0000
# 3 31.8162 -4.4236 30.6586 0.0000 -1.0591 0.0000
# 4 0.0000 0.0000 0.0000 18.0209 0.0000 -3.6193
# 5 19.1354 3.3856 -1.0591 0.0000 26.1406 0.0000
# 6 0.0000 0.0000 0.0000 -3.6193 0.0000 20.1700
#
#
#
# Elastic Compliance Matrix: (Units=1/GPa)
#
#
# Indices 1 2 3 4 5 6 
#
# 1 0.011309 0.000035 -0.012034 0.000000 -0.008770 0.000000
# 2 0.000035 0.046240 0.006437 0.000000 -0.005754 0.000000
# 3 -0.012034 0.006437 0.046375 0.000000 0.009854 0.000000
# 4 0.000000 0.000000 0.000000 0.057566 0.000000 0.010330
# 5 -0.008770 -0.005754 0.009854 0.000000 0.045819 0.000000
# 6 0.000000 0.000000 0.000000 0.010330 0.000000 0.051432
#
#
# Mechanical properties :
#
#
# Convention : Reuss Voigt Hill
#
# Bulk Modulus (GPa) = 10.77593 26.77043 18.77318
# Shear Modulus (GPa) = 16.62241 23.88032 20.25136
#
# Velocity S-wave (km/s) = 2.94598 3.53104 3.25169
# Velocity P-wave (km/s) = 4.14704 5.53186 4.88873
#
# Compressibility (1/GPa) = 0.09279939
#
# Stress axis : x y z
#
# Youngs Moduli (GPa) = 88.42555 21.62626 21.56344
#
# Poissons Ratio (x) = -0.00076 0.25949
# Poissons Ratio (y) = -0.00309 -0.13880
# Poissons Ratio (z) = 1.06411 -0.13920
#
# Static dielectric constant tensor:
#      x y z
#    x 1.701250 0.000000 0.020010 
#    y 0.000000 1.654190 0.000000 
#    z 0.020010 0.000000 1.648830 
# 
# From -- ./inp_files/61755.got.cif
#   From: 2010.05.17/outbox.cif.g08.bks.cpg/sg11_31_cif.got.tgz:61755.got - 2010.06.03 12:22:45.
