data_PCOD9164376
_publ_section_title
;
Structure prediction by ZEFSAII (Michael W. Deem and Ramdas Pophale) SiO2 
 PCOD9164376
Probable space group: P 21/M
;
_chemical_formula_sum "Si O2"
_cell_formula_units_Z 32
_cell_length_a 16.774035
_cell_length_b 13.521520
_cell_length_c 12.035282
_cell_angle_alpha 90.000000
_cell_angle_beta 145.431613
_cell_angle_gamma 90.000000
_cell_volume 1548.818827
_symmetry_space_group_name_H-M "P 21/M"
_symmetry_group_IT_number 11
_symmetry_cell_setting 'monoclinic'
loop_
_space_group_symop_operation_xyz
x,y,z
-x,1/2+y,-z
-x,-y,-z
x,1/2-y,z
loop_
_atom_site_type_symbol
_atom_site_label
_atom_site_fract_x
_atom_site_fract_y
_atom_site_fract_z
Si Si1 0.515905 0.862915 0.052071
Si Si2 0.281591 0.367780 0.019118
Si Si3 0.876825 0.867033 0.932150
Si Si4 0.148163 0.985902 0.286122
Si Si5 0.772509 0.135113 0.185711
Si Si6 0.408378 0.634893 0.675540
Si Si7 0.002940 0.637889 0.723968
Si Si8 0.196537 0.444056 0.682124
O O1 0.562219 0.750000 0.124747
O O2 0.393514 0.887797 0.998150
O O3 0.445674 0.866055 0.849472
O O4 0.653787 0.928649 0.206102
O O5 0.283256 0.250000 0.001001
O O6 0.192853 0.385726 0.027676
O O7 0.445624 0.396252 0.215862
O O8 0.217026 0.413585 0.833503
O O9 0.863196 0.750000 0.891635
O O10 0.808674 0.940785 0.764063
O O11 0.039650 0.901351 0.121661
O O12 0.279883 0.934736 0.495686
O O13 0.057842 0.056690 0.263736
O O14 0.789970 0.250000 0.237718
O O15 0.839753 0.122903 0.141518
O O16 0.841435 0.059548 0.352705
O O17 0.376779 0.750000 0.610983
O O18 0.987905 0.750000 0.748809
O O19 0.912260 0.622940 0.507752
#
# Coordination Sequence:
#
# PCOD9164376 Si02
#       8
#     4   4   4   4   4   4   4   4
#     4   9  18  33  53  79 110 147 184 217 259 316
#     4   9  19  36  58  84 110 141 181 224 268 316
#     4  10  22  40  60  80 106 141 185 230 268 320
#     4  11  22  37  58  82 108 144 183 221 276 324
#     4  10  21  33  47  71 106 145 183 221 260 309
#     4   9  18  34  57  84 112 140 179 227 269 317
#     4  11  23  37  53  80 115 145 177 222 273 324
#     4  11  19  34  57  81 111 145 180 218 269 323
#
# _framework density 20.660906000000001
#
# number of rings (size 3 to 8) (size 9 to 14) (size 15 to 20)
#    0.000    2.000    0.000    4.875    0.000    2.500 
#    0.000    4.375    0.000    3.750    0.000    7.000 
#    0.000    0.000    0.000    0.000    0.000    0.000 
#
# Total GULP energy -178746.061186 kJ/mol
# GULP energy per Si atom -5585.814412 kJ/mol
# Density = 2.061388 g / cm^3
# Si number density = 20.660906 Si / 1000 Ang^3
#
#
#
# Elastic Constant Matrix: (Units=GPa)
#
#
# Indices 1 2 3 4 5 6 
#
# 1 98.1820 31.3620 22.3941 0.0000 9.2898 0.0000
# 2 31.3620 94.0413 14.5229 0.0000 4.4717 0.0000
# 3 22.3941 14.5229 49.6896 0.0000 5.0393 0.0000
# 4 0.0000 0.0000 0.0000 25.3014 0.0000 2.6510
# 5 9.2898 4.4717 5.0393 0.0000 16.6574 0.0000
# 6 0.0000 0.0000 0.0000 2.6510 0.0000 36.1661
#
#
#
# Elastic Compliance Matrix: (Units=1/GPa)
#
#
# Indices 1 2 3 4 5 6 
#
# 1 0.012683 -0.003342 -0.004243 0.000000 -0.004893 0.000000
# 2 -0.003342 0.012086 -0.001946 0.000000 -0.000792 0.000000
# 3 -0.004243 -0.001946 0.023019 0.000000 -0.004075 0.000000
# 4 0.000000 0.000000 0.000000 0.039829 0.000000 -0.002920
# 5 -0.004893 -0.000792 -0.004075 0.000000 0.064208 0.000000
# 6 0.000000 0.000000 0.000000 -0.002920 0.000000 0.027864
#
#
# Mechanical properties :
#
#
# Convention : Reuss Voigt Hill
#
# Bulk Modulus (GPa) = 34.81079 42.05233 38.43156
# Shear Modulus (GPa) = 24.00059 27.20056 25.60057
#
# Velocity S-wave (km/s) = 3.41199 3.63233 3.52388
# Velocity P-wave (km/s) = 5.69275 6.16356 5.93283
#
# Compressibility (1/GPa) = 0.02872673
#
# Stress axis : x y z
#
# Youngs Moduli (GPa) = 78.84303 82.73822 43.44181
#
# Poissons Ratio (x) = 0.27650 0.18433
# Poissons Ratio (y) = 0.26348 0.08454
# Poissons Ratio (z) = 0.33455 0.16101
#
# Static dielectric constant tensor:
#      x y z
#    x 1.776960 0.000000 0.028570 
#    y 0.000000 1.788730 0.000000 
#    z 0.028570 0.000000 1.714730 
# 
# From -- ./inp_files/39666.got.cif
#   From: 2010.05.17/outbox.cif.g08.bks.cpg/sg11_20_cif.got.tgz:39666.got - 2010.06.03 12:22:45.
