data_PCOD9164686
_publ_section_title
;
Structure prediction by ZEFSAII (Michael W. Deem and Ramdas Pophale) SiO2 
 PCOD9164686
Probable space group: P 21/M
;
_chemical_formula_sum "Si O2"
_cell_formula_units_Z 28
_cell_length_a 10.838450
_cell_length_b 18.172564
_cell_length_c 5.810887
_cell_angle_alpha 90.000000
_cell_angle_beta 57.568042
_cell_angle_gamma 90.000000
_cell_volume 966.013389
_symmetry_space_group_name_H-M "P 21/M"
_symmetry_group_IT_number 11
_symmetry_cell_setting 'monoclinic'
loop_
_space_group_symop_operation_xyz
x,y,z
-x,1/2+y,-z
-x,-y,-z
x,1/2-y,z
loop_
_atom_site_type_symbol
_atom_site_label
_atom_site_fract_x
_atom_site_fract_y
_atom_site_fract_z
Si Si1 0.489530 0.566734 0.752601
Si Si2 0.408871 0.668830 0.212384
Si Si3 0.193271 0.025805 0.436046
Si Si4 0.200333 0.013202 0.926969
Si Si5 0.134760 0.837141 0.747638
Si Si6 0.001946 0.838394 0.374879
Si Si7 0.681233 0.666705 0.236130
O O1 0.629831 0.526691 0.727238
O O2 0.372091 0.511358 0.756601
O O3 0.571509 0.631757 0.531588
O O4 0.392713 0.610950 0.031352
O O5 0.364415 0.750000 0.175410
O O6 0.577361 0.670006 0.117140
O O7 0.307779 0.651608 0.532154
O O8 0.142590 0.990196 0.731508
O O9 0.140581 0.110455 0.493753
O O10 0.143045 0.995488 0.238901
O O11 0.200744 0.102834 0.917891
O O12 0.106670 0.750000 0.788300
O O13 0.073802 0.855293 0.551981
O O14 0.088584 0.860223 0.052148
O O15 0.975387 0.750000 0.398490
O O16 0.731767 0.750000 0.234637
#
# Coordination Sequence:
#
# PCOD9164686 Si02
#       7
#     4   4   4   4   4   4   4
#     4  11  23  38  62  91 126 167 205 239 317 373
#     4  10  21  36  61  92 124 156 204 264 310 359
#     4  11  22  38  61  89 120 156 205 251 293 361
#     4  11  24  40  62  91 126 171 202 240 304 386
#     4   9  20  38  59  86 119 161 206 251 306 367
#     4  10  21  38  62  88 121 163 206 252 310 363
#     4  10  21  36  57  93 128 156 199 257 310 360
#
# _framework density 28.985108
#
# number of rings (size 3 to 8) (size 9 to 14) (size 15 to 20)
#    0.000    1.714    1.429    3.429    4.000    3.429 
#    0.000    0.000    0.000    5.143    0.000    0.000 
#    0.000    0.000    0.000    0.000    0.000    0.000 
#
# Total GULP energy -156842.428210 kJ/mol
# GULP energy per Si atom -5601.515293 kJ/mol
# Density = 2.891914 g / cm^3
# Si number density = 28.985108 Si / 1000 Ang^3
#
#
#
# Elastic Constant Matrix: (Units=GPa)
#
#
# Indices 1 2 3 4 5 6 
#
# 1 141.6705 19.8210 69.7758 0.0000 38.8776 0.0000
# 2 19.8210 161.4101 73.4392 0.0000 28.0654 0.0000
# 3 69.7758 73.4392 254.0749 0.0000 26.5318 0.0000
# 4 0.0000 0.0000 0.0000 59.6830 0.0000 9.0724
# 5 38.8776 28.0654 26.5318 0.0000 50.9938 0.0000
# 6 0.0000 0.0000 0.0000 9.0724 0.0000 43.0174
#
#
#
# Elastic Compliance Matrix: (Units=1/GPa)
#
#
# Indices 1 2 3 4 5 6 
#
# 1 0.009962 0.001038 -0.002308 0.000000 -0.006965 0.000000
# 2 0.001038 0.007710 -0.002102 0.000000 -0.003941 0.000000
# 3 -0.002308 -0.002102 0.005153 0.000000 0.000236 0.000000
# 4 0.000000 0.000000 0.000000 0.017310 0.000000 -0.003651
# 5 -0.006965 -0.003941 0.000236 0.000000 0.026967 0.000000
# 6 0.000000 0.000000 0.000000 -0.003651 0.000000 0.024016
#
#
# Mechanical properties :
#
#
# Convention : Reuss Voigt Hill
#
# Bulk Modulus (GPa) = 62.19176 98.13641 80.16409
# Shear Modulus (GPa) = 48.43948 57.01347 52.72648
#
# Velocity S-wave (km/s) = 4.09245 4.43989 4.26970
# Velocity P-wave (km/s) = 6.62072 7.75980 7.21278
#
# Compressibility (1/GPa) = 0.01607930
#
# Stress axis : x y z
#
# Youngs Moduli (GPa) = 100.38397 129.70990 194.07110
#
# Poissons Ratio (x) = -0.13465 0.44801
# Poissons Ratio (y) = -0.10421 0.40793
# Poissons Ratio (z) = 0.23174 0.27265
#
# Static dielectric constant tensor:
#      x y z
#    x 2.242610 0.000000 0.006900 
#    y 0.000000 2.233070 0.000000 
#    z 0.006900 0.000000 2.267150 
# 
# From -- ./inp_files/6764.got.cif
#   From: 2010.05.17/outbox.cif.g08.bks.cpg/sg11_4_cif.got.tgz:6764.got - 2010.06.03 12:22:45.
