data_PCOD9164623
_publ_section_title
;
Structure prediction by ZEFSAII (Michael W. Deem and Ramdas Pophale) SiO2 
 PCOD9164623
Probable space group: P 21/M
;
_chemical_formula_sum "Si O2"
_cell_formula_units_Z 20
_cell_length_a 12.324835
_cell_length_b 8.016190
_cell_length_c 8.505690
_cell_angle_alpha 90.000000
_cell_angle_beta 83.642470
_cell_angle_gamma 90.000000
_cell_volume 835.179118
_symmetry_space_group_name_H-M "P 21/M"
_symmetry_group_IT_number 11
_symmetry_cell_setting 'monoclinic'
loop_
_space_group_symop_operation_xyz
x,y,z
-x,1/2+y,-z
-x,-y,-z
x,1/2-y,z
loop_
_atom_site_type_symbol
_atom_site_label
_atom_site_fract_x
_atom_site_fract_y
_atom_site_fract_z
Si Si1 0.118696 0.446377 0.922146
Si Si2 0.617821 0.551913 0.415547
Si Si3 0.770903 0.451205 0.773358
Si Si4 0.847730 0.435749 0.442881
Si Si5 0.474461 0.948167 0.176504
O O1 0.133455 0.250000 0.923972
O O2 0.125465 0.492346 0.734552
O O3 0.195820 0.514037 0.051351
O O4 0.000000 0.500000 0.000000
O O5 0.500000 0.500000 0.500000
O O6 0.639942 0.750000 0.433443
O O7 0.716108 0.439885 0.454031
O O8 0.588764 0.510137 0.242003
O O9 0.771410 0.250000 0.757160
O O10 0.855442 0.512020 0.620431
O O11 0.646658 0.518573 0.764653
O O12 0.894308 0.250000 0.441058
O O13 0.463704 0.750000 0.201183
O O14 0.500000 0.000000 0.000000
#
# Coordination Sequence:
#
# PCOD9164623 Si02
#       5
#     4   4   4   4   4
#     4  12  27  47  70  98 128 166 215 272 335 396
#     4  11  21  36  58  90 129 171 215 257 308 374
#     4  10  22  43  67  93 129 172 218 268 324 387
#     4  11  23  43  69  98 133 175 218 270 327 385
#     4  10  21  36  55  86 125 168 213 257 311 371
#
# _framework density 23.946959
#
# number of rings (size 3 to 8) (size 9 to 14) (size 15 to 20)
#    0.000    1.200    2.000    4.200    0.000    8.000 
#    0.000    0.000    0.000    0.000    0.000    0.000 
#    0.000    0.000    0.000    0.000    0.000    0.000 
#
# Total GULP energy -111345.787097 kJ/mol
# GULP energy per Si atom -5567.289355 kJ/mol
# Density = 2.389245 g / cm^3
# Si number density = 23.946959 Si / 1000 Ang^3
#
#
#
# Elastic Constant Matrix: (Units=GPa)
#
#
# Indices 1 2 3 4 5 6 
#
# 1 49.4088 -0.0529 11.0911 0.0000 -0.1145 0.0000
# 2 -0.0529 46.5350 25.7149 0.0000 1.3238 0.0000
# 3 11.0911 25.7149 172.1013 0.0000 -21.7263 0.0000
# 4 0.0000 0.0000 0.0000 33.7439 0.0000 -2.8497
# 5 -0.1145 1.3238 -21.7263 0.0000 39.4462 0.0000
# 6 0.0000 0.0000 0.0000 -2.8497 0.0000 23.0738
#
#
#
# Elastic Compliance Matrix: (Units=1/GPa)
#
#
# Indices 1 2 3 4 5 6 
#
# 1 0.020591 0.000914 -0.001569 0.000000 -0.000835 0.000000
# 2 0.000914 0.023780 -0.003990 0.000000 -0.002993 0.000000
# 3 -0.001569 -0.003990 0.007012 0.000000 0.003991 0.000000
# 4 0.000000 0.000000 0.000000 0.029947 0.000000 0.003699
# 5 -0.000835 -0.002993 0.003991 0.000000 0.027647 0.000000
# 6 0.000000 0.000000 0.000000 0.003699 0.000000 0.043796
#
#
# Mechanical properties :
#
#
# Convention : Reuss Voigt Hill
#
# Bulk Modulus (GPa) = 23.75699 37.95018 30.85358
# Shear Modulus (GPa) = 28.39401 34.67224 31.53313
#
# Velocity S-wave (km/s) = 3.44714 3.80923 3.63270
# Velocity P-wave (km/s) = 5.07798 5.93540 5.52335
#
# Compressibility (1/GPa) = 0.04209288
#
# Stress axis : x y z
#
# Youngs Moduli (GPa) = 48.56600 42.05184 142.61937
#
# Poissons Ratio (x) = -0.03844 0.22377
# Poissons Ratio (y) = -0.04440 0.56904
# Poissons Ratio (z) = 0.07620 0.16778
#
# Static dielectric constant tensor:
#      x y z
#    x 1.899250 0.000000 -0.075620 
#    y 0.000000 1.677730 0.000000 
#    z -0.075620 0.000000 1.764810 
# 
# From -- ./inp_files/15954.got.cif
#   From: 2010.05.17/outbox.cif.g08.bks.cpg/sg11_8_cif.got.tgz:15954.got - 2010.06.03 12:22:45.
