data_PCOD9164262
_publ_section_title
;
Structure prediction by ZEFSAII (Michael W. Deem and Ramdas Pophale) SiO2 
 PCOD9164262
Probable space group: P 21/M
;
_chemical_formula_sum "Si O2"
_cell_formula_units_Z 20
_cell_length_a 12.151791
_cell_length_b 8.189418
_cell_length_c 27.303218
_cell_angle_alpha 90.000000
_cell_angle_beta 159.305431
_cell_angle_gamma 90.000000
_cell_volume 960.188984
_symmetry_space_group_name_H-M "P 21/M"
_symmetry_group_IT_number 11
_symmetry_cell_setting 'monoclinic'
loop_
_space_group_symop_operation_xyz
x,y,z
-x,1/2+y,-z
-x,-y,-z
x,1/2-y,z
loop_
_atom_site_type_symbol
_atom_site_label
_atom_site_fract_x
_atom_site_fract_y
_atom_site_fract_z
Si Si1 0.463561 0.250000 0.502859
Si Si2 0.161127 0.250000 0.773226
Si Si3 0.156321 0.750000 0.941931
Si Si4 0.251362 0.056147 0.643554
Si Si5 0.067519 0.500072 0.398981
Si Si6 0.965275 0.445242 0.928955
Si Si7 0.441089 0.250000 0.375708
O O1 0.285751 0.394607 0.455282
O O2 0.406523 0.250000 0.420768
O O3 0.835194 0.250000 0.667045
O O4 0.128474 0.100926 0.722000
O O5 0.497599 0.250000 0.937558
O O6 0.124945 0.584483 0.961675
O O7 0.876802 0.750000 0.786144
O O8 0.226035 0.250000 0.645638
O O9 0.595683 0.036878 0.765977
O O10 0.179269 0.951323 0.662513
O O11 0.000000 0.000000 0.500000
O O12 0.330101 0.598683 0.538750
O O13 0.047727 0.250000 0.956927
O O14 0.000000 0.500000 0.000000
#
# Coordination Sequence:
#
# PCOD9164262 Si02
#       7
#     2   2   2   4   4   4   2
#     4  10  22  41  69  99 118 170 223 277 318 400
#     4  10  20  42  65  87 124 169 217 260 328 386
#     4  12  24  43  68  93 142 180 208 285 332 378
#     4  11  23  38  61  98 133 162 210 268 326 396
#     4  10  20  40  66  90 127 164 215 262 325 388
#     4  11  24  41  65  96 137 180 224 258 325 406
#     4  10  20  40  64  89 126 169 216 266 338 368
#
# _framework density 20.829234
#
# number of rings (size 3 to 8) (size 9 to 14) (size 15 to 20)
#    0.000    1.600    3.000    4.800    2.800    0.000 
#    7.200    4.000    0.000    0.000    0.000    0.000 
#    0.000    0.000    0.000    0.000    0.000    0.000 
#
# Total GULP energy -111390.331718 kJ/mol
# GULP energy per Si atom -5569.516586 kJ/mol
# Density = 2.078183 g / cm^3
# Si number density = 20.829234 Si / 1000 Ang^3
#
#
#
# Elastic Constant Matrix: (Units=GPa)
#
#
# Indices 1 2 3 4 5 6 
#
# 1 65.4194 26.9611 -3.2498 0.0000 24.9354 0.0000
# 2 26.9611 90.9948 31.7516 0.0000 9.8174 0.0000
# 3 -3.2498 31.7516 124.7056 0.0000 9.0579 0.0000
# 4 0.0000 0.0000 0.0000 13.1762 0.0000 3.2498
# 5 24.9354 9.8174 9.0579 0.0000 30.3440 0.0000
# 6 0.0000 0.0000 0.0000 3.2498 0.0000 29.6675
#
#
#
# Elastic Compliance Matrix: (Units=1/GPa)
#
#
# Indices 1 2 3 4 5 6 
#
# 1 0.026091 -0.006899 0.003916 0.000000 -0.020377 0.000000
# 2 -0.006899 0.014168 -0.003952 0.000000 0.002265 0.000000
# 3 0.003916 -0.003952 0.009473 0.000000 -0.004768 0.000000
# 4 0.000000 0.000000 0.000000 0.078002 0.000000 -0.008544
# 5 -0.020377 0.002265 -0.004768 0.000000 0.050391 0.000000
# 6 0.000000 0.000000 0.000000 -0.008544 0.000000 0.034643
#
#
# Mechanical properties :
#
#
# Convention : Reuss Voigt Hill
#
# Bulk Modulus (GPa) = 27.88254 43.56064 35.72159
# Shear Modulus (GPa) = 20.95638 29.68132 25.31885
#
# Velocity S-wave (km/s) = 3.17536 3.77899 3.49025
# Velocity P-wave (km/s) = 5.18258 6.32453 5.78182
#
# Compressibility (1/GPa) = 0.03586473
#
# Stress axis : x y z
#
# Youngs Moduli (GPa) = 38.32782 70.58058 105.55874
#
# Poissons Ratio (x) = 0.48691 -0.41342
# Poissons Ratio (y) = 0.26441 0.41713
# Poissons Ratio (z) = -0.15011 0.27891
#
# Static dielectric constant tensor:
#      x y z
#    x 1.734050 0.000000 0.023470 
#    y 0.000000 1.841900 0.000000 
#    z 0.023470 0.000000 1.736620 
# 
# From -- ./inp_files/71377.got.cif
#   From: 2010.05.17/outbox.cif.g08.bks.cpg/sg11_36_cif.got.tgz:71377.got - 2010.06.03 12:22:45.
