data_PCOD9164161
_publ_section_title
;
Structure prediction by ZEFSAII (Michael W. Deem and Ramdas Pophale) SiO2 
 PCOD9164161
Probable space group: P 21/M
;
_chemical_formula_sum "Si O2"
_cell_formula_units_Z 24
_cell_length_a 15.235525
_cell_length_b 15.155785
_cell_length_c 11.111304
_cell_angle_alpha 90.000000
_cell_angle_beta 152.013472
_cell_angle_gamma 90.000000
_cell_volume 1203.976677
_symmetry_space_group_name_H-M "P 21/M"
_symmetry_group_IT_number 11
_symmetry_cell_setting 'monoclinic'
loop_
_space_group_symop_operation_xyz
x,y,z
-x,1/2+y,-z
-x,-y,-z
x,1/2-y,z
loop_
_atom_site_type_symbol
_atom_site_label
_atom_site_fract_x
_atom_site_fract_y
_atom_site_fract_z
Si Si1 0.646310 0.106887 0.153573
Si Si2 0.638013 0.932469 0.005248
Si Si3 0.404921 0.553194 0.278330
Si Si4 0.977347 0.652959 0.288203
Si Si5 0.995326 0.981386 0.851143
Si Si6 0.348677 0.151434 0.586736
O O1 0.540149 0.113070 0.151882
O O2 0.842592 0.152760 0.407652
O O3 0.500139 0.141500 0.877714
O O4 0.692928 0.005660 0.172109
O O5 0.587047 0.988935 0.827012
O O6 0.801703 0.869431 0.160517
O O7 0.500000 0.500000 0.500000
O O8 0.531616 0.634590 0.389954
O O9 0.187944 0.567934 0.046661
O O10 0.955558 0.750000 0.205740
O O11 0.001907 0.573232 0.221535
O O12 0.814651 0.921550 0.603277
O O13 0.000000 0.000000 0.000000
O O14 0.270156 0.250000 0.494206
#
# Coordination Sequence:
#
# PCOD9164161 Si02
#       6
#     4   4   4   4   4   4
#     4  10  20  39  65  89 126 164 205 256 314 375
#     4   9  20  37  61  89 121 162 209 252 318 366
#     4  10  20  39  64  87 120 163 206 258 312 371
#     4  11  23  38  60  94 128 166 211 260 315 376
#     4  11  23  41  65  87 128 167 208 262 318 371
#     4  11  24  41  64  94 125 165 212 260 313 378
#
# _framework density 19.933941000000001
#
# number of rings (size 3 to 8) (size 9 to 14) (size 15 to 20)
#    0.000    1.667    1.667    4.000    0.000    5.333 
#    0.000    0.000    0.000    0.000    0.000    0.000 
#    0.000    0.000    0.000    0.000    0.000    0.000 
#
# Total GULP energy -133912.190161 kJ/mol
# GULP energy per Si atom -5579.674590 kJ/mol
# Density = 1.988857 g / cm^3
# Si number density = 19.933941 Si / 1000 Ang^3
#
#
#
# Elastic Constant Matrix: (Units=GPa)
#
#
# Indices 1 2 3 4 5 6 
#
# 1 102.6215 22.3781 32.8974 0.0000 6.3134 0.0000
# 2 22.3781 108.8665 30.1609 0.0000 17.5564 0.0000
# 3 32.8974 30.1609 84.6178 0.0000 13.3093 0.0000
# 4 0.0000 0.0000 0.0000 0.1023 0.0000 -4.7324
# 5 6.3134 17.5564 13.3093 0.0000 29.2340 0.0000
# 6 0.0000 0.0000 0.0000 -4.7324 0.0000 9.3771
#
#
#
# Elastic Compliance Matrix: (Units=1/GPa)
#
#
# Indices 1 2 3 4 5 6 
#
# 1 0.011277 -0.001239 -0.003960 0.000000 0.000112 0.000000
# 2 -0.001239 0.010998 -0.002630 0.000000 -0.005140 0.000000
# 3 -0.003960 -0.002630 0.014985 0.000000 -0.004388 0.000000
# 4 0.000000 0.000000 0.000000 -0.437441 0.000000 -0.220764
# 5 0.000112 -0.005140 -0.004388 0.000000 0.039267 0.000000
# 6 0.000000 0.000000 0.000000 -0.220764 0.000000 -0.004770
#
#
# Mechanical properties :
#
#
# Convention : Reuss Voigt Hill
#
# Bulk Modulus (GPa) = 46.29243 51.88651 49.08947
# Shear Modulus (GPa) = -14.58469 21.78729 3.60130
#
# Velocity S-wave (km/s) = -2.70784 3.30960 1.34556
# Velocity P-wave (km/s) = 3.67380 6.37890 5.20515
#
# Compressibility (1/GPa) = 0.02160180
#
# Stress axis : x y z
#
# Youngs Moduli (GPa) = 88.67277 90.92808 66.73332
#
# Poissons Ratio (x) = 0.11265 0.26429
# Poissons Ratio (y) = 0.10986 0.17550
# Poissons Ratio (z) = 0.35117 0.23913
#
# Static dielectric constant tensor:
#      x y z
#    x 1.710080 0.000000 -0.000340 
#    y 0.000000 1.770040 0.000000 
#    z -0.000340 0.000000 1.706410 
# 
# From -- ./inp_files/39496.got.cif
#   From: 2010.05.17/outbox.cif.g08.bks.cpg/sg11_20_cif.got.tgz:39496.got - 2010.06.03 12:22:45.
