data_PCOD9164520
_publ_section_title
;
Structure prediction by ZEFSAII (Michael W. Deem and Ramdas Pophale) SiO2 
 PCOD9164520
Probable space group: P 21/M
;
_chemical_formula_sum "Si O2"
_cell_formula_units_Z 32
_cell_length_a 11.904942
_cell_length_b 14.501506
_cell_length_c 17.479747
_cell_angle_alpha 90.000000
_cell_angle_beta 147.973966
_cell_angle_gamma 90.000000
_cell_volume 1600.298072
_symmetry_space_group_name_H-M "P 21/M"
_symmetry_group_IT_number 11
_symmetry_cell_setting 'monoclinic'
loop_
_space_group_symop_operation_xyz
x,y,z
-x,1/2+y,-z
-x,-y,-z
x,1/2-y,z
loop_
_atom_site_type_symbol
_atom_site_label
_atom_site_fract_x
_atom_site_fract_y
_atom_site_fract_z
Si Si1 0.327805 0.017088 0.176482
Si Si2 0.305492 0.851720 0.570499
Si Si3 0.973668 0.860514 0.710023
Si Si4 0.031140 0.481550 0.143944
Si Si5 0.727770 0.978816 0.165286
Si Si6 0.396581 0.146891 0.614856
Si Si7 0.919924 0.360682 0.715201
Si Si8 0.114431 0.407020 0.592647
O O1 0.535576 0.079931 0.296129
O O2 0.171621 0.050567 0.153507
O O3 0.414147 0.919001 0.253753
O O4 0.196513 0.008385 0.023012
O O5 0.398365 0.750000 0.625409
O O6 0.252109 0.876967 0.451707
O O7 0.077107 0.851659 0.479351
O O8 0.012628 0.750000 0.728302
O O9 0.743381 0.879187 0.539768
O O10 0.982340 0.902096 0.800177
O O11 0.137939 0.925644 0.758688
O O12 0.124410 0.573610 0.238308
O O13 0.722580 0.936053 0.246826
O O14 0.862244 0.904990 0.192715
O O15 0.500000 0.000000 0.000000
O O16 0.472813 0.250000 0.648340
O O17 0.230732 0.140514 0.589675
O O18 0.933420 0.250000 0.736001
O O19 0.000000 0.500000 0.500000
#
# Coordination Sequence:
#
# PCOD9164520 Si02
#       8
#     4   4   4   4   4   4   4   4
#     4  11  23  41  60  87 116 151 200 243 300 354
#     4  10  21  38  62  88 116 153 196 239 288 346
#     4  10  22  41  60  85 119 156 198 244 293 351
#     4  10  24  41  60  83 120 156 189 250 300 348
#     4  10  21  35  57  88 121 158 193 233 290 349
#     4  11  23  39  62  90 119 156 201 246 293 347
#     4   9  20  39  60  84 115 152 195 240 289 346
#     4  11  19  36  59  86 124 154 189 241 284 340
#
# _framework density 19.996275000000001
#
# number of rings (size 3 to 8) (size 9 to 14) (size 15 to 20)
#    0.000    1.750    2.500    1.875    3.500    5.000 
#    0.000    5.000    0.000    0.000    0.000    0.000 
#    0.000    0.000    0.000    0.000    0.000    0.000 
#
# Total GULP energy -178605.961584 kJ/mol
# GULP energy per Si atom -5581.436300 kJ/mol
# Density = 1.995076 g / cm^3
# Si number density = 19.996275 Si / 1000 Ang^3
#
#
#
# Elastic Constant Matrix: (Units=GPa)
#
#
# Indices 1 2 3 4 5 6 
#
# 1 46.0985 -3.7901 15.4801 0.0000 -20.1097 0.0000
# 2 -3.7901 93.9796 14.9683 0.0000 -11.1859 0.0000
# 3 15.4801 14.9683 84.5229 0.0000 -18.7186 0.0000
# 4 0.0000 0.0000 0.0000 7.2737 0.0000 -6.0280
# 5 -20.1097 -11.1859 -18.7186 0.0000 27.6837 0.0000
# 6 0.0000 0.0000 0.0000 -6.0280 0.0000 7.3654
#
#
#
# Elastic Compliance Matrix: (Units=1/GPa)
#
#
# Indices 1 2 3 4 5 6 
#
# 1 0.033571 0.004583 -0.001352 0.000000 0.025324 0.000000
# 2 0.004583 0.011900 -0.001346 0.000000 0.007228 0.000000
# 3 -0.001352 -0.001346 0.014089 0.000000 0.008001 0.000000
# 4 0.000000 0.000000 0.000000 0.427297 0.000000 0.349709
# 5 0.025324 0.007228 0.008001 0.000000 0.062848 0.000000
# 6 0.000000 0.000000 0.000000 0.349709 0.000000 0.421978
#
#
# Mechanical properties :
#
#
# Convention : Reuss Voigt Hill
#
# Bulk Modulus (GPa) = 15.79017 30.87973 23.33495
# Shear Modulus (GPa) = 5.05550 21.66075 13.35812
#
# Velocity S-wave (km/s) = 1.59176 3.29483 2.58743
# Velocity P-wave (km/s) = 3.36035 5.47273 4.54108
#
# Compressibility (1/GPa) = 0.06333053
#
# Stress axis : x y z
#
# Youngs Moduli (GPa) = 29.78791 84.03284 70.97790
#
# Poissons Ratio (x) = -0.38515 0.09594
# Poissons Ratio (y) = -0.13653 0.09555
# Poissons Ratio (z) = 0.04026 0.11313
#
# Static dielectric constant tensor:
#      x y z
#    x 1.751420 0.000000 -0.001780 
#    y 0.000000 1.702430 0.000000 
#    z -0.001780 0.000000 1.684940 
# 
# From -- ./inp_files/59500.got.cif
#   From: 2010.05.17/outbox.cif.g08.bks.cpg/sg11_30_cif.got.tgz:59500.got - 2010.06.03 12:22:45.
