data_PCOD9164540
_publ_section_title
;
Structure prediction by ZEFSAII (Michael W. Deem and Ramdas Pophale) SiO2 
 PCOD9164540
Probable space group: P 21/M
;
_chemical_formula_sum "Si O2"
_cell_formula_units_Z 28
_cell_length_a 5.699798
_cell_length_b 29.151395
_cell_length_c 8.359211
_cell_angle_alpha 90.000000
_cell_angle_beta 61.615498
_cell_angle_gamma 90.000000
_cell_volume 1221.959448
_symmetry_space_group_name_H-M "P 21/M"
_symmetry_group_IT_number 11
_symmetry_cell_setting 'monoclinic'
loop_
_space_group_symop_operation_xyz
x,y,z
-x,1/2+y,-z
-x,-y,-z
x,1/2-y,z
loop_
_atom_site_type_symbol
_atom_site_label
_atom_site_fract_x
_atom_site_fract_y
_atom_site_fract_z
Si Si1 0.129322 0.844684 0.878260
Si Si2 0.126071 0.699493 0.197657
Si Si3 0.022798 0.428503 0.919517
Si Si4 0.199827 0.010116 0.153017
Si Si5 0.626325 0.673447 0.540812
Si Si6 0.074166 0.099033 0.367461
Si Si7 0.562818 0.129234 0.703669
O O1 0.382791 0.815378 0.736536
O O2 0.970587 0.866617 0.775413
O O3 0.006632 0.814031 0.061406
O O4 0.196233 0.891792 0.952647
O O5 0.247113 0.750000 0.150613
O O6 0.325742 0.658878 0.185434
O O7 0.896957 0.699515 0.409305
O O8 0.297722 0.400574 0.813306
O O9 0.942695 0.460536 0.797447
O O10 0.059775 0.461469 0.057336
O O11 0.175736 0.047782 0.299032
O O12 0.500000 0.000000 0.000000
O O13 0.728019 0.625134 0.578019
O O14 0.492756 0.666731 0.413615
O O15 0.791109 0.098183 0.549294
#
# Coordination Sequence:
#
# PCOD9164540 Si02
#       7
#     4   4   4   4   4   4   4
#     4  10  21  39  68  91 124 166 208 255 323 379
#     4  11  25  42  66  96 120 159 213 265 319 383
#     4  10  21  37  60  94 125 170 213 256 316 371
#     4  10  21  35  59  93 129 166 218 265 299 370
#     4  10  21  41  66  89 124 167 204 255 319 380
#     4   9  21  39  61  95 125 168 212 257 315 372
#     4  10  22  41  63  90 130 169 209 261 321 380
#
# _framework density 22.914017000000001
#
# number of rings (size 3 to 8) (size 9 to 14) (size 15 to 20)
#    0.000    2.000    1.429    0.857    6.000    2.857 
#    0.000    7.143    0.000    0.000    0.000    0.000 
#    0.000    0.000    0.000    0.000    0.000    0.000 
#
# Total GULP energy -155887.608449 kJ/mol
# GULP energy per Si atom -5567.414587 kJ/mol
# Density = 2.286186 g / cm^3
# Si number density = 22.914017 Si / 1000 Ang^3
#
#
#
# Elastic Constant Matrix: (Units=GPa)
#
#
# Indices 1 2 3 4 5 6 
#
# 1 59.5494 14.9326 21.8235 0.0000 7.8090 0.0000
# 2 14.9326 72.4910 34.3806 0.0000 6.8694 0.0000
# 3 21.8235 34.3806 99.7321 0.0000 -9.8428 0.0000
# 4 0.0000 0.0000 0.0000 15.4890 0.0000 12.3160
# 5 7.8090 6.8694 -9.8428 0.0000 41.4103 0.0000
# 6 0.0000 0.0000 0.0000 12.3160 0.0000 -5.0891
#
#
#
# Elastic Compliance Matrix: (Units=1/GPa)
#
#
# Indices 1 2 3 4 5 6 
#
# 1 0.019265 -0.001620 -0.004085 0.000000 -0.004335 0.000000
# 2 -0.001620 0.017367 -0.006028 0.000000 -0.004008 0.000000
# 3 -0.004085 -0.006028 0.013490 0.000000 0.004977 0.000000
# 4 0.000000 0.000000 0.000000 0.022078 0.000000 0.053430
# 5 -0.004335 -0.004008 0.004977 0.000000 0.026814 0.000000
# 6 0.000000 0.000000 0.000000 0.053430 0.000000 -0.067195
#
#
# Mechanical properties :
#
#
# Convention : Reuss Voigt Hill
#
# Bulk Modulus (GPa) = 37.51557 41.56064 39.53810
# Shear Modulus (GPa) = 77.91829 21.07109 49.49469
#
# Velocity S-wave (km/s) = 5.83768 3.03573 4.65264
# Velocity P-wave (km/s) = 7.86421 5.51947 6.79376
#
# Compressibility (1/GPa) = 0.02665560
#
# Stress axis : x y z
#
# Youngs Moduli (GPa) = 51.90887 57.57930 74.12949
#
# Poissons Ratio (x) = 0.09329 0.30280
# Poissons Ratio (y) = 0.08411 0.44686
# Poissons Ratio (z) = 0.21204 0.34709
#
# Static dielectric constant tensor:
#      x y z
#    x 1.882080 0.000000 -0.036560 
#    y 0.000000 1.893730 0.000000 
#    z -0.036560 0.000000 1.925470 
# 
# From -- ./inp_files/3327.got.cif
#   From: 2010.05.17/outbox.cif.g08.bks.cpg/sg11_2_cif.got.tgz:3327.got - 2010.06.03 12:22:45.
