data_PCOD9164763
_publ_section_title
;
Structure prediction by ZEFSAII (Michael W. Deem and Ramdas Pophale) SiO2 
 PCOD9164763
Probable space group: P 21/M
;
_chemical_formula_sum "Si O2"
_cell_formula_units_Z 32
_cell_length_a 12.761803
_cell_length_b 8.659130
_cell_length_c 18.568111
_cell_angle_alpha 90.000000
_cell_angle_beta 116.772456
_cell_angle_gamma 90.000000
_cell_volume 1831.932222
_symmetry_space_group_name_H-M "P 21/M"
_symmetry_group_IT_number 11
_symmetry_cell_setting 'monoclinic'
loop_
_space_group_symop_operation_xyz
x,y,z
-x,1/2+y,-z
-x,-y,-z
x,1/2-y,z
loop_
_atom_site_type_symbol
_atom_site_label
_atom_site_fract_x
_atom_site_fract_y
_atom_site_fract_z
Si Si1 0.726705 0.566131 0.674885
Si Si2 0.766657 0.936443 0.144756
Si Si3 0.069060 0.565880 0.454404
Si Si4 0.562704 0.562597 0.192348
Si Si5 0.977664 0.062757 0.722496
Si Si6 0.603454 0.065037 0.981495
Si Si7 0.331453 0.565206 0.499696
Si Si8 0.495074 0.935441 0.328838
O O1 0.723813 0.750000 0.677424
O O2 0.678722 0.510113 0.582000
O O3 0.638055 0.493739 0.705193
O O4 0.860079 0.505728 0.720923
O O5 0.761634 0.750000 0.142000
O O6 0.675041 0.988505 0.179415
O O7 0.899289 0.982784 0.203904
O O8 0.719817 0.997971 0.053845
O O9 0.057315 0.750000 0.452091
O O10 0.207071 0.529245 0.499262
O O11 0.000000 0.500000 0.500000
O O12 0.023149 0.513753 0.361860
O O13 0.568638 0.750000 0.195210
O O14 0.554094 0.511304 0.272082
O O15 0.443259 0.521329 0.112183
O O16 0.968427 0.250000 0.721261
O O17 0.606562 0.250000 0.986637
O O18 0.500000 0.000000 0.000000
O O19 0.341838 0.750000 0.494154
O O20 0.433427 0.501517 0.581399
O O21 0.497212 0.750000 0.332135
#
# Coordination Sequence:
#
# PCOD9164763 Si02
#       8
#     4   4   4   4   4   4   4   4
#     4  11  22  37  54  73 100 133 174 218 257 299
#     4   9  17  32  54  79 106 135 167 204 249 306
#     4   9  19  32  48  69 100 136 166 204 249 297
#     4   8  17  31  50  77 106 135 164 199 252 308
#     4   9  19  35  54  74 101 135 171 210 251 301
#     4   9  16  30  50  74 105 137 168 203 247 301
#     4  10  21  37  52  72 100 133 174 214 255 300
#     4  11  21  34  55  77 100 133 172 213 257 305
#
# _framework density 17.467896
#
# number of rings (size 3 to 8) (size 9 to 14) (size 15 to 20)
#    0.000    2.500    0.000    4.125    1.750    3.000 
#    0.000    6.250    0.000    0.750    0.000    0.000 
#    0.000    0.000    0.000    0.000    0.000    0.000 
#
# Total GULP energy -178395.322621 kJ/mol
# GULP energy per Si atom -5574.853832 kJ/mol
# Density = 1.742814 g / cm^3
# Si number density = 17.467896 Si / 1000 Ang^3
#
#
#
# Elastic Constant Matrix: (Units=GPa)
#
#
# Indices 1 2 3 4 5 6 
#
# 1 55.0976 20.1814 37.8410 0.0000 15.6214 0.0000
# 2 20.1814 33.1546 17.6034 0.0000 9.0057 0.0000
# 3 37.8410 17.6034 76.8306 0.0000 32.2209 0.0000
# 4 0.0000 0.0000 0.0000 24.7077 0.0000 4.5537
# 5 15.6214 9.0057 32.2209 0.0000 26.2723 0.0000
# 6 0.0000 0.0000 0.0000 4.5537 0.0000 25.0741
#
#
#
# Elastic Compliance Matrix: (Units=1/GPa)
#
#
# Indices 1 2 3 4 5 6 
#
# 1 0.031400 -0.012535 -0.013518 0.000000 0.002205 0.000000
# 2 -0.012535 0.039588 -0.000682 0.000000 -0.005280 0.000000
# 3 -0.013518 -0.000682 0.033688 0.000000 -0.033043 0.000000
# 4 0.000000 0.000000 0.000000 0.041875 0.000000 -0.007605
# 5 0.002205 -0.005280 -0.033043 0.000000 0.079087 0.000000
# 6 0.000000 0.000000 0.000000 -0.007605 0.000000 0.041263
#
#
# Mechanical properties :
#
#
# Convention : Reuss Voigt Hill
#
# Bulk Modulus (GPa) = 19.52932 35.14827 27.33880
# Shear Modulus (GPa) = 14.81746 21.17460 17.99603
#
# Velocity S-wave (km/s) = 2.91566 3.48544 3.21321
# Velocity P-wave (km/s) = 4.74755 6.03018 5.42689
#
# Compressibility (1/GPa) = 0.05120507
#
# Stress axis : x y z
#
# Youngs Moduli (GPa) = 31.84717 25.25993 29.68451
#
# Poissons Ratio (x) = 0.31663 0.40128
# Poissons Ratio (y) = 0.39920 0.02026
# Poissons Ratio (z) = 0.43052 0.01724
#
# Static dielectric constant tensor:
#      x y z
#    x 1.601310 0.000000 0.008230 
#    y 0.000000 1.588530 0.000000 
#    z 0.008230 0.000000 1.603600 
# 
# From -- ./inp_files/64245.got.cif
#   From: 2010.05.17/outbox.cif.g08.bks.cpg/sg11_33_cif.got.tgz:64245.got - 2010.06.03 12:22:45.
