data_PCOD9164289
_publ_section_title
;
Structure prediction by ZEFSAII (Michael W. Deem and Ramdas Pophale) SiO2 
 PCOD9164289
Probable space group: P 21/M
;
_chemical_formula_sum "Si O2"
_cell_formula_units_Z 26
_cell_length_a 13.631270
_cell_length_b 12.308170
_cell_length_c 7.393377
_cell_angle_alpha 90.000000
_cell_angle_beta 111.660635
_cell_angle_gamma 90.000000
_cell_volume 1152.839809
_symmetry_space_group_name_H-M "P 21/M"
_symmetry_group_IT_number 11
_symmetry_cell_setting 'monoclinic'
loop_
_space_group_symop_operation_xyz
x,y,z
-x,1/2+y,-z
-x,-y,-z
x,1/2-y,z
loop_
_atom_site_type_symbol
_atom_site_label
_atom_site_fract_x
_atom_site_fract_y
_atom_site_fract_z
Si Si1 0.668348 0.127000 0.836702
Si Si2 0.147345 0.018259 0.949320
Si Si3 0.456146 0.470773 0.775648
Si Si4 0.731603 0.372178 0.464995
Si Si5 0.166051 0.250000 0.423792
Si Si6 0.250302 0.250000 0.089114
Si Si7 0.652456 0.750000 0.193868
Si Si8 0.077620 0.486794 0.316797
O O1 0.644402 0.250000 0.886548
O O2 0.563385 0.054129 0.739941
O O3 0.716673 0.137449 0.670955
O O4 0.754706 0.063574 0.017381
O O5 0.191657 0.139774 0.992745
O O6 0.106499 0.992360 0.124782
O O7 0.045993 0.012492 0.751407
O O8 0.371562 0.560984 0.664358
O O9 0.397174 0.356791 0.755391
O O10 0.500000 0.500000 0.000000
O O11 0.737122 0.250000 0.393241
O O12 0.838932 0.440999 0.515079
O O13 0.248348 0.250000 0.307122
O O14 0.228108 0.250000 0.653155
O O15 0.099426 0.359677 0.362919
O O16 0.352980 0.250000 0.028953
#
# Coordination Sequence:
#
# PCOD9164289 Si02
#       8
#     4   4   4   4   2   2   2   4
#     4  10  21  40  61  90 125 160 210 259 315 375
#     4   9  19  35  61  94 127 165 208 257 313 384
#     4  12  25  42  62  85 122 167 209 264 318 374
#     4  10  22  39  63  93 123 161 205 259 318 387
#     4  10  20  40  67  93 129 167 214 267 317 378
#     4  10  22  40  62  93 130 173 210 260 319 380
#     4  12  24  44  65  92 127 166 218 265 314 380
#     4   9  18  35  63  94 125 164 209 257 318 377
#
# _framework density 22.553004000000001
#
# number of rings (size 3 to 8) (size 9 to 14) (size 15 to 20)
#    0.000    1.846    2.308    1.385    3.231    0.000 
#    4.154    0.769    0.000    0.000    0.000    0.000 
#    0.000    0.000    0.000    0.000    0.000    0.000 
#
# Total GULP energy -145200.073632 kJ/mol
# GULP energy per Si atom -5584.618217 kJ/mol
# Density = 2.250167 g / cm^3
# Si number density = 22.553004 Si / 1000 Ang^3
#
#
#
# Elastic Constant Matrix: (Units=GPa)
#
#
# Indices 1 2 3 4 5 6 
#
# 1 85.3361 46.1224 27.3406 0.0000 20.9233 0.0000
# 2 46.1224 166.4729 49.2385 0.0000 42.8551 0.0000
# 3 27.3406 49.2385 81.5800 0.0000 32.7150 0.0000
# 4 0.0000 0.0000 0.0000 -0.0978 0.0000 0.7618
# 5 20.9233 42.8551 32.7150 0.0000 49.8350 0.0000
# 6 0.0000 0.0000 0.0000 0.7618 0.0000 6.0341
#
#
#
# Elastic Compliance Matrix: (Units=1/GPa)
#
#
# Indices 1 2 3 4 5 6 
#
# 1 0.014491 -0.002769 -0.002308 0.000000 -0.002188 0.000000
# 2 -0.002769 0.008712 -0.002432 0.000000 -0.004732 0.000000
# 3 -0.002308 -0.002432 0.018014 0.000000 -0.008765 0.000000
# 4 0.000000 0.000000 0.000000 -5.156445 0.000000 0.651002
# 5 -0.002188 -0.004732 -0.008765 0.000000 0.030808 0.000000
# 6 0.000000 0.000000 0.000000 0.651002 0.000000 0.083535
#
#
# Mechanical properties :
#
#
# Convention : Reuss Voigt Hill
#
# Bulk Modulus (GPa) = 38.16983 64.31023 51.24003
# Shear Modulus (GPa) = -1.00459 25.20010 12.09775
#
# Velocity S-wave (km/s) = -0.66813 3.34634 2.31857
# Velocity P-wave (km/s) = 4.04550 6.59604 5.47146
#
# Compressibility (1/GPa) = 0.02619870
#
# Stress axis : x y z
#
# Youngs Moduli (GPa) = 69.00949 114.78668 55.51093
#
# Poissons Ratio (x) = 0.31784 0.12811
# Poissons Ratio (y) = 0.19108 0.13502
# Poissons Ratio (z) = 0.15926 0.27921
#
# Static dielectric constant tensor:
#      x y z
#    x 1.879210 0.000000 -0.075380 
#    y 0.000000 2.081780 0.000000 
#    z -0.075380 0.000000 1.817120 
# 
# From -- ./inp_files/21383.got.cif
#   From: 2010.05.17/outbox.cif.g08.bks.cpg/sg11_11_cif.got.tgz:21383.got - 2010.06.03 12:22:45.
