data_PCOD9164362
_publ_section_title
;
Structure prediction by ZEFSAII (Michael W. Deem and Ramdas Pophale) SiO2 
 PCOD9164362
Probable space group: P 21/M
;
_chemical_formula_sum "Si O2"
_cell_formula_units_Z 14
_cell_length_a 7.084673
_cell_length_b 10.485579
_cell_length_c 11.793051
_cell_angle_alpha 90.000000
_cell_angle_beta 137.721467
_cell_angle_gamma 90.000000
_cell_volume 589.362707
_symmetry_space_group_name_H-M "P 21/M"
_symmetry_group_IT_number 11
_symmetry_cell_setting 'monoclinic'
loop_
_space_group_symop_operation_xyz
x,y,z
-x,1/2+y,-z
-x,-y,-z
x,1/2-y,z
loop_
_atom_site_type_symbol
_atom_site_label
_atom_site_fract_x
_atom_site_fract_y
_atom_site_fract_z
Si Si1 0.021065 0.750000 0.298638
Si Si2 0.639243 0.750000 0.356440
Si Si3 0.602135 0.881942 0.979763
Si Si4 0.287127 0.015987 0.197420
Si Si5 0.686539 0.750000 0.625935
O O1 0.837794 0.750000 0.332979
O O2 0.920367 0.863717 0.169934
O O3 0.346175 0.750000 0.466150
O O4 0.452420 0.619114 0.277264
O O5 0.799464 0.750000 0.547770
O O6 0.465108 0.750000 0.958545
O O7 0.548511 0.899949 0.824517
O O8 0.500000 0.000000 0.000000
O O9 0.245481 0.116327 0.281084
O O10 0.000000 0.000000 0.000000
#
# Coordination Sequence:
#
# PCOD9164362 Si02
#       5
#     2   2   4   4   2
#     4  10  23  43  71  99 140 174 229 284 351 394
#     4  12  25  43  67 105 139 177 233 279 352 423
#     4  10  20  43  69  99 135 181 234 280 329 410
#     4  12  24  45  69  97 137 185 235 283 342 411
#     4  12  26  48  66  98 143 179 222 297 353 401
#
# _framework density 23.754472
#
# number of rings (size 3 to 8) (size 9 to 14) (size 15 to 20)
#    0.857    0.000    4.286    3.429    0.000    1.143 
#    5.143    0.000    0.000    0.000    0.000    0.000 
#    0.000    0.000    0.000    0.000    0.000    0.000 
#
# Total GULP energy -78035.864958 kJ/mol
# GULP energy per Si atom -5573.990354 kJ/mol
# Density = 2.370041 g / cm^3
# Si number density = 23.754472 Si / 1000 Ang^3
#
#
#
# Elastic Constant Matrix: (Units=GPa)
#
#
# Indices 1 2 3 4 5 6 
#
# 1 64.6941 11.3987 18.3371 0.0000 -31.1413 0.0000
# 2 11.3987 191.6927 50.4813 0.0000 -9.4056 0.0000
# 3 18.3371 50.4813 118.0310 0.0000 -22.7841 0.0000
# 4 0.0000 0.0000 0.0000 59.1171 0.0000 -4.7104
# 5 -31.1413 -9.4056 -22.7841 0.0000 55.1646 0.0000
# 6 0.0000 0.0000 0.0000 -4.7104 0.0000 27.0043
#
#
#
# Elastic Compliance Matrix: (Units=1/GPa)
#
#
# Indices 1 2 3 4 5 6 
#
# 1 0.021388 -0.000470 -0.000876 0.000000 0.011632 0.000000
# 2 -0.000470 0.005889 -0.002503 0.000000 -0.000295 0.000000
# 3 -0.000876 -0.002503 0.010324 0.000000 0.003343 0.000000
# 4 0.000000 0.000000 0.000000 0.017154 0.000000 0.002992
# 5 0.011632 -0.000295 0.003343 0.000000 0.026024 0.000000
# 6 0.000000 0.000000 0.000000 0.002992 0.000000 0.037553
#
#
# Mechanical properties :
#
#
# Convention : Reuss Voigt Hill
#
# Bulk Modulus (GPa) = 33.44217 59.42800 46.43509
# Shear Modulus (GPa) = 36.76522 47.87057 42.31790
#
# Velocity S-wave (km/s) = 3.93837 4.49399 4.22533
# Velocity P-wave (km/s) = 5.89829 7.21110 6.58748
#
# Compressibility (1/GPa) = 0.02990237
#
# Stress axis : x y z
#
# Youngs Moduli (GPa) = 46.75612 169.80106 96.86039
#
# Poissons Ratio (x) = 0.07986 0.08488
# Poissons Ratio (y) = 0.02199 0.24241
# Poissons Ratio (z) = 0.04097 0.42496
#
# Static dielectric constant tensor:
#      x y z
#    x 2.085450 0.000000 0.035290 
#    y 0.000000 1.792270 0.000000 
#    z 0.035290 0.000000 1.923300 
# 
# From -- ./inp_files/11169.got.cif
#   From: 2010.05.17/outbox.cif.g08.bks.cpg/sg11_6_cif.got.tgz:11169.got - 2010.06.03 12:22:45.
