data_PCOD9164391
_publ_section_title
;
Structure prediction by ZEFSAII (Michael W. Deem and Ramdas Pophale) SiO2 
 PCOD9164391
Probable space group: P 21/M
;
_chemical_formula_sum "Si O2"
_cell_formula_units_Z 32
_cell_length_a 22.616993
_cell_length_b 7.317429
_cell_length_c 22.828873
_cell_angle_alpha 90.000000
_cell_angle_beta 17.512970
_cell_angle_gamma 90.000000
_cell_volume 1136.923743
_symmetry_space_group_name_H-M "P 21/M"
_symmetry_group_IT_number 11
_symmetry_cell_setting 'monoclinic'
loop_
_space_group_symop_operation_xyz
x,y,z
-x,1/2+y,-z
-x,-y,-z
x,1/2-y,z
loop_
_atom_site_type_symbol
_atom_site_label
_atom_site_fract_x
_atom_site_fract_y
_atom_site_fract_z
Si Si1 0.874223 0.527700 0.738984
Si Si2 0.680439 0.956459 0.673014
Si Si3 0.209771 0.463192 0.057624
Si Si4 0.261146 0.471474 0.504533
Si Si5 0.211454 0.030361 0.929698
Si Si6 0.260457 0.466462 0.631222
Si Si7 0.292227 0.033862 0.224967
Si Si8 0.763848 0.967979 0.220109
O O1 0.874134 0.750000 0.737860
O O2 0.740913 0.474540 0.921705
O O3 0.842076 0.467212 0.701884
O O4 0.084078 0.449566 0.555877
O O5 0.606282 0.750000 0.746762
O O6 0.628728 0.037941 0.658492
O O7 0.675750 0.048559 0.740964
O O8 0.253615 0.250000 0.016191
O O9 0.275951 0.544600 0.932419
O O10 0.970141 0.476668 0.279680
O O11 0.269082 0.250000 0.496052
O O12 0.335332 0.538553 0.497771
O O13 0.231786 0.250000 0.911615
O O14 0.297914 0.961914 0.785876
O O15 0.976845 0.991980 0.147469
O O16 0.294404 0.250000 0.599754
O O17 0.319213 0.541747 0.639600
O O18 0.252215 0.250000 0.270267
O O19 0.500000 0.000000 0.000000
O O20 0.737606 0.750000 0.244773
O O21 0.000000 0.000000 0.000000
#
# Coordination Sequence:
#
# PCOD9164391 Si02
#       8
#     4   4   4   4   4   4   4   4
#     4   9  17  29  45  64  83 104 133 166 198 235
#     4   9  17  29  45  64  83 104 133 166 198 235
#     4   8  13  21  33  49  69  92 119 152 187 220
#     4   8  13  21  33  49  69  92 119 152 187 220
#     4   8  12  17  25  38  58  85 115 145 176 210
#     4   8  12  17  25  38  58  85 115 145 176 210
#     4  10  21  34  46  62  84 108 133 162 198 240
#     4   8  12  16  22  34  54  82 115 144 170 206
#
# _framework density 28.146125000000001
#
# number of rings (size 3 to 8) (size 9 to 14) (size 15 to 20)
#    0.000    3.500    0.000    0.375    0.000    1.000 
#    0.000    0.000    0.000    0.000    0.000    0.000 
#    0.000    0.000    0.000    1.125    0.000    6.750 
#
# Total GULP energy -178641.867874 kJ/mol
# GULP energy per Si atom -5582.558371 kJ/mol
# Density = 2.808206 g / cm^3
# Si number density = 28.146125 Si / 1000 Ang^3
#
#
#
# Elastic Constant Matrix: (Units=GPa)
#
#
# Indices 1 2 3 4 5 6 
#
# 1 334.5906 27.0331 73.8529 0.0000 66.7599 0.0000
# 2 27.0331 155.0219 31.5498 0.0000 3.0637 0.0000
# 3 73.8529 31.5498 70.3674 0.0000 35.1680 0.0000
# 4 0.0000 0.0000 0.0000 31.0579 0.0000 -6.0791
# 5 66.7599 3.0637 35.1680 0.0000 90.7959 0.0000
# 6 0.0000 0.0000 0.0000 -6.0791 0.0000 -3.2682
#
#
#
# Elastic Compliance Matrix: (Units=1/GPa)
#
#
# Indices 1 2 3 4 5 6 
#
# 1 0.004083 0.000027 -0.003468 0.000000 -0.001660 0.000000
# 2 0.000027 0.007211 -0.003881 0.000000 0.001240 0.000000
# 3 -0.003468 -0.003881 0.022632 0.000000 -0.006085 0.000000
# 4 0.000000 0.000000 0.000000 0.023604 0.000000 -0.043905
# 5 -0.001660 0.001240 -0.006085 0.000000 0.014549 0.000000
# 6 0.000000 0.000000 0.000000 -0.043905 0.000000 -0.224312
#
#
# Mechanical properties :
#
#
# Convention : Reuss Voigt Hill
#
# Bulk Modulus (GPa) = 51.86140 91.65018 71.75579
# Shear Modulus (GPa) = -38.12154 52.22007 7.04926
#
# Velocity S-wave (km/s) = -3.68423 4.31202 1.58429
# Velocity P-wave (km/s) = 0.60638 7.57788 5.37550
#
# Compressibility (1/GPa) = 0.01928216
#
# Stress axis : x y z
#
# Youngs Moduli (GPa) = 244.90460 138.66869 44.18509
#
# Poissons Ratio (x) = -0.00368 0.15322
# Poissons Ratio (y) = -0.00649 0.17149
# Poissons Ratio (z) = 0.84926 0.53818
#
# Static dielectric constant tensor:
#      x y z
#    x 2.893060 0.000000 -0.121860 
#    y 0.000000 1.952050 0.000000 
#    z -0.121860 0.000000 2.262380 
# 
# From -- ./inp_files/69931.got.cif
#   From: 2010.05.17/outbox.cif.g08.bks.cpg/sg11_35_cif.got.tgz:69931.got - 2010.06.03 12:22:45.
