data_PCOD9164489
_publ_section_title
;
Structure prediction by ZEFSAII (Michael W. Deem and Ramdas Pophale) SiO2 
 PCOD9164489
Probable space group: P 21/M
;
_chemical_formula_sum "Si O2"
_cell_formula_units_Z 32
_cell_length_a 15.183275
_cell_length_b 8.905192
_cell_length_c 23.813042
_cell_angle_alpha 90.000000
_cell_angle_beta 148.819862
_cell_angle_gamma 90.000000
_cell_volume 1666.968297
_symmetry_space_group_name_H-M "P 21/M"
_symmetry_group_IT_number 11
_symmetry_cell_setting 'monoclinic'
loop_
_space_group_symop_operation_xyz
x,y,z
-x,1/2+y,-z
-x,-y,-z
x,1/2-y,z
loop_
_atom_site_type_symbol
_atom_site_label
_atom_site_fract_x
_atom_site_fract_y
_atom_site_fract_z
Si Si1 0.367674 0.574076 0.145760
Si Si2 0.330475 0.919179 0.885903
Si Si3 0.649941 0.085726 0.235271
Si Si4 0.390037 0.067917 0.491407
Si Si5 0.973865 0.921047 0.426396
Si Si6 0.348582 0.928325 0.268728
Si Si7 0.033758 0.932426 0.332624
Si Si8 0.013771 0.075481 0.068584
O O1 0.418427 0.750000 0.167732
O O2 0.483573 0.455278 0.178082
O O3 0.373499 0.539928 0.215924
O O4 0.179271 0.561890 0.016447
O O5 0.313018 0.750000 0.900134
O O6 0.369953 0.905582 0.841589
O O7 0.147285 0.004261 0.789336
O O8 0.500000 0.000000 0.000000
O O9 0.719313 0.250000 0.291233
O O10 0.773603 0.945300 0.310791
O O11 0.380283 0.250000 0.481575
O O12 0.496450 0.028695 0.606291
O O13 0.500000 0.000000 0.500000
O O14 0.200620 0.998475 0.393109
O O15 0.026924 0.750000 0.459391
O O16 0.045523 0.980254 0.405625
O O17 0.000000 0.000000 0.500000
O O18 0.327902 0.750000 0.262085
O O19 0.168520 0.002701 0.186525
O O20 0.031824 0.750000 0.329458
O O21 0.052222 0.250000 0.082031
O O22 0.000000 0.000000 0.000000
#
# Coordination Sequence:
#
# PCOD9164489 Si02
#       8
#     4   4   4   4   4   4   4   4
#     4   9  18  33  53  82 116 150 188 234 292 351
#     4  10  21  40  64  89 119 157 199 245 298 359
#     4  10  21  35  53  84 118 150 190 235 286 344
#     4  11  24  43  64  88 120 160 205 257 306 360
#     4  10  21  36  57  86 121 157 193 236 288 351
#     4   9  20  37  57  81 111 151 194 240 298 352
#     4  10  22  41  64  91 121 157 201 252 305 359
#     4   9  17  31  52  78 109 146 187 232 283 342
#
# _framework density 19.196525999999999
#
# number of rings (size 3 to 8) (size 9 to 14) (size 15 to 20)
#    0.000    2.250    0.000    3.000    1.750    6.500 
#    2.250    0.000    0.000    0.000    0.000    0.000 
#    0.000    0.000    0.000    0.000    0.000    0.000 
#
# Total GULP energy -178143.114872 kJ/mol
# GULP energy per Si atom -5566.972340 kJ/mol
# Density = 1.915283 g / cm^3
# Si number density = 19.196526 Si / 1000 Ang^3
#
#
#
# Elastic Constant Matrix: (Units=GPa)
#
#
# Indices 1 2 3 4 5 6 
#
# 1 60.8108 49.5996 50.2755 0.0000 39.7524 0.0000
# 2 49.5996 51.0401 45.0129 0.0000 5.9374 0.0000
# 3 50.2755 45.0129 123.7120 0.0000 8.7385 0.0000
# 4 0.0000 0.0000 0.0000 33.6074 0.0000 2.4846
# 5 39.7524 5.9374 8.7385 0.0000 0.2243 0.0000
# 6 0.0000 0.0000 0.0000 2.4846 0.0000 26.3546
#
#
#
# Elastic Compliance Matrix: (Units=1/GPa)
#
#
# Indices 1 2 3 4 5 6 
#
# 1 0.000535 -0.002829 -0.001270 0.000000 0.029472 0.000000
# 2 -0.002829 0.033456 -0.009203 0.000000 -0.025778 0.000000
# 3 -0.001270 -0.009203 0.012079 0.000000 -0.001851 0.000000
# 4 0.000000 0.000000 0.000000 0.029964 0.000000 -0.002825
# 5 0.029472 -0.025778 -0.001851 0.000000 -0.010581 0.000000
# 6 0.000000 0.000000 0.000000 -0.002825 0.000000 0.038210
#
#
# Mechanical properties :
#
#
# Convention : Reuss Voigt Hill
#
# Bulk Modulus (GPa) = 51.36906 58.37100 54.87003
# Shear Modulus (GPa) = 36.56179 18.08224 27.32201
#
# Velocity S-wave (km/s) = 4.36891 3.07246 3.77673
# Velocity P-wave (km/s) = 7.22963 6.56199 6.90388
#
# Compressibility (1/GPa) = 0.01946697
#
# Stress axis : x y z
#
# Youngs Moduli (GPa) = 1867.76659 29.89020 82.79088
#
# Poissons Ratio (x) = 0.08455 0.10516
# Poissons Ratio (y) = 5.28307 0.76190
# Poissons Ratio (z) = 2.37245 0.27507
#
# Static dielectric constant tensor:
#      x y z
#    x 1.656930 0.000000 0.046670 
#    y 0.000000 1.708880 0.000000 
#    z 0.046670 0.000000 1.611300 
# 
# From -- ./inp_files/69120.got.cif
#   From: 2010.05.17/outbox.cif.g08.bks.cpg/sg11_35_cif.got.tgz:69120.got - 2010.06.03 12:22:45.
