data_PCOD9164214
_publ_section_title
;
Structure prediction by ZEFSAII (Michael W. Deem and Ramdas Pophale) SiO2 
 PCOD9164214
Probable space group: P 21/M
;
_chemical_formula_sum "Si O2"
_cell_formula_units_Z 32
_cell_length_a 12.486522
_cell_length_b 19.581774
_cell_length_c 9.083567
_cell_angle_alpha 90.000000
_cell_angle_beta 134.741366
_cell_angle_gamma 90.000000
_cell_volume 1577.562360
_symmetry_space_group_name_H-M "P 21/M"
_symmetry_group_IT_number 11
_symmetry_cell_setting 'monoclinic'
loop_
_space_group_symop_operation_xyz
x,y,z
-x,1/2+y,-z
-x,-y,-z
x,1/2-y,z
loop_
_atom_site_type_symbol
_atom_site_label
_atom_site_fract_x
_atom_site_fract_y
_atom_site_fract_z
Si Si1 0.226700 0.580587 0.947609
Si Si2 0.003442 0.671221 0.913772
Si Si3 0.578154 0.072108 0.582523
Si Si4 0.085970 0.050735 0.693916
Si Si5 0.710520 0.828126 0.120029
Si Si6 0.352003 0.673062 0.813920
Si Si7 0.831962 0.125867 0.637743
Si Si8 0.691660 0.670883 0.752522
O O1 0.083934 0.620740 0.877788
O O2 0.357786 0.587278 0.194373
O O3 0.190461 0.501115 0.887429
O O4 0.278301 0.617342 0.848757
O O5 0.003404 0.750000 0.862678
O O6 0.095427 0.667691 0.157312
O O7 0.834164 0.649253 0.792143
O O8 0.718306 0.073875 0.606829
O O9 0.456258 0.127939 0.419482
O O10 0.500000 0.000000 0.500000
O O11 0.186330 0.110907 0.718005
O O12 0.962932 0.087554 0.676520
O O13 0.000000 0.000000 0.500000
O O14 0.750499 0.750000 0.203970
O O15 0.532030 0.837923 0.974827
O O16 0.732786 0.832943 0.964922
O O17 0.328998 0.750000 0.849917
O O18 0.268902 0.667292 0.576353
O O19 0.661615 0.750000 0.690602
#
# Coordination Sequence:
#
# PCOD9164214 Si02
#       8
#     4   4   4   4   4   4   4   4
#     4  11  26  42  63  95 138 175 209 273 333 393
#     4  10  22  41  67  97 131 172 216 271 323 383
#     4  11  25  40  64  96 128 174 217 265 321 386
#     4  12  25  44  64  97 133 175 217 272 335 394
#     4  10  22  42  69  95 125 168 226 277 319 386
#     4  11  23  43  67  98 131 172 220 272 328 392
#     4  11  23  39  67  94 127 173 222 268 316 390
#     4  10  20  39  66  94 125 166 220 269 315 379
#
# _framework density 20.284459999999999
#
# number of rings (size 3 to 8) (size 9 to 14) (size 15 to 20)
#    0.000    1.250    3.750    1.500    1.750    5.500 
#    0.000    0.000    0.000    0.000    0.000    0.000 
#    0.000    0.000    0.000    0.000    0.000    0.000 
#
# Total GULP energy -178824.552368 kJ/mol
# GULP energy per Si atom -5588.267262 kJ/mol
# Density = 2.023829 g / cm^3
# Si number density = 20.284460 Si / 1000 Ang^3
#
#
#
# Elastic Constant Matrix: (Units=GPa)
#
#
# Indices 1 2 3 4 5 6 
#
# 1 86.7931 38.8292 5.4470 0.0000 16.8973 0.0000
# 2 38.8292 94.4600 19.0950 0.0000 16.1583 0.0000
# 3 5.4470 19.0950 50.4092 0.0000 9.2707 0.0000
# 4 0.0000 0.0000 0.0000 27.8820 0.0000 8.6765
# 5 16.8973 16.1583 9.2707 0.0000 26.6295 0.0000
# 6 0.0000 0.0000 0.0000 8.6765 0.0000 22.1004
#
#
#
# Elastic Compliance Matrix: (Units=1/GPa)
#
#
# Indices 1 2 3 4 5 6 
#
# 1 0.015181 -0.005392 0.001679 0.000000 -0.006946 0.000000
# 2 -0.005392 0.014290 -0.004129 0.000000 -0.003812 0.000000
# 3 0.001679 -0.004129 0.022389 0.000000 -0.006355 0.000000
# 4 0.000000 0.000000 0.000000 0.040857 0.000000 -0.016040
# 5 -0.006946 -0.003812 -0.006355 0.000000 0.046485 0.000000
# 6 0.000000 0.000000 0.000000 -0.016040 0.000000 0.051545
#
#
# Mechanical properties :
#
#
# Convention : Reuss Voigt Hill
#
# Bulk Modulus (GPa) = 27.64246 39.82276 33.73261
# Shear Modulus (GPa) = 22.88455 26.54176 24.71315
#
# Velocity S-wave (km/s) = 3.36248 3.62121 3.49424
# Velocity P-wave (km/s) = 5.36023 6.09582 5.73982
#
# Compressibility (1/GPa) = 0.03617623
#
# Stress axis : x y z
#
# Youngs Moduli (GPa) = 65.87389 69.98111 44.66480
#
# Poissons Ratio (x) = 0.37730 -0.07501
# Poissons Ratio (y) = 0.35516 0.18443
# Poissons Ratio (z) = -0.11062 0.28897
#
# Static dielectric constant tensor:
#      x y z
#    x 1.694640 0.000000 0.001140 
#    y 0.000000 1.692440 0.000000 
#    z 0.001140 0.000000 1.772830 
# 
# From -- ./inp_files/19413.got.cif
#   From: 2010.05.17/outbox.cif.g08.bks.cpg/sg11_10_cif.got.tgz:19413.got - 2010.06.03 12:22:45.
