data_PCOD9164346
_publ_section_title
;
Structure prediction by ZEFSAII (Michael W. Deem and Ramdas Pophale) SiO2 
 PCOD9164346
Probable space group: P 21/M
;
_chemical_formula_sum "Si O2"
_cell_formula_units_Z 20
_cell_length_a 11.301815
_cell_length_b 16.731741
_cell_length_c 8.327653
_cell_angle_alpha 90.000000
_cell_angle_beta 143.271320
_cell_angle_gamma 90.000000
_cell_volume 941.742805
_symmetry_space_group_name_H-M "P 21/M"
_symmetry_group_IT_number 11
_symmetry_cell_setting 'monoclinic'
loop_
_space_group_symop_operation_xyz
x,y,z
-x,1/2+y,-z
-x,-y,-z
x,1/2-y,z
loop_
_atom_site_type_symbol
_atom_site_label
_atom_site_fract_x
_atom_site_fract_y
_atom_site_fract_z
Si Si1 0.348651 0.384304 0.867125
Si Si2 0.424698 0.250000 0.465947
Si Si3 0.326683 0.888956 0.319228
Si Si4 0.624529 0.250000 0.035269
Si Si5 0.444270 0.484533 0.690721
Si Si6 0.028665 0.750000 0.059428
Si Si7 0.956511 0.750000 0.362530
O O1 0.307716 0.430492 0.655782
O O2 0.175760 0.328263 0.744863
O O3 0.531164 0.326221 0.022777
O O4 0.425304 0.452830 0.067762
O O5 0.493013 0.327956 0.442712
O O6 0.545034 0.250000 0.765372
O O7 0.194253 0.250000 0.244635
O O8 0.401330 0.928546 0.236109
O O9 0.141559 0.829585 0.122422
O O10 0.316262 0.962058 0.430341
O O11 0.857330 0.250000 0.315364
O O12 0.024098 0.750000 0.249661
#
# Coordination Sequence:
#
# PCOD9164346 Si02
#       7
#     4   2   4   2   4   2   2
#     4  10  22  41  67  91 132 166 216 260 320 382
#     4  11  22  43  67  92 126 171 214 262 316 375
#     4  10  22  41  67  91 132 166 216 260 320 382
#     4  11  22  43  67  92 126 171 214 262 316 375
#     4  10  20  42  64  96 132 172 198 274 326 372
#     4  11  24  42  68  98 123 171 221 262 312 382
#     4  11  24  42  68  98 123 171 221 262 312 382
#
# _framework density 21.237221999999999
#
# number of rings (size 3 to 8) (size 9 to 14) (size 15 to 20)
#    0.000    1.600    2.000    2.400    0.000    6.400 
#    0.000   22.000    0.000    0.000    0.000    0.000 
#    0.000    0.000    0.000    0.000    0.000    0.000 
#
# Total GULP energy -111733.861193 kJ/mol
# GULP energy per Si atom -5586.693060 kJ/mol
# Density = 2.118889 g / cm^3
# Si number density = 21.237222 Si / 1000 Ang^3
#
#
#
# Elastic Constant Matrix: (Units=GPa)
#
#
# Indices 1 2 3 4 5 6 
#
# 1 35.4525 25.9931 -5.3510 0.0000 -9.9375 0.0000
# 2 25.9931 127.4352 2.2376 0.0000 -1.3278 0.0000
# 3 -5.3510 2.2376 63.7336 0.0000 10.4195 0.0000
# 4 0.0000 0.0000 0.0000 2.7856 0.0000 -4.9230
# 5 -9.9375 -1.3278 10.4195 0.0000 32.3710 0.0000
# 6 0.0000 0.0000 0.0000 -4.9230 0.0000 29.0826
#
#
#
# Elastic Compliance Matrix: (Units=1/GPa)
#
#
# Indices 1 2 3 4 5 6 
#
# 1 0.036842 -0.007434 0.001641 0.000000 0.010477 0.000000
# 2 -0.007434 0.009358 -0.000678 0.000000 -0.001680 0.000000
# 3 0.001641 -0.000678 0.016650 0.000000 -0.004883 0.000000
# 4 0.000000 0.000000 0.000000 0.512240 0.000000 0.086710
# 5 0.010477 -0.001680 -0.004883 0.000000 0.035611 0.000000
# 6 0.000000 0.000000 0.000000 0.086710 0.000000 0.049063
#
#
# Mechanical properties :
#
#
# Convention : Reuss Voigt Hill
#
# Bulk Modulus (GPa) = 20.03680 30.26455 25.15068
# Shear Modulus (GPa) = 7.25330 26.43059 16.84194
#
# Velocity S-wave (km/s) = 1.85008 3.53163 2.81915
# Velocity P-wave (km/s) = 3.74419 5.55982 4.73975
#
# Compressibility (1/GPa) = 0.04990816
#
# Stress axis : x y z
#
# Youngs Moduli (GPa) = 27.14295 106.86135 60.05912
#
# Poissons Ratio (x) = 0.79445 -0.09858
# Poissons Ratio (y) = 0.20179 0.04072
# Poissons Ratio (z) = -0.04455 0.07246
#
# Static dielectric constant tensor:
#      x y z
#    x 1.804410 0.000000 -0.064240 
#    y 0.000000 1.770990 0.000000 
#    z -0.064240 0.000000 1.756870 
# 
# From -- ./inp_files/4491.got.cif
#   From: 2010.05.17/outbox.cif.g08.bks.cpg/sg11_3_cif.got.tgz:4491.got - 2010.06.03 12:22:45.
