data_PCOD9164752
_publ_section_title
;
Structure prediction by ZEFSAII (Michael W. Deem and Ramdas Pophale) SiO2 
 PCOD9164752
Probable space group: P 21/M
;
_chemical_formula_sum "Si O2"
_cell_formula_units_Z 28
_cell_length_a 14.421884
_cell_length_b 18.609454
_cell_length_c 5.026130
_cell_angle_alpha 90.000000
_cell_angle_beta 68.485365
_cell_angle_gamma 90.000000
_cell_volume 1254.941656
_symmetry_space_group_name_H-M "P 21/M"
_symmetry_group_IT_number 11
_symmetry_cell_setting 'monoclinic'
loop_
_space_group_symop_operation_xyz
x,y,z
-x,1/2+y,-z
-x,-y,-z
x,1/2-y,z
loop_
_atom_site_type_symbol
_atom_site_label
_atom_site_fract_x
_atom_site_fract_y
_atom_site_fract_z
Si Si1 0.052336 0.925168 0.040221
Si Si2 0.571077 0.961706 0.220854
Si Si3 0.854025 0.899653 0.535310
Si Si4 0.746045 0.870216 0.165038
Si Si5 0.535185 0.250000 0.235128
Si Si6 0.819243 0.430760 0.573931
Si Si7 0.401052 0.250000 0.881276
Si Si8 0.397514 0.892733 0.116383
O O1 0.141184 0.928558 0.163763
O O2 0.963667 0.888791 0.301523
O O3 0.101228 0.897187 0.716941
O O4 0.000000 0.000000 0.000000
O O5 0.672165 0.937650 0.252123
O O6 0.501322 0.898656 0.172273
O O7 0.500000 0.000000 0.500000
O O8 0.601717 0.025736 0.994767
O O9 0.783239 0.853260 0.418764
O O10 0.821885 0.982907 0.519349
O O11 0.835854 0.884101 0.863791
O O12 0.672653 0.814277 0.111034
O O13 0.439448 0.250000 0.141041
O O14 0.590829 0.324581 0.094403
O O15 0.495624 0.250000 0.577896
O O16 0.712764 0.392424 0.642192
#
# Coordination Sequence:
#
# PCOD9164752 Si02
#       8
#     4   4   4   4   2   4   2   4
#     4  10  21  36  61  92 129 157 202 265 323 373
#     4  11  23  38  62  94 126 162 207 273 313 367
#     4  11  21  38  62  95 124 160 203 263 325 374
#     4  12  23  39  64  89 127 163 205 261 315 379
#     4  12  26  46  60  89 132 181 214 252 308 391
#     4  11  21  37  61  95 125 164 206 259 316 380
#     4  12  26  44  62  87 128 173 220 256 312 387
#     4  11  25  39  63  91 130 170 213 260 317 380
#
# _framework density 22.311792000000001
#
# number of rings (size 3 to 8) (size 9 to 14) (size 15 to 20)
#    0.000    0.857    2.857    6.857    4.000    0.000 
#    0.000    0.000    0.000    5.143    0.000    0.000 
#    0.000    0.000    0.000    0.000    0.000    0.000 
#
# Total GULP energy -156136.597831 kJ/mol
# GULP energy per Si atom -5576.307065 kJ/mol
# Density = 2.226101 g / cm^3
# Si number density = 22.311792 Si / 1000 Ang^3
#
#
#
# Elastic Constant Matrix: (Units=GPa)
#
#
# Indices 1 2 3 4 5 6 
#
# 1 74.4829 7.2572 10.6668 0.0000 0.0504 0.0000
# 2 7.2572 39.1015 4.7768 0.0000 -10.9153 0.0000
# 3 10.6668 4.7768 112.9516 0.0000 -19.5578 0.0000
# 4 0.0000 0.0000 0.0000 17.4141 0.0000 -3.1178
# 5 0.0504 -10.9153 -19.5578 0.0000 46.8060 0.0000
# 6 0.0000 0.0000 0.0000 -3.1178 0.0000 17.3063
#
#
#
# Elastic Compliance Matrix: (Units=1/GPa)
#
#
# Indices 1 2 3 4 5 6 
#
# 1 0.013897 -0.002755 -0.001412 0.000000 -0.001247 0.000000
# 2 -0.002755 0.027902 0.000224 0.000000 0.006603 0.000000
# 3 -0.001412 0.000224 0.009687 0.000000 0.004102 0.000000
# 4 0.000000 0.000000 0.000000 0.059339 0.000000 0.010690
# 5 -0.001247 0.006603 0.004102 0.000000 0.024620 0.000000
# 6 0.000000 0.000000 0.000000 0.010690 0.000000 0.059708
#
#
# Mechanical properties :
#
#
# Convention : Reuss Voigt Hill
#
# Bulk Modulus (GPa) = 22.93592 30.21529 26.57560
# Shear Modulus (GPa) = 22.98075 29.89430 26.43753
#
# Velocity S-wave (km/s) = 3.21282 3.66436 3.44599
# Velocity P-wave (km/s) = 4.90560 5.61026 5.26973
#
# Compressibility (1/GPa) = 0.04359974
#
# Stress axis : x y z
#
# Youngs Moduli (GPa) = 71.95603 35.84002 103.22673
#
# Poissons Ratio (x) = 0.09874 0.14575
# Poissons Ratio (y) = 0.19824 -0.02308
# Poissons Ratio (z) = 0.10160 -0.00801
#
# Static dielectric constant tensor:
#      x y z
#    x 1.843920 0.000000 0.022810 
#    y 0.000000 2.068560 0.000000 
#    z 0.022810 0.000000 1.797290 
# 
# From -- ./inp_files/6789.got.cif
#   From: 2010.05.17/outbox.cif.g08.bks.cpg/sg11_4_cif.got.tgz:6789.got - 2010.06.03 12:22:45.
