data_PCOD9164548
_publ_section_title
;
Structure prediction by ZEFSAII (Michael W. Deem and Ramdas Pophale) SiO2 
 PCOD9164548
Probable space group: P 21/M
;
_chemical_formula_sum "Si O2"
_cell_formula_units_Z 20
_cell_length_a 5.188846
_cell_length_b 15.855715
_cell_length_c 11.458402
_cell_angle_alpha 90.000000
_cell_angle_beta 89.379126
_cell_angle_gamma 90.000000
_cell_volume 942.660193
_symmetry_space_group_name_H-M "P 21/M"
_symmetry_group_IT_number 11
_symmetry_cell_setting 'monoclinic'
loop_
_space_group_symop_operation_xyz
x,y,z
-x,1/2+y,-z
-x,-y,-z
x,1/2-y,z
loop_
_atom_site_type_symbol
_atom_site_label
_atom_site_fract_x
_atom_site_fract_y
_atom_site_fract_z
Si Si1 0.187795 0.414131 0.427041
Si Si2 0.062970 0.061119 0.888717
Si Si3 0.747837 0.750000 0.724816
Si Si4 0.248656 0.750000 0.875284
Si Si5 0.438997 0.598641 0.036343
Si Si6 0.692627 0.991300 0.353142
O O1 0.209917 0.330218 0.354826
O O2 0.266600 0.410783 0.562791
O O3 0.401639 0.476434 0.367390
O O4 0.894437 0.444592 0.412843
O O5 0.276029 0.128076 0.929627
O O6 0.778581 0.095027 0.862526
O O7 0.200566 0.018646 0.777734
O O8 0.000000 0.000000 0.000000
O O9 0.456671 0.750000 0.771287
O O10 0.959104 0.750000 0.827705
O O11 0.316646 0.663997 0.945456
O O12 0.500000 0.500000 0.000000
#
# Coordination Sequence:
#
# PCOD9164548 Si02
#       6
#     4   4   2   2   4   4
#     4  10  23  39  62  94 124 171 211 272 328 378
#     4  10  21  35  64  92 125 170 210 263 317 400
#     4  12  26  38  66  94 132 164 220 283 331 380
#     4  12  26  42  62  96 138 170 220 287 323 396
#     4  10  23  39  59  92 128 175 212 260 335 393
#     4  10  21  41  65  90 129 166 222 260 319 398
#
# _framework density 21.216552
#
# number of rings (size 3 to 8) (size 9 to 14) (size 15 to 20)
#    0.000    1.600    0.000    3.600   16.800    0.000 
#    0.000    2.000    0.000    0.000    0.000    0.000 
#    0.000    0.000    0.000    0.000    0.000    0.000 
#
# Total GULP energy -111400.850772 kJ/mol
# GULP energy per Si atom -5570.042539 kJ/mol
# Density = 2.116826 g / cm^3
# Si number density = 21.216552 Si / 1000 Ang^3
#
#
#
# Elastic Constant Matrix: (Units=GPa)
#
#
# Indices 1 2 3 4 5 6 
#
# 1 136.3090 -3.9394 9.0243 0.0000 -13.8800 0.0000
# 2 -3.9394 61.9072 23.6399 0.0000 8.7423 0.0000
# 3 9.0243 23.6399 104.6157 0.0000 -10.8265 0.0000
# 4 0.0000 0.0000 0.0000 36.9785 0.0000 2.7175
# 5 -13.8800 8.7423 -10.8265 0.0000 37.1021 0.0000
# 6 0.0000 0.0000 0.0000 2.7175 0.0000 21.6560
#
#
#
# Elastic Compliance Matrix: (Units=1/GPa)
#
#
# Indices 1 2 3 4 5 6 
#
# 1 0.007645 0.000281 -0.000447 0.000000 0.002663 0.000000
# 2 0.000281 0.018848 -0.004879 0.000000 -0.005760 0.000000
# 3 -0.000447 -0.004879 0.011138 0.000000 0.004232 0.000000
# 4 0.000000 0.000000 0.000000 0.027294 0.000000 -0.003425
# 5 0.002663 -0.005760 0.004232 0.000000 0.030541 0.000000
# 6 0.000000 0.000000 0.000000 -0.003425 0.000000 0.046606
#
#
# Mechanical properties :
#
#
# Convention : Reuss Voigt Hill
#
# Bulk Modulus (GPa) = 36.31094 40.03127 38.17111
# Shear Modulus (GPa) = 30.98972 37.42112 34.20542
#
# Velocity S-wave (km/s) = 3.82598 4.20428 4.01958
# Velocity P-wave (km/s) = 6.05550 6.51743 6.29071
#
# Compressibility (1/GPa) = 0.02753991
#
# Stress axis : x y z
#
# Youngs Moduli (GPa) = 130.80075 53.05697 89.78301
#
# Poissons Ratio (x) = -0.01492 0.04017
# Poissons Ratio (y) = -0.03679 0.43808
# Poissons Ratio (z) = 0.05852 0.25888
#
# Static dielectric constant tensor:
#      x y z
#    x 1.887600 0.000000 0.070720 
#    y 0.000000 1.911800 0.000000 
#    z 0.070720 0.000000 1.872860 
# 
# From -- ./inp_files/29637.got.cif
#   From: 2010.05.17/outbox.cif.g08.bks.cpg/sg11_15_cif.got.tgz:29637.got - 2010.06.03 12:22:45.
