data_PCOD9164474
_publ_section_title
;
Structure prediction by ZEFSAII (Michael W. Deem and Ramdas Pophale) SiO2 
 PCOD9164474
Probable space group: P 21/M
;
_chemical_formula_sum "Si O2"
_cell_formula_units_Z 32
_cell_length_a 9.566919
_cell_length_b 13.640794
_cell_length_c 11.827824
_cell_angle_alpha 90.000000
_cell_angle_beta 60.593001
_cell_angle_gamma 90.000000
_cell_volume 1344.656808
_symmetry_space_group_name_H-M "P 21/M"
_symmetry_group_IT_number 11
_symmetry_cell_setting 'monoclinic'
loop_
_space_group_symop_operation_xyz
x,y,z
-x,1/2+y,-z
-x,-y,-z
x,1/2-y,z
loop_
_atom_site_type_symbol
_atom_site_label
_atom_site_fract_x
_atom_site_fract_y
_atom_site_fract_z
Si Si1 0.944542 0.134866 0.946426
Si Si2 0.813896 0.012200 0.724085
Si Si3 0.593274 0.851793 0.740864
Si Si4 0.579988 0.864443 0.398438
Si Si5 0.968074 0.866229 0.843020
Si Si6 0.913301 0.859977 0.361491
Si Si7 0.337980 0.924058 0.673738
Si Si8 0.617935 0.411950 0.982468
O O1 0.902232 0.250000 0.973912
O O2 0.039641 0.125368 0.790889
O O3 0.046710 0.111012 0.016922
O O4 0.773899 0.080982 0.001951
O O5 0.704066 0.947371 0.687706
O O6 0.862495 0.932920 0.802412
O O7 0.977350 0.061940 0.618599
O O8 0.709228 0.099290 0.825639
O O9 0.683999 0.750000 0.687118
O O10 0.444598 0.861096 0.715988
O O11 0.507781 0.848614 0.897639
O O12 0.578904 0.750000 0.357256
O O13 0.722121 0.867359 0.436437
O O14 0.413586 0.895592 0.522142
O O15 0.629423 0.961370 0.308126
O O16 0.941055 0.750000 0.836400
O O17 0.153457 0.894525 0.747519
O O18 0.959388 0.750000 0.374593
O O19 0.500000 0.500000 0.000000
#
# Coordination Sequence:
#
# PCOD9164474 Si02
#       8
#     4   4   4   4   4   4   4   4
#     4   9  17  29  50  78 106 143 187 227 276 336
#     4  10  21  35  52  84 115 152 189 236 291 339
#     4  11  21  37  57  83 118 156 194 238 288 344
#     4  10  21  39  61  86 115 149 192 241 288 340
#     4  11  20  33  55  87 117 145 189 243 291 338
#     4   9  18  35  56  79 112 153 192 231 285 348
#     4  11  22  37  63  88 111 151 195 238 288 346
#     4   9  18  30  48  74 111 149 184 221 275 336
#
# _framework density 23.797893999999999
#
# number of rings (size 3 to 8) (size 9 to 14) (size 15 to 20)
#    0.000    2.000    2.500    1.875    0.000    3.500 
#    0.000    1.250    0.000    3.750    0.000    0.000 
#    0.000    0.000    0.000    0.000    0.000    0.000 
#
# Total GULP energy -178373.256511 kJ/mol
# GULP energy per Si atom -5574.164266 kJ/mol
# Density = 2.374373 g / cm^3
# Si number density = 23.797894 Si / 1000 Ang^3
#
#
#
# Elastic Constant Matrix: (Units=GPa)
#
#
# Indices 1 2 3 4 5 6 
#
# 1 75.4066 22.9558 4.4591 0.0000 -8.2156 0.0000
# 2 22.9558 139.7609 10.2830 0.0000 0.9405 0.0000
# 3 4.4591 10.2830 63.0595 0.0000 -13.7427 0.0000
# 4 0.0000 0.0000 0.0000 17.1304 0.0000 -2.9126
# 5 -8.2156 0.9405 -13.7427 0.0000 26.8380 0.0000
# 6 0.0000 0.0000 0.0000 -2.9126 0.0000 14.0026
#
#
#
# Elastic Compliance Matrix: (Units=1/GPa)
#
#
# Indices 1 2 3 4 5 6 
#
# 1 0.014496 -0.002443 0.000404 0.000000 0.004730 0.000000
# 2 -0.002443 0.007676 -0.001464 0.000000 -0.001766 0.000000
# 3 0.000404 -0.001464 0.018129 0.000000 0.009458 0.000000
# 4 0.000000 0.000000 0.000000 0.060516 0.000000 0.012587
# 5 0.004730 -0.001766 0.009458 0.000000 0.043614 0.000000
# 6 0.000000 0.000000 0.000000 0.012587 0.000000 0.074033
#
#
# Mechanical properties :
#
#
# Convention : Reuss Voigt Hill
#
# Bulk Modulus (GPa) = 30.03278 39.29143 34.66210
# Shear Modulus (GPa) = 21.13550 27.62947 24.38249
#
# Velocity S-wave (km/s) = 2.98338 3.41105 3.20436
# Velocity P-wave (km/s) = 4.95123 5.66215 5.31858
#
# Compressibility (1/GPa) = 0.03329696
#
# Stress axis : x y z
#
# Youngs Moduli (GPa) = 68.98221 130.27833 55.15879
#
# Poissons Ratio (x) = 0.31822 -0.02229
# Poissons Ratio (y) = 0.16850 0.08075
# Poissons Ratio (z) = -0.02787 0.19071
#
# Static dielectric constant tensor:
#      x y z
#    x 1.875100 0.000000 -0.000200 
#    y 0.000000 1.969750 0.000000 
#    z -0.000200 0.000000 2.019760 
# 
# From -- ./inp_files/47616.got.cif
#   From: 2010.05.17/outbox.cif.g08.bks.cpg/sg11_24_cif.got.tgz:47616.got - 2010.06.03 12:22:45.
