data_PCOD9164653
_publ_section_title
;
Structure prediction by ZEFSAII (Michael W. Deem and Ramdas Pophale) SiO2 
 PCOD9164653
Probable space group: P 21/M
;
_chemical_formula_sum "Si O2"
_cell_formula_units_Z 28
_cell_length_a 16.814078
_cell_length_b 11.636724
_cell_length_c 19.209024
_cell_angle_alpha 90.000000
_cell_angle_beta 158.763761
_cell_angle_gamma 90.000000
_cell_volume 1361.364880
_symmetry_space_group_name_H-M "P 21/M"
_symmetry_group_IT_number 11
_symmetry_cell_setting 'monoclinic'
loop_
_space_group_symop_operation_xyz
x,y,z
-x,1/2+y,-z
-x,-y,-z
x,1/2-y,z
loop_
_atom_site_type_symbol
_atom_site_label
_atom_site_fract_x
_atom_site_fract_y
_atom_site_fract_z
Si Si1 0.223123 0.067325 0.545467
Si Si2 0.520109 0.035772 0.911903
Si Si3 0.261445 0.877121 0.378743
Si Si4 0.951456 0.879519 0.255618
Si Si5 0.891355 0.124614 0.905303
Si Si6 0.233780 0.870102 0.762335
Si Si7 0.583290 0.876235 0.443426
O O1 0.283293 0.118692 0.519632
O O2 0.014305 0.121274 0.413627
O O3 0.432103 0.075475 0.765981
O O4 0.133016 0.940009 0.452869
O O5 0.313282 0.973103 0.779095
O O6 0.725434 0.949283 0.072346
O O7 0.612706 0.124344 0.043840
O O8 0.370015 0.750000 0.482697
O O9 0.194446 0.872699 0.244028
O O10 0.054496 0.880630 0.262408
O O11 0.374051 0.001543 0.483452
O O12 0.912095 0.750000 0.245957
O O13 0.006810 0.250000 0.011022
O O14 0.678023 0.124220 0.780655
O O15 0.000000 0.000000 0.000000
O O16 0.267894 0.750000 0.752363
O O17 0.634243 0.750000 0.518827
#
# Coordination Sequence:
#
# PCOD9164653 Si02
#       7
#     4   4   4   4   4   4   4
#     4  10  21  37  57  82 117 149 191 238 294 348
#     4  10  21  36  57  82 110 148 190 234 289 347
#     4   9  19  37  58  81 114 153 191 238 291 341
#     4   9  19  35  55  83 115 147 193 242 287 346
#     4  10  22  37  56  84 117 151 192 239 285 343
#     4  10  21  37  55  80 111 147 189 235 287 346
#     4  10  21  37  58  85 114 149 194 238 288 350
#
# _framework density 20.567594
#
# number of rings (size 3 to 8) (size 9 to 14) (size 15 to 20)
#    0.000    2.286    0.000    1.714    2.000    3.429 
#    0.000    0.000    0.000    0.000    0.000    0.000 
#    0.000    0.000    0.000    0.000    0.000    0.000 
#
# Total GULP energy -155870.063322 kJ/mol
# GULP energy per Si atom -5566.787976 kJ/mol
# Density = 2.052078 g / cm^3
# Si number density = 20.567594 Si / 1000 Ang^3
#
#
#
# Elastic Constant Matrix: (Units=GPa)
#
#
# Indices 1 2 3 4 5 6 
#
# 1 37.2158 6.6455 3.0810 0.0000 5.2734 0.0000
# 2 6.6455 177.5294 23.0005 0.0000 6.4070 0.0000
# 3 3.0810 23.0005 32.8765 0.0000 0.4335 0.0000
# 4 0.0000 0.0000 0.0000 29.9026 0.0000 23.2389
# 5 5.2734 6.4070 0.4335 0.0000 29.5826 0.0000
# 6 0.0000 0.0000 0.0000 23.2389 0.0000 34.6931
#
#
#
# Elastic Compliance Matrix: (Units=1/GPa)
#
#
# Indices 1 2 3 4 5 6 
#
# 1 0.027833 -0.000593 -0.002130 0.000000 -0.004802 0.000000
# 2 -0.000593 0.006256 -0.004305 0.000000 -0.001186 0.000000
# 3 -0.002130 -0.004305 0.033618 0.000000 0.000820 0.000000
# 4 0.000000 0.000000 0.000000 0.069754 0.000000 -0.046724
# 5 -0.004802 -0.001186 0.000820 0.000000 0.034905 0.000000
# 6 0.000000 0.000000 0.000000 -0.046724 0.000000 0.060122
#
#
# Mechanical properties :
#
#
# Convention : Reuss Voigt Hill
#
# Bulk Modulus (GPa) = 18.63946 34.78620 26.71283
# Shear Modulus (GPa) = 18.90883 33.16195 26.03539
#
# Velocity S-wave (km/s) = 3.03537 4.01975 3.56173
# Velocity P-wave (km/s) = 4.62243 6.20438 5.47089
#
# Compressibility (1/GPa) = 0.05364961
#
# Stress axis : x y z
#
# Youngs Moduli (GPa) = 35.92864 159.85558 29.74624
#
# Poissons Ratio (x) = 0.09472 0.06337
# Poissons Ratio (y) = 0.02129 0.12807
# Poissons Ratio (z) = 0.07655 0.68823
#
# Static dielectric constant tensor:
#      x y z
#    x 1.733610 0.000000 0.006980 
#    y 0.000000 1.810890 0.000000 
#    z 0.006980 0.000000 1.711400 
# 
# From -- ./inp_files/61484.got.cif
#   From: 2010.05.17/outbox.cif.g08.bks.cpg/sg11_31_cif.got.tgz:61484.got - 2010.06.03 12:22:45.
