data_PCOD9164558
_publ_section_title
;
Structure prediction by ZEFSAII (Michael W. Deem and Ramdas Pophale) SiO2 
 PCOD9164558
Probable space group: P 21/M
;
_chemical_formula_sum "Si O2"
_cell_formula_units_Z 28
_cell_length_a 5.720645
_cell_length_b 25.167173
_cell_length_c 8.553857
_cell_angle_alpha 90.000000
_cell_angle_beta 53.532217
_cell_angle_gamma 90.000000
_cell_volume 990.377428
_symmetry_space_group_name_H-M "P 21/M"
_symmetry_group_IT_number 11
_symmetry_cell_setting 'monoclinic'
loop_
_space_group_symop_operation_xyz
x,y,z
-x,1/2+y,-z
-x,-y,-z
x,1/2-y,z
loop_
_atom_site_type_symbol
_atom_site_label
_atom_site_fract_x
_atom_site_fract_y
_atom_site_fract_z
Si Si1 0.307901 0.191579 0.244920
Si Si2 0.743930 0.184115 0.313249
Si Si3 0.642004 0.845416 0.230655
Si Si4 0.761704 0.039272 0.421519
Si Si5 0.821159 0.057310 0.740054
Si Si6 0.090742 0.937147 0.965932
Si Si7 0.052063 0.671566 0.305316
O O1 0.386931 0.250000 0.157725
O O2 0.079458 0.169299 0.211605
O O3 0.105024 0.195728 0.482487
O O4 0.594670 0.167433 0.208818
O O5 0.730451 0.250000 0.325210
O O6 0.560496 0.161371 0.532239
O O7 0.400818 0.827617 0.195589
O O8 0.914147 0.811069 0.195253
O O9 0.816744 0.898239 0.102668
O O10 0.701349 0.063924 0.613682
O O11 0.784033 0.072202 0.255138
O O12 0.500000 0.000000 0.500000
O O13 0.045237 0.001490 0.317276
O O14 0.032339 0.108453 0.653521
O O15 0.698216 0.064601 0.964548
O O16 0.000000 0.000000 0.000000
#
# Coordination Sequence:
#
# PCOD9164558 Si02
#       7
#     4   4   4   4   4   4   4
#     4   8  13  22  37  64  94 123 155 196 243 293
#     4   8  13  22  39  61  94 124 153 199 246 288
#     4   9  17  30  44  73  96 128 170 203 247 309
#     4  10  21  36  51  72  98 129 175 212 254 306
#     4   9  20  35  49  74  96 131 169 211 253 304
#     4   9  19  35  51  73  97 136 167 209 257 298
#     4   9  17  28  49  68  98 131 164 205 252 298
#
# _framework density 28.27205
#
# number of rings (size 3 to 8) (size 9 to 14) (size 15 to 20)
#    0.000    3.143    0.000    0.000    6.000    0.571 
#   12.857    0.000    0.000    0.000    0.000    1.000 
#    0.000    1.143    0.000    5.143    0.000    0.571 
#
# Total GULP energy -156023.796318 kJ/mol
# GULP energy per Si atom -5572.278440 kJ/mol
# Density = 2.820770 g / cm^3
# Si number density = 28.272050 Si / 1000 Ang^3
#
#
#
# Elastic Constant Matrix: (Units=GPa)
#
#
# Indices 1 2 3 4 5 6 
#
# 1 260.4287 27.9670 81.8802 0.0000 39.2836 0.0000
# 2 27.9670 99.1302 36.3296 0.0000 19.1301 0.0000
# 3 81.8802 36.3296 175.0400 0.0000 15.6982 0.0000
# 4 0.0000 0.0000 0.0000 26.2862 0.0000 3.3305
# 5 39.2836 19.1301 15.6982 0.0000 55.9436 0.0000
# 6 0.0000 0.0000 0.0000 3.3305 0.0000 34.6446
#
#
#
# Elastic Compliance Matrix: (Units=1/GPa)
#
#
# Indices 1 2 3 4 5 6 
#
# 1 0.004917 -0.000095 -0.002024 0.000000 -0.002852 0.000000
# 2 -0.000095 0.011500 -0.002047 0.000000 -0.003291 0.000000
# 3 -0.002024 -0.002047 0.007073 0.000000 0.000137 0.000000
# 4 0.000000 0.000000 0.000000 0.038512 0.000000 -0.003702
# 5 -0.002852 -0.003291 0.000137 0.000000 0.020965 0.000000
# 6 0.000000 0.000000 0.000000 -0.003702 0.000000 0.029220
#
#
# Mechanical properties :
#
#
# Convention : Reuss Voigt Hill
#
# Bulk Modulus (GPa) = 65.97983 91.88359 78.93171
# Shear Modulus (GPa) = 39.81786 49.26967 44.54377
#
# Velocity S-wave (km/s) = 3.75691 4.17909 3.97361
# Velocity P-wave (km/s) = 6.49672 7.47374 7.00229
#
# Compressibility (1/GPa) = 0.01515615
#
# Stress axis : x y z
#
# Youngs Moduli (GPa) = 203.38781 86.95679 141.39033
#
# Poissons Ratio (x) = 0.00824 0.28624
# Poissons Ratio (y) = 0.01928 0.28947
# Poissons Ratio (z) = 0.41176 0.17803
#
# Static dielectric constant tensor:
#      x y z
#    x 2.423850 0.000000 -0.168650 
#    y 0.000000 2.143980 0.000000 
#    z -0.168650 0.000000 2.653920 
# 
# From -- ./inp_files/10793.got.cif
#   From: 2010.05.17/outbox.cif.g08.bks.cpg/sg11_6_cif.got.tgz:10793.got - 2010.06.03 12:22:45.
