data_PCOD9164973
_publ_section_title
;
Structure prediction by ZEFSAII (Michael W. Deem and Ramdas Pophale) SiO2 
 PCOD9164973
Probable space group: P 21/M
;
_chemical_formula_sum "Si O2"
_cell_formula_units_Z 28
_cell_length_a 13.167749
_cell_length_b 18.487582
_cell_length_c 6.224691
_cell_angle_alpha 90.000000
_cell_angle_beta 115.544690
_cell_angle_gamma 90.000000
_cell_volume 1367.212322
_symmetry_space_group_name_H-M "P 21/M"
_symmetry_group_IT_number 11
_symmetry_cell_setting 'monoclinic'
loop_
_space_group_symop_operation_xyz
x,y,z
-x,1/2+y,-z
-x,-y,-z
x,1/2-y,z
loop_
_atom_site_type_symbol
_atom_site_label
_atom_site_fract_x
_atom_site_fract_y
_atom_site_fract_z
Si Si1 0.373468 0.078661 0.318137
Si Si2 0.442329 0.663654 0.773066
Si Si3 0.087360 0.569759 0.852836
Si Si4 0.034055 0.828455 0.421951
Si Si5 0.539519 0.054668 0.850128
Si Si6 0.761864 0.331149 0.729736
Si Si7 0.119070 0.089890 0.006521
O O1 0.442419 0.131374 0.220590
O O2 0.436719 0.079076 0.604219
O O3 0.385441 0.997170 0.233029
O O4 0.243362 0.099207 0.211315
O O5 0.445931 0.750000 0.804542
O O6 0.347977 0.647034 0.505707
O O7 0.415360 0.622779 0.972368
O O8 0.059541 0.606687 0.604303
O O9 0.115604 0.485468 0.872180
O O10 0.190364 0.613476 0.053653
O O11 0.976322 0.580650 0.898699
O O12 0.026759 0.750000 0.525126
O O13 0.137483 0.826526 0.351299
O O14 0.922623 0.846311 0.185516
O O15 0.500000 0.000000 0.000000
O O16 0.743912 0.250000 0.802644
#
# Coordination Sequence:
#
# PCOD9164973 Si02
#       7
#     4   4   4   4   4   4   4
#     4  10  22  39  59  85 118 160 194 243 298 353
#     4  10  22  39  59  90 122 152 195 245 297 358
#     4  10  21  37  60  85 116 156 195 242 295 343
#     4  10  21  39  60  84 114 154 197 239 295 348
#     4   9  21  38  59  86 114 157 200 235 291 350
#     4   9  20  36  57  86 118 148 192 245 291 348
#     4  10  23  38  56  88 119 149 198 245 287 350
#
# _framework density 20.479628000000002
#
# number of rings (size 3 to 8) (size 9 to 14) (size 15 to 20)
#    0.000    2.286    0.000    0.857    8.000    4.000 
#    0.000    2.857    0.000    0.000    0.000    0.000 
#    0.000    0.000    0.000    0.000    0.000    0.000 
#
# Total GULP energy -156332.607557 kJ/mol
# GULP energy per Si atom -5583.307413 kJ/mol
# Density = 2.043302 g / cm^3
# Si number density = 20.479628 Si / 1000 Ang^3
#
#
#
# Elastic Constant Matrix: (Units=GPa)
#
#
# Indices 1 2 3 4 5 6 
#
# 1 67.8301 23.9856 28.8127 0.0000 31.4539 0.0000
# 2 23.9856 73.9175 16.0554 0.0000 4.3102 0.0000
# 3 28.8127 16.0554 64.4821 0.0000 16.0093 0.0000
# 4 0.0000 0.0000 0.0000 14.7378 0.0000 6.0738
# 5 31.4539 4.3102 16.0093 0.0000 32.1094 0.0000
# 6 0.0000 0.0000 0.0000 6.0738 0.0000 18.0197
#
#
#
# Elastic Compliance Matrix: (Units=1/GPa)
#
#
# Indices 1 2 3 4 5 6 
#
# 1 0.033269 -0.007866 -0.005795 0.000000 -0.028645 0.000000
# 2 -0.007866 0.016163 -0.002150 0.000000 0.006608 0.000000
# 3 -0.005795 -0.002150 0.019575 0.000000 -0.003794 0.000000
# 4 0.000000 0.000000 0.000000 0.078799 0.000000 -0.026560
# 5 -0.028645 0.006608 -0.003794 0.000000 0.060208 0.000000
# 6 0.000000 0.000000 0.000000 -0.026560 0.000000 0.064447
#
#
# Mechanical properties :
#
#
# Convention : Reuss Voigt Hill
#
# Bulk Modulus (GPa) = 26.74986 38.21524 32.48255
# Shear Modulus (GPa) = 15.79549 22.13177 18.96363
#
# Velocity S-wave (km/s) = 2.78020 3.29092 3.04629
# Velocity P-wave (km/s) = 4.83695 5.75681 5.31681
#
# Compressibility (1/GPa) = 0.03738337
#
# Stress axis : x y z
#
# Youngs Moduli (GPa) = 30.05795 61.87017 51.08534
#
# Poissons Ratio (x) = 0.48670 0.29606
# Poissons Ratio (y) = 0.23645 0.10984
# Poissons Ratio (z) = 0.17420 0.13302
#
# Static dielectric constant tensor:
#      x y z
#    x 1.728390 0.000000 -0.004090 
#    y 0.000000 1.740470 0.000000 
#    z -0.004090 0.000000 1.705670 
# 
# From -- ./inp_files/5028.got.cif
#   From: 2010.05.17/outbox.cif.g08.bks.cpg/sg11_3_cif.got.tgz:5028.got - 2010.06.03 12:22:45.
