data_PCOD9164834
_publ_section_title
;
Structure prediction by ZEFSAII (Michael W. Deem and Ramdas Pophale) SiO2 
 PCOD9164834
Probable space group: P 21/M
;
_chemical_formula_sum "Si O2"
_cell_formula_units_Z 32
_cell_length_a 28.608102
_cell_length_b 8.935218
_cell_length_c 7.118975
_cell_angle_alpha 90.000000
_cell_angle_beta 86.632468
_cell_angle_gamma 90.000000
_cell_volume 1816.607533
_symmetry_space_group_name_H-M "P 21/M"
_symmetry_group_IT_number 11
_symmetry_cell_setting 'monoclinic'
loop_
_space_group_symop_operation_xyz
x,y,z
-x,1/2+y,-z
-x,-y,-z
x,1/2-y,z
loop_
_atom_site_type_symbol
_atom_site_label
_atom_site_fract_x
_atom_site_fract_y
_atom_site_fract_z
Si Si1 0.699219 0.571923 0.995056
Si Si2 0.199605 0.570851 0.985828
Si Si3 0.450457 0.572378 0.963535
Si Si4 0.368275 0.572306 0.283811
Si Si5 0.127449 0.573106 0.678491
Si Si6 0.382844 0.071944 0.685335
Si Si7 0.949428 0.071606 0.983555
Si Si8 0.876399 0.571731 0.724289
O O1 0.705195 0.750000 0.973428
O O2 0.674527 0.504656 0.816185
O O3 0.748500 0.493972 0.021798
O O4 0.662831 0.544485 0.173972
O O5 0.199654 0.750000 0.011276
O O6 0.172786 0.539385 0.796202
O O7 0.168120 0.496533 0.155414
O O8 0.455251 0.750000 0.934236
O O9 0.426407 0.498366 0.787503
O O10 0.500000 0.500000 0.000000
O O11 0.414113 0.547572 0.143436
O O12 0.360345 0.750000 0.299002
O O13 0.375984 0.502249 0.485400
O O14 0.128347 0.750000 0.630892
O O15 0.083109 0.546609 0.825379
O O16 0.125130 0.478205 0.491000
O O17 0.389035 0.250000 0.665981
O O18 0.952682 0.250000 0.953800
O O19 0.921697 0.997369 0.817290
O O20 0.000000 0.000000 0.000000
O O21 0.876665 0.750000 0.742106
#
# Coordination Sequence:
#
# PCOD9164834 Si02
#       8
#     4   4   4   4   4   4   4   4
#     4  10  21  37  57  82 111 142 180 225 271 321
#     4  10  21  38  59  81 109 145 183 225 271 321
#     4  10  21  37  57  81 109 143 183 226 273 324
#     4  10  21  37  57  81 110 144 182 223 269 324
#     4   9  20  38  57  79 109 145 184 225 270 321
#     4  10  21  37  57  81 111 145 181 225 273 321
#     4  10  21  38  59  82 111 145 183 227 272 322
#     4  11  22  36  57  83 112 145 181 225 274 324
#
# _framework density 17.615252999999999
#
# number of rings (size 3 to 8) (size 9 to 14) (size 15 to 20)
#    0.000    2.000    0.000    4.125    0.000    8.000 
#    0.000    2.500    0.000    0.000    0.000    0.000 
#    0.000    0.000    0.000    0.000    0.000    0.000 
#
# Total GULP energy -178754.832983 kJ/mol
# GULP energy per Si atom -5586.088531 kJ/mol
# Density = 1.757516 g / cm^3
# Si number density = 17.615253 Si / 1000 Ang^3
#
#
#
# Elastic Constant Matrix: (Units=GPa)
#
#
# Indices 1 2 3 4 5 6 
#
# 1 149.5788 88.7459 59.0933 0.0000 24.8450 0.0000
# 2 88.7459 125.7994 92.9325 0.0000 14.9921 0.0000
# 3 59.0933 92.9325 134.9364 0.0000 22.9638 0.0000
# 4 0.0000 0.0000 0.0000 32.5311 0.0000 2.9071
# 5 24.8450 14.9921 22.9638 0.0000 9.9962 0.0000
# 6 0.0000 0.0000 0.0000 2.9071 0.0000 37.1708
#
#
#
# Elastic Compliance Matrix: (Units=1/GPa)
#
#
# Indices 1 2 3 4 5 6 
#
# 1 0.021199 -0.017200 0.011721 0.000000 -0.053819 0.000000
# 2 -0.017200 0.030167 -0.021048 0.000000 0.045859 0.000000
# 3 0.011721 -0.021048 0.026861 0.000000 -0.059271 0.000000
# 4 0.000000 0.000000 0.000000 0.030956 0.000000 -0.002421
# 5 -0.053819 0.045859 -0.059271 0.000000 0.301185 0.000000
# 6 0.000000 0.000000 0.000000 -0.002421 0.000000 0.027092
#
#
# Mechanical properties :
#
#
# Convention : Reuss Voigt Hill
#
# Bulk Modulus (GPa) = 39.72564 99.09534 69.41049
# Shear Modulus (GPa) = 10.02195 27.24247 18.63221
#
# Velocity S-wave (km/s) = 2.38783 3.93686 3.25581
# Velocity P-wave (km/s) = 5.49573 8.77740 7.32276
#
# Compressibility (1/GPa) = 0.02517266
#
# Stress axis : x y z
#
# Youngs Moduli (GPa) = 47.17204 33.14897 37.22876
#
# Poissons Ratio (x) = 0.57016 -0.43636
# Poissons Ratio (y) = 0.81135 0.78360
# Poissons Ratio (z) = -0.55291 0.69773
#
# Static dielectric constant tensor:
#      x y z
#    x 1.574070 0.000000 -0.006040 
#    y 0.000000 1.585090 0.000000 
#    z -0.006040 0.000000 1.571480 
# 
# From -- ./inp_files/9685.got.cif
#   From: 2010.05.17/outbox.cif.g08.bks.cpg/sg11_5_cif.got.tgz:9685.got - 2010.06.03 12:22:45.
