data_PCOD9164925
_publ_section_title
;
Structure prediction by ZEFSAII (Michael W. Deem and Ramdas Pophale) SiO2 
 PCOD9164925
Probable space group: P 21/M
;
_chemical_formula_sum "Si O2"
_cell_formula_units_Z 28
_cell_length_a 9.856135
_cell_length_b 14.109950
_cell_length_c 12.276188
_cell_angle_alpha 90.000000
_cell_angle_beta 123.262737
_cell_angle_gamma 90.000000
_cell_volume 1427.536573
_symmetry_space_group_name_H-M "P 21/M"
_symmetry_group_IT_number 11
_symmetry_cell_setting 'monoclinic'
loop_
_space_group_symop_operation_xyz
x,y,z
-x,1/2+y,-z
-x,-y,-z
x,1/2-y,z
loop_
_atom_site_type_symbol
_atom_site_label
_atom_site_fract_x
_atom_site_fract_y
_atom_site_fract_z
Si Si1 0.010273 0.464040 0.161316
Si Si2 0.677452 0.539525 0.055697
Si Si3 0.156596 0.859879 0.326102
Si Si4 0.500316 0.362365 0.438681
Si Si5 0.723567 0.637695 0.854541
Si Si6 0.846170 0.860118 0.331671
Si Si7 0.818981 0.862396 0.564884
O O1 0.077310 0.571567 0.201912
O O2 0.109810 0.412091 0.110491
O O3 0.066767 0.414643 0.298833
O O4 0.815905 0.465894 0.075171
O O5 0.745134 0.583671 0.197189
O O6 0.500000 0.500000 0.000000
O O7 0.677073 0.615070 0.957305
O O8 0.171569 0.750000 0.296208
O O9 0.328833 0.899581 0.442903
O O10 0.030946 0.861193 0.370990
O O11 0.529736 0.250000 0.433822
O O12 0.417079 0.398015 0.290798
O O13 0.363314 0.372075 0.470245
O O14 0.741988 0.750000 0.845719
O O15 0.792181 0.750000 0.308552
O O16 0.833192 0.897750 0.448145
O O17 0.858313 0.750000 0.583360
#
# Coordination Sequence:
#
# PCOD9164925 Si02
#       7
#     4   4   4   4   4   4   4
#     4  10  21  37  59  84 109 147 194 236 285 337
#     4  11  24  38  54  80 116 154 196 237 278 335
#     4   9  18  32  52  82 115 143 178 228 287 346
#     4   8  16  31  53  82 108 137 181 229 279 330
#     4  10  21  40  61  80 112 153 191 233 279 334
#     4   9  19  36  55  76 109 150 185 225 285 343
#     4   9  18  34  56  82 111 139 179 238 290 335
#
# _framework density 19.614208999999999
#
# number of rings (size 3 to 8) (size 9 to 14) (size 15 to 20)
#    0.000    2.571    0.000    2.143    0.000    8.571 
#    0.000    4.286    0.000    0.857    0.000    0.000 
#    0.000    0.000    0.000    0.000    0.000    0.000 
#
# Total GULP energy -156244.844800 kJ/mol
# GULP energy per Si atom -5580.173029 kJ/mol
# Density = 1.956957 g / cm^3
# Si number density = 19.614209 Si / 1000 Ang^3
#
#
#
# Elastic Constant Matrix: (Units=GPa)
#
#
# Indices 1 2 3 4 5 6 
#
# 1 69.0815 21.4518 44.4761 0.0000 16.0128 0.0000
# 2 21.4518 62.5652 20.2341 0.0000 0.4929 0.0000
# 3 44.4761 20.2341 64.4690 0.0000 -4.3917 0.0000
# 4 0.0000 0.0000 0.0000 23.3971 0.0000 -4.8617
# 5 16.0128 0.4929 -4.3917 0.0000 46.3406 0.0000
# 6 0.0000 0.0000 0.0000 -4.8617 0.0000 23.2330
#
#
#
# Elastic Compliance Matrix: (Units=1/GPa)
#
#
# Indices 1 2 3 4 5 6 
#
# 1 0.033649 -0.004027 -0.022887 0.000000 -0.013754 0.000000
# 2 -0.004027 0.018295 -0.002901 0.000000 0.000922 0.000000
# 3 -0.022887 -0.002901 0.032965 0.000000 0.011063 0.000000
# 4 0.000000 0.000000 0.000000 0.044683 0.000000 0.009350
# 5 -0.013754 0.000922 0.011063 0.000000 0.027371 0.000000
# 6 0.000000 0.000000 0.000000 0.009350 0.000000 0.044999
#
#
# Mechanical properties :
#
#
# Convention : Reuss Voigt Hill
#
# Bulk Modulus (GPa) = 39.55869 40.93775 40.24822
# Shear Modulus (GPa) = 18.51721 25.92438 22.22079
#
# Velocity S-wave (km/s) = 3.07591 3.63948 3.36950
# Velocity P-wave (km/s) = 5.72949 6.21111 5.97516
#
# Compressibility (1/GPa) = 0.02527889
#
# Stress axis : x y z
#
# Youngs Moduli (GPa) = 29.71815 54.65954 30.33521
#
# Poissons Ratio (x) = 0.22012 0.69429
# Poissons Ratio (y) = 0.11968 0.08800
# Poissons Ratio (z) = 0.68016 0.15857
#
# Static dielectric constant tensor:
#      x y z
#    x 1.667500 0.000000 0.005940 
#    y 0.000000 1.729080 0.000000 
#    z 0.005940 0.000000 1.704570 
# 
# From -- ./inp_files/17791.got.cif
#   From: 2010.05.17/outbox.cif.g08.bks.cpg/sg11_9_cif.got.tgz:17791.got - 2010.06.03 12:22:45.
