data_PCOD9164252
_publ_section_title
;
Structure prediction by ZEFSAII (Michael W. Deem and Ramdas Pophale) SiO2 
 PCOD9164252
Probable space group: P 21/M
;
_chemical_formula_sum "Si O2"
_cell_formula_units_Z 28
_cell_length_a 12.983714
_cell_length_b 8.501435
_cell_length_c 15.011780
_cell_angle_alpha 90.000000
_cell_angle_beta 58.819495
_cell_angle_gamma 90.000000
_cell_volume 1417.633373
_symmetry_space_group_name_H-M "P 21/M"
_symmetry_group_IT_number 11
_symmetry_cell_setting 'monoclinic'
loop_
_space_group_symop_operation_xyz
x,y,z
-x,1/2+y,-z
-x,-y,-z
x,1/2-y,z
loop_
_atom_site_type_symbol
_atom_site_label
_atom_site_fract_x
_atom_site_fract_y
_atom_site_fract_z
Si Si1 0.997722 0.939825 0.774372
Si Si2 0.648864 0.061413 0.692107
Si Si3 0.484859 0.060221 0.606259
Si Si4 0.086296 0.061685 0.383752
Si Si5 0.196395 0.059299 0.991378
Si Si6 0.539196 0.437980 0.078595
Si Si7 0.217482 0.439635 0.781151
O O1 0.996921 0.750000 0.774157
O O2 0.957054 0.994299 0.694667
O O3 0.128680 0.996469 0.745808
O O4 0.903599 0.992655 0.892823
O O5 0.658592 0.250000 0.687182
O O6 0.593061 0.008899 0.622486
O O7 0.778045 0.991197 0.657068
O O8 0.551826 0.009960 0.808778
O O9 0.484775 0.250000 0.605837
O O10 0.355378 0.009497 0.703648
O O11 0.500000 0.000000 0.500000
O O12 0.081582 0.250000 0.385106
O O13 0.000000 0.000000 0.500000
O O14 0.201167 0.250000 0.990948
O O15 0.173856 0.010002 0.899204
O O16 0.326148 0.994712 0.961058
O O17 0.532620 0.250000 0.084222
O O18 0.500000 0.500000 0.000000
O O19 0.215098 0.250000 0.779823
#
# Coordination Sequence:
#
# PCOD9164252 Si02
#       7
#     4   4   4   4   4   4   4
#     4  10  23  40  62  90 123 163 208 258 309 370
#     4  11  23  44  68  93 127 163 207 264 319 373
#     4  10  23  41  63  93 126 164 206 258 316 374
#     4  11  25  44  64  92 125 165 215 262 316 374
#     4  10  20  40  63  89 127 163 202 259 316 369
#     4  12  24  38  62  94 127 167 210 256 311 376
#     4  10  21  39  63  92 127 164 202 252 316 376
#
# _framework density 19.751227
#
# number of rings (size 3 to 8) (size 9 to 14) (size 15 to 20)
#    0.000    1.429    1.429    3.429    2.000    5.143 
#    0.000    0.000    0.000    0.000    0.000    0.000 
#    0.000    0.000    0.000    0.000    0.000    0.000 
#
# Total GULP energy -156557.668152 kJ/mol
# GULP energy per Si atom -5591.345291 kJ/mol
# Density = 1.970627 g / cm^3
# Si number density = 19.751227 Si / 1000 Ang^3
#
#
#
# Elastic Constant Matrix: (Units=GPa)
#
#
# Indices 1 2 3 4 5 6 
#
# 1 163.8950 17.9986 44.7052 0.0000 23.7110 0.0000
# 2 17.9986 20.9944 11.3284 0.0000 6.0922 0.0000
# 3 44.7052 11.3284 87.6388 0.0000 28.0655 0.0000
# 4 0.0000 0.0000 0.0000 31.7908 0.0000 -2.0566
# 5 23.7110 6.0922 28.0655 0.0000 39.8303 0.0000
# 6 0.0000 0.0000 0.0000 -2.0566 0.0000 36.6345
#
#
#
# Elastic Compliance Matrix: (Units=1/GPa)
#
#
# Indices 1 2 3 4 5 6 
#
# 1 0.007609 -0.004514 -0.002671 0.000000 -0.001957 0.000000
# 2 -0.004514 0.054402 -0.003778 0.000000 -0.002972 0.000000
# 3 -0.002671 -0.003778 0.016229 0.000000 -0.009268 0.000000
# 4 0.000000 0.000000 0.000000 0.031570 0.000000 0.001772
# 5 -0.001957 -0.002972 -0.009268 0.000000 0.033256 0.000000
# 6 0.000000 0.000000 0.000000 0.001772 0.000000 0.027396
#
#
# Mechanical properties :
#
#
# Convention : Reuss Voigt Hill
#
# Bulk Modulus (GPa) = 17.75741 46.73253 32.24497
# Shear Modulus (GPa) = 23.67865 34.88418 29.28142
#
# Velocity S-wave (km/s) = 3.46619 4.20715 3.85452
# Velocity P-wave (km/s) = 5.00293 6.87838 6.01421
#
# Compressibility (1/GPa) = 0.05631453
#
# Stress axis : x y z
#
# Youngs Moduli (GPa) = 131.42497 18.38156 61.61719
#
# Poissons Ratio (x) = 0.08297 0.16459
# Poissons Ratio (y) = 0.59324 0.23278
# Poissons Ratio (z) = 0.35106 0.06944
#
# Static dielectric constant tensor:
#      x y z
#    x 1.669190 0.000000 0.011640 
#    y 0.000000 1.392390 0.000000 
#    z 0.011640 0.000000 1.675390 
# 
# From -- ./inp_files/37889.got.cif
#   From: 2010.05.17/outbox.cif.g08.bks.cpg/sg11_19_cif.got.tgz:37889.got - 2010.06.03 12:22:45.
