data_PCOD9164685
_publ_section_title
;
Structure prediction by ZEFSAII (Michael W. Deem and Ramdas Pophale) SiO2 
 PCOD9164685
Probable space group: P 21/M
;
_chemical_formula_sum "Si O2"
_cell_formula_units_Z 28
_cell_length_a 17.377301
_cell_length_b 15.473127
_cell_length_c 5.248465
_cell_angle_alpha 90.000000
_cell_angle_beta 70.764918
_cell_angle_gamma 90.000000
_cell_volume 1332.432256
_symmetry_space_group_name_H-M "P 21/M"
_symmetry_group_IT_number 11
_symmetry_cell_setting 'monoclinic'
loop_
_space_group_symop_operation_xyz
x,y,z
-x,1/2+y,-z
-x,-y,-z
x,1/2-y,z
loop_
_atom_site_type_symbol
_atom_site_label
_atom_site_fract_x
_atom_site_fract_y
_atom_site_fract_z
Si Si1 0.392730 0.521572 0.381989
Si Si2 0.000174 0.899117 0.576772
Si Si3 0.097897 0.650853 0.975602
Si Si4 0.150033 0.345383 0.531117
Si Si5 0.717343 0.840707 0.990573
Si Si6 0.216220 0.496809 0.752099
Si Si7 0.444761 0.085062 0.825930
O O1 0.294985 0.529392 0.503522
O O2 0.458099 0.600262 0.290346
O O3 0.419794 0.472718 0.609621
O O4 0.418623 0.464896 0.111249
O O5 0.038938 0.878560 0.807484
O O6 0.909120 0.862179 0.644294
O O7 0.051455 0.854662 0.294548
O O8 0.000000 0.000000 0.500000
O O9 0.123599 0.750000 0.901972
O O10 0.170521 0.580956 0.903637
O O11 0.127365 0.250000 0.658319
O O12 0.149782 0.434140 0.688821
O O13 0.243203 0.342009 0.331989
O O14 0.747501 0.750000 0.075351
O O15 0.620551 0.839605 0.106092
O O16 0.747604 0.928734 0.085341
#
# Coordination Sequence:
#
# PCOD9164685 Si02
#       7
#     4   4   4   4   4   4   4
#     4   9  18  32  58  81 113 153 201 241 295 363
#     4  12  25  46  66  92 121 168 212 265 317 384
#     4  12  27  45  66  92 128 167 215 266 317 372
#     4  11  22  36  58  88 122 158 202 256 311 372
#     4  10  21  36  57  91 127 162 203 256 311 369
#     4  11  22  38  61  87 123 164 209 252 315 369
#     4   9  17  34  53  84 114 156 194 242 300 361
#
# _framework density 21.014203999999999
#
# number of rings (size 3 to 8) (size 9 to 14) (size 15 to 20)
#    0.000    1.429    2.857    3.000    2.000    0.000 
#    0.000    0.714    0.000    0.000    0.000    5.000 
#    0.000    0.000    0.000    0.000    0.000    0.000 
#
# Total GULP energy -155970.714509 kJ/mol
# GULP energy per Si atom -5570.382661 kJ/mol
# Density = 2.096637 g / cm^3
# Si number density = 21.014204 Si / 1000 Ang^3
#
#
#
# Elastic Constant Matrix: (Units=GPa)
#
#
# Indices 1 2 3 4 5 6 
#
# 1 70.7198 30.9240 17.0436 0.0000 -10.8611 0.0000
# 2 30.9240 135.5105 7.9044 0.0000 -16.6923 0.0000
# 3 17.0436 7.9044 84.8185 0.0000 -6.0901 0.0000
# 4 0.0000 0.0000 0.0000 20.1303 0.0000 -9.0513
# 5 -10.8611 -16.6923 -6.0901 0.0000 43.0709 0.0000
# 6 0.0000 0.0000 0.0000 -9.0513 0.0000 8.7840
#
#
#
# Elastic Compliance Matrix: (Units=1/GPa)
#
#
# Indices 1 2 3 4 5 6 
#
# 1 0.016670 -0.003328 -0.002859 0.000000 0.002510 0.000000
# 2 -0.003328 0.008436 0.000058 0.000000 0.002438 0.000000
# 3 -0.002859 0.000058 0.012435 0.000000 0.001060 0.000000
# 4 0.000000 0.000000 0.000000 0.092562 0.000000 0.095378
# 5 0.002510 0.002438 0.001060 0.000000 0.024945 0.000000
# 6 0.000000 0.000000 0.000000 0.095378 0.000000 0.212125
#
#
# Mechanical properties :
#
#
# Convention : Reuss Voigt Hill
#
# Bulk Modulus (GPa) = 39.55476 44.75476 42.15476
# Shear Modulus (GPa) = 12.89124 30.07549 21.48337
#
# Velocity S-wave (km/s) = 2.47949 3.78722 3.20085
# Velocity P-wave (km/s) = 5.20201 6.36142 5.81070
#
# Compressibility (1/GPa) = 0.02528141
#
# Stress axis : x y z
#
# Youngs Moduli (GPa) = 59.98725 118.53942 80.41721
#
# Poissons Ratio (x) = 0.39453 0.22994
# Poissons Ratio (y) = 0.19965 -0.00464
# Poissons Ratio (z) = 0.17153 -0.00684
#
# Static dielectric constant tensor:
#      x y z
#    x 1.836180 0.000000 -0.005090 
#    y 0.000000 1.798400 0.000000 
#    z -0.005090 0.000000 1.801010 
# 
# From -- ./inp_files/8032.got.cif
#   From: 2010.05.17/outbox.cif.g08.bks.cpg/sg11_5_cif.got.tgz:8032.got - 2010.06.03 12:22:45.
