data_PCOD9164496
_publ_section_title
;
Structure prediction by ZEFSAII (Michael W. Deem and Ramdas Pophale) SiO2 
 PCOD9164496
Probable space group: P 21/M
;
_chemical_formula_sum "Si O2"
_cell_formula_units_Z 32
_cell_length_a 15.654130
_cell_length_b 7.994545
_cell_length_c 22.637369
_cell_angle_alpha 90.000000
_cell_angle_beta 146.682026
_cell_angle_gamma 90.000000
_cell_volume 1556.131764
_symmetry_space_group_name_H-M "P 21/M"
_symmetry_group_IT_number 11
_symmetry_cell_setting 'monoclinic'
loop_
_space_group_symop_operation_xyz
x,y,z
-x,1/2+y,-z
-x,-y,-z
x,1/2-y,z
loop_
_atom_site_type_symbol
_atom_site_label
_atom_site_fract_x
_atom_site_fract_y
_atom_site_fract_z
Si Si1 0.887258 0.949699 0.302693
Si Si2 0.006065 0.046881 0.885958
Si Si3 0.639642 0.447133 0.242885
Si Si4 0.321500 0.549670 0.251448
Si Si5 0.664421 0.447820 0.872541
Si Si6 0.943834 0.045383 0.717585
Si Si7 0.812192 0.045989 0.458586
Si Si8 0.362801 0.549128 0.522150
O O1 0.903069 0.750000 0.309862
O O2 0.945028 0.010505 0.272068
O O3 0.014108 0.011394 0.424371
O O4 0.716415 0.988938 0.227161
O O5 0.008691 0.250000 0.888770
O O6 0.846814 0.988939 0.824884
O O7 0.999112 0.991894 0.813706
O O8 0.160167 0.984160 0.006829
O O9 0.661995 0.250000 0.255521
O O10 0.460704 0.481636 0.153862
O O11 0.737222 0.519142 0.355124
O O12 0.310430 0.750000 0.240588
O O13 0.360212 0.482935 0.208165
O O14 0.460892 0.511651 0.377067
O O15 0.639212 0.250000 0.856255
O O16 0.943393 0.250000 0.717271
O O17 0.766792 0.992739 0.599833
O O18 0.812654 0.250000 0.456359
O O19 0.707536 0.998991 0.454599
O O20 0.365932 0.750000 0.521981
#
# Coordination Sequence:
#
# PCOD9164496 Si02
#       8
#     4   4   4   4   4   4   4   4
#     4   9  17  32  53  78 108 141 174 214 261 314
#     4  10  21  39  59  78 103 142 184 224 268 317
#     4  11  20  32  52  80 108 140 178 217 264 321
#     4  10  21  35  54  82 113 138 172 223 276 319
#     4  11  23  38  54  78 109 141 179 226 273 315
#     4   8  17  35  58  80 108 144 181 217 261 315
#     4   8  15  28  48  75 108 141 172 206 254 314
#     4   9  16  31  55  81 110 145 177 210 258 322
#
# _framework density 20.563813
#
# number of rings (size 3 to 8) (size 9 to 14) (size 15 to 20)
#    0.000    2.500    1.250    3.000    0.000    1.500 
#    0.000    5.000    0.000    0.000    0.000    0.000 
#    0.000    0.000    0.000    0.000    0.000    0.000 
#
# Total GULP energy -178554.166302 kJ/mol
# GULP energy per Si atom -5579.817697 kJ/mol
# Density = 2.051701 g / cm^3
# Si number density = 20.563813 Si / 1000 Ang^3
#
#
#
# Elastic Constant Matrix: (Units=GPa)
#
#
# Indices 1 2 3 4 5 6 
#
# 1 21.7098 23.3364 -77.9240 0.0000 5.2706 0.0000
# 2 23.3364 -5.8436 72.2124 0.0000 6.3746 0.0000
# 3 -77.9240 72.2124 -335.0402 0.0000 -37.8085 0.0000
# 4 0.0000 0.0000 0.0000 12.0572 0.0000 -1.2015
# 5 5.2706 6.3746 -37.8085 0.0000 28.8441 0.0000
# 6 0.0000 0.0000 0.0000 -1.2015 0.0000 5.8793
#
#
#
# Elastic Compliance Matrix: (Units=1/GPa)
#
#
# Indices 1 2 3 4 5 6 
#
# 1 0.035297 -0.026751 -0.012121 0.000000 -0.016426 0.000000
# 2 -0.026751 0.124165 0.030950 0.000000 0.018016 0.000000
# 3 -0.012121 0.030950 0.006122 0.000000 0.003399 0.000000
# 4 0.000000 0.000000 0.000000 0.084662 0.000000 0.017302
# 5 -0.016426 0.018016 0.003399 0.000000 0.038144 0.000000
# 6 0.000000 0.000000 0.000000 0.017302 0.000000 0.173625
#
#
# Mechanical properties :
#
#
# Convention : Reuss Voigt Hill
#
# Bulk Modulus (GPa) = 6.67825 -31.54717 -12.43446
# Shear Modulus (GPa) = 9.47379 -13.09714 -1.81167
#
# Velocity S-wave (km/s) = 2.14873 -2.52643 -0.93963
# Velocity P-wave (km/s) = 3.06768 4.88722 2.69019
#
# Compressibility (1/GPa) = 0.14973985
#
# Stress axis : x y z
#
# Youngs Moduli (GPa) = 28.33102 8.05382 163.35305
#
# Poissons Ratio (x) = 0.21544 1.98006
# Poissons Ratio (y) = 0.75787 -5.05581
# Poissons Ratio (z) = 0.34341 -0.24927
#
# Static dielectric constant tensor:
#      x y z
#    x 1.754690 0.000000 0.006250 
#    y 0.000000 1.728710 0.000000 
#    z 0.006250 0.000000 1.718980 
# 
# From -- ./inp_files/69164.got.cif
#   From: 2010.05.17/outbox.cif.g08.bks.cpg/sg11_35_cif.got.tgz:69164.got - 2010.06.03 12:22:45.
