data_PCOD9164189
_publ_section_title
;
Structure prediction by ZEFSAII (Michael W. Deem and Ramdas Pophale) SiO2 
 PCOD9164189
Probable space group: P 21/M
;
_chemical_formula_sum "Si O2"
_cell_formula_units_Z 32
_cell_length_a 15.492102
_cell_length_b 9.369400
_cell_length_c 12.134784
_cell_angle_alpha 90.000000
_cell_angle_beta 90.000030
_cell_angle_gamma 90.000000
_cell_volume 1761.384533
_symmetry_space_group_name_H-M "P 21/M"
_symmetry_group_IT_number 11
_symmetry_cell_setting 'monoclinic'
loop_
_space_group_symop_operation_xyz
x,y,z
-x,1/2+y,-z
-x,-y,-z
x,1/2-y,z
loop_
_atom_site_type_symbol
_atom_site_label
_atom_site_fract_x
_atom_site_fract_y
_atom_site_fract_z
Si Si1 0.584902 0.080322 0.039306
Si Si2 0.909346 0.919481 0.493898
Si Si3 0.352564 0.411920 0.756429
Si Si4 0.084902 0.919678 0.960693
Si Si5 0.147436 0.088080 0.756428
Si Si6 0.250000 0.077054 0.348452
Si Si7 0.409346 0.080519 0.506102
Si Si8 0.750000 0.079280 0.885709
O O1 0.572979 0.250000 0.038596
O O2 0.606330 0.024021 0.161003
O O3 0.665529 0.045934 0.958969
O O4 0.500000 0.000000 0.000000
O O5 0.923445 0.750000 0.509246
O O6 0.872665 0.940253 0.370948
O O7 0.835893 0.963585 0.581935
O O8 0.000000 0.000000 0.500000
O O9 0.383061 0.250000 0.782197
O O10 0.250000 0.415068 0.771588
O O11 0.372665 0.440253 0.629052
O O12 0.072979 0.750000 0.961403
O O13 0.106330 0.975979 0.838996
O O14 0.165529 0.954066 0.041031
O O15 0.000000 0.000000 0.000000
O O16 0.116939 0.250000 0.782197
O O17 0.250000 0.250000 0.339141
O O18 0.335893 0.036415 0.418066
O O19 0.250000 0.004903 0.229020
O O20 0.423445 0.250000 0.490754
O O21 0.500000 0.000000 0.500000
O O22 0.750000 0.250000 0.864632
#
# Coordination Sequence:
#
# PCOD9164189 Si02
#       8
#     4   4   4   4   4   4   4   4
#     4  11  24  42  62  89 122 157 200 249 299 355
#     4  10  22  40  61  89 121 156 197 245 294 350
#     4  10  20  39  65  88 117 156 199 248 302 355
#     4  11  24  42  62  89 122 157 200 249 299 355
#     4  10  20  39  65  88 117 156 199 248 302 355
#     4  10  22  41  62  86 120 159 199 240 291 356
#     4  10  22  40  61  89 121 156 197 245 294 350
#     4  10  24  43  60  84 122 159 195 246 299 350
#
# _framework density 18.167525999999999
#
# number of rings (size 3 to 8) (size 9 to 14) (size 15 to 20)
#    0.000    1.750    2.500    0.750    3.500    4.000 
#    0.000    0.000    0.000    0.000    0.000    0.000 
#    0.000    0.000    0.000    0.000    0.000    0.000 
#
# Total GULP energy -178702.861233 kJ/mol
# GULP energy per Si atom -5584.464414 kJ/mol
# Density = 1.812618 g / cm^3
# Si number density = 18.167526 Si / 1000 Ang^3
#
#
#
# Elastic Constant Matrix: (Units=GPa)
#
#
# Indices 1 2 3 4 5 6 
#
# 1 100.6404 52.7174 23.0978 0.0000 0.0000 0.0000
# 2 52.7174 61.3770 53.4016 0.0000 0.0000 0.0000
# 3 23.0978 53.4016 78.1959 0.0000 0.0000 0.0000
# 4 0.0000 0.0000 0.0000 35.6619 0.0000 0.0000
# 5 0.0000 0.0000 0.0000 0.0000 31.2186 0.0000
# 6 0.0000 0.0000 0.0000 0.0000 0.0000 36.4326
#
#
#
# Elastic Compliance Matrix: (Units=1/GPa)
#
#
# Indices 1 2 3 4 5 6 
#
# 1 0.025626 -0.038008 0.018387 0.000000 0.000000 0.000000
# 2 -0.038008 0.096520 -0.054689 0.000000 0.000000 0.000000
# 3 0.018387 -0.054689 0.044705 0.000000 0.000000 0.000000
# 4 0.000000 0.000000 0.000000 0.028041 0.000000 0.000000
# 5 0.000000 0.000000 0.000000 0.000000 0.032032 0.000000
# 6 0.000000 0.000000 0.000000 0.000000 0.000000 0.027448
#
#
# Mechanical properties :
#
#
# Convention : Reuss Voigt Hill
#
# Bulk Modulus (GPa) = 54.84895 55.40521 55.12708
# Shear Modulus (GPa) = 12.22286 28.06238 20.14262
#
# Velocity S-wave (km/s) = 2.59663 3.93446 3.33335
# Velocity P-wave (km/s) = 6.26468 7.15563 6.72492
#
# Compressibility (1/GPa) = 0.01823189
#
# Stress axis : x y z
#
# Youngs Moduli (GPa) = 39.02351 10.36050 22.36867
#
# Poissons Ratio (x) = 0.39378 -0.41129
# Poissons Ratio (y) = 1.48319 1.22332
# Poissons Ratio (z) = -0.71752 0.56660
#
# Static dielectric constant tensor:
#      x y z
#    x 1.875680 0.000000 0.000000 
#    y 0.000000 1.611370 0.000000 
#    z 0.000000 0.000000 1.600110 
# 
# From -- ./inp_files/38116.got.cif
#   From: 2010.05.17/outbox.cif.g08.bks.cpg/sg11_20_cif.got.tgz:38116.got - 2010.06.03 12:22:45.
