data_PCOD9164934
_publ_section_title
;
Structure prediction by ZEFSAII (Michael W. Deem and Ramdas Pophale) SiO2 
 PCOD9164934
Probable space group: P 21/M
;
_chemical_formula_sum "Si O2"
_cell_formula_units_Z 32
_cell_length_a 14.550220
_cell_length_b 16.206432
_cell_length_c 21.397046
_cell_angle_alpha 90.000000
_cell_angle_beta 18.995254
_cell_angle_gamma 90.000000
_cell_volume 1642.283838
_symmetry_space_group_name_H-M "P 21/M"
_symmetry_group_IT_number 11
_symmetry_cell_setting 'monoclinic'
loop_
_space_group_symop_operation_xyz
x,y,z
-x,1/2+y,-z
-x,-y,-z
x,1/2-y,z
loop_
_atom_site_type_symbol
_atom_site_label
_atom_site_fract_x
_atom_site_fract_y
_atom_site_fract_z
Si Si1 0.872844 0.418947 0.444248
Si Si2 0.343350 0.343387 0.720685
Si Si3 0.191547 0.008626 0.728467
Si Si4 0.700053 0.653086 0.543227
Si Si5 0.100027 0.554066 0.206392
Si Si6 0.766114 0.952788 0.609815
Si Si7 0.081767 0.587960 0.917954
Si Si8 0.403506 0.152390 0.167669
O O1 0.656843 0.373712 0.537251
O O2 0.067288 0.482802 0.279563
O O3 0.683380 0.474006 0.614452
O O4 0.086779 0.360803 0.344429
O O5 0.343067 0.250000 0.697892
O O6 0.208759 0.407249 0.757984
O O7 0.156768 0.350852 0.903765
O O8 0.970037 0.015019 0.815283
O O9 0.500000 0.000000 0.500000
O O10 0.119802 0.933130 0.820731
O O11 0.700571 0.750000 0.542575
O O12 0.848435 0.616132 0.386981
O O13 0.864170 0.617431 0.498063
O O14 0.381639 0.619486 0.750565
O O15 0.379917 0.608556 0.019378
O O16 0.579442 0.901825 0.779305
O O17 0.000000 0.000000 0.500000
O O18 0.000000 0.500000 0.000000
O O19 0.460333 0.250000 0.140060
#
# Coordination Sequence:
#
# PCOD9164934 Si02
#       8
#     4   4   4   4   4   4   4   4
#     4  10  21  42  61  81 116 163 200 232 292 366
#     4  11  23  38  61  89 119 155 197 249 298 341
#     4  11  20  40  61  87 120 159 199 236 287 360
#     4  11  21  36  56  85 123 154 188 248 305 344
#     4  11  22  37  61  87 117 158 197 232 289 364
#     4   9  20  37  58  81 108 151 199 236 288 352
#     4  10  21  37  59  85 118 159 198 234 289 364
#     4  11  23  37  59  90 116 146 197 257 295 333
#
# _framework density 19.485060000000001
#
# number of rings (size 3 to 8) (size 9 to 14) (size 15 to 20)
#    0.000    1.500    2.500    4.125    5.250    1.000 
#    0.000    0.000    0.000    0.000    0.000    0.000 
#    0.000    0.000    0.000    0.000    0.000    0.000 
#
# Total GULP energy -178347.519259 kJ/mol
# GULP energy per Si atom -5573.359977 kJ/mol
# Density = 1.944071 g / cm^3
# Si number density = 19.485060 Si / 1000 Ang^3
#
#
#
# Elastic Constant Matrix: (Units=GPa)
#
#
# Indices 1 2 3 4 5 6 
#
# 1 61.5246 18.9509 2.2291 0.0000 12.7780 0.0000
# 2 18.9509 101.1617 19.8600 0.0000 9.4634 0.0000
# 3 2.2291 19.8600 76.3649 0.0000 12.5105 0.0000
# 4 0.0000 0.0000 0.0000 20.9580 0.0000 -6.2635
# 5 12.7780 9.4634 12.5105 0.0000 26.2314 0.0000
# 6 0.0000 0.0000 0.0000 -6.2635 0.0000 18.4810
#
#
#
# Elastic Compliance Matrix: (Units=1/GPa)
#
#
# Indices 1 2 3 4 5 6 
#
# 1 0.018995 -0.003055 0.001709 0.000000 -0.008966 0.000000
# 2 -0.003055 0.011084 -0.002584 0.000000 -0.001278 0.000000
# 3 0.001709 -0.002584 0.014862 0.000000 -0.006988 0.000000
# 4 0.000000 0.000000 0.000000 0.053092 0.000000 0.017994
# 5 -0.008966 -0.001278 -0.006988 0.000000 0.046284 0.000000
# 6 0.000000 0.000000 0.000000 0.017994 0.000000 0.060208
#
#
# Mechanical properties :
#
#
# Convention : Reuss Voigt Hill
#
# Bulk Modulus (GPa) = 26.96824 35.68124 31.32474
# Shear Modulus (GPa) = 22.24729 26.33480 24.29105
#
# Velocity S-wave (km/s) = 3.38266 3.68032 3.53462
# Velocity P-wave (km/s) = 5.39695 6.03419 5.72444
#
# Compressibility (1/GPa) = 0.03708065
#
# Stress axis : x y z
#
# Youngs Moduli (GPa) = 52.64567 90.21712 67.28551
#
# Poissons Ratio (x) = 0.27563 -0.11498
# Poissons Ratio (y) = 0.16084 0.17387
# Poissons Ratio (z) = -0.08997 0.23313
#
# Static dielectric constant tensor:
#      x y z
#    x 1.688000 0.000000 0.017480 
#    y 0.000000 1.668030 0.000000 
#    z 0.017480 0.000000 1.716760 
# 
# From -- ./inp_files/65768.got.cif
#   From: 2010.05.17/outbox.cif.g08.bks.cpg/sg11_33_cif.got.tgz:65768.got - 2010.06.03 12:22:45.
