data_PCOD9164315
_publ_section_title
;
Structure prediction by ZEFSAII (Michael W. Deem and Ramdas Pophale) SiO2 
 PCOD9164315
Probable space group: P 21/M
;
_chemical_formula_sum "Si O2"
_cell_formula_units_Z 26
_cell_length_a 5.104934
_cell_length_b 19.390687
_cell_length_c 14.904313
_cell_angle_alpha 90.000000
_cell_angle_beta 123.690074
_cell_angle_gamma 90.000000
_cell_volume 1227.565957
_symmetry_space_group_name_H-M "P 21/M"
_symmetry_group_IT_number 11
_symmetry_cell_setting 'monoclinic'
loop_
_space_group_symop_operation_xyz
x,y,z
-x,1/2+y,-z
-x,-y,-z
x,1/2-y,z
loop_
_atom_site_type_symbol
_atom_site_label
_atom_site_fract_x
_atom_site_fract_y
_atom_site_fract_z
Si Si1 0.721550 0.750000 0.100995
Si Si2 0.185078 0.641121 0.947398
Si Si3 0.139041 0.884306 0.219146
Si Si4 0.488305 0.881315 0.826169
Si Si5 0.299016 0.667913 0.596789
Si Si6 0.433025 0.167509 0.541935
Si Si7 0.494386 0.541144 0.126879
O O1 0.441539 0.691108 0.038385
O O2 0.985787 0.811511 0.162299
O O3 0.235457 0.645729 0.850017
O O4 0.826468 0.655135 0.906098
O O5 0.288680 0.565579 0.002363
O O6 0.340333 0.871608 0.346931
O O7 0.359592 0.913634 0.183210
O O8 0.855255 0.937778 0.180182
O O9 0.389231 0.869264 0.705590
O O10 0.536955 0.961565 0.855435
O O11 0.341059 0.750000 0.619973
O O12 0.500170 0.647614 0.548303
O O13 0.931999 0.656219 0.505315
O O14 0.496442 0.250000 0.561064
#
# Coordination Sequence:
#
# PCOD9164315 Si02
#       7
#     2   4   4   4   4   4   4
#     4  10  24  40  62 100 118 152 208 270 308 360
#     4  11  24  39  65  89 129 163 214 254 314 362
#     4  11  22  41  67  93 128 155 208 264 322 360
#     4  12  24  43  63  88 131 175 208 252 306 368
#     4  10  23  39  63  90 124 160 216 252 308 370
#     4  10  20  41  64  93 121 163 201 261 320 370
#     4  11  24  41  62  94 127 172 209 250 308 389
#
# _framework density 21.180125
#
# number of rings (size 3 to 8) (size 9 to 14) (size 15 to 20)
#    0.000    1.231    0.769    5.538    2.154    4.923 
#    0.000    4.615    0.000    0.000    0.000    0.000 
#    0.000    0.000    0.000    0.000    0.000    0.000 
#
# Total GULP energy -144981.694499 kJ/mol
# GULP energy per Si atom -5576.219019 kJ/mol
# Density = 2.113192 g / cm^3
# Si number density = 21.180125 Si / 1000 Ang^3
#
#
#
# Elastic Constant Matrix: (Units=GPa)
#
#
# Indices 1 2 3 4 5 6 
#
# 1 58.4266 8.1507 3.5950 0.0000 -17.1469 0.0000
# 2 8.1507 55.7219 0.5559 0.0000 -4.5674 0.0000
# 3 3.5950 0.5559 64.7727 0.0000 -8.6685 0.0000
# 4 0.0000 0.0000 0.0000 -16.8801 0.0000 44.1808
# 5 -17.1469 -4.5674 -8.6685 0.0000 23.1528 0.0000
# 6 0.0000 0.0000 0.0000 44.1808 0.0000 -42.2225
#
#
#
# Elastic Compliance Matrix: (Units=1/GPa)
#
#
# Indices 1 2 3 4 5 6 
#
# 1 0.022128 -0.001904 0.000980 0.000000 0.016379 0.000000
# 2 -0.001904 0.018412 0.000258 0.000000 0.002319 0.000000
# 3 0.000980 0.000258 0.016303 0.000000 0.006881 0.000000
# 4 0.000000 0.000000 0.000000 0.034072 0.000000 0.035652
# 5 0.016379 0.002319 0.006881 0.000000 0.058355 0.000000
# 6 0.000000 0.000000 0.000000 0.035652 0.000000 0.013622
#
#
# Mechanical properties :
#
#
# Convention : Reuss Voigt Hill
#
# Bulk Modulus (GPa) = 18.01437 22.61382 20.31410
# Shear Modulus (GPa) = 27.36330 3.91801 15.64066
#
# Velocity S-wave (km/s) = 3.59825 1.36157 2.72041
# Velocity P-wave (km/s) = 5.07809 3.62931 4.41355
#
# Compressibility (1/GPa) = 0.05551123
#
# Stress axis : x y z
#
# Youngs Moduli (GPa) = 45.19232 54.31167 61.33905
#
# Poissons Ratio (x) = 0.10341 -0.06013
# Poissons Ratio (y) = 0.08604 -0.01582
# Poissons Ratio (z) = -0.04430 -0.01401
#
# Static dielectric constant tensor:
#      x y z
#    x 1.754340 0.000000 -0.032510 
#    y 0.000000 1.773130 0.000000 
#    z -0.032510 0.000000 1.742420 
# 
# From -- ./inp_files/46241.got.cif
#   From: 2010.05.17/outbox.cif.g08.bks.cpg/sg11_24_cif.got.tgz:46241.got - 2010.06.03 12:22:45.
