data_PCOD9164968
_publ_section_title
;
Structure prediction by ZEFSAII (Michael W. Deem and Ramdas Pophale) SiO2 
 PCOD9164968
Probable space group: P 21/M
;
_chemical_formula_sum "Si O2"
_cell_formula_units_Z 28
_cell_length_a 5.417414
_cell_length_b 29.612554
_cell_length_c 9.253493
_cell_angle_alpha 90.000000
_cell_angle_beta 58.536261
_cell_angle_gamma 90.000000
_cell_volume 1266.215687
_symmetry_space_group_name_H-M "P 21/M"
_symmetry_group_IT_number 11
_symmetry_cell_setting 'monoclinic'
loop_
_space_group_symop_operation_xyz
x,y,z
-x,1/2+y,-z
-x,-y,-z
x,1/2-y,z
loop_
_atom_site_type_symbol
_atom_site_label
_atom_site_fract_x
_atom_site_fract_y
_atom_site_fract_z
Si Si1 0.245466 0.657438 0.229562
Si Si2 0.185387 0.618654 0.682423
Si Si3 0.677576 0.605419 0.321298
Si Si4 0.071188 0.299896 0.423320
Si Si5 0.676468 0.938751 0.837015
Si Si6 0.318812 0.017998 0.860819
Si Si7 0.401651 0.659091 0.872273
O O1 0.493419 0.634833 0.256993
O O2 0.005117 0.621442 0.247660
O O3 0.053041 0.692939 0.378734
O O4 0.360276 0.678123 0.044375
O O5 0.508563 0.610617 0.525068
O O6 0.139675 0.640564 0.854549
O O7 0.071110 0.658331 0.615568
O O8 0.016354 0.571481 0.721120
O O9 0.681925 0.554001 0.266268
O O10 0.992819 0.250000 0.395621
O O11 0.409837 0.308536 0.288201
O O12 0.555862 0.889043 0.849291
O O13 0.536703 0.976147 0.777189
O O14 0.590840 0.954464 0.023073
O O15 0.000000 0.000000 0.000000
#
# Coordination Sequence:
#
# PCOD9164968 Si02
#       7
#     4   4   4   4   4   4   4
#     4  11  23  43  70  96 133 180 220 271 335 408
#     4  10  22  41  66  93 132 177 222 279 343 405
#     4  11  23  42  65  98 133 180 228 273 338 395
#     4  10  24  44  66  99 133 166 218 279 338 411
#     4  10  21  37  59  92 128 176 227 278 329 391
#     4  11  22  37  60  93 132 177 235 286 325 390
#     4  11  21  42  69  94 133 177 221 270 343 402
#
# _framework density 22.113136000000001
#
# number of rings (size 3 to 8) (size 9 to 14) (size 15 to 20)
#    0.000    1.429    2.857    2.571    4.000    1.714 
#    0.000    2.857    0.000    0.000    0.000    0.000 
#    0.000    0.000    0.000    0.000    0.000    0.000 
#
# Total GULP energy -156120.413164 kJ/mol
# GULP energy per Si atom -5575.729042 kJ/mol
# Density = 2.206281 g / cm^3
# Si number density = 22.113136 Si / 1000 Ang^3
#
#
#
# Elastic Constant Matrix: (Units=GPa)
#
#
# Indices 1 2 3 4 5 6 
#
# 1 59.5379 -2.4970 12.6106 0.0000 2.3434 0.0000
# 2 -2.4970 78.4167 25.6510 0.0000 -4.4274 0.0000
# 3 12.6106 25.6510 97.2429 0.0000 5.0985 0.0000
# 4 0.0000 0.0000 0.0000 10.5688 0.0000 -1.7174
# 5 2.3434 -4.4274 5.0985 0.0000 26.3984 0.0000
# 6 0.0000 0.0000 0.0000 -1.7174 0.0000 7.6846
#
#
#
# Elastic Compliance Matrix: (Units=1/GPa)
#
#
# Indices 1 2 3 4 5 6 
#
# 1 0.017430 0.001350 -0.002573 0.000000 -0.000824 0.000000
# 2 0.001350 0.014314 -0.004112 0.000000 0.003075 0.000000
# 3 -0.002573 -0.004112 0.011846 0.000000 -0.002749 0.000000
# 4 0.000000 0.000000 0.000000 0.098184 0.000000 0.021943
# 5 -0.000824 0.003075 -0.002749 0.000000 0.039001 0.000000
# 6 0.000000 0.000000 0.000000 0.021943 0.000000 0.135034
#
#
# Mechanical properties :
#
#
# Convention : Reuss Voigt Hill
#
# Bulk Modulus (GPa) = 30.37676 34.08075 32.22875
# Shear Modulus (GPa) = 14.81688 22.22589 18.52138
#
# Velocity S-wave (km/s) = 2.59134 3.17377 2.89723
# Velocity P-wave (km/s) = 4.76657 5.37363 5.07917
#
# Compressibility (1/GPa) = 0.03291991
#
# Stress axis : x y z
#
# Youngs Moduli (GPa) = 57.37194 69.86098 84.41600
#
# Poissons Ratio (x) = -0.09433 0.21723
# Poissons Ratio (y) = -0.07747 0.34713
# Poissons Ratio (z) = 0.14764 0.28728
#
# Static dielectric constant tensor:
#      x y z
#    x 2.006260 0.000000 0.007680 
#    y 0.000000 1.769600 0.000000 
#    z 0.007680 0.000000 1.868480 
# 
# From -- ./inp_files/10792.got.cif
#   From: 2010.05.17/outbox.cif.g08.bks.cpg/sg11_6_cif.got.tgz:10792.got - 2010.06.03 12:22:45.
