data_PCOD9164158
_publ_section_title
;
Structure prediction by ZEFSAII (Michael W. Deem and Ramdas Pophale) SiO2 
 PCOD9164158
Probable space group: P 21/M
;
_chemical_formula_sum "Si O2"
_cell_formula_units_Z 32
_cell_length_a 22.069833
_cell_length_b 13.823011
_cell_length_c 8.031701
_cell_angle_alpha 90.000000
_cell_angle_beta 38.932838
_cell_angle_gamma 90.000000
_cell_volume 1539.754997
_symmetry_space_group_name_H-M "P 21/M"
_symmetry_group_IT_number 11
_symmetry_cell_setting 'monoclinic'
loop_
_space_group_symop_operation_xyz
x,y,z
-x,1/2+y,-z
-x,-y,-z
x,1/2-y,z
loop_
_atom_site_type_symbol
_atom_site_label
_atom_site_fract_x
_atom_site_fract_y
_atom_site_fract_z
Si Si1 0.466544 0.365483 0.526397
Si Si2 0.150564 0.640694 0.615650
Si Si3 0.507795 0.363572 0.826045
Si Si4 0.005876 0.358490 0.342640
Si Si5 0.320207 0.634343 0.024068
Si Si6 0.833927 0.134365 0.913979
Si Si7 0.372992 0.054968 0.404738
Si Si8 0.838111 0.986921 0.172467
O O1 0.461563 0.250000 0.514983
O O2 0.463884 0.380471 0.732701
O O3 0.391565 0.409573 0.554826
O O4 0.571821 0.401203 0.234722
O O5 0.144712 0.750000 0.705573
O O6 0.261416 0.622673 0.320698
O O7 0.116678 0.539251 0.766045
O O8 0.081136 0.649643 0.604380
O O9 0.537486 0.250000 0.768093
O O10 0.591059 0.443436 0.671989
O O11 0.436190 0.386823 0.132924
O O12 0.043130 0.250000 0.294927
O O13 0.944200 0.392957 0.632693
O O14 0.089179 0.423322 0.089366
O O15 0.326327 0.750000 0.986813
O O16 0.246537 0.596525 0.042177
O O17 0.830026 0.250000 0.923477
O O18 0.810092 0.085158 0.136060
O O19 0.262264 0.066856 0.589216
#
# Coordination Sequence:
#
# PCOD9164158 Si02
#       8
#     4   4   4   4   4   4   4   4
#     4  10  20  39  64  83 118 165 199 246 303 356
#     4   9  19  35  57  85 112 142 186 238 294 352
#     4  10  23  42  60  82 120 165 209 253 300 351
#     4   9  20  39  58  77 113 156 188 227 285 355
#     4   8  16  32  56  83 110 146 184 232 295 344
#     4   9  18  35  58  86 113 139 185 241 292 348
#     4  11  25  38  57  94 123 156 204 255 298 357
#     4  12  22  34  56  89 114 150 186 240 297 346
#
# _framework density 20.782529
#
# number of rings (size 3 to 8) (size 9 to 14) (size 15 to 20)
#    0.000    2.250    0.000    4.125    3.500    3.000 
#    2.250    0.000    0.000    0.000    0.000    0.000 
#    0.000    0.000    0.000    0.000    0.000    0.000 
#
# Total GULP energy -178226.044401 kJ/mol
# GULP energy per Si atom -5569.563888 kJ/mol
# Density = 2.073523 g / cm^3
# Si number density = 20.782529 Si / 1000 Ang^3
#
#
#
# Elastic Constant Matrix: (Units=GPa)
#
#
# Indices 1 2 3 4 5 6 
#
# 1 12.2200 29.8749 30.2510 0.0000 -11.7122 0.0000
# 2 29.8749 62.9892 -4.7845 0.0000 14.9074 0.0000
# 3 30.2510 -4.7845 28.4428 0.0000 14.8143 0.0000
# 4 0.0000 0.0000 0.0000 12.3779 0.0000 -8.7847
# 5 -11.7122 14.9074 14.8143 0.0000 8.4641 0.0000
# 6 0.0000 0.0000 0.0000 -8.7847 0.0000 -3.1213
#
#
#
# Elastic Compliance Matrix: (Units=1/GPa)
#
#
# Indices 1 2 3 4 5 6 
#
# 1 0.003365 0.006620 0.013380 0.000000 -0.030423 0.000000
# 2 0.006620 0.010105 -0.009536 0.000000 0.008053 0.000000
# 3 0.013380 -0.009536 0.010541 0.000000 0.016862 0.000000
# 4 0.000000 0.000000 0.000000 0.026953 0.000000 -0.075857
# 5 -0.030423 0.008053 0.016862 0.000000 0.032352 0.000000
# 6 0.000000 0.000000 0.000000 -0.075857 0.000000 -0.106884
#
#
# Mechanical properties :
#
#
# Convention : Reuss Voigt Hill
#
# Bulk Modulus (GPa) = 22.25148 23.81499 23.03324
# Shear Modulus (GPa) = -169.38659 6.76485 -81.31087
#
# Velocity S-wave (km/s) = -9.03777 1.80614 -6.26175
# Velocity P-wave (km/s) = 9.90850 3.97914 6.41657
#
# Compressibility (1/GPa) = 0.04494082
#
# Stress axis : x y z
#
# Youngs Moduli (GPa) = 297.17534 98.95701 94.87001
#
# Poissons Ratio (x) = -0.65514 -1.26940
# Poissons Ratio (y) = -1.96745 0.90469
# Poissons Ratio (z) = -3.97634 0.94366
#
# Static dielectric constant tensor:
#      x y z
#    x 1.820990 0.000000 0.043550 
#    y 0.000000 1.778870 0.000000 
#    z 0.043550 0.000000 1.773930 
# 
# From -- ./inp_files/27767.got.cif
#   From: 2010.05.17/outbox.cif.g08.bks.cpg/sg11_14_cif.got.tgz:27767.got - 2010.06.03 12:22:45.
