data_PCOD9164618
_publ_section_title
;
Structure prediction by ZEFSAII (Michael W. Deem and Ramdas Pophale) SiO2 
 PCOD9164618
Probable space group: P 21/M
;
_chemical_formula_sum "Si O2"
_cell_formula_units_Z 30
_cell_length_a 23.861778
_cell_length_b 13.232548
_cell_length_c 23.895860
_cell_angle_alpha 90.000000
_cell_angle_beta 167.557282
_cell_angle_gamma 90.000000
_cell_volume 1625.708000
_symmetry_space_group_name_H-M "P 21/M"
_symmetry_group_IT_number 11
_symmetry_cell_setting 'monoclinic'
loop_
_space_group_symop_operation_xyz
x,y,z
-x,1/2+y,-z
-x,-y,-z
x,1/2-y,z
loop_
_atom_site_type_symbol
_atom_site_label
_atom_site_fract_x
_atom_site_fract_y
_atom_site_fract_z
Si Si1 0.597186 0.539784 0.385466
Si Si2 0.862759 0.750000 0.147002
Si Si3 0.716931 0.424787 0.280145
Si Si4 0.456456 0.868354 0.573216
Si Si5 0.745635 0.636093 0.253099
Si Si6 0.933126 0.367057 0.092070
Si Si7 0.013200 0.036062 0.949295
Si Si8 0.352458 0.891554 0.656593
O O1 0.582931 0.438215 0.410533
O O2 0.834087 0.605007 0.639457
O O3 0.632202 0.500731 0.357204
O O4 0.334514 0.600162 0.140226
O O5 0.095657 0.836314 0.381794
O O6 0.627894 0.836296 0.913431
O O7 0.722218 0.545809 0.275060
O O8 0.681682 0.396349 0.309960
O O9 0.984479 0.380891 0.516470
O O10 0.483648 0.380770 0.015319
O O11 0.439066 0.750000 0.570003
O O12 0.236708 0.901277 0.314778
O O13 0.734302 0.896670 0.817982
O O14 0.734084 0.750000 0.264255
O O15 0.933871 0.250000 0.077950
O O16 0.967808 0.437295 0.071407
O O17 0.000000 0.000000 0.000000
#
# Coordination Sequence:
#
# PCOD9164618 Si02
#       8
#     4   2   4   4   4   4   4   4
#     4  10  22  39  58  83 121 147 191 240 280 343
#     4  10  24  32  56  88 114 150 188 230 298 350
#     4  10  22  35  58  82 112 147 188 235 282 339
#     4  10  21  36  55  83 115 151 180 228 290 353
#     4  10  21  37  55  81 112 151 188 232 284 338
#     4  10  21  39  61  84 112 157 198 236 281 336
#     4  10  21  38  57  84 116 144 191 241 284 334
#     4  11  22  39  55  88 118 149 193 242 289 345
#
# _framework density 18.453498
#
# number of rings (size 3 to 8) (size 9 to 14) (size 15 to 20)
#    0.000    1.867    0.000    3.200    7.467    1.067 
#    0.000    1.333    0.000    0.000    0.000    0.000 
#    0.000    0.000    0.000    0.000    0.000    0.000 
#
# Total GULP energy -167015.542563 kJ/mol
# GULP energy per Si atom -5567.184752 kJ/mol
# Density = 1.841150 g / cm^3
# Si number density = 18.453498 Si / 1000 Ang^3
#
#
#
# Elastic Constant Matrix: (Units=GPa)
#
#
# Indices 1 2 3 4 5 6 
#
# 1 16.1891 -12.1086 7.7006 0.0000 0.3156 0.0000
# 2 -12.1086 120.7534 40.0714 0.0000 -0.1321 0.0000
# 3 7.7006 40.0714 191.9886 0.0000 -14.4734 0.0000
# 4 0.0000 0.0000 0.0000 24.9793 0.0000 1.8930
# 5 0.3156 -0.1321 -14.4734 0.0000 10.8522 0.0000
# 6 0.0000 0.0000 0.0000 1.8930 0.0000 -3.6206
#
#
#
# Elastic Compliance Matrix: (Units=1/GPa)
#
#
# Indices 1 2 3 4 5 6 
#
# 1 0.071198 0.008925 -0.005410 0.000000 -0.009178 0.000000
# 2 0.008925 0.010085 -0.002750 0.000000 -0.003804 0.000000
# 3 -0.005410 -0.002750 0.006681 0.000000 0.009034 0.000000
# 4 0.000000 0.000000 0.000000 0.038507 0.000000 0.020133
# 5 -0.009178 -0.003804 0.009034 0.000000 0.104416 0.000000
# 6 0.000000 0.000000 0.000000 0.020133 0.000000 -0.265668
#
#
# Mechanical properties :
#
#
# Convention : Reuss Voigt Hill
#
# Bulk Modulus (GPa) = 11.17414 44.47310 27.82362
# Shear Modulus (GPa) = -771.57445 25.99333 -372.79056
#
# Velocity S-wave (km/s) = -20.47012 3.75718 -14.22866
# Velocity P-wave (km/s) = 23.50814 6.55548 15.96337
#
# Compressibility (1/GPa) = 0.08949235
#
# Stress axis : x y z
#
# Youngs Moduli (GPa) = 14.04541 99.16174 149.68814
#
# Poissons Ratio (x) = -0.88499 0.80986
# Poissons Ratio (y) = -0.12535 0.41158
# Poissons Ratio (z) = 0.07599 0.27265
#
# Static dielectric constant tensor:
#      x y z
#    x 1.630290 0.000000 -0.000630 
#    y 0.000000 1.626850 0.000000 
#    z -0.000630 0.000000 1.628750 
# 
# From -- ./inp_files/70234.got.cif
#   From: 2010.05.17/outbox.cif.g08.bks.cpg/sg11_36_cif.got.tgz:70234.got - 2010.06.03 12:22:45.
