data_PCOD9164504
_publ_section_title
;
Structure prediction by ZEFSAII (Michael W. Deem and Ramdas Pophale) SiO2 
 PCOD9164504
Probable space group: P 21/M
;
_chemical_formula_sum "Si O2"
_cell_formula_units_Z 32
_cell_length_a 5.150900
_cell_length_b 28.499838
_cell_length_c 10.716130
_cell_angle_alpha 90.000000
_cell_angle_beta 87.338076
_cell_angle_gamma 90.000000
_cell_volume 1571.428440
_symmetry_space_group_name_H-M "P 21/M"
_symmetry_group_IT_number 11
_symmetry_cell_setting 'monoclinic'
loop_
_space_group_symop_operation_xyz
x,y,z
-x,1/2+y,-z
-x,-y,-z
x,1/2-y,z
loop_
_atom_site_type_symbol
_atom_site_label
_atom_site_fract_x
_atom_site_fract_y
_atom_site_fract_z
Si Si1 0.375199 0.194388 0.969988
Si Si2 0.362400 0.486913 0.132905
Si Si3 0.641993 0.921263 0.484922
Si Si4 0.881823 0.591035 0.734929
Si Si5 0.959269 0.075244 0.871754
Si Si6 0.475186 0.379052 0.764555
Si Si7 0.733122 0.488070 0.362571
Si Si8 0.856315 0.352755 0.080155
O O1 0.398518 0.250000 0.965816
O O2 0.583172 0.172012 0.061930
O O3 0.086100 0.178861 0.016297
O O4 0.443713 0.170338 0.835526
O O5 0.303751 0.431503 0.154016
O O6 0.111174 0.520942 0.132761
O O7 0.528356 0.497839 0.254702
O O8 0.500000 0.500000 0.000000
O O9 0.737556 0.897798 0.609896
O O10 0.582774 0.883980 0.379703
O O11 0.403977 0.954661 0.531697
O O12 0.821324 0.962313 0.418650
O O13 0.047563 0.545459 0.695146
O O14 0.058850 0.632206 0.783936
O O15 0.762977 0.101202 0.781141
O O16 0.255023 0.089039 0.838134
O O17 0.868121 0.098360 0.003498
#
# Coordination Sequence:
#
# PCOD9164504 Si02
#       8
#     4   4   4   4   4   4   4   4
#     4  10  22  43  69  95 115 144 188 254 329 387
#     4  11  23  32  53  79 124 165 212 254 286 334
#     4  10  21  35  55  81 121 171 214 246 281 341
#     4  11  24  35  54  84 124 170 210 247 289 350
#     4  10  21  36  54  84 118 158 201 241 300 331
#     4  10  21  37  62  87 114 152 197 252 298 359
#     4  10  21  36  52  80 120 175 219 242 285 332
#     4  10  23  38  64  90 124 151 191 250 307 376
#
# _framework density 20.363636
#
# number of rings (size 3 to 8) (size 9 to 14) (size 15 to 20)
#    0.000    1.750    1.250    2.250   10.500    1.000 
#    0.000    0.000    0.000    1.500    0.000    0.000 
#    0.000    0.000    0.000    0.000    0.000    0.000 
#
# Total GULP energy -178756.203087 kJ/mol
# GULP energy per Si atom -5586.131346 kJ/mol
# Density = 2.031729 g / cm^3
# Si number density = 20.363636 Si / 1000 Ang^3
#
#
#
# Elastic Constant Matrix: (Units=GPa)
#
#
# Indices 1 2 3 4 5 6 
#
# 1 57.2843 6.8903 11.3784 0.0000 8.0961 0.0000
# 2 6.8903 65.2703 29.1098 0.0000 11.6785 0.0000
# 3 11.3784 29.1098 104.7308 0.0000 19.8825 0.0000
# 4 0.0000 0.0000 0.0000 14.2527 0.0000 3.9408
# 5 8.0961 11.6785 19.8825 0.0000 34.1566 0.0000
# 6 0.0000 0.0000 0.0000 3.9408 0.0000 22.7867
#
#
#
# Elastic Compliance Matrix: (Units=1/GPa)
#
#
# Indices 1 2 3 4 5 6 
#
# 1 0.018257 -0.000824 -0.001109 0.000000 -0.003400 0.000000
# 2 -0.000824 0.017916 -0.004232 0.000000 -0.003467 0.000000
# 3 -0.001109 -0.004232 0.011827 0.000000 -0.005175 0.000000
# 4 0.000000 0.000000 0.000000 0.073686 0.000000 -0.012743
# 5 -0.003400 -0.003467 -0.005175 0.000000 0.034280 0.000000
# 6 0.000000 0.000000 0.000000 -0.012743 0.000000 0.046089
#
#
# Mechanical properties :
#
#
# Convention : Reuss Voigt Hill
#
# Bulk Modulus (GPa) = 28.03521 35.78250 31.90885
# Shear Modulus (GPa) = 22.09699 26.23300 24.16499
#
# Velocity S-wave (km/s) = 3.29769 3.59308 3.44855
# Velocity P-wave (km/s) = 5.31948 5.90115 5.61785
#
# Compressibility (1/GPa) = 0.03566943
#
# Stress axis : x y z
#
# Youngs Moduli (GPa) = 54.77429 55.81728 84.54904
#
# Poissons Ratio (x) = 0.04602 0.09375
# Poissons Ratio (y) = 0.04516 0.35780
# Poissons Ratio (z) = 0.06074 0.23621
#
# Static dielectric constant tensor:
#      x y z
#    x 1.857090 0.000000 -0.034810 
#    y 0.000000 1.683680 0.000000 
#    z -0.034810 0.000000 1.830680 
# 
# From -- ./inp_files/10857.got.cif
#   From: 2010.05.17/outbox.cif.g08.bks.cpg/sg11_6_cif.got.tgz:10857.got - 2010.06.03 12:22:45.
