data_PCOD9164296
_publ_section_title
;
Structure prediction by ZEFSAII (Michael W. Deem and Ramdas Pophale) SiO2 
 PCOD9164296
Probable space group: P 21/M
;
_chemical_formula_sum "Si O2"
_cell_formula_units_Z 26
_cell_length_a 5.362809
_cell_length_b 19.118348
_cell_length_c 11.236570
_cell_angle_alpha 90.000000
_cell_angle_beta 114.834946
_cell_angle_gamma 90.000000
_cell_volume 1045.522456
_symmetry_space_group_name_H-M "P 21/M"
_symmetry_group_IT_number 11
_symmetry_cell_setting 'monoclinic'
loop_
_space_group_symop_operation_xyz
x,y,z
-x,1/2+y,-z
-x,-y,-z
x,1/2-y,z
loop_
_atom_site_type_symbol
_atom_site_label
_atom_site_fract_x
_atom_site_fract_y
_atom_site_fract_z
Si Si1 0.106410 0.250000 0.113163
Si Si2 0.700222 0.825925 0.231899
Si Si3 0.683437 0.877030 0.983368
Si Si4 0.288131 0.877271 0.329329
Si Si5 0.226361 0.012229 0.184599
Si Si6 0.769574 0.441508 0.433251
Si Si7 0.906711 0.367688 0.242334
O O1 0.112968 0.313678 0.012949
O O2 0.096655 0.310954 0.217083
O O3 0.603275 0.750000 0.170981
O O4 0.551735 0.842324 0.324804
O O5 0.027596 0.829509 0.305903
O O6 0.625170 0.878986 0.111365
O O7 0.757832 0.951774 0.941219
O O8 0.399823 0.851225 0.864426
O O9 0.345131 0.917684 0.462822
O O10 0.186999 0.931673 0.207178
O O11 0.521525 0.029154 0.304351
O O12 0.002259 0.057476 0.210926
O O13 0.894953 0.377580 0.381378
O O14 0.000000 0.500000 0.500000
#
# Coordination Sequence:
#
# PCOD9164296 Si02
#       7
#     2   4   4   4   4   4   4
#     4  10  20  40  68  98 132 178 236 296 346 402
#     4  12  29  49  70  98 144 200 239 276 350 435
#     4  10  23  42  70 100 136 179 235 298 353 412
#     4  12  27  45  73 104 144 189 233 288 352 432
#     4  10  23  42  73 108 130 173 237 298 357 405
#     4  11  22  44  72 102 141 184 225 291 361 426
#     4  10  22  39  71 103 134 169 240 291 356 405
#
# _framework density 24.867951999999999
#
# number of rings (size 3 to 8) (size 9 to 14) (size 15 to 20)
#    0.000    1.231    2.308    2.308    8.615    1.231 
#    2.769    0.000    0.000    0.000    0.000    0.000 
#    0.000    0.000    0.000    0.000    0.000    0.000 
#
# Total GULP energy -145038.302111 kJ/mol
# GULP energy per Si atom -5578.396235 kJ/mol
# Density = 2.481135 g / cm^3
# Si number density = 24.867952 Si / 1000 Ang^3
#
#
#
# Elastic Constant Matrix: (Units=GPa)
#
#
# Indices 1 2 3 4 5 6 
#
# 1 124.5134 34.1106 47.8574 0.0000 -39.9840 0.0000
# 2 34.1106 80.0923 -9.3675 0.0000 -11.6494 0.0000
# 3 47.8574 -9.3675 90.6864 0.0000 -21.7844 0.0000
# 4 0.0000 0.0000 0.0000 17.8608 0.0000 0.8198
# 5 -39.9840 -11.6494 -21.7844 0.0000 43.0478 0.0000
# 6 0.0000 0.0000 0.0000 0.8198 0.0000 -7.6877
#
#
#
# Elastic Compliance Matrix: (Units=1/GPa)
#
#
# Indices 1 2 3 4 5 6 
#
# 1 0.014979 -0.005785 -0.006302 0.000000 0.009158 0.000000
# 2 -0.005785 0.015745 0.005022 0.000000 0.001429 0.000000
# 3 -0.006302 0.005022 0.015701 0.000000 0.003451 0.000000
# 4 0.000000 0.000000 0.000000 0.055716 0.000000 0.005941
# 5 0.009158 0.001429 0.003451 0.000000 0.033870 0.000000
# 6 0.000000 0.000000 0.000000 0.005941 0.000000 -0.129444
#
#
# Mechanical properties :
#
#
# Convention : Reuss Voigt Hill
#
# Bulk Modulus (GPa) = 30.96442 48.94368 39.95405
# Shear Modulus (GPa) = 158.93199 25.49029 92.21114
#
# Velocity S-wave (km/s) = 8.00307 3.20508 6.09597
# Velocity P-wave (km/s) = 9.89330 5.78108 8.10241
#
# Compressibility (1/GPa) = 0.03229513
#
# Stress axis : x y z
#
# Youngs Moduli (GPa) = 66.75879 63.51422 63.69160
#
# Poissons Ratio (x) = 0.36740 0.40141
# Poissons Ratio (y) = 0.38617 -0.31988
# Poissons Ratio (z) = 0.42074 -0.31899
#
# Static dielectric constant tensor:
#      x y z
#    x 2.045700 0.000000 0.023930 
#    y 0.000000 2.001030 0.000000 
#    z 0.023930 0.000000 1.980550 
# 
# From -- ./inp_files/29906.got.cif
#   From: 2010.05.17/outbox.cif.g08.bks.cpg/sg11_15_cif.got.tgz:29906.got - 2010.06.03 12:22:45.
