data_PCOD9164207
_publ_section_title
;
Structure prediction by ZEFSAII (Michael W. Deem and Ramdas Pophale) SiO2 
 PCOD9164207
Probable space group: P 21/M
;
_chemical_formula_sum "Si O2"
_cell_formula_units_Z 28
_cell_length_a 8.724349
_cell_length_b 7.613578
_cell_length_c 27.463815
_cell_angle_alpha 90.000000
_cell_angle_beta 36.248364
_cell_angle_gamma 90.000000
_cell_volume 1078.650500
_symmetry_space_group_name_H-M "P 21/M"
_symmetry_group_IT_number 11
_symmetry_cell_setting 'monoclinic'
loop_
_space_group_symop_operation_xyz
x,y,z
-x,1/2+y,-z
-x,-y,-z
x,1/2-y,z
loop_
_atom_site_type_symbol
_atom_site_label
_atom_site_fract_x
_atom_site_fract_y
_atom_site_fract_z
Si Si1 0.843781 0.050224 0.636443
Si Si2 0.369676 0.552578 0.715034
Si Si3 0.693809 0.046746 0.539077
Si Si4 0.173283 0.460116 0.908828
Si Si5 0.840107 0.535837 0.353063
Si Si6 0.312661 0.964336 0.164003
Si Si7 0.129972 0.945716 0.109468
O O1 0.767823 0.250000 0.666097
O O2 0.023399 0.982597 0.632924
O O3 0.581325 0.943394 0.703224
O O4 0.039221 0.048520 0.540401
O O5 0.291872 0.750000 0.723109
O O6 0.549110 0.469297 0.627758
O O7 0.132218 0.437596 0.791572
O O8 0.745765 0.250000 0.515887
O O9 0.453227 0.969581 0.570332
O O10 0.198042 0.250000 0.893156
O O11 0.457756 0.518747 0.857046
O O12 0.998181 0.528312 0.907144
O O13 0.000000 0.500000 0.000000
O O14 0.821860 0.750000 0.355424
O O15 0.037550 0.484165 0.259354
O O16 0.322560 0.750000 0.159732
O O17 0.320112 0.020846 0.104181
O O18 0.226530 0.750000 0.072831
#
# Coordination Sequence:
#
# PCOD9164207 Si02
#       7
#     4   4   4   4   4   4   4
#     4  11  22  36  55  81 114 155 200 249 304 360
#     4  12  24  38  56  83 116 152 197 249 302 356
#     4  11  21  37  58  81 112 152 198 251 304 358
#     4  10  22  39  63  94 126 158 194 235 289 357
#     4   9  18  34  59  84 109 146 197 249 298 353
#     4   9  17  35  62  89 116 154 200 243 289 352
#     4  10  20  39  66  88 115 159 203 244 297 355
#
# _framework density 25.958364
#
# number of rings (size 3 to 8) (size 9 to 14) (size 15 to 20)
#    0.000    1.714    1.429    3.857    0.000    3.429 
#    0.000    2.857    0.000    0.000    0.000    0.000 
#    0.000    0.000    0.000    0.000    0.000    0.000 
#
# Total GULP energy -156131.610664 kJ/mol
# GULP energy per Si atom -5576.128952 kJ/mol
# Density = 2.589928 g / cm^3
# Si number density = 25.958364 Si / 1000 Ang^3
#
#
#
# Elastic Constant Matrix: (Units=GPa)
#
#
# Indices 1 2 3 4 5 6 
#
# 1 134.2295 1.5096 16.9924 0.0000 19.7557 0.0000
# 2 1.5096 91.5873 -0.4103 0.0000 -7.0522 0.0000
# 3 16.9924 -0.4103 63.5214 0.0000 6.7282 0.0000
# 4 0.0000 0.0000 0.0000 16.7178 0.0000 -2.0988
# 5 19.7557 -7.0522 6.7282 0.0000 50.8245 0.0000
# 6 0.0000 0.0000 0.0000 -2.0988 0.0000 11.5316
#
#
#
# Elastic Compliance Matrix: (Units=1/GPa)
#
#
# Indices 1 2 3 4 5 6 
#
# 1 0.008126 -0.000370 -0.001862 0.000000 -0.002963 0.000000
# 2 -0.000370 0.011054 -0.000007 0.000000 0.001679 0.000000
# 3 -0.001862 -0.000007 0.016394 0.000000 -0.001447 0.000000
# 4 0.000000 0.000000 0.000000 0.061215 0.000000 0.011142
# 5 -0.002963 0.001679 -0.001447 0.000000 0.021252 0.000000
# 6 0.000000 0.000000 0.000000 0.011142 0.000000 0.088746
#
#
# Mechanical properties :
#
#
# Convention : Reuss Voigt Hill
#
# Bulk Modulus (GPa) = 32.16059 36.16907 34.16483
# Shear Modulus (GPa) = 22.55989 33.89789 28.22889
#
# Velocity S-wave (km/s) = 2.95121 3.61758 3.30126
# Velocity P-wave (km/s) = 4.90195 5.60473 5.26508
#
# Compressibility (1/GPa) = 0.03109396
#
# Stress axis : x y z
#
# Youngs Moduli (GPa) = 123.06175 90.46600 60.99731
#
# Poissons Ratio (x) = 0.03351 0.11359
# Poissons Ratio (y) = 0.04559 0.00045
# Poissons Ratio (z) = 0.22917 0.00066
#
# Static dielectric constant tensor:
#      x y z
#    x 2.332080 0.000000 0.101650 
#    y 0.000000 1.936880 0.000000 
#    z 0.101650 0.000000 2.016470 
# 
# From -- ./inp_files/70789.got.cif
#   From: 2010.05.17/outbox.cif.g08.bks.cpg/sg11_36_cif.got.tgz:70789.got - 2010.06.03 12:22:45.
