data_PCOD9164524
_publ_section_title
;
Structure prediction by ZEFSAII (Michael W. Deem and Ramdas Pophale) SiO2 
 PCOD9164524
Probable space group: P 21/M
;
_chemical_formula_sum "Si O2"
_cell_formula_units_Z 32
_cell_length_a 10.244980
_cell_length_b 11.397598
_cell_length_c 20.464742
_cell_angle_alpha 90.000000
_cell_angle_beta 144.654491
_cell_angle_gamma 90.000000
_cell_volume 1382.414738
_symmetry_space_group_name_H-M "P 21/M"
_symmetry_group_IT_number 11
_symmetry_cell_setting 'monoclinic'
loop_
_space_group_symop_operation_xyz
x,y,z
-x,1/2+y,-z
-x,-y,-z
x,1/2-y,z
loop_
_atom_site_type_symbol
_atom_site_label
_atom_site_fract_x
_atom_site_fract_y
_atom_site_fract_z
Si Si1 0.671474 0.120956 0.309614
Si Si2 0.329453 0.879871 0.339407
Si Si3 0.301785 0.448854 0.068079
Si Si4 0.828594 0.574018 0.185415
Si Si5 0.561186 0.119213 0.411729
Si Si6 0.897564 0.881907 0.363195
Si Si7 0.340607 0.621802 0.961578
Si Si8 0.189880 0.872180 0.134477
O O1 0.790486 0.250000 0.360388
O O2 0.531828 0.117254 0.320727
O O3 0.520226 0.119457 0.182187
O O4 0.811108 0.998913 0.364509
O O5 0.421701 0.750000 0.397136
O O6 0.307857 0.877853 0.252195
O O7 0.074698 0.887614 0.262796
O O8 0.454834 0.004271 0.402382
O O9 0.322767 0.538358 0.017039
O O10 0.252704 0.525106 0.112451
O O11 0.077651 0.376158 0.963102
O O12 0.610098 0.626723 0.059253
O O13 0.807669 0.605667 0.252566
O O14 0.794305 0.437817 0.152602
O O15 0.485213 0.250000 0.403128
O O16 0.831645 0.113716 0.530361
O O17 0.835342 0.750000 0.362455
O O18 0.252330 0.750000 0.939749
O O19 0.252624 0.750000 0.126951
#
# Coordination Sequence:
#
# PCOD9164524 Si02
#       8
#     4   4   4   4   4   4   4   4
#     4  11  23  40  65  99 132 161 202 263 324 375
#     4  11  22  40  63  89 125 170 214 258 311 372
#     4  11  20  38  60  92 124 169 207 252 314 379
#     4  11  24  42  60  94 124 169 213 260 308 369
#     4  10  24  45  66  93 127 163 208 266 325 372
#     4  11  24  44  69  92 123 169 213 260 316 377
#     4  11  23  40  62  91 128 168 211 259 309 374
#     4  10  21  35  57  90 127 165 209 253 306 375
#
# _framework density 23.147904
#
# number of rings (size 3 to 8) (size 9 to 14) (size 15 to 20)
#    0.000    1.250    3.750    2.250    0.000    3.000 
#    0.000    0.000    0.000    0.000    0.000    0.000 
#    0.000    0.000    0.000    0.000    0.000    0.000 
#
# Total GULP energy -178561.910819 kJ/mol
# GULP energy per Si atom -5580.059713 kJ/mol
# Density = 2.309522 g / cm^3
# Si number density = 23.147904 Si / 1000 Ang^3
#
#
#
# Elastic Constant Matrix: (Units=GPa)
#
#
# Indices 1 2 3 4 5 6 
#
# 1 54.7144 47.8050 -2.9081 0.0000 -0.9624 0.0000
# 2 47.8050 224.2452 38.0317 0.0000 10.5962 0.0000
# 3 -2.9081 38.0317 56.3865 0.0000 -5.4395 0.0000
# 4 0.0000 0.0000 0.0000 -10.1195 0.0000 -9.8022
# 5 -0.9624 10.5962 -5.4395 0.0000 34.1150 0.0000
# 6 0.0000 0.0000 0.0000 -9.8022 0.0000 -10.6687
#
#
#
# Elastic Compliance Matrix: (Units=1/GPa)
#
#
# Indices 1 2 3 4 5 6 
#
# 1 0.024166 -0.006313 0.005849 0.000000 0.003575 0.000000
# 2 -0.006313 0.006843 -0.005244 0.000000 -0.003140 0.000000
# 3 0.005849 -0.005244 0.022086 0.000000 0.005315 0.000000
# 4 0.000000 0.000000 0.000000 -0.898175 0.000000 0.825226
# 5 0.003575 -0.003140 0.005315 0.000000 0.031236 0.000000
# 6 0.000000 0.000000 0.000000 0.825226 0.000000 -0.851935
#
#
# Mechanical properties :
#
#
# Convention : Reuss Voigt Hill
#
# Bulk Modulus (GPa) = 23.99241 55.68928 39.84084
# Shear Modulus (GPa) = -3.04791 19.49318 8.22264
#
# Velocity S-wave (km/s) = -1.14872 2.90507 1.88678
# Velocity P-wave (km/s) = 2.93733 5.94666 4.68992
#
# Compressibility (1/GPa) = 0.04167986
#
# Stress axis : x y z
#
# Youngs Moduli (GPa) = 41.38046 146.13793 45.27757
#
# Poissons Ratio (x) = 0.92252 -0.26483
# Poissons Ratio (y) = 0.26122 0.23743
# Poissons Ratio (z) = -0.24203 0.76632
#
# Static dielectric constant tensor:
#      x y z
#    x 1.873670 0.000000 0.015270 
#    y 0.000000 1.914460 0.000000 
#    z 0.015270 0.000000 1.889970 
# 
# From -- ./inp_files/68604.got.cif
#   From: 2010.05.17/outbox.cif.g08.bks.cpg/sg11_35_cif.got.tgz:68604.got - 2010.06.03 12:22:45.
