data_PCOD9164643
_publ_section_title
;
Structure prediction by ZEFSAII (Michael W. Deem and Ramdas Pophale) SiO2 
 PCOD9164643
Probable space group: P 21/M
;
_chemical_formula_sum "Si O2"
_cell_formula_units_Z 28
_cell_length_a 16.123876
_cell_length_b 8.745408
_cell_length_c 21.306646
_cell_angle_alpha 90.000000
_cell_angle_beta 28.737439
_cell_angle_gamma 90.000000
_cell_volume 1444.527984
_symmetry_space_group_name_H-M "P 21/M"
_symmetry_group_IT_number 11
_symmetry_cell_setting 'monoclinic'
loop_
_space_group_symop_operation_xyz
x,y,z
-x,1/2+y,-z
-x,-y,-z
x,1/2-y,z
loop_
_atom_site_type_symbol
_atom_site_label
_atom_site_fract_x
_atom_site_fract_y
_atom_site_fract_z
Si Si1 0.943157 0.434596 0.634435
Si Si2 0.268718 0.434449 0.340715
Si Si3 0.249382 0.931971 0.627722
Si Si4 0.899475 0.434417 0.806192
Si Si5 0.171372 0.069150 0.917008
Si Si6 0.338955 0.565865 0.925603
Si Si7 0.411577 0.931373 0.655265
O O1 0.931835 0.250000 0.639292
O O2 0.816110 0.503287 0.666763
O O3 0.899273 0.484534 0.733941
O O4 0.137538 0.478000 0.483775
O O5 0.270986 0.250000 0.336437
O O6 0.465523 0.487241 0.216248
O O7 0.258794 0.750000 0.612211
O O8 0.297105 0.961972 0.668852
O O9 0.397098 0.013586 0.488736
O O10 0.064647 0.994885 0.730951
O O11 0.917201 0.250000 0.794926
O O12 0.730960 0.473339 0.958792
O O13 0.154052 0.250000 0.931511
O O14 0.211082 0.003177 0.959099
O O15 0.329323 0.019565 0.767705
O O16 0.000000 0.000000 0.000000
O O17 0.335523 0.750000 0.921659
O O18 0.410126 0.750000 0.668655
#
# Coordination Sequence:
#
# PCOD9164643 Si02
#       7
#     4   4   4   4   4   4   4
#     4   9  19  36  58  84 114 151 192 240 297 352
#     4   9  19  37  59  84 114 150 192 241 296 354
#     4  10  21  36  56  85 116 148 194 244 291 349
#     4  10  21  36  56  83 115 155 195 241 294 352
#     4  12  25  40  59  85 117 156 202 246 295 350
#     4  10  22  39  59  85 118 156 200 245 296 354
#     4  10  21  38  59  82 113 154 195 243 298 347
#
# _framework density 19.383493000000001
#
# number of rings (size 3 to 8) (size 9 to 14) (size 15 to 20)
#    0.000    2.000    0.000    3.000    2.000    6.286 
#    0.000    0.000    0.000    0.000    0.000    0.000 
#    0.000    0.000    0.000    0.000    0.000    0.000 
#
# Total GULP energy -156438.134587 kJ/mol
# GULP energy per Si atom -5587.076235 kJ/mol
# Density = 1.933938 g / cm^3
# Si number density = 19.383493 Si / 1000 Ang^3
#
#
#
# Elastic Constant Matrix: (Units=GPa)
#
#
# Indices 1 2 3 4 5 6 
#
# 1 79.3680 24.7577 63.0868 0.0000 12.3259 0.0000
# 2 24.7577 21.6178 28.3281 0.0000 8.1711 0.0000
# 3 63.0868 28.3281 97.1918 0.0000 10.0959 0.0000
# 4 0.0000 0.0000 0.0000 23.4126 0.0000 -2.2184
# 5 12.3259 8.1711 10.0959 0.0000 31.2813 0.0000
# 6 0.0000 0.0000 0.0000 -2.2184 0.0000 30.9150
#
#
#
# Elastic Compliance Matrix: (Units=1/GPa)
#
#
# Indices 1 2 3 4 5 6 
#
# 1 0.028571 -0.012321 -0.014609 0.000000 -0.003325 0.000000
# 2 -0.012321 0.085590 -0.015656 0.000000 -0.012449 0.000000
# 3 -0.014609 -0.015656 0.024121 0.000000 0.002061 0.000000
# 4 0.000000 0.000000 0.000000 0.043004 0.000000 0.003086
# 5 -0.003325 -0.012449 0.002061 0.000000 0.035865 0.000000
# 6 0.000000 0.000000 0.000000 0.003086 0.000000 0.032568
#
#
# Mechanical properties :
#
#
# Convention : Reuss Voigt Hill
#
# Bulk Modulus (GPa) = 18.82880 47.83586 33.33233
# Shear Modulus (GPa) = 14.18061 22.58878 18.38470
#
# Velocity S-wave (km/s) = 2.70771 3.41744 3.08307
# Velocity P-wave (km/s) = 4.41707 6.34855 5.46876
#
# Compressibility (1/GPa) = 0.05311014
#
# Stress axis : x y z
#
# Youngs Moduli (GPa) = 34.99998 11.68367 41.45808
#
# Poissons Ratio (x) = 0.14395 0.60567
# Poissons Ratio (y) = 0.43123 0.64906
# Poissons Ratio (z) = 0.51132 0.18292
#
# Static dielectric constant tensor:
#      x y z
#    x 1.652430 0.000000 0.016720 
#    y 0.000000 1.644660 0.000000 
#    z 0.016720 0.000000 1.688860 
# 
# From -- ./inp_files/65341.got.cif
#   From: 2010.05.17/outbox.cif.g08.bks.cpg/sg11_33_cif.got.tgz:65341.got - 2010.06.03 12:22:45.
