data_PCOD9164372
_publ_section_title
;
Structure prediction by ZEFSAII (Michael W. Deem and Ramdas Pophale) SiO2 
 PCOD9164372
Probable space group: P 21/M
;
_chemical_formula_sum "Si O2"
_cell_formula_units_Z 26
_cell_length_a 5.115236
_cell_length_b 21.229660
_cell_length_c 9.737336
_cell_angle_alpha 90.000000
_cell_angle_beta 75.049267
_cell_angle_gamma 90.000000
_cell_volume 1021.627415
_symmetry_space_group_name_H-M "P 21/M"
_symmetry_group_IT_number 11
_symmetry_cell_setting 'monoclinic'
loop_
_space_group_symop_operation_xyz
x,y,z
-x,1/2+y,-z
-x,-y,-z
x,1/2-y,z
loop_
_atom_site_type_symbol
_atom_site_label
_atom_site_fract_x
_atom_site_fract_y
_atom_site_fract_z
Si Si1 0.103280 0.370948 0.150447
Si Si2 0.171815 0.750000 0.680809
Si Si3 0.386813 0.954234 0.835937
Si Si4 0.751019 0.437568 0.843760
Si Si5 0.433545 0.858151 0.471321
Si Si6 0.921545 0.564619 0.441531
Si Si7 0.611619 0.824282 0.148942
O O1 0.373472 0.403202 0.171925
O O2 0.026298 0.305788 0.231430
O O3 0.858584 0.420117 0.207199
O O4 0.158157 0.354536 0.981076
O O5 0.371060 0.804139 0.586699
O O6 0.541953 0.019211 0.783306
O O7 0.257614 0.965473 0.004695
O O8 0.646687 0.366129 0.860534
O O9 0.029584 0.442369 0.727450
O O10 0.620531 0.912408 0.509715
O O11 0.601998 0.832370 0.315575
O O12 0.144868 0.884394 0.458877
O O13 0.000000 0.500000 0.500000
O O14 0.591469 0.750000 0.121233
#
# Coordination Sequence:
#
# PCOD9164372 Si02
#       7
#     4   2   4   4   4   4   4
#     4  11  25  42  71  97 134 171 226 270 341 388
#     4  12  28  46  68 104 134 180 218 280 344 396
#     4  10  23  43  68 100 132 172 215 286 325 400
#     4   9  22  41  70  99 133 172 226 267 340 382
#     4  11  26  45  69  95 138 175 222 270 335 392
#     4  11  25  44  69  99 130 178 222 274 324 402
#     4  10  20  46  66  99 131 183 221 276 320 410
#
# _framework density 25.449590000000001
#
# number of rings (size 3 to 8) (size 9 to 14) (size 15 to 20)
#    0.000    1.538    1.538    1.385    4.308   10.462 
#    2.769    1.538    0.000    0.000    0.000    0.000 
#    0.000    0.000    0.000    0.000    0.000    0.000 
#
# Total GULP energy -145054.473167 kJ/mol
# GULP energy per Si atom -5579.018199 kJ/mol
# Density = 2.539167 g / cm^3
# Si number density = 25.449590 Si / 1000 Ang^3
#
#
#
# Elastic Constant Matrix: (Units=GPa)
#
#
# Indices 1 2 3 4 5 6 
#
# 1 111.7794 33.4492 21.9902 0.0000 -20.3816 0.0000
# 2 33.4492 111.5332 6.0408 0.0000 -5.3504 0.0000
# 3 21.9902 6.0408 111.9896 0.0000 -22.1526 0.0000
# 4 0.0000 0.0000 0.0000 47.6261 0.0000 -21.0998
# 5 -20.3816 -5.3504 -22.1526 0.0000 26.5584 0.0000
# 6 0.0000 0.0000 0.0000 -21.0998 0.0000 19.3109
#
#
#
# Elastic Compliance Matrix: (Units=1/GPa)
#
#
# Indices 1 2 3 4 5 6 
#
# 1 0.011348 -0.003007 -0.000555 0.000000 0.007640 0.000000
# 2 -0.003007 0.009852 -0.000006 0.000000 -0.000328 0.000000
# 3 -0.000555 -0.000006 0.010724 0.000000 0.008518 0.000000
# 4 0.000000 0.000000 0.000000 0.040697 0.000000 0.044467
# 5 0.007640 -0.000328 0.008518 0.000000 0.050555 0.000000
# 6 0.000000 0.000000 0.000000 0.044467 0.000000 0.100371
#
#
# Mechanical properties :
#
#
# Convention : Reuss Voigt Hill
#
# Bulk Modulus (GPa) = 40.34010 50.91806 45.62908
# Shear Modulus (GPa) = 20.92531 36.95387 28.93959
#
# Velocity S-wave (km/s) = 2.87056 3.81470 3.37580
# Velocity P-wave (km/s) = 5.18384 6.28120 5.75872
#
# Compressibility (1/GPa) = 0.02478923
#
# Stress axis : x y z
#
# Youngs Moduli (GPa) = 88.11938 101.49918 93.25293
#
# Poissons Ratio (x) = 0.30519 0.05174
# Poissons Ratio (y) = 0.26496 0.00054
# Poissons Ratio (z) = 0.04889 0.00059
#
# Static dielectric constant tensor:
#      x y z
#    x 2.020500 0.000000 0.065760 
#    y 0.000000 1.958190 0.000000 
#    z 0.065760 0.000000 2.078700 
# 
# From -- ./inp_files/29935.got.cif
#   From: 2010.05.17/outbox.cif.g08.bks.cpg/sg11_15_cif.got.tgz:29935.got - 2010.06.03 12:22:45.
