data_PCOD9164448
_publ_section_title
;
Structure prediction by ZEFSAII (Michael W. Deem and Ramdas Pophale) SiO2 
 PCOD9164448
Probable space group: P 21/M
;
_chemical_formula_sum "Si O2"
_cell_formula_units_Z 20
_cell_length_a 8.705958
_cell_length_b 13.524332
_cell_length_c 6.844967
_cell_angle_alpha 90.000000
_cell_angle_beta 73.676355
_cell_angle_gamma 90.000000
_cell_volume 773.453912
_symmetry_space_group_name_H-M "P 21/M"
_symmetry_group_IT_number 11
_symmetry_cell_setting 'monoclinic'
loop_
_space_group_symop_operation_xyz
x,y,z
-x,1/2+y,-z
-x,-y,-z
x,1/2-y,z
loop_
_atom_site_type_symbol
_atom_site_label
_atom_site_fract_x
_atom_site_fract_y
_atom_site_fract_z
Si Si1 0.099624 0.137421 0.455028
Si Si2 0.263444 0.858451 0.472155
Si Si3 0.340184 0.527400 0.791013
Si Si4 0.894224 0.365882 0.869293
Si Si5 0.621285 0.632395 0.923309
O O1 0.152242 0.250000 0.474478
O O2 0.047944 0.097534 0.687446
O O3 0.226917 0.095213 0.260752
O O4 0.926916 0.141390 0.413848
O O5 0.329198 0.750000 0.503204
O O6 0.248067 0.864966 0.244495
O O7 0.342719 0.946248 0.562179
O O8 0.370836 0.419684 0.868418
O O9 0.171734 0.567909 0.936289
O O10 0.472197 0.596004 0.849729
O O11 0.919765 0.250000 0.914324
O O12 0.625555 0.750000 0.942473
#
# Coordination Sequence:
#
# PCOD9164448 Si02
#       5
#     4   4   4   4   4
#     4   7  15  33  53  72 110 142 157 211 273 290
#     4   8  16  32  55  80 104 134 174 213 247 301
#     4  11  20  32  60  79  94 143 186 203 250 320
#     4   8  16  32  55  80 104 134 174 213 247 301
#     4  10  21  35  50  77 112 137 164 221 274 297
#
# _framework density 25.858036999999999
#
# number of rings (size 3 to 8) (size 9 to 14) (size 15 to 20)
#    1.200    2.000    0.000    1.800    0.000    1.600 
#    0.000    4.000    4.400    3.600    0.000    0.000 
#    0.000    0.000    0.000    0.000    0.000    0.000 
#
# Total GULP energy -111697.380172 kJ/mol
# GULP energy per Si atom -5584.869009 kJ/mol
# Density = 2.579918 g / cm^3
# Si number density = 25.858037 Si / 1000 Ang^3
#
#
#
# Elastic Constant Matrix: (Units=GPa)
#
#
# Indices 1 2 3 4 5 6 
#
# 1 35.0574 10.8972 26.5033 0.0000 -9.4059 0.0000
# 2 10.8972 142.3000 25.8372 0.0000 9.9717 0.0000
# 3 26.5033 25.8372 76.6118 0.0000 7.1884 0.0000
# 4 0.0000 0.0000 0.0000 40.5754 0.0000 1.6432
# 5 -9.4059 9.9717 7.1884 0.0000 33.3337 0.0000
# 6 0.0000 0.0000 0.0000 1.6432 0.0000 22.1745
#
#
#
# Elastic Compliance Matrix: (Units=1/GPa)
#
#
# Indices 1 2 3 4 5 6 
#
# 1 0.046751 -0.001669 -0.017244 0.000000 0.017410 0.000000
# 2 -0.001669 0.007644 -0.001778 0.000000 -0.002374 0.000000
# 3 -0.017244 -0.001778 0.020438 0.000000 -0.008741 0.000000
# 4 0.000000 0.000000 0.000000 0.024720 0.000000 -0.001832
# 5 0.017410 -0.002374 -0.008741 0.000000 0.037508 0.000000
# 6 0.000000 0.000000 0.000000 -0.001832 0.000000 0.045233
#
#
# Mechanical properties :
#
#
# Convention : Reuss Voigt Hill
#
# Bulk Modulus (GPa) = 29.89391 42.27160 36.08276
# Shear Modulus (GPa) = 21.29248 31.93215 26.61232
#
# Velocity S-wave (km/s) = 2.87267 3.51793 3.21155
# Velocity P-wave (km/s) = 4.75278 5.73447 5.26655
#
# Compressibility (1/GPa) = 0.03345163
#
# Stress axis : x y z
#
# Youngs Moduli (GPa) = 21.39007 130.81442 48.92876
#
# Poissons Ratio (x) = 0.21836 0.84371
# Poissons Ratio (y) = 0.03570 0.08699
# Poissons Ratio (z) = 0.36884 0.23257
#
# Static dielectric constant tensor:
#      x y z
#    x 2.022790 0.000000 -0.040060 
#    y 0.000000 2.019800 0.000000 
#    z -0.040060 0.000000 2.053220 
# 
# From -- ./inp_files/12227.got.cif
#   From: 2010.05.17/outbox.cif.g08.bks.cpg/sg11_7_cif.got.tgz:12227.got - 2010.06.03 12:22:45.
