data_PCOD9164283
_publ_section_title
;
Structure prediction by ZEFSAII (Michael W. Deem and Ramdas Pophale) SiO2 
 PCOD9164283
Probable space group: P 21/M
;
_chemical_formula_sum "Si O2"
_cell_formula_units_Z 24
_cell_length_a 10.996896
_cell_length_b 14.343892
_cell_length_c 14.267931
_cell_angle_alpha 90.000000
_cell_angle_beta 30.099825
_cell_angle_gamma 90.000000
_cell_volume 1128.693625
_symmetry_space_group_name_H-M "P 21/M"
_symmetry_group_IT_number 11
_symmetry_cell_setting 'monoclinic'
loop_
_space_group_symop_operation_xyz
x,y,z
-x,1/2+y,-z
-x,-y,-z
x,1/2-y,z
loop_
_atom_site_type_symbol
_atom_site_label
_atom_site_fract_x
_atom_site_fract_y
_atom_site_fract_z
Si Si1 0.813746 0.486170 0.745782
Si Si2 0.528768 0.358925 0.079032
Si Si3 0.458671 0.648451 0.212154
Si Si4 0.002853 0.410995 0.128514
Si Si5 0.689009 0.044756 0.517585
Si Si6 0.729494 0.084284 0.140561
O O1 0.713686 0.429916 0.903017
O O2 0.691771 0.427516 0.744512
O O3 0.901682 0.508819 0.431904
O O4 0.719831 0.591682 0.789595
O O5 0.543992 0.250000 0.042127
O O6 0.585685 0.366049 0.152118
O O7 0.380864 0.750000 0.233823
O O8 0.401220 0.630439 0.359044
O O9 0.746142 0.635469 0.005726
O O10 0.811885 0.423299 0.339440
O O11 0.886255 0.363082 0.114387
O O12 0.092392 0.512199 0.031679
O O13 0.461152 0.975584 0.670441
#
# Coordination Sequence:
#
# PCOD9164283 Si02
#       6
#     4   4   4   4   4   4
#     4  11  21  42  60  92 136 166 205 268 315 377
#     4  11  22  39  65  93 125 172 216 257 319 381
#     4  11  24  40  63  94 125 170 215 256 315 378
#     4  10  20  40  67  87 125 166 207 263 320 375
#     4  11  21  39  65  93 124 164 210 262 318 380
#     4  10  21  39  64  93 121 164 209 260 321 379
#
# _framework density 21.263518000000001
#
# number of rings (size 3 to 8) (size 9 to 14) (size 15 to 20)
#    0.000    1.333    5.000    2.500    0.000    2.000 
#    0.000    0.833    0.000    0.000    0.000    0.000 
#    0.000    0.000    0.000    0.000    0.000    0.000 
#
# Total GULP energy -133851.733344 kJ/mol
# GULP energy per Si atom -5577.155556 kJ/mol
# Density = 2.121512 g / cm^3
# Si number density = 21.263518 Si / 1000 Ang^3
#
#
#
# Elastic Constant Matrix: (Units=GPa)
#
#
# Indices 1 2 3 4 5 6 
#
# 1 110.3686 29.1913 26.8142 0.0000 6.1509 0.0000
# 2 29.1913 95.9365 6.8194 0.0000 8.5181 0.0000
# 3 26.8142 6.8194 101.9751 0.0000 23.5131 0.0000
# 4 0.0000 0.0000 0.0000 0.2308 0.0000 0.8321
# 5 6.1509 8.5181 23.5131 0.0000 29.7135 0.0000
# 6 0.0000 0.0000 0.0000 0.8321 0.0000 -2.6076
#
#
#
# Elastic Compliance Matrix: (Units=1/GPa)
#
#
# Indices 1 2 3 4 5 6 
#
# 1 0.010495 -0.003077 -0.002760 0.000000 0.000893 0.000000
# 2 -0.003077 0.011598 0.000799 0.000000 -0.003320 0.000000
# 3 -0.002760 0.000799 0.012721 0.000000 -0.009724 0.000000
# 4 0.000000 0.000000 0.000000 2.015017 0.000000 0.642982
# 5 0.000893 -0.003320 -0.009724 0.000000 0.042116 0.000000
# 6 0.000000 0.000000 0.000000 0.642982 0.000000 -0.178329
#
#
# Mechanical properties :
#
#
# Convention : Reuss Voigt Hill
#
# Bulk Modulus (GPa) = 40.42301 48.21444 44.31872
# Shear Modulus (GPa) = 2.58807 21.83103 12.20955
#
# Velocity S-wave (km/s) = 1.10444 3.20768 2.39885
# Velocity P-wave (km/s) = 4.54732 6.03679 5.34420
#
# Compressibility (1/GPa) = 0.02473839
#
# Stress axis : x y z
#
# Youngs Moduli (GPa) = 95.28361 86.22414 78.61193
#
# Poissons Ratio (x) = 0.26527 0.21696
# Poissons Ratio (y) = 0.29314 -0.06281
# Poissons Ratio (z) = 0.26297 -0.06889
#
# Static dielectric constant tensor:
#      x y z
#    x 1.834970 0.000000 0.032210 
#    y 0.000000 1.806050 0.000000 
#    z 0.032210 0.000000 1.791140 
# 
# From -- ./inp_files/50330.got.cif
#   From: 2010.05.17/outbox.cif.g08.bks.cpg/sg11_26_cif.got.tgz:50330.got - 2010.06.03 12:22:45.
