data_PCOD9164148
_publ_section_title
;
Structure prediction by ZEFSAII (Michael W. Deem and Ramdas Pophale) SiO2 
 PCOD9164148
Probable space group: P 21/M
;
_chemical_formula_sum "Si O2"
_cell_formula_units_Z 26
_cell_length_a 18.942575
_cell_length_b 10.592694
_cell_length_c 8.355347
_cell_angle_alpha 90.000000
_cell_angle_beta 140.056655
_cell_angle_gamma 90.000000
_cell_volume 1076.378791
_symmetry_space_group_name_H-M "P 21/M"
_symmetry_group_IT_number 11
_symmetry_cell_setting 'monoclinic'
loop_
_space_group_symop_operation_xyz
x,y,z
-x,1/2+y,-z
-x,-y,-z
x,1/2-y,z
loop_
_atom_site_type_symbol
_atom_site_label
_atom_site_fract_x
_atom_site_fract_y
_atom_site_fract_z
Si Si1 0.277029 0.598079 0.513506
Si Si2 0.098630 0.101552 0.331802
Si Si3 0.571187 0.477882 0.937431
Si Si4 0.799856 0.975534 0.166343
Si Si5 0.583949 0.750000 0.932538
Si Si6 0.740547 0.750000 0.884718
Si Si7 0.407032 0.250000 0.674621
Si Si8 0.137907 0.895315 0.997245
O O1 0.271529 0.750000 0.541758
O O2 0.177103 0.505373 0.392560
O O3 0.375203 0.543359 0.793628
O O4 0.257386 0.583117 0.288983
O O5 0.106658 0.250000 0.289315
O O6 0.144532 0.097622 0.593168
O O7 0.974587 0.048486 0.127258
O O8 0.679294 0.478217 0.011945
O O9 0.523036 0.617374 0.821520
O O10 0.483998 0.368845 0.766488
O O11 0.861073 0.090863 0.192101
O O12 0.802925 0.879510 0.021702
O O13 0.661374 0.750000 0.908995
O O14 0.627651 0.750000 0.196035
O O15 0.688573 0.750000 0.620507
O O16 0.118750 0.750000 0.003067
#
# Coordination Sequence:
#
# PCOD9164148 Si02
#       8
#     4   4   4   4   2   2   2   4
#     4  10  21  39  60  89 128 163 212 260 310 380
#     4  10  20  39  63  88 127 167 209 258 318 368
#     4  10  23  42  63  91 122 164 203 258 324 375
#     4  10  21  40  60  87 128 163 201 263 310 382
#     4  10  24  44  66  90 128 160 202 268 324 378
#     4  10  24  44  62  94 128 160 217 253 324 388
#     4  12  24  44  70  94 120 162 215 261 324 388
#     4  10  22  37  59  95 124 166 211 257 313 376
#
# _framework density 24.155063999999999
#
# number of rings (size 3 to 8) (size 9 to 14) (size 15 to 20)
#    0.000    1.846    1.538    1.385    6.462    3.077 
#    5.538    0.000    0.000    0.000    0.000    0.000 
#    0.000    0.000    0.000    0.000    0.000    0.000 
#
# Total GULP energy -144754.077484 kJ/mol
# GULP energy per Si atom -5567.464519 kJ/mol
# Density = 2.410009 g / cm^3
# Si number density = 24.155064 Si / 1000 Ang^3
#
#
#
# Elastic Constant Matrix: (Units=GPa)
#
#
# Indices 1 2 3 4 5 6 
#
# 1 45.4659 -2.9458 -10.5464 0.0000 1.5300 0.0000
# 2 -2.9458 117.8006 13.7190 0.0000 1.6684 0.0000
# 3 -10.5464 13.7190 59.1099 0.0000 -2.8244 0.0000
# 4 0.0000 0.0000 0.0000 18.7395 0.0000 2.7558
# 5 1.5300 1.6684 -2.8244 0.0000 25.9016 0.0000
# 6 0.0000 0.0000 0.0000 2.7558 0.0000 21.6929
#
#
#
# Elastic Compliance Matrix: (Units=1/GPa)
#
#
# Indices 1 2 3 4 5 6 
#
# 1 0.022967 0.000119 0.004026 0.000000 -0.000925 0.000000
# 2 0.000119 0.008741 -0.002046 0.000000 -0.000793 0.000000
# 3 0.004026 -0.002046 0.018201 0.000000 0.001879 0.000000
# 4 0.000000 0.000000 0.000000 0.054379 0.000000 -0.006908
# 5 -0.000925 -0.000793 0.001879 0.000000 0.038918 0.000000
# 6 0.000000 0.000000 0.000000 -0.006908 0.000000 0.046976
#
#
# Mechanical properties :
#
#
# Convention : Reuss Voigt Hill
#
# Bulk Modulus (GPa) = 18.48181 24.75890 21.62035
# Shear Modulus (GPa) = 24.50746 28.07678 26.29212
#
# Velocity S-wave (km/s) = 3.18872 3.41303 3.30278
# Velocity P-wave (km/s) = 4.60708 5.07976 4.84918
#
# Compressibility (1/GPa) = 0.05410726
#
# Stress axis : x y z
#
# Youngs Moduli (GPa) = 43.54030 114.39892 54.94354
#
# Poissons Ratio (x) = -0.01356 -0.22121
# Poissons Ratio (y) = -0.00516 0.11239
# Poissons Ratio (z) = -0.17530 0.23401
#
# Static dielectric constant tensor:
#      x y z
#    x 1.960350 0.000000 0.022470 
#    y 0.000000 2.335990 0.000000 
#    z 0.022470 0.000000 1.980790 
# 
# From -- ./inp_files/26669.got.cif
#   From: 2010.05.17/outbox.cif.g08.bks.cpg/sg11_14_cif.got.tgz:26669.got - 2010.06.03 12:22:45.
