data_PCOD9164811
_publ_section_title
;
Structure prediction by ZEFSAII (Michael W. Deem and Ramdas Pophale) SiO2 
 PCOD9164811
Probable space group: P 21/M
;
_chemical_formula_sum "Si O2"
_cell_formula_units_Z 32
_cell_length_a 25.890461
_cell_length_b 9.598409
_cell_length_c 5.637106
_cell_angle_alpha 90.000000
_cell_angle_beta 94.481704
_cell_angle_gamma 90.000000
_cell_volume 1396.578256
_symmetry_space_group_name_H-M "P 21/M"
_symmetry_group_IT_number 11
_symmetry_cell_setting 'monoclinic'
loop_
_space_group_symop_operation_xyz
x,y,z
-x,1/2+y,-z
-x,-y,-z
x,1/2-y,z
loop_
_atom_site_type_symbol
_atom_site_label
_atom_site_fract_x
_atom_site_fract_y
_atom_site_fract_z
Si Si1 0.538834 0.408613 0.854500
Si Si2 0.157979 0.911238 0.827790
Si Si3 0.297173 0.094001 0.128255
Si Si4 0.647206 0.406152 0.176179
Si Si5 0.219141 0.588135 0.350170
Si Si6 0.026665 0.594912 0.205016
Si Si7 0.599018 0.905201 0.555762
Si Si8 0.078963 0.095181 0.557521
O O1 0.520553 0.250000 0.810253
O O2 0.595400 0.394306 0.997229
O O3 0.500000 0.500000 0.000000
O O4 0.552658 0.498577 0.628377
O O5 0.140129 0.750000 0.809551
O O6 0.185246 0.929318 0.093995
O O7 0.112192 0.021902 0.773661
O O8 0.191846 0.931591 0.596622
O O9 0.278926 0.250000 0.053405
O O10 0.303075 0.973542 0.933662
O O11 0.263560 0.026658 0.325438
O O12 0.356777 0.109234 0.228978
O O13 0.658741 0.250000 0.267766
O O14 0.628705 0.514367 0.363199
O O15 0.237307 0.750000 0.350325
O O16 0.958986 0.250000 0.872359
O O17 0.980055 0.611753 0.376882
O O18 0.074262 0.513486 0.340261
O O19 0.000000 0.500000 0.000000
O O20 0.582719 0.750000 0.482677
O O21 0.098574 0.250000 0.503391
#
# Coordination Sequence:
#
# PCOD9164811 Si02
#       8
#     4   4   4   4   4   4   4   4
#     4  10  21  37  56  81 113 151 193 239 294 356
#     4  10  23  42  63  91 126 167 210 256 313 374
#     4  10  22  39  60  87 118 151 194 247 301 357
#     4  10  21  37  59  85 113 150 194 241 295 357
#     4  10  23  42  63  91 124 165 211 255 312 377
#     4  10  21  37  60  89 121 160 206 258 312 372
#     4  10  21  37  58  85 115 150 192 243 299 358
#     4  10  22  39  59  88 122 160 207 257 312 372
#
# _framework density 22.913145
#
# number of rings (size 3 to 8) (size 9 to 14) (size 15 to 20)
#    0.000    2.000    0.000    2.250    3.500    6.000 
#    0.000    0.000    0.000    0.000    0.000    0.000 
#    0.000    0.000    0.000    0.000    0.000    0.000 
#
# Total GULP energy -178551.416369 kJ/mol
# GULP energy per Si atom -5579.731762 kJ/mol
# Density = 2.286099 g / cm^3
# Si number density = 22.913145 Si / 1000 Ang^3
#
#
#
# Elastic Constant Matrix: (Units=GPa)
#
#
# Indices 1 2 3 4 5 6 
#
# 1 73.4176 38.9546 20.0249 0.0000 -2.8590 0.0000
# 2 38.9546 182.7563 30.5552 0.0000 -2.5634 0.0000
# 3 20.0249 30.5552 70.6553 0.0000 -2.5572 0.0000
# 4 0.0000 0.0000 0.0000 20.2055 0.0000 -3.1567
# 5 -2.8590 -2.5634 -2.5572 0.0000 53.4197 0.0000
# 6 0.0000 0.0000 0.0000 -3.1567 0.0000 27.9247
#
#
#
# Elastic Compliance Matrix: (Units=1/GPa)
#
#
# Indices 1 2 3 4 5 6 
#
# 1 0.016061 -0.002865 -0.003293 0.000000 0.000564 0.000000
# 2 -0.002865 0.006411 -0.001958 0.000000 0.000061 0.000000
# 3 -0.003293 -0.001958 0.015951 0.000000 0.000493 0.000000
# 4 0.000000 0.000000 0.000000 0.050381 0.000000 0.005695
# 5 0.000564 0.000061 0.000493 0.000000 0.018776 0.000000
# 6 0.000000 0.000000 0.000000 0.005695 0.000000 0.036454
#
#
# Mechanical properties :
#
#
# Convention : Reuss Voigt Hill
#
# Bulk Modulus (GPa) = 45.06272 56.21095 50.63683
# Shear Modulus (GPa) = 29.82172 36.12963 32.97568
#
# Velocity S-wave (km/s) = 3.61156 3.97521 3.79774
# Velocity P-wave (km/s) = 6.09103 6.75686 6.43257
#
# Compressibility (1/GPa) = 0.02219129
#
# Stress axis : x y z
#
# Youngs Moduli (GPa) = 62.26317 155.98981 62.69188
#
# Poissons Ratio (x) = 0.44691 0.20641
# Poissons Ratio (y) = 0.17838 0.12276
# Poissons Ratio (z) = 0.20500 0.30545
#
# Static dielectric constant tensor:
#      x y z
#    x 1.892600 0.000000 0.019080 
#    y 0.000000 1.883130 0.000000 
#    z 0.019080 0.000000 1.931780 
# 
# From -- ./inp_files/9686.got.cif
#   From: 2010.05.17/outbox.cif.g08.bks.cpg/sg11_5_cif.got.tgz:9686.got - 2010.06.03 12:22:45.
