data_PCOD9164491
_publ_section_title
;
Structure prediction by ZEFSAII (Michael W. Deem and Ramdas Pophale) SiO2 
 PCOD9164491
Probable space group: P 21/M
;
_chemical_formula_sum "Si O2"
_cell_formula_units_Z 28
_cell_length_a 19.188020
_cell_length_b 14.980745
_cell_length_c 5.491611
_cell_angle_alpha 90.000000
_cell_angle_beta 121.720045
_cell_angle_gamma 90.000000
_cell_volume 1342.773051
_symmetry_space_group_name_H-M "P 21/M"
_symmetry_group_IT_number 11
_symmetry_cell_setting 'monoclinic'
loop_
_space_group_symop_operation_xyz
x,y,z
-x,1/2+y,-z
-x,-y,-z
x,1/2-y,z
loop_
_atom_site_type_symbol
_atom_site_label
_atom_site_fract_x
_atom_site_fract_y
_atom_site_fract_z
Si Si1 0.415830 0.940633 0.330418
Si Si2 0.715975 0.584174 0.915245
Si Si3 0.932356 0.528846 0.677953
Si Si4 0.971929 0.352008 0.529416
Si Si5 0.639938 0.647123 0.264041
Si Si6 0.858602 0.851689 0.898087
Si Si7 0.542961 0.355850 0.098772
O O1 0.409560 0.896618 0.585113
O O2 0.500000 0.000000 0.500000
O O3 0.330927 0.992175 0.125246
O O4 0.427893 0.877226 0.119799
O O5 0.679487 0.610641 0.582695
O O6 0.810957 0.601645 0.033478
O O7 0.689295 0.639461 0.103385
O O8 0.913726 0.434301 0.508792
O O9 0.857897 0.579132 0.673734
O O10 0.980258 0.602821 0.607705
O O11 0.000000 0.500000 0.000000
O O12 0.940777 0.250000 0.429600
O O13 0.046201 0.342628 0.858257
O O14 0.626299 0.750000 0.293138
O O15 0.550148 0.606535 0.056808
O O16 0.827543 0.750000 0.797153
O O17 0.542029 0.250000 0.134212
#
# Coordination Sequence:
#
# PCOD9164491 Si02
#       7
#     4   4   4   4   4   4   4
#     4  12  21  38  56  83 113 148 196 248 298 350
#     4  12  24  35  55  82 119 158 188 234 295 358
#     4   9  18  34  56  84 116 150 189 229 277 333
#     4   9  18  34  58  86 117 150 190 234 279 335
#     4  11  21  35  52  81 115 149 190 236 290 355
#     4  10  21  35  53  85 121 155 183 225 288 355
#     4  11  22  38  60  80 106 146 199 255 300 348
#
# _framework density 20.852367999999998
#
# number of rings (size 3 to 8) (size 9 to 14) (size 15 to 20)
#    0.000    1.429    2.857    3.429    2.000    2.857 
#    0.000    0.000    0.000    1.714    0.000    0.000 
#    0.000    0.000    0.000    0.000    0.000    0.000 
#
# Total GULP energy -155971.723736 kJ/mol
# GULP energy per Si atom -5570.418705 kJ/mol
# Density = 2.080491 g / cm^3
# Si number density = 20.852368 Si / 1000 Ang^3
#
#
#
# Elastic Constant Matrix: (Units=GPa)
#
#
# Indices 1 2 3 4 5 6 
#
# 1 77.5647 26.8441 -4.8462 0.0000 -14.2951 0.0000
# 2 26.8441 106.3322 10.9269 0.0000 -7.8833 0.0000
# 3 -4.8462 10.9269 49.7796 0.0000 -13.5291 0.0000
# 4 0.0000 0.0000 0.0000 12.2908 0.0000 -8.4213
# 5 -14.2951 -7.8833 -13.5291 0.0000 30.7457 0.0000
# 6 0.0000 0.0000 0.0000 -8.4213 0.0000 26.8074
#
#
#
# Elastic Compliance Matrix: (Units=1/GPa)
#
#
# Indices 1 2 3 4 5 6 
#
# 1 0.016132 -0.003926 0.004767 0.000000 0.008592 0.000000
# 2 -0.003926 0.010660 -0.002812 0.000000 -0.000329 0.000000
# 3 0.004767 -0.002812 0.024507 0.000000 0.012280 0.000000
# 4 0.000000 0.000000 0.000000 0.103677 0.000000 0.032569
# 5 0.008592 -0.000329 0.012280 0.000000 0.041839 0.000000
# 6 0.000000 0.000000 0.000000 0.032569 0.000000 0.047534
#
#
# Mechanical properties :
#
#
# Convention : Reuss Voigt Hill
#
# Bulk Modulus (GPa) = 21.11480 33.28066 27.19773
# Shear Modulus (GPa) = 18.93395 27.35223 23.14309
#
# Velocity S-wave (km/s) = 3.01657 3.62568 3.33506
# Velocity P-wave (km/s) = 4.72025 5.78984 5.28219
#
# Compressibility (1/GPa) = 0.04736015
#
# Stress axis : x y z
#
# Youngs Moduli (GPa) = 61.98694 93.80819 40.80428
#
# Poissons Ratio (x) = 0.36826 -0.19453
# Poissons Ratio (y) = 0.24334 0.11472
# Poissons Ratio (z) = -0.29552 0.26375
#
# Static dielectric constant tensor:
#      x y z
#    x 1.769630 0.000000 0.033950 
#    y 0.000000 1.808310 0.000000 
#    z 0.033950 0.000000 1.832090 
# 
# From -- ./inp_files/8126.got.cif
#   From: 2010.05.17/outbox.cif.g08.bks.cpg/sg11_5_cif.got.tgz:8126.got - 2010.06.03 12:22:45.
