data_PCOD9164943
_publ_section_title
;
Structure prediction by ZEFSAII (Michael W. Deem and Ramdas Pophale) SiO2 
 PCOD9164943
Probable space group: P 21/M
;
_chemical_formula_sum "Si O2"
_cell_formula_units_Z 28
_cell_length_a 22.366911
_cell_length_b 13.518724
_cell_length_c 5.041316
_cell_angle_alpha 90.000000
_cell_angle_beta 73.166380
_cell_angle_gamma 90.000000
_cell_volume 1459.034346
_symmetry_space_group_name_H-M "P 21/M"
_symmetry_group_IT_number 11
_symmetry_cell_setting 'monoclinic'
loop_
_space_group_symop_operation_xyz
x,y,z
-x,1/2+y,-z
-x,-y,-z
x,1/2-y,z
loop_
_atom_site_type_symbol
_atom_site_label
_atom_site_fract_x
_atom_site_fract_y
_atom_site_fract_z
Si Si1 0.868903 0.539432 0.232355
Si Si2 0.374060 0.868219 0.593119
Si Si3 0.673033 0.867420 0.810165
Si Si4 0.728122 0.967703 0.228398
Si Si5 0.931049 0.750000 0.144056
Si Si6 0.430357 0.528465 0.009126
Si Si7 0.979085 0.250000 0.470310
Si Si8 0.068640 0.958337 0.348486
O O1 0.798487 0.520343 0.234879
O O2 0.889063 0.652948 0.168448
O O3 0.882919 0.510890 0.516892
O O4 0.913520 0.477633 0.977504
O O5 0.367580 0.750000 0.617822
O O6 0.422752 0.911444 0.746250
O O7 0.309879 0.928813 0.731542
O O8 0.398422 0.903642 0.275707
O O9 0.667514 0.750000 0.843013
O O10 0.693210 0.898892 0.489320
O O11 0.722734 0.912962 0.953649
O O12 0.609829 0.927415 0.957500
O O13 0.965603 0.750000 0.382475
O O14 0.985893 0.750000 0.855278
O O15 0.500000 0.500000 0.000000
O O16 0.936626 0.344643 0.571484
O O17 0.000000 0.000000 0.500000
#
# Coordination Sequence:
#
# PCOD9164943 Si02
#       8
#     4   4   4   4   2   4   2   4
#     4  12  24  40  63  87 117 152 194 245 289 353
#     4  10  21  40  63  85 121 166 200 241 293 342
#     4  10  21  37  59  86 122 157 188 239 297 340
#     4  10  23  41  58  87 118 153 199 243 286 345
#     4  12  22  36  62  92 110 152 194 228 296 366
#     4  10  21  38  60  92 124 154 201 246 286 345
#     4  12  24  40  62  84 118 152 188 232 304 364
#     4  12  23  43  60  86 119 151 189 243 301 349
#
# _framework density 19.190776
#
# number of rings (size 3 to 8) (size 9 to 14) (size 15 to 20)
#    0.000    1.143    2.857    3.429    2.000    1.143 
#    2.571    0.000    0.000    0.000    0.000    0.000 
#    0.000    0.000    0.000    0.000    0.000    0.000 
#
# Total GULP energy -156510.800908 kJ/mol
# GULP energy per Si atom -5589.671461 kJ/mol
# Density = 1.914710 g / cm^3
# Si number density = 19.190776 Si / 1000 Ang^3
#
#
#
# Elastic Constant Matrix: (Units=GPa)
#
#
# Indices 1 2 3 4 5 6 
#
# 1 96.2434 20.2792 -19.0596 0.0000 5.6735 0.0000
# 2 20.2792 152.5085 1.2135 0.0000 -3.7206 0.0000
# 3 -19.0596 1.2135 35.3444 0.0000 16.6838 0.0000
# 4 0.0000 0.0000 0.0000 20.8518 0.0000 7.7527
# 5 5.6735 -3.7206 16.6838 0.0000 28.8970 0.0000
# 6 0.0000 0.0000 0.0000 7.7527 0.0000 16.2027
#
#
#
# Elastic Compliance Matrix: (Units=1/GPa)
#
#
# Indices 1 2 3 4 5 6 
#
# 1 0.013899 -0.002194 0.012360 0.000000 -0.010147 0.000000
# 2 -0.002194 0.006943 -0.002814 0.000000 0.002949 0.000000
# 3 0.012360 -0.002814 0.049997 0.000000 -0.031655 0.000000
# 4 0.000000 0.000000 0.000000 0.058335 0.000000 -0.027912
# 5 -0.010147 0.002949 -0.031655 0.000000 0.055254 0.000000
# 6 0.000000 0.000000 0.000000 -0.027912 0.000000 0.075074
#
#
# Mechanical properties :
#
#
# Convention : Reuss Voigt Hill
#
# Bulk Modulus (GPa) = 11.68994 32.10694 21.89844
# Shear Modulus (GPa) = 18.29418 31.96784 25.13101
#
# Velocity S-wave (km/s) = 3.09087 4.08584 3.62268
# Velocity P-wave (km/s) = 4.34081 6.24704 5.37904
#
# Compressibility (1/GPa) = 0.08554362
#
# Stress axis : x y z
#
# Youngs Moduli (GPa) = 71.95010 144.02820 20.00116
#
# Poissons Ratio (x) = 0.31600 -0.24722
# Poissons Ratio (y) = 0.15786 0.05628
# Poissons Ratio (z) = -0.88931 0.40524
#
# Static dielectric constant tensor:
#      x y z
#    x 1.654700 0.000000 0.011680 
#    y 0.000000 1.609130 0.000000 
#    z 0.011680 0.000000 1.673090 
# 
# From -- ./inp_files/8797.got.cif
#   From: 2010.05.17/outbox.cif.g08.bks.cpg/sg11_5_cif.got.tgz:8797.got - 2010.06.03 12:22:45.
