data_PCOD9164052
_publ_section_title
;
Structure prediction by ZEFSAII (Michael W. Deem and Ramdas Pophale) SiO2 
 PCOD9164052
Probable space group: P 21/M
;
_chemical_formula_sum "Si O2"
_cell_formula_units_Z 26
_cell_length_a 6.120982
_cell_length_b 24.639002
_cell_length_c 7.926186
_cell_angle_alpha 90.000000
_cell_angle_beta 80.459637
_cell_angle_gamma 90.000000
_cell_volume 1178.853559
_symmetry_space_group_name_H-M "P 21/M"
_symmetry_group_IT_number 11
_symmetry_cell_setting 'monoclinic'
loop_
_space_group_symop_operation_xyz
x,y,z
-x,1/2+y,-z
-x,-y,-z
x,1/2-y,z
loop_
_atom_site_type_symbol
_atom_site_label
_atom_site_fract_x
_atom_site_fract_y
_atom_site_fract_z
Si Si1 0.410171 0.526144 0.774469
Si Si2 0.362816 0.750000 0.763838
Si Si3 0.797679 0.459134 0.539777
Si Si4 0.306614 0.858668 0.242885
Si Si5 0.544095 0.250000 0.614431
Si Si6 0.695264 0.922057 0.021781
Si Si7 0.941972 0.158697 0.076623
Si Si8 0.704068 0.750000 0.020814
O O1 0.606812 0.492184 0.661380
O O2 0.283774 0.554365 0.638081
O O3 0.271600 0.480145 0.891087
O O4 0.523526 0.566478 0.891604
O O5 0.508550 0.750000 0.576286
O O6 0.494312 0.750000 0.923701
O O7 0.219649 0.693975 0.782494
O O8 0.830357 0.404815 0.641849
O O9 0.000000 0.500000 0.500000
O O10 0.326812 0.804703 0.351047
O O11 0.551742 0.883359 0.166606
O O12 0.186218 0.845331 0.083862
O O13 0.347218 0.250000 0.774889
O O14 0.926275 0.898225 0.923676
O O15 0.151149 0.198309 0.038613
#
# Coordination Sequence:
#
# PCOD9164052 Si02
#       8
#     4   2   4   4   2   4   4   2
#     4   9  21  38  59  92 128 163 216 261 319 390
#     4  11  25  41  66  96 126 163 217 277 320 388
#     4  10  21  39  61  93 130 167 215 274 321 384
#     4  11  23  40  66  89 131 171 211 274 327 383
#     4  12  23  46  65  95 130 168 213 273 338 379
#     4  10  20  38  65  89 122 177 209 261 329 379
#     4  11  21  41  66  90 124 170 216 259 327 393
#     4  11  22  47  65  87 134 169 206 278 320 395
#
# _framework density 22.055326999999998
#
# number of rings (size 3 to 8) (size 9 to 14) (size 15 to 20)
#    0.000    1.538    3.077    1.385    0.000    4.923 
#    5.538    4.615    0.000    0.000    0.000    0.000 
#    0.000    0.000    0.000    0.000    0.000    0.000 
#
# Total GULP energy -145166.661298 kJ/mol
# GULP energy per Si atom -5583.333127 kJ/mol
# Density = 2.200513 g / cm^3
# Si number density = 22.055327 Si / 1000 Ang^3
#
#
#
# Elastic Constant Matrix: (Units=GPa)
#
#
# Indices 1 2 3 4 5 6 
#
# 1 36.5450 11.1482 7.7035 0.0000 -11.1898 0.0000
# 2 11.1482 72.9045 25.4963 0.0000 -0.1015 0.0000
# 3 7.7035 25.4963 101.1577 0.0000 -3.0795 0.0000
# 4 0.0000 0.0000 0.0000 24.7297 0.0000 5.4002
# 5 -11.1898 -0.1015 -3.0795 0.0000 24.0185 0.0000
# 6 0.0000 0.0000 0.0000 5.4002 0.0000 23.9965
#
#
#
# Elastic Compliance Matrix: (Units=1/GPa)
#
#
# Indices 1 2 3 4 5 6 
#
# 1 0.033807 -0.004840 -0.000879 0.000000 0.015617 0.000000
# 2 -0.004840 0.015740 -0.003680 0.000000 -0.002660 0.000000
# 3 -0.000879 -0.003680 0.010910 0.000000 0.000974 0.000000
# 4 0.000000 0.000000 0.000000 0.042527 0.000000 -0.009570
# 5 0.015617 -0.002660 0.000974 0.000000 0.049024 0.000000
# 6 0.000000 0.000000 0.000000 -0.009570 0.000000 0.043826
#
#
# Mechanical properties :
#
#
# Convention : Reuss Voigt Hill
#
# Bulk Modulus (GPa) = 24.00469 33.25591 28.63030
# Shear Modulus (GPa) = 21.88009 25.63290 23.75650
#
# Velocity S-wave (km/s) = 3.15311 3.41282 3.28553
# Velocity P-wave (km/s) = 4.91565 5.53542 5.23472
#
# Compressibility (1/GPa) = 0.04165853
#
# Stress axis : x y z
#
# Youngs Moduli (GPa) = 29.57948 63.53300 91.66284
#
# Poissons Ratio (x) = 0.30753 0.08058
# Poissons Ratio (y) = 0.14318 0.33728
# Poissons Ratio (z) = 0.02600 0.23377
#
# Static dielectric constant tensor:
#      x y z
#    x 1.803400 0.000000 -0.033420 
#    y 0.000000 1.918050 0.000000 
#    z -0.033420 0.000000 1.802970 
# 
# From -- ./inp_files/10589.got.cif
#   From: 2010.05.17/outbox.cif.g08.bks.cpg/sg11_6_cif.got.tgz:10589.got - 2010.06.03 12:22:45.
