data_PCOD9164957
_publ_section_title
;
Structure prediction by ZEFSAII (Michael W. Deem and Ramdas Pophale) SiO2 
 PCOD9164957
Probable space group: P 21/M
;
_chemical_formula_sum "Si O2"
_cell_formula_units_Z 32
_cell_length_a 14.849726
_cell_length_b 12.910763
_cell_length_c 11.554730
_cell_angle_alpha 90.000000
_cell_angle_beta 137.059850
_cell_angle_gamma 90.000000
_cell_volume 1509.129421
_symmetry_space_group_name_H-M "P 21/M"
_symmetry_group_IT_number 11
_symmetry_cell_setting 'monoclinic'
loop_
_space_group_symop_operation_xyz
x,y,z
-x,1/2+y,-z
-x,-y,-z
x,1/2-y,z
loop_
_atom_site_type_symbol
_atom_site_label
_atom_site_fract_x
_atom_site_fract_y
_atom_site_fract_z
Si Si1 0.812122 0.634226 0.401142
Si Si2 0.756468 0.569901 0.097547
Si Si3 0.607103 0.866753 0.534316
Si Si4 0.005763 0.085177 0.837670
Si Si5 0.488605 0.067801 0.305095
Si Si6 0.760724 0.413890 0.454427
Si Si7 0.871071 0.363734 0.308021
Si Si8 0.076280 0.365705 0.164615
O O1 0.789049 0.750000 0.425756
O O2 0.746910 0.624579 0.212999
O O3 0.763922 0.538579 0.432877
O O4 0.970606 0.619154 0.534460
O O5 0.801840 0.453823 0.171971
O O6 0.876026 0.616531 0.135192
O O7 0.627697 0.568856 0.897765
O O8 0.582388 0.750000 0.470244
O O9 0.558135 0.877347 0.621020
O O10 0.765702 0.884691 0.684663
O O11 0.531753 0.952969 0.388691
O O12 0.867853 0.115430 0.651263
O O13 0.997005 0.959492 0.840516
O O14 0.030225 0.127464 0.988226
O O15 0.617471 0.115220 0.365458
O O16 0.809312 0.368759 0.378384
O O17 0.849318 0.250000 0.238004
O O18 0.049960 0.250000 0.184939
#
# Coordination Sequence:
#
# PCOD9164957 Si02
#       8
#     4   4   4   4   4   4   4   4
#     4  10  21  37  61  90 113 147 196 240 284 345
#     4  11  21  39  59  85 118 153 189 234 292 343
#     4  10  22  41  60  83 118 157 197 238 288 352
#     4  11  20  37  62  88 116 151 190 249 290 334
#     4  11  24  39  60  86 118 157 192 237 292 348
#     4  11  21  39  59  85 118 153 189 234 292 343
#     4  10  21  37  59  88 119 147 190 244 288 336
#     4  10  22  37  60  91 116 149 201 246 282 342
#
# _framework density 21.204279
#
# number of rings (size 3 to 8) (size 9 to 14) (size 15 to 20)
#    0.000    1.500    5.000    0.750    0.000    6.000 
#    0.000    2.500    0.000    0.000    0.000    0.000 
#    0.000    0.000    0.000    0.000    0.000    0.000 
#
# Total GULP energy -178972.716536 kJ/mol
# GULP energy per Si atom -5592.897392 kJ/mol
# Density = 2.115602 g / cm^3
# Si number density = 21.204279 Si / 1000 Ang^3
#
#
#
# Elastic Constant Matrix: (Units=GPa)
#
#
# Indices 1 2 3 4 5 6 
#
# 1 91.2594 5.3472 27.3235 0.0000 -3.1481 0.0000
# 2 5.3472 94.5762 8.0055 0.0000 9.7920 0.0000
# 3 27.3235 8.0055 129.3618 0.0000 7.0859 0.0000
# 4 0.0000 0.0000 0.0000 -1.9625 0.0000 14.1263
# 5 -3.1481 9.7920 7.0859 0.0000 28.1787 0.0000
# 6 0.0000 0.0000 0.0000 14.1263 0.0000 -1.8398
#
#
#
# Elastic Compliance Matrix: (Units=1/GPa)
#
#
# Indices 1 2 3 4 5 6 
#
# 1 0.011847 -0.000680 -0.002581 0.000000 0.002209 0.000000
# 2 -0.000680 0.011036 -0.000330 0.000000 -0.003828 0.000000
# 3 -0.002581 -0.000330 0.008421 0.000000 -0.002291 0.000000
# 4 0.000000 0.000000 0.000000 0.009389 0.000000 0.072094
# 5 0.002209 -0.003828 -0.002291 0.000000 0.037641 0.000000
# 6 0.000000 0.000000 0.000000 0.072094 0.000000 0.010016
#
#
# Mechanical properties :
#
#
# Convention : Reuss Voigt Hill
#
# Bulk Modulus (GPa) = 41.45489 44.06107 42.75798
# Shear Modulus (GPa) = 48.27521 23.17670 35.72595
#
# Velocity S-wave (km/s) = 4.77663 3.30967 4.10914
# Velocity P-wave (km/s) = 7.07207 5.95228 6.53620
#
# Compressibility (1/GPa) = 0.02412260
#
# Stress axis : x y z
#
# Youngs Moduli (GPa) = 84.41231 90.61107 118.74574
#
# Poissons Ratio (x) = 0.06162 0.30650
# Poissons Ratio (y) = 0.05740 0.03914
# Poissons Ratio (z) = 0.21788 0.02987
#
# Static dielectric constant tensor:
#      x y z
#    x 1.746230 0.000000 -0.017240 
#    y 0.000000 1.794010 0.000000 
#    z -0.017240 0.000000 1.710690 
# 
# From -- ./inp_files/39664.got.cif
#   From: 2010.05.17/outbox.cif.g08.bks.cpg/sg11_20_cif.got.tgz:39664.got - 2010.06.03 12:22:45.
