data_PCOD9164303
_publ_section_title
;
Structure prediction by ZEFSAII (Michael W. Deem and Ramdas Pophale) SiO2 
 PCOD9164303
Probable space group: P 21/M
;
_chemical_formula_sum "Si O2"
_cell_formula_units_Z 28
_cell_length_a 18.192987
_cell_length_b 13.155440
_cell_length_c 6.418257
_cell_angle_alpha 90.000000
_cell_angle_beta 110.886518
_cell_angle_gamma 90.000000
_cell_volume 1435.183534
_symmetry_space_group_name_H-M "P 21/M"
_symmetry_group_IT_number 11
_symmetry_cell_setting 'monoclinic'
loop_
_space_group_symop_operation_xyz
x,y,z
-x,1/2+y,-z
-x,-y,-z
x,1/2-y,z
loop_
_atom_site_type_symbol
_atom_site_label
_atom_site_fract_x
_atom_site_fract_y
_atom_site_fract_z
Si Si1 0.961999 0.563282 0.774698
Si Si2 0.268716 0.633731 0.697928
Si Si3 0.428836 0.366507 0.830232
Si Si4 0.837327 0.634382 0.958152
Si Si5 0.592460 0.048397 0.876610
Si Si6 0.889908 0.048235 0.312962
Si Si7 0.689444 0.969648 0.596459
O O1 0.897353 0.631904 0.822372
O O2 0.919342 0.489123 0.567838
O O3 0.037413 0.605324 0.725282
O O4 0.000000 0.500000 0.000000
O O5 0.273026 0.750000 0.633319
O O6 0.188550 0.613144 0.742560
O O7 0.271012 0.555558 0.507896
O O8 0.342566 0.606792 0.919658
O O9 0.425367 0.250000 0.889966
O O10 0.511042 0.390867 0.798224
O O11 0.358060 0.395371 0.604373
O O12 0.423394 0.441862 0.021124
O O13 0.831017 0.750000 0.029832
O O14 0.754304 0.590781 0.793870
O O15 0.868912 0.554205 0.161379
O O16 0.628331 0.024476 0.688869
#
# Coordination Sequence:
#
# PCOD9164303 Si02
#       7
#     4   4   4   4   4   4   4
#     4   9  20  39  64  85 122 160 198 256 299 351
#     4  11  23  39  63  90 120 165 209 253 310 360
#     4  10  22  39  63  91 120 161 205 249 306 364
#     4  11  22  37  62  92 125 166 202 245 310 363
#     4  10  22  42  61  87 128 158 201 257 302 364
#     4  10  20  41  61  88 126 156 206 258 296 359
#     4  11  22  41  59  92 127 158 204 259 296 363
#
# _framework density 19.509699999999999
#
# number of rings (size 3 to 8) (size 9 to 14) (size 15 to 20)
#    0.000    1.714    2.857    1.286    0.000    3.429 
#    0.000    5.714    0.000    0.000    0.000    0.000 
#    0.000    0.000    0.000    0.000    0.000    0.000 
#
# Total GULP energy -156335.979337 kJ/mol
# GULP energy per Si atom -5583.427833 kJ/mol
# Density = 1.946529 g / cm^3
# Si number density = 19.509700 Si / 1000 Ang^3
#
#
#
# Elastic Constant Matrix: (Units=GPa)
#
#
# Indices 1 2 3 4 5 6 
#
# 1 94.2627 20.5503 -2.3030 0.0000 4.0067 0.0000
# 2 20.5503 74.2183 10.6106 0.0000 13.4450 0.0000
# 3 -2.3030 10.6106 55.5562 0.0000 5.4984 0.0000
# 4 0.0000 0.0000 0.0000 10.1823 0.0000 -3.7019
# 5 4.0067 13.4450 5.4984 0.0000 30.6062 0.0000
# 6 0.0000 0.0000 0.0000 -3.7019 0.0000 3.5277
#
#
#
# Elastic Compliance Matrix: (Units=1/GPa)
#
#
# Indices 1 2 3 4 5 6 
#
# 1 0.011357 -0.003258 0.001118 0.000000 -0.000256 0.000000
# 2 -0.003258 0.015842 -0.002560 0.000000 -0.006073 0.000000
# 3 0.001118 -0.002560 0.018772 0.000000 -0.002394 0.000000
# 4 0.000000 0.000000 0.000000 0.158790 0.000000 0.166631
# 5 -0.000256 -0.006073 -0.002394 0.000000 0.035805 0.000000
# 6 0.000000 0.000000 0.000000 0.166631 0.000000 0.458326
#
#
# Mechanical properties :
#
#
# Convention : Reuss Voigt Hill
#
# Bulk Modulus (GPa) = 27.34299 31.30589 29.32444
# Shear Modulus (GPa) = 6.93980 21.87520 14.40750
#
# Velocity S-wave (km/s) = 1.88807 3.35214 2.72045
# Velocity P-wave (km/s) = 4.33574 5.57347 4.99310
#
# Compressibility (1/GPa) = 0.03657245
#
# Stress axis : x y z
#
# Youngs Moduli (GPa) = 88.05001 63.12340 53.27078
#
# Poissons Ratio (x) = 0.20566 -0.05958
# Poissons Ratio (y) = 0.28688 0.13636
# Poissons Ratio (z) = -0.09848 0.16158
#
# Static dielectric constant tensor:
#      x y z
#    x 1.708670 0.000000 -0.007900 
#    y 0.000000 1.649390 0.000000 
#    z -0.007900 0.000000 1.659510 
# 
# From -- ./inp_files/7924.got.cif
#   From: 2010.05.17/outbox.cif.g08.bks.cpg/sg11_4_cif.got.tgz:7924.got - 2010.06.03 12:22:45.
