data_PCOD9164938
_publ_section_title
;
Structure prediction by ZEFSAII (Michael W. Deem and Ramdas Pophale) SiO2 
 PCOD9164938
Probable space group: P 21/M
;
_chemical_formula_sum "Si O2"
_cell_formula_units_Z 24
_cell_length_a 16.097012
_cell_length_b 18.258223
_cell_length_c 10.829950
_cell_angle_alpha 90.000000
_cell_angle_beta 22.962177
_cell_angle_gamma 90.000000
_cell_volume 1241.744401
_symmetry_space_group_name_H-M "P 21/M"
_symmetry_group_IT_number 11
_symmetry_cell_setting 'monoclinic'
loop_
_space_group_symop_operation_xyz
x,y,z
-x,1/2+y,-z
-x,-y,-z
x,1/2-y,z
loop_
_atom_site_type_symbol
_atom_site_label
_atom_site_fract_x
_atom_site_fract_y
_atom_site_fract_z
Si Si1 0.681764 0.166501 0.694320
Si Si2 0.104762 0.407389 0.127369
Si Si3 0.761609 0.663755 0.562448
Si Si4 0.482474 0.053134 0.792310
Si Si5 0.187781 0.060765 0.743500
Si Si6 0.122107 0.033278 0.449699
O O1 0.673592 0.250000 0.664125
O O2 0.636425 0.113852 0.639763
O O3 0.916594 0.147814 0.422562
O O4 0.488702 0.157381 0.056453
O O5 0.978407 0.485227 0.305085
O O6 0.302615 0.411221 0.950421
O O7 0.180637 0.397711 0.883968
O O8 0.813373 0.750000 0.485733
O O9 0.811371 0.619125 0.369452
O O10 0.884372 0.617958 0.502072
O O11 0.601529 0.988864 0.559063
O O12 0.362362 0.020381 0.076693
O O13 0.000000 0.000000 0.000000
O O14 0.000000 0.000000 0.500000
#
# Coordination Sequence:
#
# PCOD9164938 Si02
#       6
#     4   4   4   4   4   4
#     4  10  21  38  59  84 114 154 202 254 311 366
#     4  11  21  36  60  90 115 156 205 256 300 364
#     4  10  21  38  60  85 122 164 201 252 320 373
#     4  10  21  37  59  86 117 155 201 257 299 358
#     4  12  21  36  59  88 123 159 206 248 301 365
#     4   9  18  35  60  87 114 150 207 254 301 353
#
# _framework density 19.327649000000001
#
# number of rings (size 3 to 8) (size 9 to 14) (size 15 to 20)
#    0.000    1.667    3.333    1.500    0.000    4.000 
#    0.000    2.500    0.000    4.000    0.000    0.000 
#    0.000    0.000    0.000    0.000    0.000    0.000 
#
# Total GULP energy -133666.419511 kJ/mol
# GULP energy per Si atom -5569.434146 kJ/mol
# Density = 1.928366 g / cm^3
# Si number density = 19.327649 Si / 1000 Ang^3
#
#
#
# Elastic Constant Matrix: (Units=GPa)
#
#
# Indices 1 2 3 4 5 6 
#
# 1 113.6420 44.6964 41.0653 0.0000 4.1392 0.0000
# 2 44.6964 111.6760 40.6943 0.0000 0.8426 0.0000
# 3 41.0653 40.6943 61.5127 0.0000 0.4473 0.0000
# 4 0.0000 0.0000 0.0000 18.9565 0.0000 4.4383
# 5 4.1392 0.8426 0.4473 0.0000 31.6293 0.0000
# 6 0.0000 0.0000 0.0000 4.4383 0.0000 22.3082
#
#
#
# Elastic Compliance Matrix: (Units=1/GPa)
#
#
# Indices 1 2 3 4 5 6 
#
# 1 0.012171 -0.002508 -0.006456 0.000000 -0.001435 0.000000
# 2 -0.002508 0.012317 -0.006475 0.000000 0.000092 0.000000
# 3 -0.006456 -0.006475 0.024845 0.000000 0.000666 0.000000
# 4 0.000000 0.000000 0.000000 0.055330 0.000000 -0.011008
# 5 -0.001435 0.000092 0.000666 0.000000 0.031792 0.000000
# 6 0.000000 0.000000 0.000000 -0.011008 0.000000 0.047017
#
#
# Mechanical properties :
#
#
# Convention : Reuss Voigt Hill
#
# Bulk Modulus (GPa) = 54.18198 59.97142 57.07670
# Shear Modulus (GPa) = 22.67566 25.27043 23.97304
#
# Velocity S-wave (km/s) = 3.42895 3.61983 3.52568
# Velocity P-wave (km/s) = 6.61598 6.96901 6.79479
#
# Compressibility (1/GPa) = 0.01845632
#
# Stress axis : x y z
#
# Youngs Moduli (GPa) = 82.16228 81.18899 40.24934
#
# Poissons Ratio (x) = 0.20362 0.25984
# Poissons Ratio (y) = 0.20606 0.26060
# Poissons Ratio (z) = 0.53041 0.52568
#
# Static dielectric constant tensor:
#      x y z
#    x 1.737240 0.000000 -0.003660 
#    y 0.000000 1.682130 0.000000 
#    z -0.003660 0.000000 1.728840 
# 
# From -- ./inp_files/19263.got.cif
#   From: 2010.05.17/outbox.cif.g08.bks.cpg/sg11_10_cif.got.tgz:19263.got - 2010.06.03 12:22:45.
