data_PCOD9164830
_publ_section_title
;
Structure prediction by ZEFSAII (Michael W. Deem and Ramdas Pophale) SiO2 
 PCOD9164830
Probable space group: P 21/M
;
_chemical_formula_sum "Si O2"
_cell_formula_units_Z 28
_cell_length_a 15.008349
_cell_length_b 8.626317
_cell_length_c 22.545586
_cell_angle_alpha 90.000000
_cell_angle_beta 149.630161
_cell_angle_gamma 90.000000
_cell_volume 1475.738659
_symmetry_space_group_name_H-M "P 21/M"
_symmetry_group_IT_number 11
_symmetry_cell_setting 'monoclinic'
loop_
_space_group_symop_operation_xyz
x,y,z
-x,1/2+y,-z
-x,-y,-z
x,1/2-y,z
loop_
_atom_site_type_symbol
_atom_site_label
_atom_site_fract_x
_atom_site_fract_y
_atom_site_fract_z
Si Si1 0.181574 0.937625 0.363870
Si Si2 0.460684 0.436829 0.884641
Si Si3 0.906963 0.565426 0.005486
Si Si4 0.226074 0.062962 0.860449
Si Si5 0.487753 0.564549 0.216097
Si Si6 0.786678 0.564618 0.743986
Si Si7 0.440391 0.936469 0.617659
O O1 0.191154 0.750000 0.364109
O O2 0.291370 0.983179 0.485022
O O3 0.976789 0.983818 0.251454
O O4 0.257139 0.012814 0.347657
O O5 0.465352 0.250000 0.888261
O O6 0.315503 0.486807 0.849546
O O7 0.429465 0.486684 0.799147
O O8 0.648445 0.497273 0.016182
O O9 0.894403 0.750000 0.994489
O O10 0.033175 0.515834 0.131871
O O11 0.713138 0.495194 0.899241
O O12 0.000000 0.500000 0.000000
O O13 0.232283 0.250000 0.866931
O O14 0.486590 0.750000 0.217223
O O15 0.578407 0.502934 0.327568
O O16 0.806505 0.750000 0.758450
O O17 0.629512 0.518072 0.698269
O O18 0.439481 0.750000 0.620970
#
# Coordination Sequence:
#
# PCOD9164830 Si02
#       7
#     4   4   4   4   4   4   4
#     4  10  21  37  57  80 106 144 189 230 274 322
#     4   9  19  35  56  83 111 138 174 222 276 330
#     4  12  23  36  55  80 111 143 179 222 269 321
#     4   9  18  35  58  82 108 138 176 225 276 325
#     4  11  22  36  56  81 111 147 183 223 274 326
#     4  11  22  36  55  80 110 146 184 227 275 322
#     4  10  22  38  54  75 109 149 188 227 269 326
#
# _framework density 18.973549999999999
#
# number of rings (size 3 to 8) (size 9 to 14) (size 15 to 20)
#    0.000    1.714    1.429    3.429    0.000    5.143 
#    0.000    0.714    0.000    0.000    0.000    0.000 
#    0.000    0.000    0.000    0.000    0.000    0.000 
#
# Total GULP energy -156449.379316 kJ/mol
# GULP energy per Si atom -5587.477833 kJ/mol
# Density = 1.893037 g / cm^3
# Si number density = 18.973550 Si / 1000 Ang^3
#
#
#
# Elastic Constant Matrix: (Units=GPa)
#
#
# Indices 1 2 3 4 5 6 
#
# 1 87.3345 14.0818 28.6540 0.0000 -34.8898 0.0000
# 2 14.0818 16.1828 11.6311 0.0000 -8.9535 0.0000
# 3 28.6540 11.6311 72.1841 0.0000 -30.6151 0.0000
# 4 0.0000 0.0000 0.0000 28.0402 0.0000 -8.2183
# 5 -34.8898 -8.9535 -30.6151 0.0000 37.2652 0.0000
# 6 0.0000 0.0000 0.0000 -8.2183 0.0000 22.4165
#
#
#
# Elastic Compliance Matrix: (Units=1/GPa)
#
#
# Indices 1 2 3 4 5 6 
#
# 1 0.019125 -0.007990 0.000730 0.000000 0.016586 0.000000
# 2 -0.007990 0.076636 -0.006968 0.000000 0.005208 0.000000
# 3 0.000730 -0.006968 0.021896 0.000000 0.016998 0.000000
# 4 0.000000 0.000000 0.000000 0.039957 0.000000 0.014649
# 5 0.016586 0.005208 0.016998 0.000000 0.057579 0.000000
# 6 0.000000 0.000000 0.000000 0.014649 0.000000 0.049980
#
#
# Mechanical properties :
#
#
# Convention : Reuss Voigt Hill
#
# Bulk Modulus (GPa) = 11.21066 31.60391 21.40728
# Shear Modulus (GPa) = 15.46251 25.63334 20.54792
#
# Velocity S-wave (km/s) = 2.85783 3.67959 3.29443
# Velocity P-wave (km/s) = 4.10012 5.89453 5.07723
#
# Compressibility (1/GPa) = 0.08920079
#
# Stress axis : x y z
#
# Youngs Moduli (GPa) = 52.28738 13.04865 45.67143
#
# Poissons Ratio (x) = 0.10426 -0.03335
# Poissons Ratio (y) = 0.41779 0.31824
# Poissons Ratio (z) = -0.03818 0.09092
#
# Static dielectric constant tensor:
#      x y z
#    x 1.606030 0.000000 0.029190 
#    y 0.000000 1.639130 0.000000 
#    z 0.029190 0.000000 1.614730 
# 
# From -- ./inp_files/37466.got.cif
#   From: 2010.05.17/outbox.cif.g08.bks.cpg/sg11_19_cif.got.tgz:37466.got - 2010.06.03 12:22:45.
