data_PCOD9164635
_publ_section_title
;
Structure prediction by ZEFSAII (Michael W. Deem and Ramdas Pophale) SiO2 
 PCOD9164635
Probable space group: P 21/M
;
_chemical_formula_sum "Si O2"
_cell_formula_units_Z 20
_cell_length_a 10.420148
_cell_length_b 7.393763
_cell_length_c 24.246214
_cell_angle_alpha 90.000000
_cell_angle_beta 22.497405
_cell_angle_gamma 90.000000
_cell_volume 714.785144
_symmetry_space_group_name_H-M "P 21/M"
_symmetry_group_IT_number 11
_symmetry_cell_setting 'monoclinic'
loop_
_space_group_symop_operation_xyz
x,y,z
-x,1/2+y,-z
-x,-y,-z
x,1/2-y,z
loop_
_atom_site_type_symbol
_atom_site_label
_atom_site_fract_x
_atom_site_fract_y
_atom_site_fract_z
Si Si1 0.688193 0.967549 0.358836
Si Si2 0.252124 0.537801 0.048496
Si Si3 0.170851 0.540819 0.264169
Si Si4 0.363690 0.466986 0.829766
Si Si5 0.342248 0.965962 0.397246
O O1 0.686052 0.750000 0.366971
O O2 0.354362 0.027081 0.457376
O O3 0.872682 0.036961 0.341670
O O4 0.922751 0.015673 0.213412
O O5 0.213172 0.750000 0.050603
O O6 0.473251 0.457225 0.911845
O O7 0.500000 0.500000 0.000000
O O8 0.087931 0.750000 0.304210
O O9 0.328367 0.455059 0.256679
O O10 0.408007 0.250000 0.811516
O O11 0.392517 0.531248 0.755307
O O12 0.000000 0.500000 0.000000
O O13 0.383789 0.750000 0.384958
O O14 0.000000 0.000000 0.500000
#
# Coordination Sequence:
#
# PCOD9164635 Si02
#       5
#     4   4   4   4   4
#     4   8  15  29  49  69  95 134 176 211 255 313
#     4   9  15  25  44  72 104 136 169 211 261 315
#     4   9  17  30  48  73 102 135 173 217 266 317
#     4  10  21  36  56  82 113 143 177 223 276 327
#     4  10  21  38  56  76 105 144 183 222 269 326
#
# _framework density 27.980433999999999
#
# number of rings (size 3 to 8) (size 9 to 14) (size 15 to 20)
#    0.000    2.800    0.000    3.000    0.000    3.200 
#    0.000    6.000    0.000    0.000    0.000    0.000 
#    0.000    0.000    0.000    0.000    0.000    0.000 
#
# Total GULP energy -111399.609036 kJ/mol
# GULP energy per Si atom -5569.980452 kJ/mol
# Density = 2.791675 g / cm^3
# Si number density = 27.980434 Si / 1000 Ang^3
#
#
#
# Elastic Constant Matrix: (Units=GPa)
#
#
# Indices 1 2 3 4 5 6 
#
# 1 323.9722 20.8681 43.2256 0.0000 -29.6806 0.0000
# 2 20.8681 107.2013 10.9079 0.0000 4.2010 0.0000
# 3 43.2256 10.9079 88.3527 0.0000 -17.9061 0.0000
# 4 0.0000 0.0000 0.0000 35.2955 0.0000 7.4502
# 5 -29.6806 4.2010 -17.9061 0.0000 46.8669 0.0000
# 6 0.0000 0.0000 0.0000 7.4502 0.0000 17.6787
#
#
#
# Elastic Compliance Matrix: (Units=1/GPa)
#
#
# Indices 1 2 3 4 5 6 
#
# 1 0.003456 -0.000614 -0.001258 0.000000 0.001763 0.000000
# 2 -0.000614 0.009642 -0.001240 0.000000 -0.001727 0.000000
# 3 -0.001258 -0.001240 0.012950 0.000000 0.004263 0.000000
# 4 0.000000 0.000000 0.000000 0.031099 0.000000 -0.013106
# 5 0.001763 -0.001727 0.004263 0.000000 0.024237 0.000000
# 6 0.000000 0.000000 0.000000 -0.013106 0.000000 0.062088
#
#
# Mechanical properties :
#
#
# Convention : Reuss Voigt Hill
#
# Bulk Modulus (GPa) = 50.44141 74.39216 62.41679
# Shear Modulus (GPa) = 31.98933 49.60319 40.79626
#
# Velocity S-wave (km/s) = 3.38490 4.21501 3.82256
# Velocity P-wave (km/s) = 5.77436 7.09460 6.46825
#
# Compressibility (1/GPa) = 0.01982498
#
# Stress axis : x y z
#
# Youngs Moduli (GPa) = 289.39263 103.71764 77.21721
#
# Poissons Ratio (x) = 0.06366 0.09710
# Poissons Ratio (y) = 0.17763 0.09575
# Poissons Ratio (z) = 0.36391 0.12861
#
# Static dielectric constant tensor:
#      x y z
#    x 2.372060 0.000000 -0.139710 
#    y 0.000000 2.110850 0.000000 
#    z -0.139710 0.000000 3.776090 
# 
# From -- ./inp_files/72898.got.cif
#   From: 2010.05.17/outbox.cif.g08.bks.cpg/sg11_37_cif.got.tgz:72898.got - 2010.06.03 12:22:45.
