data_PCOD9164969
_publ_section_title
;
Structure prediction by ZEFSAII (Michael W. Deem and Ramdas Pophale) SiO2 
 PCOD9164969
Probable space group: P 21/M
;
_chemical_formula_sum "Si O2"
_cell_formula_units_Z 28
_cell_length_a 9.289876
_cell_length_b 25.805870
_cell_length_c 6.858245
_cell_angle_alpha 90.000000
_cell_angle_beta 50.570686
_cell_angle_gamma 90.000000
_cell_volume 1269.955754
_symmetry_space_group_name_H-M "P 21/M"
_symmetry_group_IT_number 11
_symmetry_cell_setting 'monoclinic'
loop_
_space_group_symop_operation_xyz
x,y,z
-x,1/2+y,-z
-x,-y,-z
x,1/2-y,z
loop_
_atom_site_type_symbol
_atom_site_label
_atom_site_fract_x
_atom_site_fract_y
_atom_site_fract_z
Si Si1 0.868146 0.450448 0.142033
Si Si2 0.734385 0.691166 0.186539
Si Si3 0.285561 0.958298 0.118626
Si Si4 0.657379 0.519041 0.598006
Si Si5 0.730307 0.637495 0.592931
Si Si6 0.434388 0.855610 0.171573
Si Si7 0.962973 0.353417 0.338153
O O1 0.695367 0.478470 0.396067
O O2 0.933066 0.404531 0.227765
O O3 0.834605 0.432439 0.948836
O O4 0.000000 0.500000 0.000000
O O5 0.666564 0.750000 0.231558
O O6 0.766695 0.674453 0.380116
O O7 0.579819 0.654053 0.220056
O O8 0.921926 0.684953 0.899326
O O9 0.376098 0.914288 0.174271
O O10 0.211367 0.000480 0.333631
O O11 0.449521 0.985493 0.857331
O O12 0.691381 0.579966 0.540181
O O13 0.901429 0.634371 0.596840
O O14 0.552279 0.657766 0.873953
O O15 0.234734 0.832872 0.409766
#
# Coordination Sequence:
#
# PCOD9164969 Si02
#       7
#     4   4   4   4   4   4   4
#     4  12  24  35  62 100 143 186 227 262 321 398
#     4  11  27  50  72  98 130 171 229 296 363 417
#     4  10  22  38  61  93 139 184 223 265 320 389
#     4  10  21  37  59  94 141 181 221 262 315 393
#     4  10  24  43  70 101 142 184 223 277 345 403
#     4  10  24  44  71 100 136 177 228 283 338 410
#     4  11  25  43  71 102 140 176 228 286 335 404
#
# _framework density 22.048013999999998
#
# number of rings (size 3 to 8) (size 9 to 14) (size 15 to 20)
#    0.000    1.429    1.429    2.143    8.000    8.571 
#    0.000    0.000    0.000    0.000    0.000    0.000 
#    0.000    0.000    0.000    0.000    0.000    0.000 
#
# Total GULP energy -156201.012556 kJ/mol
# GULP energy per Si atom -5578.607591 kJ/mol
# Density = 2.199783 g / cm^3
# Si number density = 22.048014 Si / 1000 Ang^3
#
#
#
# Elastic Constant Matrix: (Units=GPa)
#
#
# Indices 1 2 3 4 5 6 
#
# 1 85.4775 40.7475 41.7561 0.0000 17.2798 0.0000
# 2 40.7475 52.7812 31.7489 0.0000 20.0478 0.0000
# 3 41.7561 31.7489 103.9932 0.0000 12.0664 0.0000
# 4 0.0000 0.0000 0.0000 18.7108 0.0000 -5.8320
# 5 17.2798 20.0478 12.0664 0.0000 42.0134 0.0000
# 6 0.0000 0.0000 0.0000 -5.8320 0.0000 3.5582
#
#
#
# Elastic Compliance Matrix: (Units=1/GPa)
#
#
# Indices 1 2 3 4 5 6 
#
# 1 0.019832 -0.012493 -0.004029 0.000000 -0.001039 0.000000
# 2 -0.012493 0.035271 -0.004547 0.000000 -0.010386 0.000000
# 3 -0.004029 -0.004547 0.012598 0.000000 0.000208 0.000000
# 4 0.000000 0.000000 0.000000 0.109266 0.000000 0.179089
# 5 -0.001039 -0.010386 0.000208 0.000000 0.029125 0.000000
# 6 0.000000 0.000000 0.000000 0.179089 0.000000 0.574571
#
#
# Mechanical properties :
#
#
# Convention : Reuss Voigt Hill
#
# Bulk Modulus (GPa) = 39.11749 52.30632 45.71191
# Shear Modulus (GPa) = 6.01452 21.38977 13.70215
#
# Velocity S-wave (km/s) = 1.65343 3.11809 2.49563
# Velocity P-wave (km/s) = 4.62878 6.06124 5.39279
#
# Compressibility (1/GPa) = 0.02556401
#
# Stress axis : x y z
#
# Youngs Moduli (GPa) = 50.42254 28.35210 79.38055
#
# Poissons Ratio (x) = 0.35420 0.31980
# Poissons Ratio (y) = 0.62993 0.36092
# Poissons Ratio (z) = 0.20314 0.12891
#
# Static dielectric constant tensor:
#      x y z
#    x 1.906210 0.000000 -0.037210 
#    y 0.000000 1.919960 0.000000 
#    z -0.037210 0.000000 1.942110 
# 
# From -- ./inp_files/3338.got.cif
#   From: 2010.05.17/outbox.cif.g08.bks.cpg/sg11_2_cif.got.tgz:3338.got - 2010.06.03 12:22:45.
