data_PCOD9164015
_publ_section_title
;
Structure prediction by ZEFSAII (Michael W. Deem and Ramdas Pophale) SiO2 
 PCOD9164015
Probable space group: P 21/M
;
_chemical_formula_sum "Si O2"
_cell_formula_units_Z 32
_cell_length_a 11.136258
_cell_length_b 22.029668
_cell_length_c 11.673714
_cell_angle_alpha 90.000000
_cell_angle_beta 148.322404
_cell_angle_gamma 90.000000
_cell_volume 1503.939947
_symmetry_space_group_name_H-M "P 21/M"
_symmetry_group_IT_number 11
_symmetry_cell_setting 'monoclinic'
loop_
_space_group_symop_operation_xyz
x,y,z
-x,1/2+y,-z
-x,-y,-z
x,1/2-y,z
loop_
_atom_site_type_symbol
_atom_site_label
_atom_site_fract_x
_atom_site_fract_y
_atom_site_fract_z
Si Si1 0.867296 0.917916 0.121605
Si Si2 0.887319 0.113500 0.031427
Si Si3 0.332514 0.973413 0.460077
Si Si4 0.475528 0.684603 0.382459
Si Si5 0.528436 0.476173 0.837423
Si Si6 0.898837 0.569517 0.403545
Si Si7 0.071081 0.179346 0.393358
Si Si8 0.315833 0.129412 0.240123
O O1 0.951244 0.906422 0.318510
O O2 0.070200 0.956979 0.226715
O O3 0.800572 0.864676 0.978581
O O4 0.640380 0.959030 0.953807
O O5 0.720164 0.135911 0.795430
O O6 0.748326 0.062056 0.981821
O O7 0.930222 0.164447 0.163100
O O8 0.126792 0.096360 0.167926
O O9 0.461765 0.911297 0.596779
O O10 0.500000 0.000000 0.500000
O O11 0.360196 0.017148 0.591686
O O12 0.366930 0.750000 0.280207
O O13 0.666597 0.675879 0.439299
O O14 0.599851 0.681314 0.606027
O O15 0.372498 0.442777 0.802416
O O16 0.966076 0.623417 0.547585
O O17 0.000000 0.500000 0.500000
O O18 0.031050 0.250000 0.398035
#
# Coordination Sequence:
#
# PCOD9164015 Si02
#       8
#     4   4   4   4   4   4   4   4
#     4  11  23  38  57  89 130 175 213 254 323 384
#     4  11  20  37  66  93 123 158 207 266 334 379
#     4  11  21  35  56  86 130 162 205 254 322 379
#     4  10  20  38  63  90 122 157 210 275 328 386
#     4  11  22  36  59  93 124 165 213 261 321 389
#     4  12  23  42  65  92 134 175 217 270 325 384
#     4  10  23  41  63  95 127 164 215 267 325 392
#     4  10  22  36  57  89 123 162 206 254 316 388
#
# _framework density 21.277445
#
# number of rings (size 3 to 8) (size 9 to 14) (size 15 to 20)
#    0.000    1.250    2.500    4.500    1.750    2.500 
#    0.000    0.625    0.000    0.750    0.000    0.000 
#    0.000    0.000    0.000    0.000    0.000    0.000 
#
# Total GULP energy -178308.355905 kJ/mol
# GULP energy per Si atom -5572.136122 kJ/mol
# Density = 2.122902 g / cm^3
# Si number density = 21.277445 Si / 1000 Ang^3
#
#
#
# Elastic Constant Matrix: (Units=GPa)
#
#
# Indices 1 2 3 4 5 6 
#
# 1 93.8202 31.6950 29.5986 0.0000 -16.9285 0.0000
# 2 31.6950 83.4225 25.7852 0.0000 -11.3537 0.0000
# 3 29.5986 25.7852 81.2726 0.0000 -11.2030 0.0000
# 4 0.0000 0.0000 0.0000 22.8154 0.0000 -3.1659
# 5 -16.9285 -11.3537 -11.2030 0.0000 39.6369 0.0000
# 6 0.0000 0.0000 0.0000 -3.1659 0.0000 16.1896
#
#
#
# Elastic Compliance Matrix: (Units=1/GPa)
#
#
# Indices 1 2 3 4 5 6 
#
# 1 0.013614 -0.003637 -0.003274 0.000000 0.003847 0.000000
# 2 -0.003637 0.014550 -0.003050 0.000000 0.001752 0.000000
# 3 -0.003274 -0.003050 0.014725 0.000000 0.001890 0.000000
# 4 0.000000 0.000000 0.000000 0.045053 0.000000 0.008810
# 5 0.003847 0.001752 0.001890 0.000000 0.027908 0.000000
# 6 0.000000 0.000000 0.000000 0.008810 0.000000 0.063491
#
#
# Mechanical properties :
#
#
# Convention : Reuss Voigt Hill
#
# Bulk Modulus (GPa) = 43.54038 48.07477 45.80757
# Shear Modulus (GPa) = 24.16395 27.15746 25.66071
#
# Velocity S-wave (km/s) = 3.37361 3.57648 3.47653
# Velocity P-wave (km/s) = 5.97349 6.30065 6.13925
#
# Compressibility (1/GPa) = 0.02296719
#
# Stress axis : x y z
#
# Youngs Moduli (GPa) = 73.45131 68.72717 67.91233
#
# Poissons Ratio (x) = 0.24996 0.22234
# Poissons Ratio (y) = 0.26714 0.20715
# Poissons Ratio (z) = 0.24048 0.20963
#
# Static dielectric constant tensor:
#      x y z
#    x 1.798270 0.000000 -0.052310 
#    y 0.000000 1.805160 0.000000 
#    z -0.052310 0.000000 1.813070 
# 
# From -- ./inp_files/5466.got.cif
#   From: 2010.05.17/outbox.cif.g08.bks.cpg/sg11_3_cif.got.tgz:5466.got - 2010.06.03 12:22:45.
