data_PCOD9164368
_publ_section_title
;
Structure prediction by ZEFSAII (Michael W. Deem and Ramdas Pophale) SiO2 
 PCOD9164368
Probable space group: P 21/M
;
_chemical_formula_sum "Si O2"
_cell_formula_units_Z 28
_cell_length_a 6.551050
_cell_length_b 27.315863
_cell_length_c 9.290707
_cell_angle_alpha 90.000000
_cell_angle_beta 122.778269
_cell_angle_gamma 90.000000
_cell_volume 1397.825132
_symmetry_space_group_name_H-M "P 21/M"
_symmetry_group_IT_number 11
_symmetry_cell_setting 'monoclinic'
loop_
_space_group_symop_operation_xyz
x,y,z
-x,1/2+y,-z
-x,-y,-z
x,1/2-y,z
loop_
_atom_site_type_symbol
_atom_site_label
_atom_site_fract_x
_atom_site_fract_y
_atom_site_fract_z
Si Si1 0.923063 0.970276 0.329797
Si Si2 0.741803 0.624779 0.951573
Si Si3 0.335749 0.947841 0.920624
Si Si4 0.545206 0.192371 0.966142
Si Si5 0.767538 0.427279 0.784929
Si Si6 0.695267 0.873066 0.372890
Si Si7 0.974600 0.637223 0.749454
O O1 0.843017 0.915741 0.346256
O O2 0.134021 0.966379 0.290901
O O3 0.707259 0.999676 0.167556
O O4 0.000000 0.000000 0.500000
O O5 0.562953 0.582217 0.942020
O O6 0.632668 0.674332 0.974541
O O7 0.769607 0.629690 0.791716
O O8 0.010903 0.610700 0.108044
O O9 0.107203 0.914824 0.778759
O O10 0.295294 0.946023 0.078030
O O11 0.546797 0.250000 0.946443
O O12 0.813450 0.172278 0.108038
O O13 0.435227 0.163453 0.787572
O O14 0.526281 0.401626 0.635772
O O15 0.862308 0.847571 0.554849
#
# Coordination Sequence:
#
# PCOD9164368 Si02
#       7
#     4   4   4   4   4   4   4
#     4  12  25  38  61 101 140 179 226 268 320 390
#     4  10  20  44  66  95 130 174 216 273 321 393
#     4  10  21  41  60  94 131 183 221 262 311 386
#     4  11  24  47  73  96 124 168 221 279 342 399
#     4  11  22  40  64  92 135 178 222 262 325 383
#     4  12  24  43  67 100 133 173 221 276 328 398
#     4  10  23  42  67  95 134 168 215 270 330 388
#
# _framework density 20.031119
#
# number of rings (size 3 to 8) (size 9 to 14) (size 15 to 20)
#    0.000    1.143    7.143    0.429    2.000    6.286 
#    0.000    0.000    0.000    0.000    0.000    0.000 
#    0.000    0.000    0.000    0.000    0.000    0.000 
#
# Total GULP energy -156358.350425 kJ/mol
# GULP energy per Si atom -5584.226801 kJ/mol
# Density = 1.998553 g / cm^3
# Si number density = 20.031119 Si / 1000 Ang^3
#
#
#
# Elastic Constant Matrix: (Units=GPa)
#
#
# Indices 1 2 3 4 5 6 
#
# 1 126.3340 38.9071 45.1038 0.0000 -5.2254 0.0000
# 2 38.9071 122.2148 52.1937 0.0000 -8.5008 0.0000
# 3 45.1038 52.1937 148.2383 0.0000 -6.4707 0.0000
# 4 0.0000 0.0000 0.0000 15.0972 0.0000 -0.5783
# 5 -5.2254 -8.5008 -6.4707 0.0000 12.6770 0.0000
# 6 0.0000 0.0000 0.0000 -0.5783 0.0000 17.4186
#
#
#
# Elastic Compliance Matrix: (Units=1/GPa)
#
#
# Indices 1 2 3 4 5 6 
#
# 1 0.009327 -0.001981 -0.002077 0.000000 0.001456 0.000000
# 2 -0.001981 0.010350 -0.002837 0.000000 0.004676 0.000000
# 3 -0.002077 -0.002837 0.008445 0.000000 0.001552 0.000000
# 4 0.000000 0.000000 0.000000 0.066322 0.000000 0.002202
# 5 0.001456 0.004676 0.001552 0.000000 0.083410 0.000000
# 6 0.000000 0.000000 0.000000 0.002202 0.000000 0.057483
#
#
# Mechanical properties :
#
#
# Convention : Reuss Voigt Hill
#
# Bulk Modulus (GPa) = 69.77753 74.35516 72.06634
# Shear Modulus (GPa) = 19.69243 26.41073 23.05158
#
# Velocity S-wave (km/s) = 3.13883 3.63503 3.39601
# Velocity P-wave (km/s) = 6.93156 7.40394 7.17164
#
# Compressibility (1/GPa) = 0.01433126
#
# Stress axis : x y z
#
# Youngs Moduli (GPa) = 107.21135 96.61918 118.41982
#
# Poissons Ratio (x) = 0.19141 0.24595
# Poissons Ratio (y) = 0.21240 0.33599
# Poissons Ratio (z) = 0.22267 0.27413
#
# Static dielectric constant tensor:
#      x y z
#    x 1.731710 0.000000 0.026230 
#    y 0.000000 1.707060 0.000000 
#    z 0.026230 0.000000 1.770700 
# 
# From -- ./inp_files/10901.got.cif
#   From: 2010.05.17/outbox.cif.g08.bks.cpg/sg11_6_cif.got.tgz:10901.got - 2010.06.03 12:22:45.
