data_PCOD9164904
_publ_section_title
;
Structure prediction by ZEFSAII (Michael W. Deem and Ramdas Pophale) SiO2 
 PCOD9164904
Probable space group: P 21/M
;
_chemical_formula_sum "Si O2"
_cell_formula_units_Z 24
_cell_length_a 16.331103
_cell_length_b 13.877889
_cell_length_c 5.024850
_cell_angle_alpha 90.000000
_cell_angle_beta 93.647811
_cell_angle_gamma 90.000000
_cell_volume 1136.530905
_symmetry_space_group_name_H-M "P 21/M"
_symmetry_group_IT_number 11
_symmetry_cell_setting 'monoclinic'
loop_
_space_group_symop_operation_xyz
x,y,z
-x,1/2+y,-z
-x,-y,-z
x,1/2-y,z
loop_
_atom_site_type_symbol
_atom_site_label
_atom_site_fract_x
_atom_site_fract_y
_atom_site_fract_z
Si Si1 0.980814 0.636168 0.059863
Si Si2 0.813316 0.968207 0.178782
Si Si3 0.912744 0.363609 0.425269
Si Si4 0.705737 0.948506 0.633829
Si Si5 0.568117 0.856655 0.926836
Si Si6 0.571327 0.036551 0.321466
O O1 0.968160 0.750000 0.095080
O O2 0.897720 0.583478 0.117584
O O3 0.053696 0.607947 0.278059
O O4 0.012629 0.620825 0.768036
O O5 0.764113 0.914980 0.405622
O O6 0.839205 0.070647 0.308387
O O7 0.758429 0.973400 0.903881
O O8 0.893000 0.250000 0.418892
O O9 0.635637 0.872345 0.708268
O O10 0.654375 0.039611 0.506585
O O11 0.578300 0.750000 0.043835
O O12 0.473109 0.872155 0.818471
O O13 0.583856 0.949349 0.116020
O O14 0.500000 0.000000 0.500000
#
# Coordination Sequence:
#
# PCOD9164904 Si02
#       6
#     4   4   4   4   4   4
#     4  10  21  37  58  86 118 156 211 259 297 361
#     4  12  22  37  62  88 125 164 196 251 320 366
#     4  10  21  39  60  83 115 161 215 257 296 360
#     4  11  23  39  60  90 130 158 198 251 310 371
#     4  10  21  41  68  93 122 166 209 249 304 365
#     4   9  20  41  64  88 126 162 208 247 297 363
#
# _framework density 21.116893999999998
#
# number of rings (size 3 to 8) (size 9 to 14) (size 15 to 20)
#    0.000    1.667    1.667    3.000    0.000    4.000 
#    0.000    1.667    0.000    4.000    0.000    0.000 
#    0.000    0.000    0.000    0.000    0.000    0.000 
#
# Total GULP energy -133947.217340 kJ/mol
# GULP energy per Si atom -5581.134056 kJ/mol
# Density = 2.106883 g / cm^3
# Si number density = 21.116894 Si / 1000 Ang^3
#
#
#
# Elastic Constant Matrix: (Units=GPa)
#
#
# Indices 1 2 3 4 5 6 
#
# 1 69.7652 26.6590 13.9995 0.0000 10.4671 0.0000
# 2 26.6590 79.6528 7.1665 0.0000 6.1068 0.0000
# 3 13.9995 7.1665 56.5506 0.0000 -1.6379 0.0000
# 4 0.0000 0.0000 0.0000 11.4889 0.0000 -1.4896
# 5 10.4671 6.1068 -1.6379 0.0000 42.4384 0.0000
# 6 0.0000 0.0000 0.0000 -1.4896 0.0000 11.5619
#
#
#
# Elastic Compliance Matrix: (Units=1/GPa)
#
#
# Indices 1 2 3 4 5 6 
#
# 1 0.017682 -0.005287 -0.003816 0.000000 -0.003748 0.000000
# 2 -0.005287 0.014434 -0.000543 0.000000 -0.000794 0.000000
# 3 -0.003816 -0.000543 0.018747 0.000000 0.001743 0.000000
# 4 0.000000 0.000000 0.000000 0.088519 0.000000 0.011404
# 5 -0.003748 -0.000794 0.001743 0.000000 0.024669 0.000000
# 6 0.000000 0.000000 0.000000 0.011404 0.000000 0.087960
#
#
# Mechanical properties :
#
#
# Convention : Reuss Voigt Hill
#
# Bulk Modulus (GPa) = 31.67530 33.51321 32.59425
# Shear Modulus (GPa) = 17.74130 23.64076 20.69103
#
# Velocity S-wave (km/s) = 2.90167 3.34955 3.13362
# Velocity P-wave (km/s) = 5.12434 5.55555 5.34429
#
# Compressibility (1/GPa) = 0.03157034
#
# Stress axis : x y z
#
# Youngs Moduli (GPa) = 56.55397 69.28147 53.34121
#
# Poissons Ratio (x) = 0.36632 0.20354
# Poissons Ratio (y) = 0.29903 0.02898
# Poissons Ratio (z) = 0.21580 0.03763
#
# Static dielectric constant tensor:
#      x y z
#    x 1.786500 0.000000 0.006320 
#    y 0.000000 1.773410 0.000000 
#    z 0.006320 0.000000 1.829610 
# 
# From -- ./inp_files/6465.got.cif
#   From: 2010.05.17/outbox.cif.g08.bks.cpg/sg11_4_cif.got.tgz:6465.got - 2010.06.03 12:22:45.
