data_PCOD9164609
_publ_section_title
;
Structure prediction by ZEFSAII (Michael W. Deem and Ramdas Pophale) SiO2 
 PCOD9164609
Probable space group: P 21/M
;
_chemical_formula_sum "Si O2"
_cell_formula_units_Z 32
_cell_length_a 17.423377
_cell_length_b 15.205729
_cell_length_c 11.378789
_cell_angle_alpha 90.000000
_cell_angle_beta 149.839805
_cell_angle_gamma 90.000000
_cell_volume 1514.614169
_symmetry_space_group_name_H-M "P 21/M"
_symmetry_group_IT_number 11
_symmetry_cell_setting 'monoclinic'
loop_
_space_group_symop_operation_xyz
x,y,z
-x,1/2+y,-z
-x,-y,-z
x,1/2-y,z
loop_
_atom_site_type_symbol
_atom_site_label
_atom_site_fract_x
_atom_site_fract_y
_atom_site_fract_z
Si Si1 0.929879 0.856772 0.156779
Si Si2 0.010269 0.647655 0.757273
Si Si3 0.529861 0.601055 0.005320
Si Si4 0.842231 0.856692 0.305224
Si Si5 0.623627 0.647748 0.626643
Si Si6 0.700770 0.144840 0.720950
Si Si7 0.693577 0.885251 0.453410
Si Si8 0.745393 0.406910 0.512749
O O1 0.942159 0.750000 0.161922
O O2 0.904743 0.878382 0.260114
O O3 0.085025 0.896359 0.312065
O O4 0.780582 0.888375 0.888078
O O5 0.043076 0.750000 0.776197
O O6 0.949279 0.609677 0.553366
O O7 0.866316 0.644888 0.655079
O O8 0.160391 0.608575 0.016042
O O9 0.672390 0.608148 0.105174
O O10 0.588498 0.643968 0.204471
O O11 0.500000 0.500000 0.000000
O O12 0.378289 0.634937 0.740393
O O13 0.832179 0.750000 0.299634
O O14 0.622884 0.750000 0.663498
O O15 0.465143 0.608482 0.463396
O O16 0.633138 0.644189 0.498817
O O17 0.697324 0.250000 0.736326
O O18 0.733224 0.130848 0.627096
O O19 0.702976 0.990676 0.466105
#
# Coordination Sequence:
#
# PCOD9164609 Si02
#       8
#     4   4   4   4   4   4   4   4
#     4  10  21  36  56  83 112 141 177 222 267 313
#     4   9  18  35  57  80 108 139 175 221 267 313
#     4   9  20  38  55  78 111 143 177 221 271 317
#     4   9  18  35  59  82 106 142 183 220 264 319
#     4  10  21  37  56  79 108 140 176 221 270 317
#     4  10  21  36  55  80 109 141 177 222 272 316
#     4  10  21  37  55  78 107 142 181 217 265 322
#     4  11  22  36  55  79 109 143 181 221 264 320
#
# _framework density 21.127493999999999
#
# number of rings (size 3 to 8) (size 9 to 14) (size 15 to 20)
#    0.000    2.250    0.000    2.250    0.000    8.000 
#    0.000    9.375    0.000    0.000    0.000    0.000 
#    0.000    0.000    0.000    0.000    0.000    0.000 
#
# Total GULP energy -178711.096540 kJ/mol
# GULP energy per Si atom -5584.721767 kJ/mol
# Density = 2.107941 g / cm^3
# Si number density = 21.127494 Si / 1000 Ang^3
#
#
#
# Elastic Constant Matrix: (Units=GPa)
#
#
# Indices 1 2 3 4 5 6 
#
# 1 119.5236 -15.9910 73.7242 0.0000 15.6720 0.0000
# 2 -15.9910 35.9091 -0.2120 0.0000 3.8603 0.0000
# 3 73.7242 -0.2120 201.0599 0.0000 9.0693 0.0000
# 4 0.0000 0.0000 0.0000 27.2039 0.0000 26.7963
# 5 15.6720 3.8603 9.0693 0.0000 20.3123 0.0000
# 6 0.0000 0.0000 0.0000 26.7963 0.0000 78.6534
#
#
#
# Elastic Compliance Matrix: (Units=1/GPa)
#
#
# Indices 1 2 3 4 5 6 
#
# 1 0.013282 0.006919 -0.004430 0.000000 -0.009584 0.000000
# 2 0.006919 0.032048 -0.002028 0.000000 -0.010523 0.000000
# 3 -0.004430 -0.002028 0.006557 0.000000 0.000876 0.000000
# 4 0.000000 0.000000 0.000000 0.055326 0.000000 -0.018849
# 5 -0.009584 -0.010523 0.000876 0.000000 0.058235 0.000000
# 6 0.000000 0.000000 0.000000 -0.018849 0.000000 0.019136
#
#
# Mechanical properties :
#
#
# Convention : Reuss Voigt Hill
#
# Bulk Modulus (GPa) = 18.93718 52.39278 35.66498
# Shear Modulus (GPa) = 24.84285 45.16536 35.00410
#
# Velocity S-wave (km/s) = 3.43279 4.62860 4.07480
# Velocity P-wave (km/s) = 4.96939 7.30873 6.24949
#
# Compressibility (1/GPa) = 0.05280618
#
# Stress axis : x y z
#
# Youngs Moduli (GPa) = 75.29163 31.20279 152.51965
#
# Poissons Ratio (x) = -0.21588 0.67574
# Poissons Ratio (y) = -0.52092 0.30938
# Poissons Ratio (z) = 0.33358 0.06329
#
# Static dielectric constant tensor:
#      x y z
#    x 1.705950 0.000000 -0.027440 
#    y 0.000000 1.793640 0.000000 
#    z -0.027440 0.000000 1.781760 
# 
# From -- ./inp_files/40020.got.cif
#   From: 2010.05.17/outbox.cif.g08.bks.cpg/sg11_21_cif.got.tgz:40020.got - 2010.06.03 12:22:45.
