data_PCOD9164590
_publ_section_title
;
Structure prediction by ZEFSAII (Michael W. Deem and Ramdas Pophale) SiO2 
 PCOD9164590
Probable space group: P 21/M
;
_chemical_formula_sum "Si O2"
_cell_formula_units_Z 28
_cell_length_a 14.071941
_cell_length_b 14.302175
_cell_length_c 13.191921
_cell_angle_alpha 90.000000
_cell_angle_beta 31.168001
_cell_angle_gamma 90.000000
_cell_volume 1374.091939
_symmetry_space_group_name_H-M "P 21/M"
_symmetry_group_IT_number 11
_symmetry_cell_setting 'monoclinic'
loop_
_space_group_symop_operation_xyz
x,y,z
-x,1/2+y,-z
-x,-y,-z
x,1/2-y,z
loop_
_atom_site_type_symbol
_atom_site_label
_atom_site_fract_x
_atom_site_fract_y
_atom_site_fract_z
Si Si1 0.688254 0.510947 0.765691
Si Si2 0.603224 0.142202 0.352044
Si Si3 0.989655 0.359523 0.517985
Si Si4 0.456112 0.533337 0.789823
Si Si5 0.354839 0.140905 0.773209
Si Si6 0.084534 0.639275 0.179445
Si Si7 0.029829 0.361678 0.929511
O O1 0.808779 0.416326 0.649327
O O2 0.622124 0.542389 0.715194
O O3 0.828185 0.586863 0.685363
O O4 0.500000 0.500000 0.000000
O O5 0.577018 0.250000 0.343247
O O6 0.513444 0.077160 0.349065
O O7 0.512623 0.133589 0.543951
O O8 0.820741 0.124034 0.155046
O O9 0.984785 0.250000 0.497020
O O10 0.992775 0.369898 0.637704
O O11 0.404487 0.425353 0.820289
O O12 0.278391 0.586860 0.995426
O O13 0.331884 0.250000 0.821428
O O14 0.174818 0.102143 0.878584
O O15 0.117942 0.750000 0.132134
O O16 0.963384 0.606160 0.193810
O O17 0.067547 0.250000 0.893071
#
# Coordination Sequence:
#
# PCOD9164590 Si02
#       7
#     4   4   4   4   4   4   4
#     4  11  24  43  63  94 129 156 203 263 310 372
#     4   9  19  35  54  83 117 151 203 254 294 349
#     4  10  23  43  67  91 120 161 207 255 317 371
#     4  11  21  36  60  87 121 160 198 250 311 359
#     4  10  21  36  53  81 121 162 202 238 290 366
#     4   9  18  35  60  90 117 151 202 255 304 356
#     4   8  16  32  52  78 114 149 189 242 286 340
#
# _framework density 20.377092999999999
#
# number of rings (size 3 to 8) (size 9 to 14) (size 15 to 20)
#    0.000    2.286    1.429    1.714    2.000    4.571 
#    2.571    0.000    0.000    0.000    0.000    0.000 
#    0.000    0.000    0.000    0.000    0.000    0.000 
#
# Total GULP energy -156293.884861 kJ/mol
# GULP energy per Si atom -5581.924459 kJ/mol
# Density = 2.033071 g / cm^3
# Si number density = 20.377093 Si / 1000 Ang^3
#
#
#
# Elastic Constant Matrix: (Units=GPa)
#
#
# Indices 1 2 3 4 5 6 
#
# 1 239.7425 159.9073 46.1565 0.0000 -114.6271 0.0000
# 2 159.9073 220.9494 56.7292 0.0000 -81.9458 0.0000
# 3 46.1565 56.7292 77.1722 0.0000 -33.6358 0.0000
# 4 0.0000 0.0000 0.0000 12.8221 0.0000 -1.3853
# 5 -114.6271 -81.9458 -33.6358 0.0000 65.8770 0.0000
# 6 0.0000 0.0000 0.0000 -1.3853 0.0000 25.3326
#
#
#
# Elastic Compliance Matrix: (Units=1/GPa)
#
#
# Indices 1 2 3 4 5 6 
#
# 1 0.029297 -0.005180 0.007326 0.000000 0.048274 0.000000
# 2 -0.005180 0.009587 -0.003447 0.000000 0.001153 0.000000
# 3 0.007326 -0.003447 0.019033 0.000000 0.018177 0.000000
# 4 0.000000 0.000000 0.000000 0.078454 0.000000 0.004290
# 5 0.048274 0.001153 0.018177 0.000000 0.109891 0.000000
# 6 0.000000 0.000000 0.000000 0.004290 0.000000 0.039709
#
#
# Mechanical properties :
#
#
# Convention : Reuss Voigt Hill
#
# Bulk Modulus (GPa) = 18.07854 118.16110 68.11982
# Shear Modulus (GPa) = 16.28601 39.14442 27.71521
#
# Velocity S-wave (km/s) = 2.83013 4.38768 3.69198
# Velocity P-wave (km/s) = 4.42389 9.15325 7.18863
#
# Compressibility (1/GPa) = 0.05531419
#
# Stress axis : x y z
#
# Youngs Moduli (GPa) = 34.13368 104.30399 52.54043
#
# Poissons Ratio (x) = 0.54029 -0.38490
# Poissons Ratio (y) = 0.17681 0.18111
# Poissons Ratio (z) = -0.25005 0.35955
#
# Static dielectric constant tensor:
#      x y z
#    x 1.724740 0.000000 0.010880 
#    y 0.000000 1.751700 0.000000 
#    z 0.010880 0.000000 1.737380 
# 
# From -- ./inp_files/52449.got.cif
#   From: 2010.05.17/outbox.cif.g08.bks.cpg/sg11_27_cif.got.tgz:52449.got - 2010.06.03 12:22:45.
