data_PCOD9164311
_publ_section_title
;
Structure prediction by ZEFSAII (Michael W. Deem and Ramdas Pophale) SiO2 
 PCOD9164311
Probable space group: P 21/M
;
_chemical_formula_sum "Si O2"
_cell_formula_units_Z 32
_cell_length_a 22.494553
_cell_length_b 14.875413
_cell_length_c 15.531231
_cell_angle_alpha 90.000000
_cell_angle_beta 162.125197
_cell_angle_gamma 90.000000
_cell_volume 1595.155722
_symmetry_space_group_name_H-M "P 21/M"
_symmetry_group_IT_number 11
_symmetry_cell_setting 'monoclinic'
loop_
_space_group_symop_operation_xyz
x,y,z
-x,1/2+y,-z
-x,-y,-z
x,1/2-y,z
loop_
_atom_site_type_symbol
_atom_site_label
_atom_site_fract_x
_atom_site_fract_y
_atom_site_fract_z
Si Si1 0.832733 0.575020 0.278499
Si Si2 0.450546 0.649071 0.341687
Si Si3 0.261294 0.853974 0.267704
Si Si4 0.727735 0.977122 0.309981
Si Si5 0.979386 0.152283 0.622388
Si Si6 0.511991 0.005603 0.306222
Si Si7 0.892476 0.648449 0.011211
Si Si8 0.884307 0.966551 0.715398
O O1 0.792352 0.591625 0.323470
O O2 0.902950 0.646334 0.304326
O O3 0.000000 0.500000 0.500000
O O4 0.630275 0.538191 0.963717
O O5 0.423147 0.750000 0.268288
O O6 0.333734 0.642090 0.269034
O O7 0.401021 0.568228 0.210169
O O8 0.677057 0.637658 0.678008
O O9 0.255418 0.750000 0.286586
O O10 0.409411 0.912461 0.528154
O O11 0.052137 0.900799 0.978889
O O12 0.829796 0.071210 0.424808
O O13 0.811810 0.948279 0.518265
O O14 0.500000 0.000000 0.000000
O O15 0.883444 0.250000 0.495889
O O16 0.112829 0.143102 0.891688
O O17 0.700951 0.961716 0.524463
O O18 0.960793 0.750000 0.083800
O O19 0.028552 0.568203 0.166190
#
# Coordination Sequence:
#
# PCOD9164311 Si02
#       8
#     4   4   4   4   4   4   4   4
#     4  10  22  38  64  91 116 159 208 260 311 364
#     4  10  22  38  60  88 120 160 204 248 304 370
#     4  11  25  41  61  94 129 161 205 258 311 374
#     4  10  20  41  63  85 122 165 210 252 305 378
#     4   9  19  36  61  91 119 153 205 262 311 357
#     4  12  23  39  64  93 123 164 206 255 315 374
#     4   9  18  35  60  90 122 159 202 251 307 371
#     4  11  23  39  63  90 127 169 202 248 318 374
#
# _framework density 20.060737
#
# number of rings (size 3 to 8) (size 9 to 14) (size 15 to 20)
#    0.000    1.750    2.500    1.500    5.250    2.500 
#    0.000    4.375    0.000    0.000    0.000    0.000 
#    0.000    0.000    0.000    0.000    0.000    0.000 
#
# Total GULP energy -178675.777164 kJ/mol
# GULP energy per Si atom -5583.618036 kJ/mol
# Density = 2.001508 g / cm^3
# Si number density = 20.060737 Si / 1000 Ang^3
#
#
#
# Elastic Constant Matrix: (Units=GPa)
#
#
# Indices 1 2 3 4 5 6 
#
# 1 77.2403 25.7620 -1.3540 0.0000 -1.0359 0.0000
# 2 25.7620 69.3110 11.2100 0.0000 -10.7159 0.0000
# 3 -1.3540 11.2100 49.7134 0.0000 4.5689 0.0000
# 4 0.0000 0.0000 0.0000 4.1976 0.0000 11.2758
# 5 -1.0359 -10.7159 4.5689 0.0000 26.2840 0.0000
# 6 0.0000 0.0000 0.0000 11.2758 0.0000 -12.4480
#
#
#
# Elastic Compliance Matrix: (Units=1/GPa)
#
#
# Indices 1 2 3 4 5 6 
#
# 1 0.015046 -0.006281 0.002040 0.000000 -0.002322 0.000000
# 2 -0.006281 0.018896 -0.005200 0.000000 0.008360 0.000000
# 3 0.002040 -0.005200 0.021880 0.000000 -0.005843 0.000000
# 4 0.000000 0.000000 0.000000 0.069389 0.000000 0.062855
# 5 -0.002322 0.008360 -0.005843 0.000000 0.042379 0.000000
# 6 0.000000 0.000000 0.000000 0.062855 0.000000 -0.023399
#
#
# Mechanical properties :
#
#
# Convention : Reuss Voigt Hill
#
# Bulk Modulus (GPa) = 27.07198 29.72231 28.39714
# Shear Modulus (GPa) = 28.50811 14.31651 21.41231
#
# Velocity S-wave (km/s) = 3.77382 2.67434 3.27061
# Velocity P-wave (km/s) = 5.70204 4.93806 5.33375
#
# Compressibility (1/GPa) = 0.03693857
#
# Stress axis : x y z
#
# Youngs Moduli (GPa) = 66.46171 52.92107 45.70281
#
# Poissons Ratio (x) = 0.33242 -0.09322
# Poissons Ratio (y) = 0.41748 0.23767
# Poissons Ratio (z) = -0.13556 0.27521
#
# Static dielectric constant tensor:
#      x y z
#    x 1.731390 0.000000 -0.007980 
#    y 0.000000 1.728580 0.000000 
#    z -0.007980 0.000000 1.676590 
# 
# From -- ./inp_files/18059.got.cif
#   From: 2010.05.17/outbox.cif.g08.bks.cpg/sg11_10_cif.got.tgz:18059.got - 2010.06.03 12:22:45.
