data_PCOD9164430
_publ_section_title
;
Structure prediction by ZEFSAII (Michael W. Deem and Ramdas Pophale) SiO2 
 PCOD9164430
Probable space group: P 21/M
;
_chemical_formula_sum "Si O2"
_cell_formula_units_Z 24
_cell_length_a 5.273246
_cell_length_b 12.706523
_cell_length_c 15.992525
_cell_angle_alpha 90.000000
_cell_angle_beta 89.811589
_cell_angle_gamma 90.000000
_cell_volume 1071.567292
_symmetry_space_group_name_H-M "P 21/M"
_symmetry_group_IT_number 11
_symmetry_cell_setting 'monoclinic'
loop_
_space_group_symop_operation_xyz
x,y,z
-x,1/2+y,-z
-x,-y,-z
x,1/2-y,z
loop_
_atom_site_type_symbol
_atom_site_label
_atom_site_fract_x
_atom_site_fract_y
_atom_site_fract_z
Si Si1 0.754249 0.750000 0.234847
Si Si2 0.649344 0.869017 0.737122
Si Si3 0.795501 0.935228 0.912354
Si Si4 0.848248 0.130972 0.325867
Si Si5 0.253705 0.750000 0.351480
Si Si6 0.705761 0.571339 0.095811
Si Si7 0.250025 0.571349 0.492505
O O1 0.506945 0.750000 0.294696
O O2 0.745788 0.650594 0.171771
O O3 0.006117 0.750000 0.292086
O O4 0.612008 0.750000 0.704131
O O5 0.726994 0.866640 0.832692
O O6 0.379698 0.923054 0.723550
O O7 0.879428 0.921659 0.687236
O O8 0.581893 0.027630 0.907019
O O9 0.760477 0.882850 0.002741
O O10 0.079491 0.979834 0.901237
O O11 0.886868 0.250000 0.292085
O O12 0.766137 0.135519 0.421100
O O13 0.252213 0.648688 0.413355
O O14 0.500000 0.500000 0.500000
O O15 0.000000 0.500000 0.500000
#
# Coordination Sequence:
#
# PCOD9164430 Si02
#       7
#     2   4   4   4   2   4   4
#     4  12  26  44  70  94 138 182 222 282 342 392
#     4  10  21  34  62  91 116 157 197 248 315 370
#     4  10  21  40  61  92 130 161 215 266 307 389
#     4  10  21  40  58  87 126 153 194 263 315 374
#     4  12  28  48  66 102 140 172 240 288 330 424
#     4  10  23  40  62  89 126 175 208 261 326 372
#     4  12  26  44  70  96 128 178 220 273 346 402
#
# _framework density 22.397100999999999
#
# number of rings (size 3 to 8) (size 9 to 14) (size 15 to 20)
#    0.000    1.333    0.833    4.000    1.167    8.000 
#    0.000    0.000    0.000    0.000    0.000    0.000 
#    0.000    0.000    0.000    0.000    0.000    0.000 
#
# Total GULP energy -134038.750764 kJ/mol
# GULP energy per Si atom -5584.947949 kJ/mol
# Density = 2.234612 g / cm^3
# Si number density = 22.397101 Si / 1000 Ang^3
#
#
#
# Elastic Constant Matrix: (Units=GPa)
#
#
# Indices 1 2 3 4 5 6 
#
# 1 166.8371 41.7908 50.2354 0.0000 -6.6691 0.0000
# 2 41.7908 73.7981 52.8299 0.0000 -0.0393 0.0000
# 3 50.2354 52.8299 172.2654 0.0000 -0.4583 0.0000
# 4 0.0000 0.0000 0.0000 40.9765 0.0000 4.2852
# 5 -6.6691 -0.0393 -0.4583 0.0000 44.6288 0.0000
# 6 0.0000 0.0000 0.0000 4.2852 0.0000 11.6278
#
#
#
# Elastic Compliance Matrix: (Units=1/GPa)
#
#
# Indices 1 2 3 4 5 6 
#
# 1 0.007188 -0.003294 -0.001083 0.000000 0.001060 0.000000
# 2 -0.003294 0.018872 -0.004828 0.000000 -0.000525 0.000000
# 3 -0.001083 -0.004828 0.007601 0.000000 -0.000088 0.000000
# 4 0.000000 0.000000 0.000000 0.025382 0.000000 -0.009354
# 5 0.001060 -0.000525 -0.000088 0.000000 0.022564 0.000000
# 6 0.000000 0.000000 0.000000 -0.009354 0.000000 0.089448
#
#
# Mechanical properties :
#
#
# Convention : Reuss Voigt Hill
#
# Bulk Modulus (GPa) = 65.57484 78.06810 71.82147
# Shear Modulus (GPa) = 25.70025 37.31626 31.50825
#
# Velocity S-wave (km/s) = 3.39112 4.08624 3.75480
# Velocity P-wave (km/s) = 6.68392 7.56275 7.13687
#
# Compressibility (1/GPa) = 0.01524975
#
# Stress axis : x y z
#
# Youngs Moduli (GPa) = 139.13006 52.98766 131.55649
#
# Poissons Ratio (x) = 0.17457 0.14246
# Poissons Ratio (y) = 0.45836 0.63521
# Poissons Ratio (z) = 0.15066 0.25585
#
# Static dielectric constant tensor:
#      x y z
#    x 1.879250 0.000000 0.003010 
#    y 0.000000 1.842530 0.000000 
#    z 0.003010 0.000000 1.822600 
# 
# From -- ./inp_files/45735.got.cif
#   From: 2010.05.17/outbox.cif.g08.bks.cpg/sg11_23_cif.got.tgz:45735.got - 2010.06.03 12:22:45.
