data_PCOD9164174
_publ_section_title
;
Structure prediction by ZEFSAII (Michael W. Deem and Ramdas Pophale) SiO2 
 PCOD9164174
Probable space group: P 21/M
;
_chemical_formula_sum "Si O2"
_cell_formula_units_Z 28
_cell_length_a 4.938259
_cell_length_b 17.284975
_cell_length_c 14.334541
_cell_angle_alpha 90.000000
_cell_angle_beta 113.210180
_cell_angle_gamma 90.000000
_cell_volume 1124.534529
_symmetry_space_group_name_H-M "P 21/M"
_symmetry_group_IT_number 11
_symmetry_cell_setting 'monoclinic'
loop_
_space_group_symop_operation_xyz
x,y,z
-x,1/2+y,-z
-x,-y,-z
x,1/2-y,z
loop_
_atom_site_type_symbol
_atom_site_label
_atom_site_fract_x
_atom_site_fract_y
_atom_site_fract_z
Si Si1 0.028078 0.961973 0.657368
Si Si2 0.540236 0.662474 0.774056
Si Si3 0.413125 0.835168 0.266652
Si Si4 0.370385 0.332565 0.423473
Si Si5 0.715657 0.550327 0.158575
Si Si6 0.236367 0.431172 0.031776
Si Si7 0.964688 0.131179 0.599589
O O1 0.781716 0.912279 0.573025
O O2 0.294562 0.902207 0.712855
O O3 0.043079 0.040740 0.601228
O O4 0.009282 0.004972 0.756318
O O5 0.428827 0.750000 0.780477
O O6 0.698319 0.668633 0.696223
O O7 0.753161 0.632281 0.885255
O O8 0.351872 0.750000 0.216685
O O9 0.511000 0.900458 0.203065
O O10 0.169422 0.851397 0.313972
O O11 0.720086 0.830103 0.364714
O O12 0.263370 0.250000 0.444859
O O13 0.713265 0.341113 0.495364
O O14 0.533371 0.478199 0.093814
O O15 0.782509 0.601065 0.076245
O O16 0.000000 0.500000 0.000000
#
# Coordination Sequence:
#
# PCOD9164174 Si02
#       7
#     4   4   4   4   4   4   4
#     4  10  22  40  65  91 128 170 227 273 330 401
#     4  10  23  40  63  95 133 172 222 279 340 406
#     4  11  24  44  66  99 135 174 224 284 342 404
#     4  11  23  39  62  95 133 179 219 277 341 397
#     4   9  22  38  63  94 120 173 211 276 329 400
#     4  10  20  39  64  91 127 168 218 270 335 401
#     4  11  26  42  69  97 133 180 229 277 335 407
#
# _framework density 24.899190999999998
#
# number of rings (size 3 to 8) (size 9 to 14) (size 15 to 20)
#    0.000    1.714    0.000    3.000   12.000    1.143 
#    0.000    0.714    0.000    0.000    0.000    0.000 
#    0.000    0.000    0.000    0.000    0.000    0.000 
#
# Total GULP energy -155966.272548 kJ/mol
# GULP energy per Si atom -5570.224020 kJ/mol
# Density = 2.484252 g / cm^3
# Si number density = 24.899191 Si / 1000 Ang^3
#
#
#
# Elastic Constant Matrix: (Units=GPa)
#
#
# Indices 1 2 3 4 5 6 
#
# 1 52.5571 13.3412 -6.9765 0.0000 -2.9122 0.0000
# 2 13.3412 167.3676 22.4093 0.0000 -7.1620 0.0000
# 3 -6.9765 22.4093 123.4434 0.0000 -26.2851 0.0000
# 4 0.0000 0.0000 0.0000 65.4922 0.0000 27.2379
# 5 -2.9122 -7.1620 -26.2851 0.0000 37.7484 0.0000
# 6 0.0000 0.0000 0.0000 27.2379 0.0000 50.5464
#
#
#
# Elastic Compliance Matrix: (Units=1/GPa)
#
#
# Indices 1 2 3 4 5 6 
#
# 1 0.019876 -0.001740 0.001991 0.000000 0.002589 0.000000
# 2 -0.001740 0.006283 -0.001190 0.000000 0.000229 0.000000
# 3 0.001991 -0.001190 0.009879 0.000000 0.006807 0.000000
# 4 0.000000 0.000000 0.000000 0.019679 0.000000 -0.010605
# 5 0.002589 0.000229 0.006807 0.000000 0.031474 0.000000
# 6 0.000000 0.000000 0.000000 -0.010605 0.000000 0.025498
#
#
# Mechanical properties :
#
#
# Convention : Reuss Voigt Hill
#
# Bulk Modulus (GPa) = 29.27523 44.54625 36.91074
# Shear Modulus (GPa) = 39.69670 51.73034 45.71352
#
# Velocity S-wave (km/s) = 3.99720 4.56301 4.28944
# Velocity P-wave (km/s) = 5.75208 6.75950 6.27604
#
# Compressibility (1/GPa) = 0.03415857
#
# Stress axis : x y z
#
# Youngs Moduli (GPa) = 50.31105 159.16652 101.22726
#
# Poissons Ratio (x) = 0.27697 -0.20150
# Poissons Ratio (y) = 0.08755 0.12047
# Poissons Ratio (z) = -0.10015 0.18942
#
# Static dielectric constant tensor:
#      x y z
#    x 2.069830 0.000000 -0.075480 
#    y 0.000000 1.965750 0.000000 
#    z -0.075480 0.000000 2.112700 
# 
# From -- ./inp_files/45932.got.cif
#   From: 2010.05.17/outbox.cif.g08.bks.cpg/sg11_23_cif.got.tgz:45932.got - 2010.06.03 12:22:45.
