data_PCOD9164337
_publ_section_title
;
Structure prediction by ZEFSAII (Michael W. Deem and Ramdas Pophale) SiO2 
 PCOD9164337
Probable space group: P 21/M
;
_chemical_formula_sum "Si O2"
_cell_formula_units_Z 18
_cell_length_a 13.147713
_cell_length_b 10.662485
_cell_length_c 10.719101
_cell_angle_alpha 90.000000
_cell_angle_beta 32.866912
_cell_angle_gamma 90.000000
_cell_volume 815.489582
_symmetry_space_group_name_H-M "P 21/M"
_symmetry_group_IT_number 11
_symmetry_cell_setting 'monoclinic'
loop_
_space_group_symop_operation_xyz
x,y,z
-x,1/2+y,-z
-x,-y,-z
x,1/2-y,z
loop_
_atom_site_type_symbol
_atom_site_label
_atom_site_fract_x
_atom_site_fract_y
_atom_site_fract_z
Si Si1 0.197998 0.250000 0.417506
Si Si2 0.470836 0.108228 0.633762
Si Si3 0.270683 0.977036 0.406369
Si Si4 0.836730 0.250000 0.939476
Si Si5 0.088548 0.491294 0.045152
Si Si6 0.186536 0.750000 0.314773
O O1 0.300638 0.383291 0.319782
O O2 0.061917 0.250000 0.679892
O O3 0.041302 0.250000 0.468895
O O4 0.534076 0.250000 0.535234
O O5 0.576433 0.063984 0.649899
O O6 0.500000 0.000000 0.500000
O O7 0.248470 0.111541 0.885929
O O8 0.252094 0.873325 0.318656
O O9 0.072680 0.975669 0.685778
O O10 0.803439 0.378341 0.042048
O O11 0.744564 0.250000 0.898703
O O12 0.000000 0.500000 0.000000
#
# Coordination Sequence:
#
# PCOD9164337 Si02
#       6
#     2   4   4   2   4   2
#     4   8  20  37  70  94 125 178 222 258 331 402
#     4  12  28  42  66 102 137 173 224 274 340 406
#     4  11  22  43  69  99 136 177 220 283 330 397
#     4   8  22  40  65  99 129 175 219 274 331 396
#     4  11  24  40  70  97 133 174 225 271 340 400
#     4  10  20  41  71  97 136 179 229 268 340 392
#
# _framework density 22.072628999999999
#
# number of rings (size 3 to 8) (size 9 to 14) (size 15 to 20)
#    0.667    0.889    3.333    0.667    6.222    0.000 
#    0.000    1.111    4.889    0.000    0.000    0.000 
#    0.000    0.000    0.000    0.000    0.000    0.000 
#
# Total GULP energy -100507.549050 kJ/mol
# GULP energy per Si atom -5583.752725 kJ/mol
# Density = 2.202239 g / cm^3
# Si number density = 22.072629 Si / 1000 Ang^3
#
#
#
# Elastic Constant Matrix: (Units=GPa)
#
#
# Indices 1 2 3 4 5 6 
#
# 1 183.7125 113.6601 27.6549 0.0000 -1.2559 0.0000
# 2 113.6601 229.0201 19.7692 0.0000 4.9036 0.0000
# 3 27.6549 19.7692 47.5706 0.0000 -13.0471 0.0000
# 4 0.0000 0.0000 0.0000 5.5369 0.0000 14.6329
# 5 -1.2559 4.9036 -13.0471 0.0000 29.0836 0.0000
# 6 0.0000 0.0000 0.0000 14.6329 0.0000 40.9628
#
#
#
# Elastic Compliance Matrix: (Units=1/GPa)
#
#
# Indices 1 2 3 4 5 6 
#
# 1 0.008315 -0.003823 -0.003386 0.000000 -0.000515 0.000000
# 2 -0.003823 0.006374 -0.000874 0.000000 -0.001632 0.000000
# 3 -0.003386 -0.000874 0.026630 0.000000 0.011948 0.000000
# 4 0.000000 0.000000 0.000000 3.228720 0.000000 -1.153372
# 5 -0.000515 -0.001632 0.011948 0.000000 0.039996 0.000000
# 6 0.000000 0.000000 0.000000 -1.153372 0.000000 0.436423
#
#
# Mechanical properties :
#
#
# Convention : Reuss Voigt Hill
#
# Bulk Modulus (GPa) = 39.75808 86.94131 63.34969
# Shear Modulus (GPa) = 1.32590 35.06460 18.19525
#
# Velocity S-wave (km/s) = 0.77589 3.99005 2.87424
# Velocity P-wave (km/s) = 4.34214 7.79112 6.30697
#
# Compressibility (1/GPa) = 0.02515212
#
# Stress axis : x y z
#
# Youngs Moduli (GPa) = 120.26592 156.88147 37.55158
#
# Poissons Ratio (x) = 0.59980 0.12716
# Poissons Ratio (y) = 0.45981 0.03282
# Poissons Ratio (z) = 0.40726 0.13710
#
# Static dielectric constant tensor:
#      x y z
#    x 1.721920 0.000000 -0.032670 
#    y 0.000000 1.829320 0.000000 
#    z -0.032670 0.000000 1.870660 
# 
# From -- ./inp_files/34155.got.cif
#   From: 2010.05.17/outbox.cif.g08.bks.cpg/sg11_18_cif.got.tgz:34155.got - 2010.06.03 12:22:45.
