data_PCOD9164156
_publ_section_title
;
Structure prediction by ZEFSAII (Michael W. Deem and Ramdas Pophale) SiO2 
 PCOD9164156
Probable space group: P 21/M
;
_chemical_formula_sum "Si O2"
_cell_formula_units_Z 26
_cell_length_a 7.815846
_cell_length_b 15.684112
_cell_length_c 9.972188
_cell_angle_alpha 90.000000
_cell_angle_beta 111.095681
_cell_angle_gamma 90.000000
_cell_volume 1140.509826
_symmetry_space_group_name_H-M "P 21/M"
_symmetry_group_IT_number 11
_symmetry_cell_setting 'monoclinic'
loop_
_space_group_symop_operation_xyz
x,y,z
-x,1/2+y,-z
-x,-y,-z
x,1/2-y,z
loop_
_atom_site_type_symbol
_atom_site_label
_atom_site_fract_x
_atom_site_fract_y
_atom_site_fract_z
Si Si1 0.965055 0.917597 0.896518
Si Si2 0.665893 0.750000 0.127584
Si Si3 0.956540 0.971842 0.335588
Si Si4 0.942545 0.250000 0.918134
Si Si5 0.557554 0.572752 0.119202
Si Si6 0.319665 0.593691 0.459773
Si Si7 0.590690 0.961108 0.717424
Si Si8 0.547481 0.250000 0.661986
O O1 0.745905 0.904050 0.825273
O O2 0.048820 0.834426 0.986268
O O3 0.024414 0.950554 0.766206
O O4 0.000000 0.000000 0.000000
O O5 0.872918 0.750000 0.125625
O O6 0.559059 0.664681 0.054397
O O7 0.618436 0.750000 0.276516
O O8 0.758387 0.936021 0.241290
O O9 0.106138 0.894951 0.364955
O O10 0.000000 0.000000 0.500000
O O11 0.744049 0.250000 0.792554
O O12 0.424025 0.548397 0.202672
O O13 0.500000 0.500000 0.000000
O O14 0.338501 0.498047 0.403604
O O15 0.396886 0.582810 0.632493
O O16 0.443813 0.666696 0.429758
#
# Coordination Sequence:
#
# PCOD9164156 Si02
#       8
#     4   2   4   2   4   4   4   2
#     4  11  24  44  70 101 143 190 235 298 370 426
#     4  12  26  42  70 108 142 186 248 296 362 440
#     4  11  23  43  72 102 140 189 241 295 363 436
#     4  12  26  47  66 106 148 188 236 307 361 437
#     4  12  24  42  70 103 137 185 241 299 357 431
#     4  10  21  40  63  95 135 181 226 288 357 423
#     4  10  20  39  63  92 132 178 230 278 349 427
#     4  12  24  41  70 102 144 184 242 297 363 439
#
# _framework density 22.796824999999998
#
# number of rings (size 3 to 8) (size 9 to 14) (size 15 to 20)
#    0.000    0.923    3.077    5.538    2.154    0.615 
#    0.000    2.308    0.000    0.000    0.000    0.000 
#    0.000    0.000    0.000    0.000    0.000    0.000 
#
# Total GULP energy -144869.549260 kJ/mol
# GULP energy per Si atom -5571.905741 kJ/mol
# Density = 2.274494 g / cm^3
# Si number density = 22.796825 Si / 1000 Ang^3
#
#
#
# Elastic Constant Matrix: (Units=GPa)
#
#
# Indices 1 2 3 4 5 6 
#
# 1 65.5577 5.9073 24.3338 0.0000 -1.0041 0.0000
# 2 5.9073 128.1203 50.1221 0.0000 -8.6281 0.0000
# 3 24.3338 50.1221 117.2095 0.0000 9.8817 0.0000
# 4 0.0000 0.0000 0.0000 34.2305 0.0000 -3.6963
# 5 -1.0041 -8.6281 9.8817 0.0000 48.1635 0.0000
# 6 0.0000 0.0000 0.0000 -3.6963 0.0000 30.3825
#
#
#
# Elastic Compliance Matrix: (Units=1/GPa)
#
#
# Indices 1 2 3 4 5 6 
#
# 1 0.016657 0.000860 -0.003936 0.000000 0.001309 0.000000
# 2 0.000860 0.009735 -0.004569 0.000000 0.002699 0.000000
# 3 -0.003936 -0.004569 0.011579 0.000000 -0.003276 0.000000
# 4 0.000000 0.000000 0.000000 0.029603 0.000000 0.003601
# 5 0.001309 0.002699 -0.003276 0.000000 0.021946 0.000000
# 6 0.000000 0.000000 0.000000 0.003601 0.000000 0.033352
#
#
# Mechanical properties :
#
#
# Convention : Reuss Voigt Hill
#
# Bulk Modulus (GPa) = 44.09062 52.40154 48.24608
# Shear Modulus (GPa) = 34.31194 37.92359 36.11776
#
# Velocity S-wave (km/s) = 3.88380 4.08308 3.98469
# Velocity P-wave (km/s) = 6.28446 6.72793 6.50997
#
# Compressibility (1/GPa) = 0.02268056
#
# Stress axis : x y z
#
# Youngs Moduli (GPa) = 60.03341 102.72518 86.36336
#
# Poissons Ratio (x) = -0.08835 0.33996
# Poissons Ratio (y) = -0.05163 0.39459
# Poissons Ratio (z) = 0.23631 0.46935
#
# Static dielectric constant tensor:
#      x y z
#    x 2.097250 0.000000 0.008870 
#    y 0.000000 1.895070 0.000000 
#    z 0.008870 0.000000 1.948160 
# 
# From -- ./inp_files/31769.got.cif
#   From: 2010.05.17/outbox.cif.g08.bks.cpg/sg11_16_cif.got.tgz:31769.got - 2010.06.03 12:22:45.
