data_PCOD9164777
_publ_section_title
;
Structure prediction by ZEFSAII (Michael W. Deem and Ramdas Pophale) SiO2 
 PCOD9164777
Probable space group: P 21/M
;
_chemical_formula_sum "Si O2"
_cell_formula_units_Z 32
_cell_length_a 12.911947
_cell_length_b 8.875703
_cell_length_c 30.426070
_cell_angle_alpha 90.000000
_cell_angle_beta 155.532460
_cell_angle_gamma 90.000000
_cell_volume 1444.198928
_symmetry_space_group_name_H-M "P 21/M"
_symmetry_group_IT_number 11
_symmetry_cell_setting 'monoclinic'
loop_
_space_group_symop_operation_xyz
x,y,z
-x,1/2+y,-z
-x,-y,-z
x,1/2-y,z
loop_
_atom_site_type_symbol
_atom_site_label
_atom_site_fract_x
_atom_site_fract_y
_atom_site_fract_z
Si Si1 0.357314 0.071278 0.773889
Si Si2 0.711133 0.575750 0.434141
Si Si3 0.291637 0.570850 0.333937
Si Si4 0.942094 0.922064 0.842356
Si Si5 0.530072 0.578152 0.057920
Si Si6 0.965841 0.428200 0.281433
Si Si7 0.089466 0.567697 0.988960
Si Si8 0.312694 0.923244 0.665543
O O1 0.328574 0.250000 0.767178
O O2 0.615023 0.026931 0.897969
O O3 0.115486 0.994029 0.702700
O O4 0.394323 0.024154 0.737835
O O5 0.643493 0.750000 0.399067
O O6 0.572110 0.533388 0.425566
O O7 0.621261 0.477677 0.357992
O O8 0.009135 0.567720 0.550836
O O9 0.268435 0.750000 0.330301
O O10 0.135170 0.516109 0.230317
O O11 0.195090 0.494021 0.341252
O O12 0.847959 0.750000 0.800662
O O13 0.243296 0.911847 0.961494
O O14 0.908537 0.983386 0.878998
O O15 0.628422 0.750000 0.094496
O O16 0.725427 0.478302 0.159893
O O17 0.500000 0.500000 0.000000
O O18 0.991908 0.250000 0.294512
O O19 0.075016 0.750000 0.984122
O O20 0.000000 0.500000 0.000000
O O21 0.388960 0.750000 0.701654
#
# Coordination Sequence:
#
# PCOD9164777 Si02
#       8
#     4   4   4   4   4   4   4   4
#     4  11  23  42  63  86 120 161 203 245 297 359
#     4   9  21  42  65  92 123 153 192 243 300 361
#     4  11  23  38  60  88 120 159 200 246 300 355
#     4  10  21  37  54  79 115 155 197 242 288 341
#     4  11  20  34  54  77 110 152 196 241 286 337
#     4  12  24  38  57  85 120 158 203 251 297 355
#     4  10  23  40  56  80 118 158 198 244 291 346
#     4  10  21  40  67  95 120 151 194 245 300 359
#
# _framework density 22.157610999999999
#
# number of rings (size 3 to 8) (size 9 to 14) (size 15 to 20)
#    0.000    1.500    2.500    2.625    1.750    3.500 
#    0.000    0.625    0.000    0.000    0.000    0.000 
#    0.000    0.000    0.000    0.000    0.000    0.000 
#
# Total GULP energy -178674.700384 kJ/mol
# GULP energy per Si atom -5583.584387 kJ/mol
# Density = 2.210718 g / cm^3
# Si number density = 22.157611 Si / 1000 Ang^3
#
#
#
# Elastic Constant Matrix: (Units=GPa)
#
#
# Indices 1 2 3 4 5 6 
#
# 1 120.7256 40.8777 1.2736 0.0000 21.7416 0.0000
# 2 40.8777 81.6896 9.3661 0.0000 8.5610 0.0000
# 3 1.2736 9.3661 31.6335 0.0000 10.5054 0.0000
# 4 0.0000 0.0000 0.0000 21.4084 0.0000 0.5922
# 5 21.7416 8.5610 10.5054 0.0000 35.0678 0.0000
# 6 0.0000 0.0000 0.0000 0.5922 0.0000 37.5251
#
#
#
# Elastic Compliance Matrix: (Units=1/GPa)
#
#
# Indices 1 2 3 4 5 6 
#
# 1 0.011249 -0.005312 0.003337 0.000000 -0.006677 0.000000
# 2 -0.005312 0.015333 -0.004638 0.000000 0.000940 0.000000
# 3 0.003337 -0.004638 0.036826 0.000000 -0.011969 0.000000
# 4 0.000000 0.000000 0.000000 0.046731 0.000000 -0.000738
# 5 -0.006677 0.000940 -0.011969 0.000000 0.036012 0.000000
# 6 0.000000 0.000000 0.000000 -0.000738 0.000000 0.026660
#
#
# Mechanical properties :
#
#
# Convention : Reuss Voigt Hill
#
# Bulk Modulus (GPa) = 19.92714 37.45374 28.69044
# Shear Modulus (GPa) = 24.65915 30.96901 27.81408
#
# Velocity S-wave (km/s) = 3.33963 3.74260 3.54684
# Velocity P-wave (km/s) = 4.88710 5.96792 5.45435
#
# Compressibility (1/GPa) = 0.05018281
#
# Stress axis : x y z
#
# Youngs Moduli (GPa) = 88.89498 65.21921 27.15486
#
# Poissons Ratio (x) = 0.34645 -0.09063
# Poissons Ratio (y) = 0.47221 0.12594
# Poissons Ratio (z) = -0.29668 0.30249
#
# Static dielectric constant tensor:
#      x y z
#    x 1.915450 0.000000 0.067870 
#    y 0.000000 1.762520 0.000000 
#    z 0.067870 0.000000 1.856300 
# 
# From -- ./inp_files/73184.got.cif
#   From: 2010.05.17/outbox.cif.g08.bks.cpg/sg11_37_cif.got.tgz:73184.got - 2010.06.03 12:22:45.
