data_PCOD9164312
_publ_section_title
;
Structure prediction by ZEFSAII (Michael W. Deem and Ramdas Pophale) SiO2 
 PCOD9164312
Probable space group: P 21/M
;
_chemical_formula_sum "Si O2"
_cell_formula_units_Z 32
_cell_length_a 19.410165
_cell_length_b 14.144640
_cell_length_c 5.458662
_cell_angle_alpha 90.000000
_cell_angle_beta 87.035838
_cell_angle_gamma 90.000000
_cell_volume 1496.669426
_symmetry_space_group_name_H-M "P 21/M"
_symmetry_group_IT_number 11
_symmetry_cell_setting 'monoclinic'
loop_
_space_group_symop_operation_xyz
x,y,z
-x,1/2+y,-z
-x,-y,-z
x,1/2-y,z
loop_
_atom_site_type_symbol
_atom_site_label
_atom_site_fract_x
_atom_site_fract_y
_atom_site_fract_z
Si Si1 0.174002 0.857232 0.888824
Si Si2 0.068178 0.520838 0.209020
Si Si3 0.047353 0.361636 0.835645
Si Si4 0.550833 0.650350 0.491883
Si Si5 0.683515 0.088642 0.920570
Si Si6 0.474676 0.890926 0.005190
Si Si7 0.825444 0.546630 0.423569
Si Si8 0.319778 0.478255 0.577340
O O1 0.162636 0.750000 0.801390
O O2 0.245335 0.857676 0.031564
O O3 0.182839 0.941537 0.691408
O O4 0.108072 0.897456 0.046627
O O5 0.130871 0.475310 0.345768
O O6 0.006214 0.583565 0.335761
O O7 0.038004 0.428526 0.075139
O O8 0.036049 0.250000 0.860392
O O9 0.125246 0.385527 0.741268
O O10 0.589513 0.750000 0.488019
O O11 0.504705 0.645375 0.743005
O O12 0.606754 0.568456 0.480642
O O13 0.507062 0.646129 0.251570
O O14 0.606933 0.129640 0.972017
O O15 0.683008 0.008783 0.136889
O O16 0.685896 0.056151 0.637671
O O17 0.500000 0.000000 0.000000
O O18 0.748255 0.584271 0.461001
#
# Coordination Sequence:
#
# PCOD9164312 Si02
#       8
#     4   4   4   4   4   4   4   4
#     4  10  22  38  59  92 126 163 212 264 323 388
#     4  10  20  41  63  88 127 168 206 263 323 389
#     4  10  22  38  62  94 125 163 213 265 319 384
#     4  12  25  40  62  97 127 162 220 277 325 385
#     4  11  22  39  65  91 121 171 220 258 325 395
#     4  12  22  41  68  88 125 175 214 261 329 395
#     4  10  22  39  63  89 126 166 211 261 323 387
#     4  11  21  41  65  89 126 170 213 265 324 393
#
# _framework density 21.380804999999999
#
# number of rings (size 3 to 8) (size 9 to 14) (size 15 to 20)
#    0.000    1.250    3.750    2.250    0.000    3.000 
#    0.000    0.000    0.000    0.000    0.000    0.000 
#    0.000    0.000    0.000    0.000    0.000    0.000 
#
# Total GULP energy -178200.721483 kJ/mol
# GULP energy per Si atom -5568.772546 kJ/mol
# Density = 2.133214 g / cm^3
# Si number density = 21.380805 Si / 1000 Ang^3
#
#
#
# Elastic Constant Matrix: (Units=GPa)
#
#
# Indices 1 2 3 4 5 6 
#
# 1 144.7777 14.1542 19.2506 0.0000 -0.2735 0.0000
# 2 14.1542 116.2399 15.4228 0.0000 7.4610 0.0000
# 3 19.2506 15.4228 72.9396 0.0000 3.9662 0.0000
# 4 0.0000 0.0000 0.0000 28.3653 0.0000 5.7310
# 5 -0.2735 7.4610 3.9662 0.0000 34.1971 0.0000
# 6 0.0000 0.0000 0.0000 5.7310 0.0000 11.4831
#
#
#
# Elastic Compliance Matrix: (Units=1/GPa)
#
#
# Indices 1 2 3 4 5 6 
#
# 1 0.007210 -0.000668 -0.001784 0.000000 0.000410 0.000000
# 2 -0.000668 0.009015 -0.001633 0.000000 -0.001783 0.000000
# 3 -0.001784 -0.001633 0.014600 0.000000 -0.001351 0.000000
# 4 0.000000 0.000000 0.000000 0.039208 0.000000 -0.019568
# 5 0.000410 -0.001783 -0.001351 0.000000 0.029791 0.000000
# 6 0.000000 0.000000 0.000000 -0.019568 0.000000 0.096850
#
#
# Mechanical properties :
#
#
# Convention : Reuss Voigt Hill
#
# Bulk Modulus (GPa) = 44.13913 47.95693 46.04803
# Shear Modulus (GPa) = 23.54087 33.81774 28.67930
#
# Velocity S-wave (km/s) = 3.32177 3.98136 3.66643
# Velocity P-wave (km/s) = 5.94990 6.60405 6.28549
#
# Compressibility (1/GPa) = 0.02265564
#
# Stress axis : x y z
#
# Youngs Moduli (GPa) = 138.68823 110.92249 68.49481
#
# Poissons Ratio (x) = 0.07405 0.12221
# Poissons Ratio (y) = 0.09259 0.11186
# Poissons Ratio (z) = 0.24744 0.18115
#
# Static dielectric constant tensor:
#      x y z
#    x 1.850320 0.000000 0.009940 
#    y 0.000000 1.783540 0.000000 
#    z 0.009940 0.000000 1.836170 
# 
# From -- ./inp_files/8109.got.cif
#   From: 2010.05.17/outbox.cif.g08.bks.cpg/sg11_5_cif.got.tgz:8109.got - 2010.06.03 12:22:45.
