data_PCOD9164538
_publ_section_title
;
Structure prediction by ZEFSAII (Michael W. Deem and Ramdas Pophale) SiO2 
 PCOD9164538
Probable space group: P 21/M
;
_chemical_formula_sum "Si O2"
_cell_formula_units_Z 28
_cell_length_a 11.259432
_cell_length_b 9.177604
_cell_length_c 14.647494
_cell_angle_alpha 90.000000
_cell_angle_beta 64.456578
_cell_angle_gamma 90.000000
_cell_volume 1365.652590
_symmetry_space_group_name_H-M "P 21/M"
_symmetry_group_IT_number 11
_symmetry_cell_setting 'monoclinic'
loop_
_space_group_symop_operation_xyz
x,y,z
-x,1/2+y,-z
-x,-y,-z
x,1/2-y,z
loop_
_atom_site_type_symbol
_atom_site_label
_atom_site_fract_x
_atom_site_fract_y
_atom_site_fract_z
Si Si1 0.160859 0.480448 0.548858
Si Si2 0.449908 0.088751 0.430422
Si Si3 0.601665 0.424831 0.036128
Si Si4 0.604618 0.574326 0.231978
Si Si5 0.863057 0.405928 0.647679
Si Si6 0.147219 0.917885 0.755255
Si Si7 0.128949 0.925698 0.159730
O O1 0.296086 0.395864 0.500110
O O2 0.158126 0.546694 0.448362
O O3 0.165984 0.577437 0.638693
O O4 0.021816 0.400435 0.603698
O O5 0.510356 0.250000 0.401990
O O6 0.500000 0.000000 0.500000
O O7 0.485587 0.992610 0.331031
O O8 0.577274 0.250000 0.052082
O O9 0.593824 0.506318 0.135274
O O10 0.500000 0.500000 0.000000
O O11 0.749794 0.444215 0.948322
O O12 0.604172 0.750000 0.232259
O O13 0.736905 0.511665 0.236724
O O14 0.796476 0.250000 0.677403
O O15 0.826620 0.485050 0.754140
O O16 0.150813 0.750000 0.784894
O O17 0.005383 0.991910 0.821560
O O18 0.102746 0.750000 0.175433
#
# Coordination Sequence:
#
# PCOD9164538 Si02
#       7
#     4   4   4   4   4   4   4
#     4  10  21  35  59  91 132 172 212 259 315 379
#     4  12  25  41  64  95 132 174 217 264 320 388
#     4  11  25  47  71  98 131 168 215 270 326 391
#     4  12  27  45  67  93 128 174 220 271 328 385
#     4   9  18  35  59  90 126 168 211 255 311 378
#     4  11  22  39  65  97 132 167 214 271 323 386
#     4   9  21  41  66  94 127 169 214 266 325 385
#
# _framework density 20.503015999999999
#
# number of rings (size 3 to 8) (size 9 to 14) (size 15 to 20)
#    0.000    1.429    1.429    3.429    2.000    4.571 
#    0.000    0.714    0.000    0.000    0.000    0.000 
#    0.000    0.000    0.000    0.000    0.000    0.000 
#
# Total GULP energy -156118.548524 kJ/mol
# GULP energy per Si atom -5575.662447 kJ/mol
# Density = 2.045635 g / cm^3
# Si number density = 20.503016 Si / 1000 Ang^3
#
#
#
# Elastic Constant Matrix: (Units=GPa)
#
#
# Indices 1 2 3 4 5 6 
#
# 1 83.7971 43.4381 35.2544 0.0000 5.1452 0.0000
# 2 43.4381 151.8387 56.5636 0.0000 2.4479 0.0000
# 3 35.2544 56.5636 132.2113 0.0000 6.1110 0.0000
# 4 0.0000 0.0000 0.0000 160.7475 0.0000 17.9748
# 5 5.1452 2.4479 6.1110 0.0000 38.7399 0.0000
# 6 0.0000 0.0000 0.0000 17.9748 0.0000 13.9161
#
#
#
# Elastic Compliance Matrix: (Units=1/GPa)
#
#
# Indices 1 2 3 4 5 6 
#
# 1 0.014756 -0.003280 -0.002469 0.000000 -0.001363 0.000000
# 2 -0.003280 0.008564 -0.002805 0.000000 0.000337 0.000000
# 3 -0.002469 -0.002805 0.009468 0.000000 -0.000988 0.000000
# 4 0.000000 0.000000 0.000000 0.007271 0.000000 -0.009392
# 5 -0.001363 0.000337 -0.000988 0.000000 0.026129 0.000000
# 6 0.000000 0.000000 0.000000 -0.009392 0.000000 0.083990
#
#
# Mechanical properties :
#
#
# Convention : Reuss Voigt Hill
#
# Bulk Modulus (GPa) = 63.77167 70.92881 67.35024
# Shear Modulus (GPa) = 28.98372 58.18676 43.58524
#
# Velocity S-wave (km/s) = 3.76391 5.33303 4.61564
# Velocity P-wave (km/s) = 7.07534 8.52004 7.83108
#
# Compressibility (1/GPa) = 0.01568095
#
# Stress axis : x y z
#
# Youngs Moduli (GPa) = 67.76907 116.77275 105.62428
#
# Poissons Ratio (x) = 0.38300 0.26073
# Poissons Ratio (y) = 0.22227 0.29625
# Poissons Ratio (z) = 0.16729 0.32752
#
# Static dielectric constant tensor:
#      x y z
#    x 1.760640 0.000000 0.029380 
#    y 0.000000 1.736240 0.000000 
#    z 0.029380 0.000000 1.737510 
# 
# From -- ./inp_files/49123.got.cif
#   From: 2010.05.17/outbox.cif.g08.bks.cpg/sg11_25_cif.got.tgz:49123.got - 2010.06.03 12:22:45.
