data_PCOD9164662
_publ_section_title
;
Structure prediction by ZEFSAII (Michael W. Deem and Ramdas Pophale) SiO2 
 PCOD9164662
Probable space group: P 21/M
;
_chemical_formula_sum "Si O2"
_cell_formula_units_Z 20
_cell_length_a 7.250566
_cell_length_b 18.122345
_cell_length_c 8.460958
_cell_angle_alpha 90.000000
_cell_angle_beta 123.239637
_cell_angle_gamma 90.000000
_cell_volume 929.848597
_symmetry_space_group_name_H-M "P 21/M"
_symmetry_group_IT_number 11
_symmetry_cell_setting 'monoclinic'
loop_
_space_group_symop_operation_xyz
x,y,z
-x,1/2+y,-z
-x,-y,-z
x,1/2-y,z
loop_
_atom_site_type_symbol
_atom_site_label
_atom_site_fract_x
_atom_site_fract_y
_atom_site_fract_z
Si Si1 0.216652 0.668473 0.126431
Si Si2 0.740566 0.670439 0.320534
Si Si3 0.187748 0.518525 0.218999
Si Si4 0.625660 0.507666 0.224026
Si Si5 0.968208 0.106234 0.294021
O O1 0.129039 0.750000 0.116007
O O2 0.481270 0.672492 0.242131
O O3 0.161263 0.606150 0.229185
O O4 0.131756 0.639644 0.915034
O O5 0.781371 0.750000 0.255922
O O6 0.754574 0.585593 0.266188
O O7 0.901875 0.666364 0.546014
O O8 0.432152 0.507941 0.263004
O O9 0.138314 0.459888 0.330696
O O10 0.000000 0.500000 0.000000
O O11 0.781267 0.436412 0.305081
O O12 0.500000 0.500000 0.000000
#
# Coordination Sequence:
#
# PCOD9164662 Si02
#       5
#     4   4   4   4   4
#     4   9  18  33  53  80 111 142 182 229 277 328
#     4  10  21  36  57  84 113 148 186 231 286 331
#     4   9  18  33  57  82 108 143 190 224 273 330
#     4  11  19  36  59  85 113 146 191 231 273 335
#     4  11  20  36  61  79 110 150 189 228 278 334
#
# _framework density 21.508876000000001
#
# number of rings (size 3 to 8) (size 9 to 14) (size 15 to 20)
#    0.000    2.000    6.000    1.200    0.000    3.200 
#    0.000    1.000    0.000   16.800    0.000    0.000 
#    0.000    0.000    0.000    0.000    0.000    0.000 
#
# Total GULP energy -111429.283313 kJ/mol
# GULP energy per Si atom -5571.464166 kJ/mol
# Density = 2.145992 g / cm^3
# Si number density = 21.508876 Si / 1000 Ang^3
#
#
#
# Elastic Constant Matrix: (Units=GPa)
#
#
# Indices 1 2 3 4 5 6 
#
# 1 81.6024 33.4853 17.3558 0.0000 19.4160 0.0000
# 2 33.4853 173.0483 27.5764 0.0000 6.5879 0.0000
# 3 17.3558 27.5764 95.3061 0.0000 23.6612 0.0000
# 4 0.0000 0.0000 0.0000 -13.8266 0.0000 -30.6108
# 5 19.4160 6.5879 23.6612 0.0000 17.3154 0.0000
# 6 0.0000 0.0000 0.0000 -30.6108 0.0000 -3.1996
#
#
#
# Elastic Compliance Matrix: (Units=1/GPa)
#
#
# Indices 1 2 3 4 5 6 
#
# 1 0.018703 -0.003264 0.003688 0.000000 -0.024770 0.000000
# 2 -0.003264 0.006628 -0.002430 0.000000 0.004459 0.000000
# 3 0.003688 -0.002430 0.017134 0.000000 -0.026624 0.000000
# 4 0.000000 0.000000 0.000000 0.003584 0.000000 -0.034287
# 5 -0.024770 0.004459 -0.026624 0.000000 0.120211 0.000000
# 6 0.000000 0.000000 0.000000 -0.034287 0.000000 0.015487
#
#
# Mechanical properties :
#
#
# Convention : Reuss Voigt Hill
#
# Bulk Modulus (GPa) = 26.00638 56.31020 41.15829
# Shear Modulus (GPa) = 25.17910 18.16044 21.66977
#
# Velocity S-wave (km/s) = 3.42517 2.90888 3.17753
# Velocity P-wave (km/s) = 5.26874 6.12527 5.71308
#
# Compressibility (1/GPa) = 0.03845211
#
# Stress axis : x y z
#
# Youngs Moduli (GPa) = 53.46726 150.87876 58.36356
#
# Poissons Ratio (x) = 0.49244 -0.21524
# Poissons Ratio (y) = 0.17451 0.14185
# Poissons Ratio (z) = -0.19718 0.36671
#
# Static dielectric constant tensor:
#      x y z
#    x 1.793200 0.000000 -0.005320 
#    y 0.000000 1.834080 0.000000 
#    z -0.005320 0.000000 1.796710 
# 
# From -- ./inp_files/12906.got.cif
#   From: 2010.05.17/outbox.cif.g08.bks.cpg/sg11_7_cif.got.tgz:12906.got - 2010.06.03 12:22:45.
