data_PCOD9164888
_publ_section_title
;
Structure prediction by ZEFSAII (Michael W. Deem and Ramdas Pophale) SiO2 
 PCOD9164888
Probable space group: P 21/M
;
_chemical_formula_sum "Si O2"
_cell_formula_units_Z 28
_cell_length_a 24.526558
_cell_length_b 8.458795
_cell_length_c 8.115007
_cell_angle_alpha 90.000000
_cell_angle_beta 43.082962
_cell_angle_gamma 90.000000
_cell_volume 1149.981107
_symmetry_space_group_name_H-M "P 21/M"
_symmetry_group_IT_number 11
_symmetry_cell_setting 'monoclinic'
loop_
_space_group_symop_operation_xyz
x,y,z
-x,1/2+y,-z
-x,-y,-z
x,1/2-y,z
loop_
_atom_site_type_symbol
_atom_site_label
_atom_site_fract_x
_atom_site_fract_y
_atom_site_fract_z
Si Si1 0.467971 0.568141 0.836883
Si Si2 0.907612 0.064415 0.029737
Si Si3 0.384963 0.064829 0.703065
Si Si4 0.950931 0.064604 0.454164
Si Si5 0.803363 0.062806 0.591751
Si Si6 0.754438 0.434474 0.178348
Si Si7 0.669438 0.569432 0.676383
O O1 0.461635 0.750000 0.901335
O O2 0.558088 0.533748 0.581710
O O3 0.419564 0.540935 0.772705
O O4 0.421365 0.462837 0.071345
O O5 0.925513 0.250000 0.963878
O O6 0.860546 0.051595 0.304331
O O7 0.842898 0.012513 0.034201
O O8 0.988216 0.968278 0.830628
O O9 0.394477 0.250000 0.724510
O O10 0.295467 0.024736 0.849109
O O11 0.940692 0.250000 0.498401
O O12 0.862409 0.003991 0.605424
O O13 0.000000 0.000000 0.500000
O O14 0.783331 0.250000 0.657913
O O15 0.725271 0.965966 0.712615
O O16 0.757881 0.250000 0.128532
O O17 0.703750 0.457079 0.459071
O O18 0.679850 0.750000 0.599564
#
# Coordination Sequence:
#
# PCOD9164888 Si02
#       7
#     4   4   4   4   4   4   4
#     4  10  21  38  58  80 112 151 185 225 281 336
#     4   9  19  37  59  81 107 141 181 223 271 328
#     4  10  21  37  58  84 111 144 189 233 273 326
#     4  11  23  37  56  82 112 145 181 224 271 322
#     4   9  20  39  59  80 109 145 182 222 276 335
#     4  10  21  38  59  83 114 150 183 223 279 334
#     4  11  22  36  58  86 112 142 186 236 276 321
#
# _framework density 24.348224999999999
#
# number of rings (size 3 to 8) (size 9 to 14) (size 15 to 20)
#    0.000    2.000    0.000    4.286    0.000    7.429 
#    0.000    1.429    0.000    0.000    0.000    0.000 
#    0.000    0.000    0.000    0.000    0.000    0.000 
#
# Total GULP energy -156704.048544 kJ/mol
# GULP energy per Si atom -5596.573162 kJ/mol
# Density = 2.429281 g / cm^3
# Si number density = 24.348225 Si / 1000 Ang^3
#
#
#
# Elastic Constant Matrix: (Units=GPa)
#
#
# Indices 1 2 3 4 5 6 
#
# 1 117.1215 11.3378 4.3924 0.0000 -22.0257 0.0000
# 2 11.3378 33.9709 12.6157 0.0000 -12.2456 0.0000
# 3 4.3924 12.6157 86.1532 0.0000 -15.8922 0.0000
# 4 0.0000 0.0000 0.0000 27.0882 0.0000 -2.5444
# 5 -22.0257 -12.2456 -15.8922 0.0000 46.1275 0.0000
# 6 0.0000 0.0000 0.0000 -2.5444 0.0000 27.4430
#
#
#
# Elastic Compliance Matrix: (Units=1/GPa)
#
#
# Indices 1 2 3 4 5 6 
#
# 1 0.009493 -0.001852 0.000569 0.000000 0.004237 0.000000
# 2 -0.001852 0.033867 -0.003598 0.000000 0.006867 0.000000
# 3 0.000569 -0.003598 0.012792 0.000000 0.003724 0.000000
# 4 0.000000 0.000000 0.000000 0.037241 0.000000 0.003453
# 5 0.004237 0.006867 0.003724 0.000000 0.026808 0.000000
# 6 0.000000 0.000000 0.000000 0.003453 0.000000 0.036759
#
#
# Mechanical properties :
#
#
# Convention : Reuss Voigt Hill
#
# Bulk Modulus (GPa) = 21.55702 32.65970 27.10836
# Shear Modulus (GPa) = 27.44459 34.05839 30.75149
#
# Velocity S-wave (km/s) = 3.36098 3.74412 3.55771
# Velocity P-wave (km/s) = 4.89228 5.66868 5.29473
#
# Compressibility (1/GPa) = 0.04638859
#
# Stress axis : x y z
#
# Youngs Moduli (GPa) = 105.34148 29.52766 78.17398
#
# Poissons Ratio (x) = 0.05469 -0.04447
# Poissons Ratio (y) = 0.19511 0.28128
# Poissons Ratio (z) = -0.05992 0.10624
#
# Static dielectric constant tensor:
#      x y z
#    x 2.010440 0.000000 0.062490 
#    y 0.000000 1.823210 0.000000 
#    z 0.062490 0.000000 2.000620 
# 
# From -- ./inp_files/28442.got.cif
#   From: 2010.05.17/outbox.cif.g08.bks.cpg/sg11_15_cif.got.tgz:28442.got - 2010.06.03 12:22:45.
