data_PCOD9164380
_publ_section_title
;
Structure prediction by ZEFSAII (Michael W. Deem and Ramdas Pophale) SiO2 
 PCOD9164380
Probable space group: P 21/M
;
_chemical_formula_sum "Si O2"
_cell_formula_units_Z 32
_cell_length_a 14.815474
_cell_length_b 13.961796
_cell_length_c 9.774807
_cell_angle_alpha 90.000000
_cell_angle_beta 121.496934
_cell_angle_gamma 90.000000
_cell_volume 1724.030946
_symmetry_space_group_name_H-M "P 21/M"
_symmetry_group_IT_number 11
_symmetry_cell_setting 'monoclinic'
loop_
_space_group_symop_operation_xyz
x,y,z
-x,1/2+y,-z
-x,-y,-z
x,1/2-y,z
loop_
_atom_site_type_symbol
_atom_site_label
_atom_site_fract_x
_atom_site_fract_y
_atom_site_fract_z
Si Si1 0.077055 0.861730 0.035599
Si Si2 0.232412 0.049313 0.569409
Si Si3 0.779556 0.357609 0.121330
Si Si4 0.153905 0.055183 0.213712
Si Si5 0.852271 0.357281 0.479139
Si Si6 0.380254 0.029456 0.927645
Si Si7 0.088324 0.363014 0.678583
Si Si8 0.736077 0.638210 0.951313
O O1 0.082842 0.750000 0.084965
O O2 0.148647 0.872770 0.955286
O O3 0.955264 0.887755 0.903711
O O4 0.121182 0.942996 0.173342
O O5 0.205665 0.086694 0.398246
O O6 0.331080 0.071720 0.746764
O O7 0.134002 0.077652 0.588743
O O8 0.233629 0.934999 0.549764
O O9 0.732829 0.250000 0.075123
O O10 0.853451 0.357736 0.314409
O O11 0.692120 0.438685 0.081717
O O12 0.238300 0.078812 0.162740
O O13 0.828573 0.250000 0.506085
O O14 0.968547 0.386884 0.618488
O O15 0.362820 0.104409 0.036501
O O16 0.500000 0.000000 0.000000
O O17 0.091571 0.250000 0.645937
O O18 0.164219 0.377891 0.867579
O O19 0.730315 0.750000 0.914259
#
# Coordination Sequence:
#
# PCOD9164380 Si02
#       8
#     4   4   4   4   4   4   4   4
#     4  10  21  34  53  81 119 157 185 212 261 334
#     4  10  21  33  52  79 108 140 178 232 274 324
#     4   9  17  33  55  80 107 140 181 229 276 326
#     4  11  22  34  54  84 117 154 182 215 268 332
#     4   9  17  28  48  76 107 140 177 220 268 319
#     4  10  21  40  61  82 103 139 189 244 289 330
#     4   9  18  31  50  74 105 143 180 217 263 322
#     4  10  21  37  56  81 113 149 186 225 271 329
#
# _framework density 18.561152
#
# number of rings (size 3 to 8) (size 9 to 14) (size 15 to 20)
#    0.000    2.250    1.250    1.500    3.500    3.000 
#    0.000    0.625    0.000    0.000    0.000    0.000 
#    0.000    0.000    0.000    0.000    0.000    0.000 
#
# Total GULP energy -178431.175485 kJ/mol
# GULP energy per Si atom -5575.974234 kJ/mol
# Density = 1.851891 g / cm^3
# Si number density = 18.561152 Si / 1000 Ang^3
#
#
#
# Elastic Constant Matrix: (Units=GPa)
#
#
# Indices 1 2 3 4 5 6 
#
# 1 66.9197 17.5355 29.8639 0.0000 -3.4731 0.0000
# 2 17.5355 70.3265 15.7082 0.0000 -7.0492 0.0000
# 3 29.8639 15.7082 61.8070 0.0000 -21.9098 0.0000
# 4 0.0000 0.0000 0.0000 15.0239 0.0000 0.3156
# 5 -3.4731 -7.0492 -21.9098 0.0000 19.5287 0.0000
# 6 0.0000 0.0000 0.0000 0.3156 0.0000 17.7826
#
#
#
# Elastic Compliance Matrix: (Units=1/GPa)
#
#
# Indices 1 2 3 4 5 6 
#
# 1 0.021546 -0.003531 -0.014290 0.000000 -0.013475 0.000000
# 2 -0.003531 0.015696 -0.000825 0.000000 0.004112 0.000000
# 3 -0.014290 -0.000825 0.037004 0.000000 0.038676 0.000000
# 4 0.000000 0.000000 0.000000 0.066586 0.000000 -0.001182
# 5 -0.013475 0.004112 0.038676 0.000000 0.093686 0.000000
# 6 0.000000 0.000000 0.000000 -0.001182 0.000000 0.056256
#
#
# Mechanical properties :
#
#
# Convention : Reuss Voigt Hill
#
# Bulk Modulus (GPa) = 27.06110 36.14093 31.60102
# Shear Modulus (GPa) = 14.68921 19.53009 17.10965
#
# Velocity S-wave (km/s) = 2.81623 3.24729 3.03941
# Velocity P-wave (km/s) = 5.01856 5.79425 5.42030
#
# Compressibility (1/GPa) = 0.03695341
#
# Stress axis : x y z
#
# Youngs Moduli (GPa) = 46.41143 63.70888 27.02401
#
# Poissons Ratio (x) = 0.22498 0.38617
# Poissons Ratio (y) = 0.16389 0.02231
# Poissons Ratio (z) = 0.66322 0.05259
#
# Static dielectric constant tensor:
#      x y z
#    x 1.603430 0.000000 -0.016640 
#    y 0.000000 1.700630 0.000000 
#    z -0.016640 0.000000 1.661010 
# 
# From -- ./inp_files/18085.got.cif
#   From: 2010.05.17/outbox.cif.g08.bks.cpg/sg11_10_cif.got.tgz:18085.got - 2010.06.03 12:22:45.
