data_PCOD9164282
_publ_section_title
;
Structure prediction by ZEFSAII (Michael W. Deem and Ramdas Pophale) SiO2 
 PCOD9164282
Probable space group: P 21/M
;
_chemical_formula_sum "Si O2"
_cell_formula_units_Z 26
_cell_length_a 7.707824
_cell_length_b 15.253242
_cell_length_c 12.782058
_cell_angle_alpha 90.000000
_cell_angle_beta 44.690097
_cell_angle_gamma 90.000000
_cell_volume 1056.861215
_symmetry_space_group_name_H-M "P 21/M"
_symmetry_group_IT_number 11
_symmetry_cell_setting 'monoclinic'
loop_
_space_group_symop_operation_xyz
x,y,z
-x,1/2+y,-z
-x,-y,-z
x,1/2-y,z
loop_
_atom_site_type_symbol
_atom_site_label
_atom_site_fract_x
_atom_site_fract_y
_atom_site_fract_z
Si Si1 0.067554 0.250000 0.921318
Si Si2 0.484417 0.648642 0.052960
Si Si3 0.978581 0.152916 0.249138
Si Si4 0.852668 0.012293 0.457016
Si Si5 0.567416 0.911998 0.232566
Si Si6 0.344827 0.598392 0.886433
Si Si7 0.415231 0.152738 0.412772
O O1 0.271637 0.327860 0.811851
O O2 0.861428 0.172584 0.033563
O O3 0.401364 0.750000 0.075735
O O4 0.408071 0.596312 0.982538
O O5 0.785356 0.651772 0.928578
O O6 0.406239 0.610882 0.197622
O O7 0.992552 0.250000 0.294204
O O8 0.703949 0.146214 0.320098
O O9 0.001696 0.069473 0.312144
O O10 0.754442 0.919044 0.460196
O O11 0.607756 0.065170 0.595936
O O12 0.000000 0.000000 0.500000
O O13 0.705905 0.002037 0.139275
O O14 0.572294 0.632499 0.716986
O O15 0.326920 0.250000 0.471732
#
# Coordination Sequence:
#
# PCOD9164282 Si02
#       7
#     2   4   4   4   4   4   4
#     4  12  22  40  62  92 138 164 216 264 334 388
#     4  11  21  41  69 101 132 174 219 274 327 395
#     4  10  22  38  69  95 131 172 214 266 330 393
#     4  11  25  44  66  94 132 176 220 274 330 393
#     4  11  25  41  67  97 133 174 218 275 337 388
#     4  11  22  39  66  98 133 170 218 270 335 396
#     4  10  20  40  66  96 124 171 224 269 323 396
#
# _framework density 24.601147000000001
#
# number of rings (size 3 to 8) (size 9 to 14) (size 15 to 20)
#    0.000    1.231    2.308    4.154    3.231    3.077 
#    0.000    1.538    0.000    0.000    0.000    0.000 
#    0.000    0.000    0.000    0.000    0.000    0.000 
#
# Total GULP energy -144979.842880 kJ/mol
# GULP energy per Si atom -5576.147803 kJ/mol
# Density = 2.454515 g / cm^3
# Si number density = 24.601147 Si / 1000 Ang^3
#
#
#
# Elastic Constant Matrix: (Units=GPa)
#
#
# Indices 1 2 3 4 5 6 
#
# 1 38.9307 14.1736 -1.7335 0.0000 -3.9419 0.0000
# 2 14.1736 194.6063 35.5061 0.0000 -13.7757 0.0000
# 3 -1.7335 35.5061 32.6243 0.0000 -1.7930 0.0000
# 4 0.0000 0.0000 0.0000 9.8175 0.0000 -16.2916
# 5 -3.9419 -13.7757 -1.7930 0.0000 29.9344 0.0000
# 6 0.0000 0.0000 0.0000 -16.2916 0.0000 24.2574
#
#
#
# Elastic Compliance Matrix: (Units=1/GPa)
#
#
# Indices 1 2 3 4 5 6 
#
# 1 0.027093 -0.002590 0.004403 0.000000 0.002640 0.000000
# 2 -0.002590 0.006858 -0.007471 0.000000 0.002367 0.000000
# 3 0.004403 -0.007471 0.038988 0.000000 -0.000523 0.000000
# 4 0.000000 0.000000 0.000000 -0.889625 0.000000 -0.597482
# 5 0.002640 0.002367 -0.000523 0.000000 0.034812 0.000000
# 6 0.000000 0.000000 0.000000 -0.597482 0.000000 -0.360051
#
#
# Mechanical properties :
#
#
# Convention : Reuss Voigt Hill
#
# Bulk Modulus (GPa) = 16.22756 40.22818 28.22787
# Shear Modulus (GPa) = -4.50423 27.34953 11.42265
#
# Velocity S-wave (km/s) = -1.35458 3.33786 2.15713
# Velocity P-wave (km/s) = 2.04061 5.58952 4.20754
#
# Compressibility (1/GPa) = 0.06162355
#
# Stress axis : x y z
#
# Youngs Moduli (GPa) = 36.91008 145.81724 25.64871
#
# Poissons Ratio (x) = 0.37763 -0.11293
# Poissons Ratio (y) = 0.09559 0.19163
# Poissons Ratio (z) = -0.16252 1.08942
#
# Static dielectric constant tensor:
#      x y z
#    x 2.039850 0.000000 0.027790 
#    y 0.000000 1.928130 0.000000 
#    z 0.027790 0.000000 1.896220 
# 
# From -- ./inp_files/22408.got.cif
#   From: 2010.05.17/outbox.cif.g08.bks.cpg/sg11_12_cif.got.tgz:22408.got - 2010.06.03 12:22:45.
