data_PCOD9164525
_publ_section_title
;
Structure prediction by ZEFSAII (Michael W. Deem and Ramdas Pophale) SiO2 
 PCOD9164525
Probable space group: P 21/M
;
_chemical_formula_sum "Si O2"
_cell_formula_units_Z 32
_cell_length_a 12.162007
_cell_length_b 13.660704
_cell_length_c 17.543984
_cell_angle_alpha 90.000000
_cell_angle_beta 31.666453
_cell_angle_gamma 90.000000
_cell_volume 1530.184705
_symmetry_space_group_name_H-M "P 21/M"
_symmetry_group_IT_number 11
_symmetry_cell_setting 'monoclinic'
loop_
_space_group_symop_operation_xyz
x,y,z
-x,1/2+y,-z
-x,-y,-z
x,1/2-y,z
loop_
_atom_site_type_symbol
_atom_site_label
_atom_site_fract_x
_atom_site_fract_y
_atom_site_fract_z
Si Si1 0.996425 0.946116 0.253674
Si Si2 0.292798 0.858053 0.947652
Si Si3 0.332966 0.007698 0.327144
Si Si4 0.494408 0.357713 0.654888
Si Si5 0.462709 0.363000 0.493368
Si Si6 0.942565 0.368602 0.614775
Si Si7 0.082973 0.861313 0.779808
Si Si8 0.033889 0.385629 0.985224
O O1 0.750986 0.918051 0.396110
O O2 0.076843 0.908347 0.287288
O O3 0.127103 0.893670 0.109267
O O4 0.003552 0.061606 0.229827
O O5 0.375042 0.750000 0.919753
O O6 0.163221 0.848021 0.945743
O O7 0.473983 0.937072 0.826672
O O8 0.404834 0.946591 0.358740
O O9 0.229985 0.926148 0.333116
O O10 0.162916 0.089219 0.452239
O O11 0.581151 0.250000 0.625427
O O12 0.510896 0.368285 0.554826
O O13 0.248417 0.357603 0.818495
O O14 0.427238 0.250000 0.492006
O O15 0.685072 0.395279 0.327939
O O16 0.931760 0.250000 0.618198
O O17 0.101583 0.750000 0.739754
O O18 0.951553 0.859442 0.934806
O O19 0.000000 0.500000 0.000000
#
# Coordination Sequence:
#
# PCOD9164525 Si02
#       8
#     4   4   4   4   4   4   4   4
#     4  12  23  41  64  91 131 167 213 261 320 383
#     4  12  24  40  64  95 131 171 214 261 321 385
#     4  11  25  44  67  95 125 165 219 272 319 372
#     4  11  20  37  63  93 131 171 211 257 319 385
#     4  10  21  35  57  91 127 168 208 254 318 382
#     4  11  26  48  70  94 125 168 218 269 323 377
#     4  11  23  37  57  91 132 173 215 258 317 379
#     4  12  21  38  59  95 137 176 209 262 316 383
#
# _framework density 20.912509
#
# number of rings (size 3 to 8) (size 9 to 14) (size 15 to 20)
#    0.000    0.750    3.750    4.125    1.750    0.500 
#    0.000    3.750    0.000    0.000    0.000    0.000 
#    0.000    0.000    0.000    0.000    0.000    0.000 
#
# Total GULP energy -178881.998407 kJ/mol
# GULP energy per Si atom -5590.062450 kJ/mol
# Density = 2.086491 g / cm^3
# Si number density = 20.912509 Si / 1000 Ang^3
#
#
#
# Elastic Constant Matrix: (Units=GPa)
#
#
# Indices 1 2 3 4 5 6 
#
# 1 76.5863 40.5701 15.8580 0.0000 2.3563 0.0000
# 2 40.5701 155.2802 19.5349 0.0000 -2.7382 0.0000
# 3 15.8580 19.5349 64.8385 0.0000 3.9479 0.0000
# 4 0.0000 0.0000 0.0000 22.6940 0.0000 -15.3438
# 5 2.3563 -2.7382 3.9479 0.0000 27.2325 0.0000
# 6 0.0000 0.0000 0.0000 -15.3438 0.0000 36.1146
#
#
#
# Elastic Compliance Matrix: (Units=1/GPa)
#
#
# Indices 1 2 3 4 5 6 
#
# 1 0.015642 -0.003783 -0.002603 0.000000 -0.001356 0.000000
# 2 -0.003783 0.007634 -0.001454 0.000000 0.001306 0.000000
# 3 -0.002603 -0.001454 0.016640 0.000000 -0.002333 0.000000
# 4 0.000000 0.000000 0.000000 0.061824 0.000000 0.026267
# 5 -0.001356 0.001306 -0.002333 0.000000 0.037308 0.000000
# 6 0.000000 0.000000 0.000000 0.026267 0.000000 0.038849
#
#
# Mechanical properties :
#
#
# Convention : Reuss Voigt Hill
#
# Bulk Modulus (GPa) = 41.26323 49.84787 45.55555
# Shear Modulus (GPa) = 24.79456 31.92435 28.35946
#
# Velocity S-wave (km/s) = 3.44704 3.91137 3.68652
# Velocity P-wave (km/s) = 5.96799 6.65481 6.32074
#
# Compressibility (1/GPa) = 0.02423465
#
# Stress axis : x y z
#
# Youngs Moduli (GPa) = 63.93037 130.98596 60.09665
#
# Poissons Ratio (x) = 0.49555 0.15645
# Poissons Ratio (y) = 0.24186 0.08740
# Poissons Ratio (z) = 0.16643 0.19050
#
# Static dielectric constant tensor:
#      x y z
#    x 1.724620 0.000000 0.000250 
#    y 0.000000 1.801510 0.000000 
#    z 0.000250 0.000000 1.738130 
# 
# From -- ./inp_files/59472.got.cif
#   From: 2010.05.17/outbox.cif.g08.bks.cpg/sg11_30_cif.got.tgz:59472.got - 2010.06.03 12:22:45.
