data_PCOD9164290
_publ_section_title
;
Structure prediction by ZEFSAII (Michael W. Deem and Ramdas Pophale) SiO2 
 PCOD9164290
Probable space group: P 21/M
;
_chemical_formula_sum "Si O2"
_cell_formula_units_Z 20
_cell_length_a 7.767000
_cell_length_b 9.041031
_cell_length_c 15.898118
_cell_angle_alpha 90.000000
_cell_angle_beta 51.989991
_cell_angle_gamma 90.000000
_cell_volume 879.609355
_symmetry_space_group_name_H-M "P 21/M"
_symmetry_group_IT_number 11
_symmetry_cell_setting 'monoclinic'
loop_
_space_group_symop_operation_xyz
x,y,z
-x,1/2+y,-z
-x,-y,-z
x,1/2-y,z
loop_
_atom_site_type_symbol
_atom_site_label
_atom_site_fract_x
_atom_site_fract_y
_atom_site_fract_z
Si Si1 0.118117 0.084263 0.837975
Si Si2 0.068073 0.011564 0.272116
Si Si3 0.283228 0.410617 0.043936
Si Si4 0.421055 0.071100 0.289168
Si Si5 0.327430 0.578553 0.490937
O O1 0.158731 0.250000 0.855257
O O2 0.065578 0.092703 0.752312
O O3 0.326458 0.979363 0.787774
O O4 0.897660 0.014863 0.944484
O O5 0.899427 0.075224 0.389961
O O6 0.167227 0.110657 0.168861
O O7 0.282946 0.977910 0.262151
O O8 0.325649 0.250000 0.993279
O O9 0.500000 0.500000 0.000000
O O10 0.401323 0.250000 0.283684
O O11 0.325289 0.019211 0.407612
O O12 0.500000 0.500000 0.500000
O O13 0.383282 0.750000 0.455522
#
# Coordination Sequence:
#
# PCOD9164290 Si02
#       5
#     4   4   4   4   4
#     4  10  23  41  64  92 125 165 209 259 310 368
#     4  10  25  41  65  87 129 165 212 255 318 371
#     4  10  20  40  67  94 125 164 208 259 317 375
#     4  12  24  40  64  94 128 169 210 258 314 373
#     4  12  23  39  62  90 126 171 213 257 310 373
#
# _framework density 22.737368
#
# number of rings (size 3 to 8) (size 9 to 14) (size 15 to 20)
#    1.200    0.000    2.000    4.800    0.000    2.400 
#    0.000    1.000    0.000    0.000    0.000    0.000 
#    0.000    0.000    0.000    0.000    0.000    0.000 
#
# Total GULP energy -111378.702449 kJ/mol
# GULP energy per Si atom -5568.935122 kJ/mol
# Density = 2.268562 g / cm^3
# Si number density = 22.737368 Si / 1000 Ang^3
#
#
#
# Elastic Constant Matrix: (Units=GPa)
#
#
# Indices 1 2 3 4 5 6 
#
# 1 148.0696 22.5450 23.1790 0.0000 -2.8461 0.0000
# 2 22.5450 113.2538 35.8898 0.0000 -19.9383 0.0000
# 3 23.1790 35.8898 55.8592 0.0000 -22.7749 0.0000
# 4 0.0000 0.0000 0.0000 -9.8988 0.0000 36.8262
# 5 -2.8461 -19.9383 -22.7749 0.0000 49.3156 0.0000
# 6 0.0000 0.0000 0.0000 36.8262 0.0000 -73.8675
#
#
#
# Elastic Compliance Matrix: (Units=1/GPa)
#
#
# Indices 1 2 3 4 5 6 
#
# 1 0.007323 -0.000698 -0.003121 0.000000 -0.001301 0.000000
# 2 -0.000698 0.011241 -0.006278 0.000000 0.001605 0.000000
# 3 -0.003121 -0.006278 0.027254 0.000000 0.009868 0.000000
# 4 0.000000 0.000000 0.000000 0.118193 0.000000 0.058925
# 5 -0.001301 0.001605 0.009868 0.000000 0.025409 0.000000
# 6 0.000000 0.000000 0.000000 0.058925 0.000000 0.015839
#
#
# Mechanical properties :
#
#
# Convention : Reuss Voigt Hill
#
# Bulk Modulus (GPa) = 39.02498 53.37890 46.20194
# Shear Modulus (GPa) = 21.36800 8.81447 15.09123
#
# Velocity S-wave (km/s) = 3.06890 1.97106 2.57907
# Velocity P-wave (km/s) = 5.45510 5.35792 5.40673
#
# Compressibility (1/GPa) = 0.02562461
#
# Stress axis : x y z
#
# Youngs Moduli (GPa) = 136.54913 88.96197 36.69128
#
# Poissons Ratio (x) = 0.06208 0.11451
# Poissons Ratio (y) = 0.09529 0.23036
# Poissons Ratio (z) = 0.42615 0.55853
#
# Static dielectric constant tensor:
#      x y z
#    x 1.932570 0.000000 0.036820 
#    y 0.000000 1.968810 0.000000 
#    z 0.036820 0.000000 1.891890 
# 
# From -- ./inp_files/57447.got.cif
#   From: 2010.05.17/outbox.cif.g08.bks.cpg/sg11_29_cif.got.tgz:57447.got - 2010.06.03 12:22:45.
