data_PCOD9164381
_publ_section_title
;
Structure prediction by ZEFSAII (Michael W. Deem and Ramdas Pophale) SiO2 
 PCOD9164381
Probable space group: P 21/M
;
_chemical_formula_sum "Si O2"
_cell_formula_units_Z 28
_cell_length_a 10.239625
_cell_length_b 31.617425
_cell_length_c 9.865961
_cell_angle_alpha 90.000000
_cell_angle_beta 151.662525
_cell_angle_gamma 90.000000
_cell_volume 1516.129273
_symmetry_space_group_name_H-M "P 21/M"
_symmetry_group_IT_number 11
_symmetry_cell_setting 'monoclinic'
loop_
_space_group_symop_operation_xyz
x,y,z
-x,1/2+y,-z
-x,-y,-z
x,1/2-y,z
loop_
_atom_site_type_symbol
_atom_site_label
_atom_site_fract_x
_atom_site_fract_y
_atom_site_fract_z
Si Si1 0.705770 0.795517 0.000489
Si Si2 0.066583 0.476530 0.345111
Si Si3 0.768169 0.388488 0.668741
Si Si4 0.616565 0.034206 0.713058
Si Si5 0.324452 0.960963 0.780907
Si Si6 0.337156 0.112176 0.037688
Si Si7 0.728265 0.204207 0.627729
O O1 0.634249 0.750000 0.999465
O O2 0.630817 0.840645 0.995100
O O3 0.029354 0.795784 0.263563
O O4 0.553622 0.796143 0.715102
O O5 0.342111 0.453744 0.545765
O O6 0.173121 0.520074 0.510304
O O7 0.848713 0.484088 0.025750
O O8 0.904909 0.451751 0.315488
O O9 0.748147 0.426103 0.756860
O O10 0.025001 0.393137 0.801265
O O11 0.768809 0.341253 0.734660
O O12 0.500000 0.000000 0.500000
O O13 0.495740 0.890247 0.669067
O O14 0.529265 0.923339 0.933510
O O15 0.500000 0.000000 0.000000
O O16 0.747943 0.250000 0.717905
#
# Coordination Sequence:
#
# PCOD9164381 Si02
#       7
#     4   4   4   4   4   4   4
#     4   8  14  27  46  72 103 128 156 204 264 318
#     4  11  25  40  54  76  99 144 181 225 261 305
#     4  10  21  33  52  80 108 136 168 213 265 324
#     4  12  24  37  55  76 109 140 176 218 269 313
#     4  11  24  39  58  72 104 139 192 226 258 303
#     4  10  21  33  53  79 104 136 173 213 263 314
#     4   8  14  27  46  71 103 133 161 199 254 315
#
# _framework density 18.468083
#
# number of rings (size 3 to 8) (size 9 to 14) (size 15 to 20)
#    0.000    2.000    1.429    2.143    6.000    0.000 
#    0.000    0.000    0.000    0.000    0.000    2.000 
#    0.000    1.143    0.000    0.000    0.000    0.000 
#
# Total GULP energy -156062.990482 kJ/mol
# GULP energy per Si atom -5573.678231 kJ/mol
# Density = 1.842605 g / cm^3
# Si number density = 18.468083 Si / 1000 Ang^3
#
#
#
# Elastic Constant Matrix: (Units=GPa)
#
#
# Indices 1 2 3 4 5 6 
#
# 1 47.2922 54.8928 -7.7675 0.0000 9.1773 0.0000
# 2 54.8928 173.0928 19.0196 0.0000 -2.4750 0.0000
# 3 -7.7675 19.0196 63.9594 0.0000 -6.0424 0.0000
# 4 0.0000 0.0000 0.0000 19.7653 0.0000 6.1234
# 5 9.1773 -2.4750 -6.0424 0.0000 23.7049 0.0000
# 6 0.0000 0.0000 0.0000 6.1234 0.0000 18.2448
#
#
#
# Elastic Compliance Matrix: (Units=1/GPa)
#
#
# Indices 1 2 3 4 5 6 
#
# 1 0.042458 -0.014570 0.007985 0.000000 -0.015923 0.000000
# 2 -0.014570 0.010973 -0.004500 0.000000 0.005639 0.000000
# 3 0.007985 -0.004500 0.018041 0.000000 0.001038 0.000000
# 4 0.000000 0.000000 0.000000 0.056465 0.000000 -0.018951
# 5 -0.015923 0.005639 0.001038 0.000000 0.049203 0.000000
# 6 0.000000 0.000000 0.000000 -0.018951 0.000000 0.061171
#
#
# Mechanical properties :
#
#
# Convention : Reuss Voigt Hill
#
# Bulk Modulus (GPa) = 20.28328 46.29270 33.28799
# Shear Modulus (GPa) = 18.05621 26.88963 22.47292
#
# Velocity S-wave (km/s) = 3.13021 3.81990 3.49212
# Velocity P-wave (km/s) = 4.90622 6.67655 5.85864
#
# Compressibility (1/GPa) = 0.04930170
#
# Stress axis : x y z
#
# Youngs Moduli (GPa) = 23.55286 91.13486 55.43033
#
# Poissons Ratio (x) = 1.32780 -0.44258
# Poissons Ratio (y) = 0.34316 0.24942
# Poissons Ratio (z) = -0.18806 0.41007
#
# Static dielectric constant tensor:
#      x y z
#    x 1.640570 0.000000 0.010120 
#    y 0.000000 1.721830 0.000000 
#    z 0.010120 0.000000 1.662780 
# 
# From -- ./inp_files/36621.got.cif
#   From: 2010.05.17/outbox.cif.g08.bks.cpg/sg11_19_cif.got.tgz:36621.got - 2010.06.03 12:22:45.
