data_PCOD9164309
_publ_section_title
;
Structure prediction by ZEFSAII (Michael W. Deem and Ramdas Pophale) SiO2 
 PCOD9164309
Probable space group: P 21/M
;
_chemical_formula_sum "Si O2"
_cell_formula_units_Z 28
_cell_length_a 10.057936
_cell_length_b 12.592945
_cell_length_c 18.117950
_cell_angle_alpha 90.000000
_cell_angle_beta 33.017829
_cell_angle_gamma 90.000000
_cell_volume 1250.437601
_symmetry_space_group_name_H-M "P 21/M"
_symmetry_group_IT_number 11
_symmetry_cell_setting 'monoclinic'
loop_
_space_group_symop_operation_xyz
x,y,z
-x,1/2+y,-z
-x,-y,-z
x,1/2-y,z
loop_
_atom_site_type_symbol
_atom_site_label
_atom_site_fract_x
_atom_site_fract_y
_atom_site_fract_z
Si Si1 0.010706 0.425953 0.884480
Si Si2 0.221951 0.132411 0.388097
Si Si3 0.505645 0.527819 0.606919
Si Si4 0.811122 0.376050 0.371865
Si Si5 0.743546 0.416575 0.703289
Si Si6 0.230311 0.959324 0.143208
Si Si7 0.809184 0.861716 0.046927
O O1 0.866463 0.388358 0.879861
O O2 0.283626 0.452739 0.732731
O O3 0.038318 0.364625 0.948085
O O4 0.886052 0.537275 0.964591
O O5 0.263717 0.250000 0.340408
O O6 0.958412 0.125796 0.551002
O O7 0.410480 0.099833 0.364560
O O8 0.253062 0.043250 0.311994
O O9 0.720880 0.448194 0.482587
O O10 0.404216 0.601005 0.587871
O O11 0.838934 0.250000 0.371840
O O12 0.051248 0.437842 0.232120
O O13 0.780991 0.399879 0.772929
O O14 0.479155 0.373073 0.803862
O O15 0.500000 0.000000 0.000000
O O16 0.856332 0.750000 0.986013
#
# Coordination Sequence:
#
# PCOD9164309 Si02
#       7
#     4   4   4   4   4   4   4
#     4  10  23  42  65  94 130 169 218 273 327 396
#     4  11  23  41  67  94 129 174 221 277 334 387
#     4  10  20  41  62  92 132 163 220 281 320 394
#     4  10  22  39  66  95 128 176 219 268 335 397
#     4  11  23  44  64  98 133 171 223 274 327 396
#     4  11  22  43  68  93 142 170 209 280 330 391
#     4  11  23  43  67  92 129 176 221 269 328 398
#
# _framework density 22.392161000000002
#
# number of rings (size 3 to 8) (size 9 to 14) (size 15 to 20)
#    0.000    1.429    4.286    0.857    0.000    4.000 
#    0.000    2.143    0.000    0.000    0.000    0.000 
#    0.000    0.000    0.000    0.000    0.000    0.000 
#
# Total GULP energy -156504.953748 kJ/mol
# GULP energy per Si atom -5589.462634 kJ/mol
# Density = 2.234120 g / cm^3
# Si number density = 22.392161 Si / 1000 Ang^3
#
#
#
# Elastic Constant Matrix: (Units=GPa)
#
#
# Indices 1 2 3 4 5 6 
#
# 1 118.4560 9.0674 3.6004 0.0000 0.6445 0.0000
# 2 9.0674 103.6836 -2.1035 0.0000 -2.8706 0.0000
# 3 3.6004 -2.1035 74.6113 0.0000 -14.9031 0.0000
# 4 0.0000 0.0000 0.0000 -7.4331 0.0000 -2.9189
# 5 0.6445 -2.8706 -14.9031 0.0000 34.1907 0.0000
# 6 0.0000 0.0000 0.0000 -2.9189 0.0000 4.6472
#
#
#
# Elastic Compliance Matrix: (Units=1/GPa)
#
#
# Indices 1 2 3 4 5 6 
#
# 1 0.008519 -0.000768 -0.000523 0.000000 -0.000453 0.000000
# 2 -0.000768 0.009752 0.000524 0.000000 0.001062 0.000000
# 3 -0.000523 0.000524 0.014737 0.000000 0.006477 0.000000
# 4 0.000000 0.000000 0.000000 -0.107917 0.000000 -0.067781
# 5 -0.000453 0.001062 0.006477 0.000000 0.032169 0.000000
# 6 0.000000 0.000000 0.000000 -0.067781 0.000000 0.172609
#
#
# Mechanical properties :
#
#
# Convention : Reuss Voigt Hill
#
# Bulk Modulus (GPa) = 31.77336 35.31993 33.54665
# Shear Modulus (GPa) = 35.23736 25.36007 30.29872
#
# Velocity S-wave (km/s) = 3.97123 3.36898 3.68243
# Velocity P-wave (km/s) = 5.93699 5.56246 5.75277
#
# Compressibility (1/GPa) = 0.03147291
#
# Stress axis : x y z
#
# Youngs Moduli (GPa) = 117.38291 102.54381 67.85822
#
# Poissons Ratio (x) = 0.07877 0.03551
# Poissons Ratio (y) = 0.09017 -0.03556
# Poissons Ratio (z) = 0.06142 -0.05374
#
# Static dielectric constant tensor:
#      x y z
#    x 1.875420 0.000000 0.000580 
#    y 0.000000 1.809870 0.000000 
#    z 0.000580 0.000000 1.813420 
# 
# From -- ./inp_files/64658.got.cif
#   From: 2010.05.17/outbox.cif.g08.bks.cpg/sg11_33_cif.got.tgz:64658.got - 2010.06.03 12:22:45.
