data_PCOD9164758
_publ_section_title
;
Structure prediction by ZEFSAII (Michael W. Deem and Ramdas Pophale) SiO2 
 PCOD9164758
Probable space group: P 21/M
;
_chemical_formula_sum "Si O2"
_cell_formula_units_Z 26
_cell_length_a 19.896848
_cell_length_b 9.503432
_cell_length_c 8.060388
_cell_angle_alpha 90.000000
_cell_angle_beta 125.178939
_cell_angle_gamma 90.000000
_cell_volume 1245.754156
_symmetry_space_group_name_H-M "P 21/M"
_symmetry_group_IT_number 11
_symmetry_cell_setting 'monoclinic'
loop_
_space_group_symop_operation_xyz
x,y,z
-x,1/2+y,-z
-x,-y,-z
x,1/2-y,z
loop_
_atom_site_type_symbol
_atom_site_label
_atom_site_fract_x
_atom_site_fract_y
_atom_site_fract_z
Si Si1 0.010799 0.250000 0.939558
Si Si2 0.922296 0.907816 0.439653
Si Si3 0.274985 0.912274 0.351675
Si Si4 0.421888 0.083586 0.675408
Si Si5 0.775719 0.408350 0.099232
Si Si6 0.889447 0.981582 0.764005
Si Si7 0.400434 0.585653 0.982641
O O1 0.939014 0.373213 0.845270
O O2 0.081584 0.375073 0.052523
O O3 0.933765 0.750000 0.391278
O O4 0.915525 0.908649 0.628837
O O5 0.840929 0.979830 0.254266
O O6 0.000000 0.000000 0.500000
O O7 0.288503 0.750000 0.420910
O O8 0.359828 0.997105 0.472829
O O9 0.207313 0.985645 0.371762
O O10 0.234880 0.912574 0.112975
O O11 0.405073 0.250000 0.644438
O O12 0.405409 0.019551 0.835175
O O13 0.519484 0.061329 0.788635
O O14 0.804182 0.250000 0.187042
O O15 0.685907 0.430304 0.049117
O O16 0.407131 0.750000 0.936490
#
# Coordination Sequence:
#
# PCOD9164758 Si02
#       7
#     2   4   4   4   4   4   4
#     4  10  24  40  68  90 120 160 206 256 302 356
#     4  12  28  43  63  91 123 160 204 251 305 363
#     4  11  24  40  61  90 123 161 202 249 306 362
#     4  10  21  36  63  93 121 160 204 249 299 364
#     4  10  24  42  63  88 123 161 204 253 303 360
#     4  11  24  42  65  91 122 161 204 254 303 368
#     4   9  19  40  64  90 123 160 201 248 305 360
#
# _framework density 20.870889999999999
#
# number of rings (size 3 to 8) (size 9 to 14) (size 15 to 20)
#    0.000    1.538    1.538    1.846    7.538    4.923 
#    0.000    0.000    0.000    0.000    0.000    0.000 
#    0.000    0.000    0.000    0.000    0.000    0.000 
#
# Total GULP energy -144841.223607 kJ/mol
# GULP energy per Si atom -5570.816293 kJ/mol
# Density = 2.082339 g / cm^3
# Si number density = 20.870890 Si / 1000 Ang^3
#
#
#
# Elastic Constant Matrix: (Units=GPa)
#
#
# Indices 1 2 3 4 5 6 
#
# 1 70.6727 36.0315 15.7533 0.0000 22.2631 0.0000
# 2 36.0315 152.5521 50.5862 0.0000 36.3416 0.0000
# 3 15.7533 50.5862 48.2326 0.0000 30.2853 0.0000
# 4 0.0000 0.0000 0.0000 32.4274 0.0000 8.9545
# 5 22.2631 36.3416 30.2853 0.0000 32.8258 0.0000
# 6 0.0000 0.0000 0.0000 8.9545 0.0000 22.9445
#
#
#
# Elastic Compliance Matrix: (Units=1/GPa)
#
#
# Indices 1 2 3 4 5 6 
#
# 1 0.019223 -0.003023 0.007076 0.000000 -0.016219 0.000000
# 2 -0.003023 0.010682 -0.009692 0.000000 -0.000833 0.000000
# 3 0.007076 -0.009692 0.059100 0.000000 -0.048594 0.000000
# 4 0.000000 0.000000 0.000000 0.034563 0.000000 -0.013489
# 5 -0.016219 -0.000833 -0.048594 0.000000 0.087220 0.000000
# 6 0.000000 0.000000 0.000000 -0.013489 0.000000 0.048848
#
#
# Mechanical properties :
#
#
# Convention : Reuss Voigt Hill
#
# Bulk Modulus (GPa) = 12.86580 52.91107 32.88843
# Shear Modulus (GPa) = 16.84514 28.91196 22.87855
#
# Velocity S-wave (km/s) = 2.84405 3.72597 3.31447
# Velocity P-wave (km/s) = 4.11858 6.62700 5.51724
#
# Compressibility (1/GPa) = 0.07772546
#
# Stress axis : x y z
#
# Youngs Moduli (GPa) = 52.02128 93.61901 16.92060
#
# Poissons Ratio (x) = 0.28300 -0.11973
# Poissons Ratio (y) = 0.15726 0.16400
# Poissons Ratio (z) = -0.36810 0.90738
#
# Static dielectric constant tensor:
#      x y z
#    x 1.751040 0.000000 -0.028910 
#    y 0.000000 1.719010 0.000000 
#    z -0.028910 0.000000 1.795140 
# 
# From -- ./inp_files/23965.got.cif
#   From: 2010.05.17/outbox.cif.g08.bks.cpg/sg11_12_cif.got.tgz:23965.got - 2010.06.03 12:22:45.
