data_PCOD9164000
_publ_section_title
;
Structure prediction by ZEFSAII (Michael W. Deem and Ramdas Pophale) SiO2 
 PCOD9164000
Probable space group: P 21/M
;
_chemical_formula_sum "Si O2"
_cell_formula_units_Z 28
_cell_length_a 9.809579
_cell_length_b 8.587560
_cell_length_c 25.599001
_cell_angle_alpha 90.000000
_cell_angle_beta 134.889180
_cell_angle_gamma 90.000000
_cell_volume 1527.800161
_symmetry_space_group_name_H-M "P 21/M"
_symmetry_group_IT_number 11
_symmetry_cell_setting 'monoclinic'
loop_
_space_group_symop_operation_xyz
x,y,z
-x,1/2+y,-z
-x,-y,-z
x,1/2-y,z
loop_
_atom_site_type_symbol
_atom_site_label
_atom_site_fract_x
_atom_site_fract_y
_atom_site_fract_z
Si Si1 0.858405 0.428840 0.689273
Si Si2 0.105030 0.062333 0.188623
Si Si3 0.213616 0.065965 0.568572
Si Si4 0.259533 0.561456 0.782590
Si Si5 0.471241 0.936527 0.734546
Si Si6 0.520956 0.429038 0.448712
Si Si7 0.678186 0.435268 0.080130
O O1 0.806777 0.250000 0.663258
O O2 0.886019 0.455244 0.758003
O O3 0.691775 0.549213 0.631068
O O4 0.056319 0.479644 0.716186
O O5 0.110117 0.250000 0.202519
O O6 0.301934 0.027053 0.211298
O O7 0.887183 0.031897 0.110192
O O8 0.198974 0.250000 0.570082
O O9 0.333103 0.003861 0.651467
O O10 0.338370 0.021292 0.551485
O O11 0.000000 0.000000 0.500000
O O12 0.234514 0.750000 0.776280
O O13 0.400947 0.519813 0.773540
O O14 0.319088 0.514402 0.857810
O O15 0.453620 0.750000 0.725039
O O16 0.500000 0.500000 0.500000
O O17 0.580978 0.250000 0.466541
O O18 0.658824 0.250000 0.076257
O O19 0.500000 0.500000 0.000000
#
# Coordination Sequence:
#
# PCOD9164000 Si02
#       7
#     4   4   4   4   4   4   4
#     4  11  21  35  56  83 112 147 190 237 290 344
#     4   9  18  35  59  83 110 148 192 235 286 346
#     4  12  26  43  61  86 120 158 199 246 302 355
#     4   9  20  37  58  84 114 151 196 238 288 348
#     4  10  20  38  63  85 112 152 198 246 295 350
#     4  12  25  42  61  83 113 150 197 247 297 351
#     4   9  18  34  56  84 117 153 192 239 289 346
#
# _framework density 18.327003999999999
#
# number of rings (size 3 to 8) (size 9 to 14) (size 15 to 20)
#    0.000    1.714    1.429    4.714    2.000    2.857 
#    0.000    0.714    0.000    0.000    0.000    0.000 
#    0.000    0.000    0.000    0.000    0.000    0.000 
#
# Total GULP energy -156078.480798 kJ/mol
# GULP energy per Si atom -5574.231457 kJ/mol
# Density = 1.828529 g / cm^3
# Si number density = 18.327004 Si / 1000 Ang^3
#
#
#
# Elastic Constant Matrix: (Units=GPa)
#
#
# Indices 1 2 3 4 5 6 
#
# 1 156.1948 28.2932 65.7887 0.0000 24.2328 0.0000
# 2 28.2932 37.1963 18.2710 0.0000 7.4304 0.0000
# 3 65.7887 18.2710 113.2539 0.0000 24.3935 0.0000
# 4 0.0000 0.0000 0.0000 33.4425 0.0000 1.4628
# 5 24.2328 7.4304 24.3935 0.0000 24.3747 0.0000
# 6 0.0000 0.0000 0.0000 1.4628 0.0000 23.3781
#
#
#
# Elastic Compliance Matrix: (Units=1/GPa)
#
#
# Indices 1 2 3 4 5 6 
#
# 1 0.009504 -0.004479 -0.003897 0.000000 -0.004183 0.000000
# 2 -0.004479 0.031864 -0.001792 0.000000 -0.003467 0.000000
# 3 -0.003897 -0.001792 0.013297 0.000000 -0.008886 0.000000
# 4 0.000000 0.000000 0.000000 0.029984 0.000000 -0.001876
# 5 -0.004183 -0.003467 -0.008886 0.000000 0.055135 0.000000
# 6 0.000000 0.000000 0.000000 -0.001876 0.000000 0.042893
#
#
# Mechanical properties :
#
#
# Convention : Reuss Voigt Hill
#
# Bulk Modulus (GPa) = 29.13050 59.03897 44.08473
# Shear Modulus (GPa) = 23.31479 29.19186 26.25333
#
# Velocity S-wave (km/s) = 3.57060 3.99536 3.78894
# Velocity P-wave (km/s) = 5.73831 7.31902 6.57633
#
# Compressibility (1/GPa) = 0.03432829
#
# Stress axis : x y z
#
# Youngs Moduli (GPa) = 105.21724 31.38307 75.20679
#
# Poissons Ratio (x) = 0.14057 0.29310
# Poissons Ratio (y) = 0.47130 0.13476
# Poissons Ratio (z) = 0.41006 0.05623
#
# Static dielectric constant tensor:
#      x y z
#    x 1.620880 0.000000 0.041260 
#    y 0.000000 1.625260 0.000000 
#    z 0.041260 0.000000 1.598590 
# 
# From -- ./inp_files/70755.got.cif
#   From: 2010.05.17/outbox.cif.g08.bks.cpg/sg11_36_cif.got.tgz:70755.got - 2010.06.03 12:22:45.
