data_PCOD9164397
_publ_section_title
;
Structure prediction by ZEFSAII (Michael W. Deem and Ramdas Pophale) SiO2 
 PCOD9164397
Probable space group: P 21/M
;
_chemical_formula_sum "Si O2"
_cell_formula_units_Z 32
_cell_length_a 25.958033
_cell_length_b 10.548066
_cell_length_c 12.265515
_cell_angle_alpha 90.000000
_cell_angle_beta 150.080553
_cell_angle_gamma 90.000000
_cell_volume 1675.101524
_symmetry_space_group_name_H-M "P 21/M"
_symmetry_group_IT_number 11
_symmetry_cell_setting 'monoclinic'
loop_
_space_group_symop_operation_xyz
x,y,z
-x,1/2+y,-z
-x,-y,-z
x,1/2-y,z
loop_
_atom_site_type_symbol
_atom_site_label
_atom_site_fract_x
_atom_site_fract_y
_atom_site_fract_z
Si Si1 0.360494 0.597547 0.672233
Si Si2 0.502416 0.597605 0.743995
Si Si3 0.317476 0.597454 0.246613
Si Si4 0.721176 0.997978 0.064659
Si Si5 0.172477 0.596537 0.170819
Si Si6 0.943308 0.888682 0.459954
Si Si7 0.051783 0.102794 0.273053
Si Si8 0.773729 0.395743 0.384808
O O1 0.369148 0.750000 0.684553
O O2 0.456132 0.549704 0.775135
O O3 0.257376 0.560743 0.415758
O O4 0.331205 0.568355 0.742565
O O5 0.497641 0.750000 0.737438
O O6 0.421088 0.555457 0.500781
O O7 0.617887 0.561867 0.925143
O O8 0.317875 0.750000 0.248093
O O9 0.307147 0.553218 0.104594
O O10 0.220563 0.554946 0.143270
O O11 0.758373 0.094473 0.226963
O O12 0.819501 0.906638 0.228609
O O13 0.169274 0.750000 0.162814
O O14 0.055399 0.557549 0.976852
O O15 0.973051 0.750000 0.471469
O O16 0.970820 0.893262 0.638309
O O17 0.000000 0.000000 0.500000
O O18 0.077193 0.250000 0.288495
O O19 0.141749 0.000051 0.425940
O O20 0.801359 0.250000 0.464641
#
# Coordination Sequence:
#
# PCOD9164397 Si02
#       8
#     4   4   4   4   4   4   4   4
#     4   8  16  32  51  72  98 128 165 208 252 298
#     4   9  18  33  53  73  95 127 170 213 249 293
#     4   9  17  30  49  74 100 129 166 206 249 299
#     4  11  20  31  50  74 103 132 165 205 253 302
#     4   8  14  28  51  73  95 128 169 209 246 290
#     4  10  21  34  49  72 104 138 172 208 248 298
#     4   9  18  32  50  74 101 132 172 212 249 292
#     4  10  21  34  49  74 106 136 167 206 252 302
#
# _framework density 19.10332
#
# number of rings (size 3 to 8) (size 9 to 14) (size 15 to 20)
#    0.000    2.750    0.000    3.375    0.000    5.000 
#    0.000    0.000    0.000    1.500    0.000    7.000 
#    0.000    0.000    0.000    0.000    0.000    0.000 
#
# Total GULP energy -178193.798237 kJ/mol
# GULP energy per Si atom -5568.556195 kJ/mol
# Density = 1.905984 g / cm^3
# Si number density = 19.103320 Si / 1000 Ang^3
#
#
#
# Elastic Constant Matrix: (Units=GPa)
#
#
# Indices 1 2 3 4 5 6 
#
# 1 99.4294 34.1354 19.5501 0.0000 7.9976 0.0000
# 2 34.1354 59.1546 27.0041 0.0000 14.3446 0.0000
# 3 19.5501 27.0041 72.5779 0.0000 27.4927 0.0000
# 4 0.0000 0.0000 0.0000 10.3025 0.0000 0.5016
# 5 7.9976 14.3446 27.4927 0.0000 21.8350 0.0000
# 6 0.0000 0.0000 0.0000 0.5016 0.0000 10.1325
#
#
#
# Elastic Compliance Matrix: (Units=1/GPa)
#
#
# Indices 1 2 3 4 5 6 
#
# 1 0.012623 -0.007063 -0.001488 0.000000 0.001891 0.000000
# 2 -0.007063 0.024950 -0.004114 0.000000 -0.008624 0.000000
# 3 -0.001488 -0.004114 0.027683 0.000000 -0.031609 0.000000
# 4 0.000000 0.000000 0.000000 0.097298 0.000000 -0.004817
# 5 0.001891 -0.008624 -0.031609 0.000000 0.090570 0.000000
# 6 0.000000 0.000000 0.000000 -0.004817 0.000000 0.098931
#
#
# Mechanical properties :
#
#
# Convention : Reuss Voigt Hill
#
# Bulk Modulus (GPa) = 25.04658 43.61567 34.33112
# Shear Modulus (GPa) = 12.79774 18.48549 15.64162
#
# Velocity S-wave (km/s) = 2.59109 3.11410 2.86456
# Velocity P-wave (km/s) = 4.70013 5.98424 5.38063
#
# Compressibility (1/GPa) = 0.03992562
#
# Stress axis : x y z
#
# Youngs Moduli (GPa) = 79.22171 40.08038 36.12299
#
# Poissons Ratio (x) = 0.28309 0.05377
# Poissons Ratio (y) = 0.55955 0.14860
# Poissons Ratio (z) = 0.11792 0.16488
#
# Static dielectric constant tensor:
#      x y z
#    x 1.686180 0.000000 -0.005560 
#    y 0.000000 1.645190 0.000000 
#    z -0.005560 0.000000 1.703730 
# 
# From -- ./inp_files/44235.got.cif
#   From: 2010.05.17/outbox.cif.g08.bks.cpg/sg11_23_cif.got.tgz:44235.got - 2010.06.03 12:22:45.
