data_PCOD9164332
_publ_section_title
;
Structure prediction by ZEFSAII (Michael W. Deem and Ramdas Pophale) SiO2 
 PCOD9164332
Probable space group: P 21/M
;
_chemical_formula_sum "Si O2"
_cell_formula_units_Z 32
_cell_length_a 15.063628
_cell_length_b 21.804306
_cell_length_c 8.521989
_cell_angle_alpha 90.000000
_cell_angle_beta 33.920307
_cell_angle_gamma 90.000000
_cell_volume 1561.987544
_symmetry_space_group_name_H-M "P 21/M"
_symmetry_group_IT_number 11
_symmetry_cell_setting 'monoclinic'
loop_
_space_group_symop_operation_xyz
x,y,z
-x,1/2+y,-z
-x,-y,-z
x,1/2-y,z
loop_
_atom_site_type_symbol
_atom_site_label
_atom_site_fract_x
_atom_site_fract_y
_atom_site_fract_z
Si Si1 0.119468 0.945769 0.271538
Si Si2 0.025344 0.679721 0.924741
Si Si3 0.656681 0.392392 0.550121
Si Si4 0.157479 0.506830 0.875254
Si Si5 0.018432 0.180249 0.389609
Si Si6 0.710762 0.882196 0.378364
Si Si7 0.440788 0.559472 0.990126
Si Si8 0.616765 0.819532 0.209605
O O1 0.060997 0.878133 0.410170
O O2 0.293243 0.956343 0.093066
O O3 0.000000 0.000000 0.500000
O O4 0.127961 0.953827 0.072715
O O5 0.025893 0.750000 0.971589
O O6 0.190380 0.647581 0.719775
O O7 0.010704 0.676389 0.755855
O O8 0.869103 0.646711 0.221702
O O9 0.706540 0.460086 0.423994
O O10 0.503641 0.367390 0.687491
O O11 0.625824 0.394016 0.780331
O O12 0.221272 0.439489 0.822151
O O13 0.000000 0.500000 0.000000
O O14 0.969837 0.250000 0.510020
O O15 0.209457 0.175705 0.123522
O O16 0.582302 0.908075 0.687203
O O17 0.637957 0.834227 0.362722
O O18 0.500000 0.500000 0.000000
O O19 0.558893 0.750000 0.272709
#
# Coordination Sequence:
#
# PCOD9164332 Si02
#       8
#     4   4   4   4   4   4   4   4
#     4  12  25  41  70 102 136 185 232 286 350 413
#     4  10  20  41  69  93 127 181 226 272 340 412
#     4  12  23  42  68  97 141 173 224 282 344 406
#     4  12  25  41  67 100 134 178 227 286 342 407
#     4   9  20  41  65  94 134 177 226 281 345 413
#     4  11  23  43  68  94 137 179 226 280 345 405
#     4  12  27  42  65 108 141 175 228 290 347 412
#     4  10  23  43  68  98 133 179 227 278 339 414
#
# _framework density 20.486720999999999
#
# number of rings (size 3 to 8) (size 9 to 14) (size 15 to 20)
#    0.000    1.000    3.750    4.500    3.500    1.000 
#    0.000    6.250    0.000    0.000    0.000    0.000 
#    0.000    0.000    0.000    0.000    0.000    0.000 
#
# Total GULP energy -178835.062667 kJ/mol
# GULP energy per Si atom -5588.595708 kJ/mol
# Density = 2.044009 g / cm^3
# Si number density = 20.486721 Si / 1000 Ang^3
#
#
#
# Elastic Constant Matrix: (Units=GPa)
#
#
# Indices 1 2 3 4 5 6 
#
# 1 74.1317 9.3344 34.5714 0.0000 -11.1548 0.0000
# 2 9.3344 111.7189 39.4491 0.0000 -3.4993 0.0000
# 3 34.5714 39.4491 94.9142 0.0000 3.4551 0.0000
# 4 0.0000 0.0000 0.0000 30.7827 0.0000 -1.8135
# 5 -11.1548 -3.4993 3.4551 0.0000 35.8878 0.0000
# 6 0.0000 0.0000 0.0000 -1.8135 0.0000 30.8182
#
#
#
# Elastic Compliance Matrix: (Units=1/GPa)
#
#
# Indices 1 2 3 4 5 6 
#
# 1 0.017621 0.001256 -0.007169 0.000000 0.006290 0.000000
# 2 0.001256 0.010656 -0.004956 0.000000 0.001907 0.000000
# 3 -0.007169 -0.004956 0.015360 0.000000 -0.004190 0.000000
# 4 0.000000 0.000000 0.000000 0.032599 0.000000 0.001918
# 5 0.006290 0.001907 -0.004190 0.000000 0.030409 0.000000
# 6 0.000000 0.000000 0.000000 0.001918 0.000000 0.032561
#
#
# Mechanical properties :
#
#
# Convention : Reuss Voigt Hill
#
# Bulk Modulus (GPa) = 45.66505 49.71942 47.69223
# Shear Modulus (GPa) = 29.71890 32.65841 31.18865
#
# Velocity S-wave (km/s) = 3.81286 3.99698 3.90601
# Velocity P-wave (km/s) = 6.45928 6.75448 6.60853
#
# Compressibility (1/GPa) = 0.02189859
#
# Stress axis : x y z
#
# Youngs Moduli (GPa) = 56.74960 93.84604 65.10601
#
# Poissons Ratio (x) = -0.11790 0.46678
# Poissons Ratio (y) = -0.07130 0.32266
# Poissons Ratio (z) = 0.40687 0.46509
#
# Static dielectric constant tensor:
#      x y z
#    x 1.723960 0.000000 0.006670 
#    y 0.000000 1.715230 0.000000 
#    z 0.006670 0.000000 1.750890 
# 
# From -- ./inp_files/23340.got.cif
#   From: 2010.05.17/outbox.cif.g08.bks.cpg/sg11_12_cif.got.tgz:23340.got - 2010.06.03 12:22:45.
