data_PCOD9164265
_publ_section_title
;
Structure prediction by ZEFSAII (Michael W. Deem and Ramdas Pophale) SiO2 
 PCOD9164265
Probable space group: P 21/M
;
_chemical_formula_sum "Si O2"
_cell_formula_units_Z 20
_cell_length_a 4.986723
_cell_length_b 10.956758
_cell_length_c 15.571528
_cell_angle_alpha 90.000000
_cell_angle_beta 80.170203
_cell_angle_gamma 90.000000
_cell_volume 838.311670
_symmetry_space_group_name_H-M "P 21/M"
_symmetry_group_IT_number 11
_symmetry_cell_setting 'monoclinic'
loop_
_space_group_symop_operation_xyz
x,y,z
-x,1/2+y,-z
-x,-y,-z
x,1/2-y,z
loop_
_atom_site_type_symbol
_atom_site_label
_atom_site_fract_x
_atom_site_fract_y
_atom_site_fract_z
Si Si1 0.191867 0.750000 0.555690
Si Si2 0.309025 0.384712 0.984462
Si Si3 0.234024 0.250000 0.573491
Si Si4 0.312419 0.106857 0.259044
Si Si5 0.373217 0.506636 0.602503
Si Si6 0.122776 0.542674 0.854459
O O1 0.489714 0.750000 0.497004
O O2 0.179723 0.625140 0.609570
O O3 0.994619 0.750000 0.486179
O O4 0.435818 0.250000 0.982785
O O5 0.201501 0.415011 0.894851
O O6 0.500000 0.500000 0.000000
O O7 0.052034 0.389414 0.062761
O O8 0.234806 0.376185 0.625210
O O9 0.258229 0.250000 0.278473
O O10 0.397452 0.035886 0.340533
O O11 0.077777 0.044551 0.215667
O O12 0.592920 0.102387 0.188076
O O13 0.500000 0.500000 0.500000
#
# Coordination Sequence:
#
# PCOD9164265 Si02
#       6
#     2   4   2   4   4   4
#     4  10  20  40  64  92 120 165 230 279 332 406
#     4  11  24  47  79 109 148 192 235 285 358 437
#     4  10  22  38  64  90 126 167 222 283 334 406
#     4  12  24  44  70 104 141 183 240 302 350 417
#     4  10  23  44  67  97 133 183 233 284 350 414
#     4  11  26  45  70 110 141 185 236 294 349 417
#
# _framework density 23.857475000000001
#
# number of rings (size 3 to 8) (size 9 to 14) (size 15 to 20)
#    0.000    1.200    3.000    2.400    0.000   10.400 
#    3.600    0.000    0.000    0.000    0.000    0.000 
#    0.000    0.000    0.000    0.000    0.000    0.000 
#
# Total GULP energy -111916.218829 kJ/mol
# GULP energy per Si atom -5595.810941 kJ/mol
# Density = 2.380317 g / cm^3
# Si number density = 23.857475 Si / 1000 Ang^3
#
#
#
# Elastic Constant Matrix: (Units=GPa)
#
#
# Indices 1 2 3 4 5 6 
#
# 1 152.6318 62.3063 41.4902 0.0000 31.5375 0.0000
# 2 62.3063 230.1101 59.7643 0.0000 29.9400 0.0000
# 3 41.4902 59.7643 133.7866 0.0000 32.8043 0.0000
# 4 0.0000 0.0000 0.0000 12.8992 0.0000 11.0930
# 5 31.5375 29.9400 32.8043 0.0000 63.0827 0.0000
# 6 0.0000 0.0000 0.0000 11.0930 0.0000 32.4316
#
#
#
# Elastic Compliance Matrix: (Units=1/GPa)
#
#
# Indices 1 2 3 4 5 6 
#
# 1 0.008046 -0.001529 -0.001151 0.000000 -0.002699 0.000000
# 2 -0.001529 0.005311 -0.001682 0.000000 -0.000882 0.000000
# 3 -0.001151 -0.001682 0.009451 0.000000 -0.003541 0.000000
# 4 0.000000 0.000000 0.000000 0.109830 0.000000 -0.037567
# 5 -0.002699 -0.000882 -0.003541 0.000000 0.019461 0.000000
# 6 0.000000 0.000000 0.000000 -0.037567 0.000000 0.043684
#
#
# Mechanical properties :
#
#
# Convention : Reuss Voigt Hill
#
# Bulk Modulus (GPa) = 70.99616 93.73889 82.36753
# Shear Modulus (GPa) = 23.90031 45.21389 34.55710
#
# Velocity S-wave (km/s) = 3.16855 4.35807 3.81002
# Velocity P-wave (km/s) = 6.57338 8.04365 7.34539
#
# Compressibility (1/GPa) = 0.01408527
#
# Stress axis : x y z
#
# Youngs Moduli (GPa) = 124.28320 188.27699 105.80603
#
# Poissons Ratio (x) = 0.28781 0.12175
# Poissons Ratio (y) = 0.18998 0.17801
# Poissons Ratio (z) = 0.14301 0.31675
#
# Static dielectric constant tensor:
#      x y z
#    x 1.943490 0.000000 -0.057930 
#    y 0.000000 1.962920 0.000000 
#    z -0.057930 0.000000 1.930700 
# 
# From -- ./inp_files/45626.got.cif
#   From: 2010.05.17/outbox.cif.g08.bks.cpg/sg11_23_cif.got.tgz:45626.got - 2010.06.03 12:22:45.
