data_PCOD9164564
_publ_section_title
;
Structure prediction by ZEFSAII (Michael W. Deem and Ramdas Pophale) SiO2 
 PCOD9164564
Probable space group: P 21/M
;
_chemical_formula_sum "Si O2"
_cell_formula_units_Z 28
_cell_length_a 15.257305
_cell_length_b 7.680753
_cell_length_c 11.985455
_cell_angle_alpha 90.000000
_cell_angle_beta 68.909676
_cell_angle_gamma 90.000000
_cell_volume 1310.462087
_symmetry_space_group_name_H-M "P 21/M"
_symmetry_group_IT_number 11
_symmetry_cell_setting 'monoclinic'
loop_
_space_group_symop_operation_xyz
x,y,z
-x,1/2+y,-z
-x,-y,-z
x,1/2-y,z
loop_
_atom_site_type_symbol
_atom_site_label
_atom_site_fract_x
_atom_site_fract_y
_atom_site_fract_z
Si Si1 0.938489 0.047716 0.357983
Si Si2 0.868048 0.962218 0.631237
Si Si3 0.307439 0.036411 0.140404
Si Si4 0.767218 0.045002 0.309605
Si Si5 0.306882 0.449178 0.894298
Si Si6 0.408784 0.541298 0.467527
Si Si7 0.519465 0.951764 0.803601
O O1 0.955680 0.250000 0.322547
O O2 0.868686 0.970869 0.297398
O O3 0.041512 0.975448 0.338735
O O4 0.881859 0.033088 0.500603
O O5 0.870587 0.750000 0.622980
O O6 0.772318 0.014212 0.735255
O O7 0.310304 0.250000 0.137392
O O8 0.410078 0.978644 0.134502
O O9 0.284262 0.975611 0.026446
O O10 0.771896 0.250000 0.333917
O O11 0.682896 0.973888 0.425222
O O12 0.737899 0.030776 0.194745
O O13 0.275413 0.250000 0.908131
O O14 0.420141 0.455498 0.834865
O O15 0.500000 0.500000 0.500000
O O16 0.402722 0.750000 0.458762
O O17 0.424349 0.463379 0.338517
O O18 0.497973 0.750000 0.836204
#
# Coordination Sequence:
#
# PCOD9164564 Si02
#       7
#     4   4   4   4   4   4   4
#     4   9  18  33  56  83 108 134 166 209 262 314
#     4   9  17  34  58  81 106 134 168 212 260 310
#     4   9  20  36  54  77 103 137 177 218 261 307
#     4  10  21  36  52  75 108 141 171 210 262 310
#     4  11  22  36  53  73 102 140 183 219 254 309
#     4  11  21  33  51  75 106 138 173 213 257 307
#     4  11  21  35  54  76 105 137 174 219 268 314
#
# _framework density 21.366508
#
# number of rings (size 3 to 8) (size 9 to 14) (size 15 to 20)
#    0.000    2.000    1.429    2.571    0.000    1.143 
#    0.000    5.000    0.000    0.000    0.000    0.000 
#    0.000    0.000    0.000    0.000    0.000    0.000 
#
# Total GULP energy -156388.085053 kJ/mol
# GULP energy per Si atom -5585.288752 kJ/mol
# Density = 2.131788 g / cm^3
# Si number density = 21.366508 Si / 1000 Ang^3
#
#
#
# Elastic Constant Matrix: (Units=GPa)
#
#
# Indices 1 2 3 4 5 6 
#
# 1 119.5221 -7.4012 14.6615 0.0000 17.2550 0.0000
# 2 -7.4012 43.9398 -16.8217 0.0000 -4.3991 0.0000
# 3 14.6615 -16.8217 42.1528 0.0000 3.6156 0.0000
# 4 0.0000 0.0000 0.0000 10.4306 0.0000 -8.0873
# 5 17.2550 -4.3991 3.6156 0.0000 17.0148 0.0000
# 6 0.0000 0.0000 0.0000 -8.0873 0.0000 -1.4198
#
#
#
# Elastic Compliance Matrix: (Units=1/GPa)
#
#
# Indices 1 2 3 4 5 6 
#
# 1 0.010095 -0.000352 -0.002817 0.000000 -0.009730 0.000000
# 2 -0.000352 0.027258 0.010557 0.000000 0.005161 0.000000
# 3 -0.002817 0.010557 0.028965 0.000000 -0.000568 0.000000
# 4 0.000000 0.000000 0.000000 0.017700 0.000000 -0.100822
# 5 -0.009730 0.005161 -0.000568 0.000000 0.070095 0.000000
# 6 0.000000 0.000000 0.000000 -0.100822 0.000000 -0.130036
#
#
# Mechanical properties :
#
#
# Convention : Reuss Voigt Hill
#
# Bulk Modulus (GPa) = 12.33149 20.72133 16.52641
# Shear Modulus (GPa) = 137.61687 19.55019 78.58353
#
# Velocity S-wave (km/s) = 8.03415 3.02817 6.07114
# Velocity P-wave (km/s) = 9.58370 4.68460 7.54297
#
# Compressibility (1/GPa) = 0.08109319
#
# Stress axis : x y z
#
# Youngs Moduli (GPa) = 99.05768 36.68710 34.52451
#
# Poissons Ratio (x) = 0.01292 0.09726
# Poissons Ratio (y) = 0.03490 -0.36449
# Poissons Ratio (z) = 0.27907 -0.38732
#
# Static dielectric constant tensor:
#      x y z
#    x 1.786150 0.000000 0.008930 
#    y 0.000000 1.806220 0.000000 
#    z 0.008930 0.000000 1.748540 
# 
# From -- ./inp_files/37443.got.cif
#   From: 2010.05.17/outbox.cif.g08.bks.cpg/sg11_19_cif.got.tgz:37443.got - 2010.06.03 12:22:45.
