data_PCOD9164952
_publ_section_title
;
Structure prediction by ZEFSAII (Michael W. Deem and Ramdas Pophale) SiO2 
 PCOD9164952
Probable space group: P 21/M
;
_chemical_formula_sum "Si O2"
_cell_formula_units_Z 32
_cell_length_a 13.001771
_cell_length_b 8.043557
_cell_length_c 30.697474
_cell_angle_alpha 90.000000
_cell_angle_beta 155.609991
_cell_angle_gamma 90.000000
_cell_volume 1325.702768
_symmetry_space_group_name_H-M "P 21/M"
_symmetry_group_IT_number 11
_symmetry_cell_setting 'monoclinic'
loop_
_space_group_symop_operation_xyz
x,y,z
-x,1/2+y,-z
-x,-y,-z
x,1/2-y,z
loop_
_atom_site_type_symbol
_atom_site_label
_atom_site_fract_x
_atom_site_fract_y
_atom_site_fract_z
Si Si1 0.585814 0.049428 0.985571
Si Si2 0.566659 0.942368 0.158853
Si Si3 0.023355 0.440202 0.058031
Si Si4 0.235724 0.054398 0.453402
Si Si5 0.792635 0.947726 0.335588
Si Si6 0.465977 0.940272 0.285924
Si Si7 0.107768 0.445934 0.218188
Si Si8 0.791950 0.054643 0.649961
O O1 0.574833 0.250000 0.977556
O O2 0.877256 0.998847 0.098964
O O3 0.403309 0.979997 0.877530
O O4 0.500000 0.000000 0.000000
O O5 0.661300 0.750000 0.195538
O O6 0.648458 0.016072 0.236803
O O7 0.266072 0.937962 0.040829
O O8 0.113854 0.250000 0.097289
O O9 0.227146 0.549249 0.161431
O O10 0.000000 0.500000 0.000000
O O11 0.252750 0.250000 0.468237
O O12 0.513339 0.985732 0.553055
O O13 0.111638 0.025161 0.357788
O O14 0.076614 0.976750 0.430944
O O15 0.742951 0.750000 0.318445
O O16 0.688259 0.013405 0.341389
O O17 0.525367 0.750000 0.319896
O O18 0.363296 0.021217 0.290593
O O19 0.084688 0.250000 0.216300
O O20 0.081707 0.532101 0.254716
O O21 0.774424 0.250000 0.633719
#
# Coordination Sequence:
#
# PCOD9164952 Si02
#       8
#     4   4   4   4   4   4   4   4
#     4  10  22  38  54  79 117 157 196 241 289 343
#     4   9  18  35  53  75 112 155 194 234 285 340
#     4  11  19  33  53  76 110 152 197 243 286 336
#     4  10  22  41  65  94 121 146 190 247 299 356
#     4  10  21  37  59  87 121 159 198 244 299 353
#     4  11  22  37  57  85 119 159 204 246 295 358
#     4  11  23  40  62  88 120 158 201 248 295 351
#     4  10  22  42  67  91 118 153 191 240 301 361
#
# _framework density 24.138142999999999
#
# number of rings (size 3 to 8) (size 9 to 14) (size 15 to 20)
#    0.000    1.750    2.500    1.875    1.750    3.500 
#    0.000    0.625    0.000    0.000    0.000    0.000 
#    0.000    0.000    0.000    0.000    0.000    0.000 
#
# Total GULP energy -178591.278763 kJ/mol
# GULP energy per Si atom -5580.977461 kJ/mol
# Density = 2.408320 g / cm^3
# Si number density = 24.138143 Si / 1000 Ang^3
#
#
#
# Elastic Constant Matrix: (Units=GPa)
#
#
# Indices 1 2 3 4 5 6 
#
# 1 120.2523 1.0685 -4.8748 0.0000 28.9352 0.0000
# 2 1.0685 24.5796 -6.8686 0.0000 3.2172 0.0000
# 3 -4.8748 -6.8686 38.7037 0.0000 9.4167 0.0000
# 4 0.0000 0.0000 0.0000 18.4060 0.0000 0.7832
# 5 28.9352 3.2172 9.4167 0.0000 35.7503 0.0000
# 6 0.0000 0.0000 0.0000 0.7832 0.0000 27.7847
#
#
#
# Elastic Compliance Matrix: (Units=1/GPa)
#
#
# Indices 1 2 3 4 5 6 
#
# 1 0.010900 0.002020 0.004191 0.000000 -0.010108 0.000000
# 2 0.002020 0.044531 0.010183 0.000000 -0.008325 0.000000
# 3 0.004191 0.010183 0.031221 0.000000 -0.012532 0.000000
# 4 0.000000 0.000000 0.000000 0.054395 0.000000 -0.001533
# 5 -0.010108 -0.008325 -0.012532 0.000000 0.040203 0.000000
# 6 0.000000 0.000000 0.000000 -0.001533 0.000000 0.036034
#
#
# Mechanical properties :
#
#
# Convention : Reuss Voigt Hill
#
# Bulk Modulus (GPa) = 8.37247 18.02067 13.19657
# Shear Modulus (GPa) = 22.29047 29.33556 25.81301
#
# Velocity S-wave (km/s) = 3.04214 3.48993 3.27370
# Velocity P-wave (km/s) = 3.97688 4.87045 4.44617
#
# Compressibility (1/GPa) = 0.11943912
#
# Stress axis : x y z
#
# Youngs Moduli (GPa) = 91.74400 22.45612 32.02950
#
# Poissons Ratio (x) = -0.04536 -0.13422
# Poissons Ratio (y) = -0.18534 -0.32614
# Poissons Ratio (z) = -0.38446 -0.22866
#
# Static dielectric constant tensor:
#      x y z
#    x 2.041540 0.000000 0.023490 
#    y 0.000000 1.870790 0.000000 
#    z 0.023490 0.000000 2.015860 
# 
# From -- ./inp_files/73176.got.cif
#   From: 2010.05.17/outbox.cif.g08.bks.cpg/sg11_37_cif.got.tgz:73176.got - 2010.06.03 12:22:45.
