data_PCOD9164879
_publ_section_title
;
Structure prediction by ZEFSAII (Michael W. Deem and Ramdas Pophale) SiO2 
 PCOD9164879
Probable space group: P 21/M
;
_chemical_formula_sum "Si O2"
_cell_formula_units_Z 32
_cell_length_a 5.623252
_cell_length_b 18.427213
_cell_length_c 14.331231
_cell_angle_alpha 90.000000
_cell_angle_beta 83.956365
_cell_angle_gamma 90.000000
_cell_volume 1476.760805
_symmetry_space_group_name_H-M "P 21/M"
_symmetry_group_IT_number 11
_symmetry_cell_setting 'monoclinic'
loop_
_space_group_symop_operation_xyz
x,y,z
-x,1/2+y,-z
-x,-y,-z
x,1/2-y,z
loop_
_atom_site_type_symbol
_atom_site_label
_atom_site_fract_x
_atom_site_fract_y
_atom_site_fract_z
Si Si1 0.960016 0.021293 0.848728
Si Si2 0.208244 0.406956 0.998123
Si Si3 0.962744 0.075628 0.549684
Si Si4 0.683177 0.162861 0.061497
Si Si5 0.671899 0.426959 0.251462
Si Si6 0.662597 0.670106 0.376924
Si Si7 0.389481 0.924208 0.270340
Si Si8 0.694363 0.168887 0.430944
O O1 0.809180 0.975126 0.929901
O O2 0.064503 0.962783 0.771200
O O3 0.804011 0.080752 0.802986
O O4 0.175789 0.058424 0.897189
O O5 0.457121 0.365853 0.008544
O O6 0.954381 0.363451 0.022909
O O7 0.733853 0.068558 0.623725
O O8 0.926864 0.136856 0.472761
O O9 0.165568 0.103261 0.609712
O O10 0.000000 0.000000 0.500000
O O11 0.678037 0.250000 0.064725
O O12 0.639966 0.126824 0.165287
O O13 0.508194 0.497628 0.251543
O O14 0.633035 0.384913 0.349476
O O15 0.776337 0.750000 0.365176
O O16 0.539726 0.648169 0.284351
O O17 0.495661 0.672549 0.476414
O O18 0.731463 0.250000 0.393304
#
# Coordination Sequence:
#
# PCOD9164879 Si02
#       8
#     4   4   4   4   4   4   4   4
#     4  10  22  38  64  93 121 162 214 270 323 385
#     4  10  23  41  69  96 129 175 219 265 329 396
#     4  11  21  36  59  85 121 165 214 266 312 378
#     4  11  23  43  67  98 138 175 213 265 333 399
#     4  11  22  37  63  94 127 160 211 267 323 390
#     4  10  22  39  58  82 121 169 211 263 327 388
#     4  11  21  37  60  90 118 157 214 267 316 383
#     4  10  21  37  57  87 124 165 207 256 323 387
#
# _framework density 21.669046999999999
#
# number of rings (size 3 to 8) (size 9 to 14) (size 15 to 20)
#    0.000    1.500    1.250    4.125    1.750    4.000 
#    0.000    1.250    0.000    0.000    0.000    0.000 
#    0.000    0.000    0.000    0.000    0.000    0.000 
#
# Total GULP energy -178548.966469 kJ/mol
# GULP energy per Si atom -5579.655202 kJ/mol
# Density = 2.161973 g / cm^3
# Si number density = 21.669047 Si / 1000 Ang^3
#
#
#
# Elastic Constant Matrix: (Units=GPa)
#
#
# Indices 1 2 3 4 5 6 
#
# 1 72.5012 35.1638 25.2466 0.0000 15.0855 0.0000
# 2 35.1638 102.5835 46.9461 0.0000 10.7035 0.0000
# 3 25.2466 46.9461 75.4374 0.0000 9.6334 0.0000
# 4 0.0000 0.0000 0.0000 28.9485 0.0000 4.9386
# 5 15.0855 10.7035 9.6334 0.0000 20.9494 0.0000
# 6 0.0000 0.0000 0.0000 4.9386 0.0000 30.6212
#
#
#
# Elastic Compliance Matrix: (Units=1/GPa)
#
#
# Indices 1 2 3 4 5 6 
#
# 1 0.018835 -0.004333 -0.002292 0.000000 -0.010295 0.000000
# 2 -0.004333 0.014839 -0.007665 0.000000 -0.000937 0.000000
# 3 -0.002292 -0.007665 0.019210 0.000000 -0.003267 0.000000
# 4 0.000000 0.000000 0.000000 0.035521 0.000000 -0.005729
# 5 -0.010295 -0.000937 -0.003267 0.000000 0.057128 0.000000
# 6 0.000000 0.000000 0.000000 -0.005729 0.000000 0.033581
#
#
# Mechanical properties :
#
#
# Convention : Reuss Voigt Hill
#
# Bulk Modulus (GPa) = 41.14578 51.69280 46.41929
# Shear Modulus (GPa) = 23.17006 25.64819 24.40912
#
# Velocity S-wave (km/s) = 3.27352 3.44413 3.35991
# Velocity P-wave (km/s) = 5.77212 6.30265 6.04321
#
# Compressibility (1/GPa) = 0.02430383
#
# Stress axis : x y z
#
# Youngs Moduli (GPa) = 53.09344 67.39061 52.05552
#
# Poissons Ratio (x) = 0.29201 0.11932
# Poissons Ratio (y) = 0.23006 0.39899
# Poissons Ratio (z) = 0.12170 0.51653
#
# Static dielectric constant tensor:
#      x y z
#    x 1.049140 0.000000 0.944550 
#    y 0.000000 1.723140 0.000000 
#    z 0.944550 0.000000 0.751270 
# 
# From -- ./inp_files/46044.got.cif
#   From: 2010.05.17/outbox.cif.g08.bks.cpg/sg11_24_cif.got.tgz:46044.got - 2010.06.03 12:22:45.
