data_PCOD9164592
_publ_section_title
;
Structure prediction by ZEFSAII (Michael W. Deem and Ramdas Pophale) SiO2 
 PCOD9164592
Probable space group: P 21/M
;
_chemical_formula_sum "Si O2"
_cell_formula_units_Z 30
_cell_length_a 13.869457
_cell_length_b 20.780723
_cell_length_c 14.904765
_cell_angle_alpha 90.000000
_cell_angle_beta 160.451526
_cell_angle_gamma 90.000000
_cell_volume 1437.396852
_symmetry_space_group_name_H-M "P 21/M"
_symmetry_group_IT_number 11
_symmetry_cell_setting 'monoclinic'
loop_
_space_group_symop_operation_xyz
x,y,z
-x,1/2+y,-z
-x,-y,-z
x,1/2-y,z
loop_
_atom_site_type_symbol
_atom_site_label
_atom_site_fract_x
_atom_site_fract_y
_atom_site_fract_z
Si Si1 0.744397 0.824226 0.156214
Si Si2 0.124623 0.844093 0.941721
Si Si3 0.876745 0.010065 0.990551
Si Si4 0.483575 0.604791 0.098194
Si Si5 0.727216 0.054981 0.521577
Si Si6 0.597297 0.176136 0.314589
Si Si7 0.580357 0.750000 0.433210
Si Si8 0.984230 0.520221 0.589545
O O1 0.646823 0.750000 0.077543
O O2 0.608574 0.862349 0.118991
O O3 0.089164 0.824056 0.457646
O O4 0.630089 0.847296 0.959209
O O5 0.080418 0.917502 0.935985
O O6 0.291253 0.849579 0.991873
O O7 0.339187 0.805882 0.195211
O O8 0.828019 0.806060 0.669841
O O9 0.542304 0.991551 0.699014
O O10 0.000000 0.000000 0.000000
O O11 0.041049 0.960791 0.200165
O O12 0.752433 0.577844 0.390098
O O13 0.284240 0.545669 0.891372
O O14 0.619022 0.127891 0.416787
O O15 0.867237 0.036401 0.548854
O O16 0.531163 0.250000 0.282159
O O17 0.000000 0.500000 0.500000
#
# Coordination Sequence:
#
# PCOD9164592 Si02
#       8
#     4   4   4   4   4   4   2   4
#     4  10  21  36  53  87 124 177 222 263 308 389
#     4  11  22  44  63 100 126 175 214 260 338 384
#     4  12  26  46  74  98 131 166 220 282 333 404
#     4  12  22  37  55  89 132 170 219 270 309 386
#     4  12  22  43  67 100 124 177 215 268 340 387
#     4  10  22  41  63  87 129 171 220 271 324 384
#     4  10  24  38  70  90 132 168 204 264 324 400
#     4  12  23  36  59  92 133 172 212 271 323 384
#
# _framework density 20.871062999999999
#
# number of rings (size 3 to 8) (size 9 to 14) (size 15 to 20)
#    0.000    0.800    2.667    5.600    1.867    0.000 
#    2.400    0.000    8.800    0.000    0.000    0.000 
#    0.000    0.000    0.000    0.000    0.000    0.000 
#
# Total GULP energy -167308.764256 kJ/mol
# GULP energy per Si atom -5576.958809 kJ/mol
# Density = 2.082356 g / cm^3
# Si number density = 20.871063 Si / 1000 Ang^3
#
#
#
# Elastic Constant Matrix: (Units=GPa)
#
#
# Indices 1 2 3 4 5 6 
#
# 1 59.0086 2.1447 -1.6222 0.0000 6.8657 0.0000
# 2 2.1447 75.9527 -1.0365 0.0000 19.8318 0.0000
# 3 -1.6222 -1.0365 93.5990 0.0000 1.8967 0.0000
# 4 0.0000 0.0000 0.0000 52.3549 0.0000 1.3934
# 5 6.8657 19.8318 1.8967 0.0000 -20.6889 0.0000
# 6 0.0000 0.0000 0.0000 1.3934 0.0000 4.1904
#
#
#
# Elastic Compliance Matrix: (Units=1/GPa)
#
#
# Indices 1 2 3 4 5 6 
#
# 1 0.016536 -0.001521 0.000188 0.000000 0.004047 0.000000
# 2 -0.001521 0.010671 -0.000105 0.000000 0.009715 0.000000
# 3 0.000188 -0.000105 0.010667 0.000000 0.000940 0.000000
# 4 0.000000 0.000000 0.000000 0.019271 0.000000 -0.006408
# 5 0.004047 0.009715 0.000940 0.000000 -0.037594 0.000000
# 6 0.000000 0.000000 0.000000 -0.006408 0.000000 0.240769
#
#
# Mechanical properties :
#
#
# Convention : Reuss Voigt Hill
#
# Bulk Modulus (GPa) = 28.57339 25.28136 26.92738
# Shear Modulus (GPa) = 18.19087 22.44292 20.31690
#
# Velocity S-wave (km/s) = 2.95546 3.28275 3.12340
# Velocity P-wave (km/s) = 5.03652 5.14860 5.09286
#
# Compressibility (1/GPa) = 0.03499760
#
# Stress axis : x y z
#
# Youngs Moduli (GPa) = 60.47316 93.71133 93.74770
#
# Poissons Ratio (x) = 0.14254 -0.01760
# Poissons Ratio (y) = 0.09198 0.00985
# Poissons Ratio (z) = -0.01135 0.00984
#
# Static dielectric constant tensor:
#      x y z
#    x 1.739190 0.000000 -0.001940 
#    y 0.000000 1.791880 0.000000 
#    z -0.001940 0.000000 1.721260 
# 
# From -- ./inp_files/52662.got.cif
#   From: 2010.05.17/outbox.cif.g08.bks.cpg/sg11_27_cif.got.tgz:52662.got - 2010.06.03 12:22:45.
