data_PCOD9164270
_publ_section_title
;
Structure prediction by ZEFSAII (Michael W. Deem and Ramdas Pophale) SiO2 
 PCOD9164270
Probable space group: P 21/M
;
_chemical_formula_sum "Si O2"
_cell_formula_units_Z 24
_cell_length_a 5.324680
_cell_length_b 15.298889
_cell_length_c 14.086665
_cell_angle_alpha 90.000000
_cell_angle_beta 57.260275
_cell_angle_gamma 90.000000
_cell_volume 965.223354
_symmetry_space_group_name_H-M "P 21/M"
_symmetry_group_IT_number 11
_symmetry_cell_setting 'monoclinic'
loop_
_space_group_symop_operation_xyz
x,y,z
-x,1/2+y,-z
-x,-y,-z
x,1/2-y,z
loop_
_atom_site_type_symbol
_atom_site_label
_atom_site_fract_x
_atom_site_fract_y
_atom_site_fract_z
Si Si1 0.319915 0.598510 0.116552
Si Si2 0.265109 0.250000 0.632419
Si Si3 0.444476 0.750000 0.223956
Si Si4 0.215004 0.510197 0.752134
Si Si5 0.065622 0.353069 0.331274
Si Si6 0.623831 0.074514 0.544713
Si Si7 0.625917 0.083498 0.102960
O O1 0.485037 0.667242 0.148030
O O2 0.475237 0.505920 0.100316
O O3 0.993649 0.573615 0.221561
O O4 0.300233 0.629149 0.010974
O O5 0.340938 0.250000 0.730083
O O6 0.436355 0.162890 0.563078
O O7 0.913490 0.250000 0.678052
O O8 0.138318 0.591060 0.699762
O O9 0.539541 0.467761 0.664321
O O10 0.131158 0.547982 0.872891
O O11 0.009315 0.250000 0.344518
O O12 0.962140 0.396498 0.452246
O O13 0.396064 0.367616 0.220750
O O14 0.500000 0.000000 0.500000
#
# Coordination Sequence:
#
# PCOD9164270 Si02
#       7
#     4   2   2   4   4   4   4
#     4  10  22  40  63  93 127 172 221 287 332 411
#     4  12  24  48  69 103 144 184 236 297 341 419
#     4  12  26  44  71 105 140 176 238 287 353 407
#     4  10  20  40  65  89 122 175 226 275 340 411
#     4  10  22  39  56  91 135 166 220 273 344 409
#     4  10  21  42  66  95 135 181 231 283 346 410
#     4  10  22  40  63  89 130 173 226 269 347 411
#
# _framework density 24.864712000000001
#
# number of rings (size 3 to 8) (size 9 to 14) (size 15 to 20)
#    0.000    1.667    2.500    1.500    1.167    1.333 
#    6.000    0.000    0.000    0.000    0.000    0.000 
#    0.000    0.000    0.000    0.000    0.000    0.000 
#
# Total GULP energy -133945.252821 kJ/mol
# GULP energy per Si atom -5581.052201 kJ/mol
# Density = 2.480812 g / cm^3
# Si number density = 24.864712 Si / 1000 Ang^3
#
#
#
# Elastic Constant Matrix: (Units=GPa)
#
#
# Indices 1 2 3 4 5 6 
#
# 1 43.4579 13.0115 4.9066 0.0000 4.6171 0.0000
# 2 13.0115 125.2330 41.7253 0.0000 -4.5625 0.0000
# 3 4.9066 41.7253 82.7523 0.0000 4.9526 0.0000
# 4 0.0000 0.0000 0.0000 28.5894 0.0000 6.7157
# 5 4.6171 -4.5625 4.9526 0.0000 38.2448 0.0000
# 6 0.0000 0.0000 0.0000 6.7157 0.0000 23.3163
#
#
#
# Elastic Compliance Matrix: (Units=1/GPa)
#
#
# Indices 1 2 3 4 5 6 
#
# 1 0.024141 -0.002661 0.000105 0.000000 -0.003245 0.000000
# 2 -0.002661 0.010013 -0.005021 0.000000 0.002166 0.000000
# 3 0.000105 -0.005021 0.014761 0.000000 -0.002523 0.000000
# 4 0.000000 0.000000 0.000000 0.037516 0.000000 -0.010806
# 5 -0.003245 0.002166 -0.002523 0.000000 0.027124 0.000000
# 6 0.000000 0.000000 0.000000 -0.010806 0.000000 0.046001
#
#
# Mechanical properties :
#
#
# Convention : Reuss Voigt Hill
#
# Bulk Modulus (GPa) = 29.62093 41.19222 35.40658
# Shear Modulus (GPa) = 26.88694 30.81673 28.85183
#
# Velocity S-wave (km/s) = 3.29192 3.52430 3.41009
# Velocity P-wave (km/s) = 5.13690 5.75877 5.45670
#
# Compressibility (1/GPa) = 0.03375991
#
# Stress axis : x y z
#
# Youngs Moduli (GPa) = 41.42405 99.86660 67.74783
#
# Poissons Ratio (x) = 0.26578 -0.00710
# Poissons Ratio (y) = 0.11024 0.34015
# Poissons Ratio (z) = -0.00434 0.50141
#
# Static dielectric constant tensor:
#      x y z
#    x 2.045890 0.000000 -0.030160 
#    y 0.000000 1.940040 0.000000 
#    z -0.030160 0.000000 2.185240 
# 
# From -- ./inp_files/45716.got.cif
#   From: 2010.05.17/outbox.cif.g08.bks.cpg/sg11_23_cif.got.tgz:45716.got - 2010.06.03 12:22:45.
