data_PCOD9164360
_publ_section_title
;
Structure prediction by ZEFSAII (Michael W. Deem and Ramdas Pophale) SiO2 
 PCOD9164360
Probable space group: P 21/M
;
_chemical_formula_sum "Si O2"
_cell_formula_units_Z 24
_cell_length_a 8.145521
_cell_length_b 15.447960
_cell_length_c 17.823021
_cell_angle_alpha 90.000000
_cell_angle_beta 33.402302
_cell_angle_gamma 90.000000
_cell_volume 1234.638777
_symmetry_space_group_name_H-M "P 21/M"
_symmetry_group_IT_number 11
_symmetry_cell_setting 'monoclinic'
loop_
_space_group_symop_operation_xyz
x,y,z
-x,1/2+y,-z
-x,-y,-z
x,1/2-y,z
loop_
_atom_site_type_symbol
_atom_site_label
_atom_site_fract_x
_atom_site_fract_y
_atom_site_fract_z
Si Si1 0.749410 0.145514 0.558576
Si Si2 0.727688 0.412095 0.737329
Si Si3 0.356215 0.390821 0.236029
Si Si4 0.387641 0.750000 0.603060
Si Si5 0.321777 0.750000 0.793234
Si Si6 0.611497 0.750000 0.067126
Si Si7 0.350576 0.411797 0.584850
Si Si8 0.675997 0.750000 0.874978
O O1 0.727022 0.250000 0.570385
O O2 0.807850 0.108201 0.619516
O O3 0.452255 0.106124 0.632080
O O4 0.025467 0.121529 0.398327
O O5 0.589004 0.507860 0.792802
O O6 0.513597 0.334995 0.844966
O O7 0.009337 0.412697 0.687021
O O8 0.572035 0.337650 0.207870
O O9 0.388424 0.336837 0.147109
O O10 0.487905 0.750000 0.650267
O O11 0.501822 0.833015 0.516401
O O12 0.033190 0.750000 0.743863
O O13 0.967388 0.750000 0.929559
O O14 0.520492 0.750000 0.014403
O O15 0.500000 0.500000 0.500000
#
# Coordination Sequence:
#
# PCOD9164360 Si02
#       8
#     4   4   4   2   2   2   4   2
#     4  12  22  41  68 102 137 170 207 268 339 400
#     4  12  26  43  65 100 141 168 208 275 335 396
#     4  11  21  43  69  97 122 170 223 269 323 387
#     4  11  19  37  60  89 127 164 211 263 314 386
#     4  10  24  40  68  87 118 177 229 272 311 373
#     4  11  27  46  60  95 131 176 225 272 327 371
#     4  12  23  38  64 103 133 166 206 260 340 398
#     4  10  20  43  66  85 126 171 229 267 302 378
#
# _framework density 19.438884000000002
#
# number of rings (size 3 to 8) (size 9 to 14) (size 15 to 20)
#    0.000    0.667    6.667    2.000    2.333    1.333 
#    6.000    0.000    0.000    0.000    0.000    0.000 
#    0.000    0.000    0.000    0.000    0.000    0.000 
#
# Total GULP energy -134011.675554 kJ/mol
# GULP energy per Si atom -5583.819815 kJ/mol
# Density = 1.939464 g / cm^3
# Si number density = 19.438884 Si / 1000 Ang^3
#
#
#
# Elastic Constant Matrix: (Units=GPa)
#
#
# Indices 1 2 3 4 5 6 
#
# 1 93.9531 28.2031 24.1888 0.0000 3.0452 0.0000
# 2 28.2031 186.5763 29.8746 0.0000 7.4249 0.0000
# 3 24.1888 29.8746 45.9135 0.0000 11.6209 0.0000
# 4 0.0000 0.0000 0.0000 11.9907 0.0000 -11.6262
# 5 3.0452 7.4249 11.6209 0.0000 32.9730 0.0000
# 6 0.0000 0.0000 0.0000 -11.6262 0.0000 -63.4266
#
#
#
# Elastic Compliance Matrix: (Units=1/GPa)
#
#
# Indices 1 2 3 4 5 6 
#
# 1 0.012505 -0.000932 -0.006305 0.000000 0.001277 0.000000
# 2 -0.000932 0.006053 -0.003430 0.000000 -0.000068 0.000000
# 3 -0.006305 -0.003430 0.029634 0.000000 -0.009090 0.000000
# 4 0.000000 0.000000 0.000000 0.070813 0.000000 -0.012980
# 5 0.001277 -0.000068 -0.009090 0.000000 0.033429 0.000000
# 6 0.000000 0.000000 0.000000 -0.012980 0.000000 -0.013387
#
#
# Mechanical properties :
#
#
# Convention : Reuss Voigt Hill
#
# Bulk Modulus (GPa) = 37.23272 54.55286 45.89279
# Shear Modulus (GPa) = 29.52758 12.58584 21.05671
#
# Velocity S-wave (km/s) = 3.90166 2.54728 3.29481
# Velocity P-wave (km/s) = 6.28431 6.06434 6.17530
#
# Compressibility (1/GPa) = 0.02685810
#
# Stress axis : x y z
#
# Youngs Moduli (GPa) = 79.96691 165.22098 33.74448
#
# Poissons Ratio (x) = 0.15391 0.21277
# Poissons Ratio (y) = 0.07449 0.11575
# Poissons Ratio (z) = 0.50421 0.56675
#
# Static dielectric constant tensor:
#      x y z
#    x 1.779900 0.000000 0.008360 
#    y 0.000000 1.633400 0.000000 
#    z 0.008360 0.000000 1.642470 
# 
# From -- ./inp_files/22077.got.cif
#   From: 2010.05.17/outbox.cif.g08.bks.cpg/sg11_12_cif.got.tgz:22077.got - 2010.06.03 12:22:45.
