data_PCOD9164217
_publ_section_title
;
Structure prediction by ZEFSAII (Michael W. Deem and Ramdas Pophale) SiO2 
 PCOD9164217
Probable space group: P 21/M
;
_chemical_formula_sum "Si O2"
_cell_formula_units_Z 24
_cell_length_a 8.005811
_cell_length_b 23.829861
_cell_length_c 5.161623
_cell_angle_alpha 90.000000
_cell_angle_beta 93.563835
_cell_angle_gamma 90.000000
_cell_volume 982.816537
_symmetry_space_group_name_H-M "P 21/M"
_symmetry_group_IT_number 11
_symmetry_cell_setting 'monoclinic'
loop_
_space_group_symop_operation_xyz
x,y,z
-x,1/2+y,-z
-x,-y,-z
x,1/2-y,z
loop_
_atom_site_type_symbol
_atom_site_label
_atom_site_fract_x
_atom_site_fract_y
_atom_site_fract_z
Si Si1 0.126057 0.080143 0.487457
Si Si2 0.602718 0.616025 0.125139
Si Si3 0.821703 0.031277 0.771143
Si Si4 0.788560 0.687662 0.773775
Si Si5 0.345057 0.576742 0.733650
Si Si6 0.414216 0.813504 0.489482
O O1 0.303080 0.079759 0.653624
O O2 0.106153 0.141819 0.368324
O O3 0.980549 0.064659 0.672308
O O4 0.131675 0.033651 0.262835
O O5 0.451615 0.653336 0.226760
O O6 0.742229 0.660062 0.042864
O O7 0.527720 0.579371 0.885218
O O8 0.680373 0.044993 0.539558
O O9 0.768145 0.050358 0.050673
O O10 0.857597 0.750000 0.794498
O O11 0.602942 0.690378 0.625413
O O12 0.313914 0.642306 0.655538
O O13 0.350538 0.750000 0.457669
#
# Coordination Sequence:
#
# PCOD9164217 Si02
#       6
#     4   4   4   4   4   4
#     4  10  25  42  66  93 127 181 214 262 325 382
#     4  10  20  39  67 101 124 169 219 267 323 379
#     4  11  26  44  66  92 138 170 217 260 325 393
#     4   9  19  37  64  96 128 163 218 270 316 379
#     4  11  23  43  64  97 128 169 211 275 317 379
#     4   9  18  38  64  94 129 169 215 266 327 383
#
# _framework density 24.419616000000001
#
# number of rings (size 3 to 8) (size 9 to 14) (size 15 to 20)
#    0.000    2.000    1.667    0.500    4.667    4.000 
#    0.000    1.667    0.000    0.000    0.000    0.000 
#    0.000    0.000    0.000    0.000    0.000    0.000 
#
# Total GULP energy -134186.384686 kJ/mol
# GULP energy per Si atom -5591.099362 kJ/mol
# Density = 2.436404 g / cm^3
# Si number density = 24.419616 Si / 1000 Ang^3
#
#
#
# Elastic Constant Matrix: (Units=GPa)
#
#
# Indices 1 2 3 4 5 6 
#
# 1 60.0591 38.5164 22.0105 0.0000 -3.1440 0.0000
# 2 38.5164 145.0414 27.9779 0.0000 -2.4321 0.0000
# 3 22.0105 27.9779 111.8733 0.0000 -7.7130 0.0000
# 4 0.0000 0.0000 0.0000 26.3892 0.0000 -12.6938
# 5 -3.1440 -2.4321 -7.7130 0.0000 23.2381 0.0000
# 6 0.0000 0.0000 0.0000 -12.6938 0.0000 7.6182
#
#
#
# Elastic Compliance Matrix: (Units=1/GPa)
#
#
# Indices 1 2 3 4 5 6 
#
# 1 0.020949 -0.005005 -0.002774 0.000000 0.001390 0.000000
# 2 -0.005005 0.008440 -0.001138 0.000000 -0.000171 0.000000
# 3 -0.002774 -0.001138 0.009963 0.000000 0.002812 0.000000
# 4 0.000000 0.000000 0.000000 0.190899 0.000000 0.318083
# 5 0.001390 -0.000171 0.002812 0.000000 0.044136 0.000000
# 6 0.000000 0.000000 0.000000 0.318083 0.000000 0.661267
#
#
# Mechanical properties :
#
#
# Convention : Reuss Voigt Hill
#
# Bulk Modulus (GPa) = 46.47126 54.88704 50.67915
# Shear Modulus (GPa) = 5.20475 26.68037 15.94256
#
# Velocity S-wave (km/s) = 1.46151 3.30901 2.55788
# Velocity P-wave (km/s) = 4.68184 6.09301 5.43343
#
# Compressibility (1/GPa) = 0.02151868
#
# Stress axis : x y z
#
# Youngs Moduli (GPa) = 47.73426 118.47996 100.37160
#
# Poissons Ratio (x) = 0.59296 0.27846
# Poissons Ratio (y) = 0.23890 0.11422
# Poissons Ratio (z) = 0.13243 0.13482
#
# Static dielectric constant tensor:
#      x y z
#    x 1.970460 0.000000 0.000780 
#    y 0.000000 1.945520 0.000000 
#    z 0.000780 0.000000 2.001610 
# 
# From -- ./inp_files/2711.got.cif
#   From: 2010.05.17/outbox.cif.g08.bks.cpg/sg11_2_cif.got.tgz:2711.got - 2010.06.03 12:22:45.
