data_PCOD9164212
_publ_section_title
;
Structure prediction by ZEFSAII (Michael W. Deem and Ramdas Pophale) SiO2 
 PCOD9164212
Probable space group: P 21/M
;
_chemical_formula_sum "Si O2"
_cell_formula_units_Z 32
_cell_length_a 21.385638
_cell_length_b 14.220692
_cell_length_c 15.436002
_cell_angle_alpha 90.000000
_cell_angle_beta 160.889753
_cell_angle_gamma 90.000000
_cell_volume 1536.876800
_symmetry_space_group_name_H-M "P 21/M"
_symmetry_group_IT_number 11
_symmetry_cell_setting 'monoclinic'
loop_
_space_group_symop_operation_xyz
x,y,z
-x,1/2+y,-z
-x,-y,-z
x,1/2-y,z
loop_
_atom_site_type_symbol
_atom_site_label
_atom_site_fract_x
_atom_site_fract_y
_atom_site_fract_z
Si Si1 0.884661 0.069590 0.410713
Si Si2 0.763305 0.525439 0.419331
Si Si3 0.545996 0.036455 0.695227
Si Si4 0.263625 0.355528 0.985840
Si Si5 0.644806 0.356556 0.387905
Si Si6 0.175141 0.564371 0.201093
Si Si7 0.880471 0.143420 0.053032
Si Si8 0.524308 0.358098 0.848360
O O1 0.047038 0.128522 0.672905
O O2 0.765567 0.007349 0.323391
O O3 0.739632 0.130402 0.164374
O O4 0.000000 0.000000 0.500000
O O5 0.720644 0.432703 0.420115
O O6 0.611868 0.601764 0.254721
O O7 0.967873 0.571569 0.707803
O O8 0.502468 0.077731 0.734225
O O9 0.346112 0.004298 0.393495
O O10 0.670705 0.113533 0.810074
O O11 0.671726 0.941429 0.869006
O O12 0.288746 0.250000 0.054724
O O13 0.416403 0.363160 0.106417
O O14 0.689382 0.250000 0.420054
O O15 0.740712 0.379992 0.606444
O O16 0.113942 0.630722 0.042834
O O17 0.000000 0.500000 0.000000
O O18 0.923602 0.250000 0.134975
O O19 0.479959 0.250000 0.770877
#
# Coordination Sequence:
#
# PCOD9164212 Si02
#       8
#     4   4   4   4   4   4   4   4
#     4  12  23  42  64  93 131 169 216 268 325 382
#     4  12  23  43  66  92 135 169 214 273 319 384
#     4  11  22  44  66  94 136 168 212 272 319 382
#     4  10  20  39  66  90 122 169 208 260 324 377
#     4  10  21  40  66  92 126 169 213 264 327 383
#     4  11  21  41  68  94 132 169 212 267 324 381
#     4  12  24  41  66  98 132 176 219 261 321 388
#     4  12  24  42  66  96 129 174 220 266 322 384
#
# _framework density 20.821446999999999
#
# number of rings (size 3 to 8) (size 9 to 14) (size 15 to 20)
#    0.000    0.750    6.250    2.250    0.000    1.500 
#    0.000    5.000    0.000    0.000    0.000    0.000 
#    0.000    0.000    0.000    0.000    0.000    0.000 
#
# Total GULP energy -178911.738919 kJ/mol
# GULP energy per Si atom -5590.991841 kJ/mol
# Density = 2.077406 g / cm^3
# Si number density = 20.821447 Si / 1000 Ang^3
#
#
#
# Elastic Constant Matrix: (Units=GPa)
#
#
# Indices 1 2 3 4 5 6 
#
# 1 52.6540 9.8945 -25.0308 0.0000 4.5339 0.0000
# 2 9.8945 122.9731 2.6147 0.0000 11.5396 0.0000
# 3 -25.0308 2.6147 54.3454 0.0000 13.5353 0.0000
# 4 0.0000 0.0000 0.0000 22.0463 0.0000 3.6158
# 5 4.5339 11.5396 13.5353 0.0000 28.5709 0.0000
# 6 0.0000 0.0000 0.0000 3.6158 0.0000 16.7925
#
#
#
# Elastic Compliance Matrix: (Units=1/GPa)
#
#
# Indices 1 2 3 4 5 6 
#
# 1 0.027646 -0.001508 0.015586 0.000000 -0.011161 0.000000
# 2 -0.001508 0.008547 -0.000347 0.000000 -0.003048 0.000000
# 3 0.015586 -0.000347 0.029679 0.000000 -0.016394 0.000000
# 4 0.000000 0.000000 0.000000 0.047020 0.000000 -0.010124
# 5 -0.011161 -0.003048 -0.016394 0.000000 0.045769 0.000000
# 6 0.000000 0.000000 0.000000 -0.010124 0.000000 0.061730
#
#
# Mechanical properties :
#
#
# Convention : Reuss Voigt Hill
#
# Bulk Modulus (GPa) = 10.71439 22.76991 16.74215
# Shear Modulus (GPa) = 22.31740 29.64821 25.98280
#
# Velocity S-wave (km/s) = 3.27746 3.77759 3.53638
# Velocity P-wave (km/s) = 4.41354 5.47599 4.97322
#
# Compressibility (1/GPa) = 0.09333244
#
# Stress axis : x y z
#
# Youngs Moduli (GPa) = 36.17211 117.00496 33.69377
#
# Poissons Ratio (x) = 0.17649 -0.52514
# Poissons Ratio (y) = 0.05456 0.01168
# Poissons Ratio (z) = -0.56377 0.04057
#
# Static dielectric constant tensor:
#      x y z
#    x 1.747300 0.000000 0.012180 
#    y 0.000000 1.738240 0.000000 
#    z 0.012180 0.000000 1.754270 
# 
# From -- ./inp_files/55015.got.cif
#   From: 2010.05.17/outbox.cif.g08.bks.cpg/sg11_28_cif.got.tgz:55015.got - 2010.06.03 12:22:45.
