data_PCOD9164142
_publ_section_title
;
Structure prediction by ZEFSAII (Michael W. Deem and Ramdas Pophale) SiO2 
 PCOD9164142
Probable space group: P 21/M
;
_chemical_formula_sum "Si O2"
_cell_formula_units_Z 32
_cell_length_a 12.527955
_cell_length_b 14.898053
_cell_length_c 19.025900
_cell_angle_alpha 90.000000
_cell_angle_beta 152.798342
_cell_angle_gamma 90.000000
_cell_volume 1623.261969
_symmetry_space_group_name_H-M "P 21/M"
_symmetry_group_IT_number 11
_symmetry_cell_setting 'monoclinic'
loop_
_space_group_symop_operation_xyz
x,y,z
-x,1/2+y,-z
-x,-y,-z
x,1/2-y,z
loop_
_atom_site_type_symbol
_atom_site_label
_atom_site_fract_x
_atom_site_fract_y
_atom_site_fract_z
Si Si1 0.264410 0.474235 0.166642
Si Si2 0.883326 0.111546 0.594632
Si Si3 0.709357 0.924684 0.430450
Si Si4 0.928277 0.649116 0.693010
Si Si5 0.268010 0.476818 0.907643
Si Si6 0.437414 0.142058 0.137927
Si Si7 0.393706 0.151061 0.365658
Si Si8 0.027781 0.651715 0.511797
O O1 0.433538 0.561246 0.260639
O O2 0.348318 0.399718 0.159247
O O3 0.292881 0.427406 0.258588
O O4 0.000000 0.500000 0.000000
O O5 0.672663 0.150188 0.517716
O O6 0.939245 0.154716 0.552481
O O7 0.111815 0.094247 0.773255
O O8 0.786631 0.016589 0.511936
O O9 0.822672 0.856818 0.552608
O O10 0.835984 0.915193 0.429930
O O11 0.027190 0.750000 0.761369
O O12 0.706830 0.638417 0.615495
O O13 0.111806 0.568980 0.818456
O O14 0.500000 0.500000 0.000000
O O15 0.337090 0.424809 0.019589
O O16 0.384615 0.250000 0.099638
O O17 0.719243 0.134573 0.305832
O O18 0.312504 0.250000 0.293919
O O19 0.946320 0.750000 0.486345
#
# Coordination Sequence:
#
# PCOD9164142 Si02
#       8
#     4   4   4   4   4   4   4   4
#     4  11  23  38  61  89 127 169 212 264 329 392
#     4  10  21  37  63  88 117 162 212 261 314 378
#     4  10  21  36  62  89 119 160 217 262 316 380
#     4  10  22  42  66  92 129 173 220 269 328 388
#     4  11  25  40  63  95 135 173 210 267 327 392
#     4  11  23  40  64  94 130 173 219 269 328 387
#     4  10  20  39  63  87 118 162 217 267 315 379
#     4  11  21  38  64  91 124 164 214 266 318 381
#
# _framework density 19.713391999999999
#
# number of rings (size 3 to 8) (size 9 to 14) (size 15 to 20)
#    0.000    1.500    2.500    3.750    1.750    8.000 
#    0.000    3.750    0.000    0.000    0.000    0.000 
#    0.000    0.000    0.000    0.000    0.000    0.000 
#
# Total GULP energy -178361.018765 kJ/mol
# GULP energy per Si atom -5573.781836 kJ/mol
# Density = 1.966852 g / cm^3
# Si number density = 19.713392 Si / 1000 Ang^3
#
#
#
# Elastic Constant Matrix: (Units=GPa)
#
#
# Indices 1 2 3 4 5 6 
#
# 1 93.1850 22.9130 16.6878 0.0000 5.4661 0.0000
# 2 22.9130 86.4517 19.4088 0.0000 1.9473 0.0000
# 3 16.6878 19.4088 76.3872 0.0000 3.0626 0.0000
# 4 0.0000 0.0000 0.0000 21.6908 0.0000 0.4157
# 5 5.4661 1.9473 3.0626 0.0000 33.2008 0.0000
# 6 0.0000 0.0000 0.0000 0.4157 0.0000 31.9250
#
#
#
# Elastic Compliance Matrix: (Units=1/GPa)
#
#
# Indices 1 2 3 4 5 6 
#
# 1 0.011815 -0.002683 -0.001834 0.000000 -0.001619 0.000000
# 2 -0.002683 0.012882 -0.002684 0.000000 -0.000066 0.000000
# 3 -0.001834 -0.002684 0.014208 0.000000 -0.000851 0.000000
# 4 0.000000 0.000000 0.000000 0.046114 0.000000 -0.000600
# 5 -0.001619 -0.000066 -0.000851 0.000000 0.030469 0.000000
# 6 0.000000 0.000000 0.000000 -0.000600 0.000000 0.031331
#
#
# Mechanical properties :
#
#
# Convention : Reuss Voigt Hill
#
# Bulk Modulus (GPa) = 40.81409 41.56035 41.18722
# Shear Modulus (GPa) = 29.51773 30.49762 30.00768
#
# Velocity S-wave (km/s) = 3.87375 3.93752 3.90577
# Velocity P-wave (km/s) = 6.38409 6.46531 6.42483
#
# Compressibility (1/GPa) = 0.02450134
#
# Stress axis : x y z
#
# Youngs Moduli (GPa) = 84.64171 77.62528 70.38217
#
# Poissons Ratio (x) = 0.20827 0.12911
# Poissons Ratio (y) = 0.22709 0.18894
# Poissons Ratio (z) = 0.15527 0.20838
#
# Static dielectric constant tensor:
#      x y z
#    x 1.697080 0.000000 -0.010610 
#    y 0.000000 1.735790 0.000000 
#    z -0.010610 0.000000 1.696440 
# 
# From -- ./inp_files/59523.got.cif
#   From: 2010.05.17/outbox.cif.g08.bks.cpg/sg11_30_cif.got.tgz:59523.got - 2010.06.03 12:22:45.
