data_PCOD9164379
_publ_section_title
;
Structure prediction by ZEFSAII (Michael W. Deem and Ramdas Pophale) SiO2 
 PCOD9164379
Probable space group: P 21/M
;
_chemical_formula_sum "Si O2"
_cell_formula_units_Z 30
_cell_length_a 17.096916
_cell_length_b 7.564994
_cell_length_c 10.157246
_cell_angle_alpha 90.000000
_cell_angle_beta 68.833024
_cell_angle_gamma 90.000000
_cell_volume 1225.084703
_symmetry_space_group_name_H-M "P 21/M"
_symmetry_group_IT_number 11
_symmetry_cell_setting 'monoclinic'
loop_
_space_group_symop_operation_xyz
x,y,z
-x,1/2+y,-z
-x,-y,-z
x,1/2-y,z
loop_
_atom_site_type_symbol
_atom_site_label
_atom_site_fract_x
_atom_site_fract_y
_atom_site_fract_z
Si Si1 0.118813 0.034759 0.427535
Si Si2 0.016401 0.455387 0.720142
Si Si3 0.541165 0.947887 0.636739
Si Si4 0.882512 0.543606 0.009687
Si Si5 0.415263 0.550230 0.121309
Si Si6 0.783498 0.250000 0.190423
Si Si7 0.756437 0.961705 0.855866
Si Si8 0.637249 0.956271 0.319652
O O1 0.114118 0.250000 0.431627
O O2 0.206511 0.982007 0.308334
O O3 0.095898 0.972075 0.588178
O O4 0.052549 0.970796 0.357072
O O5 0.031644 0.250000 0.740744
O O6 0.970567 0.530559 0.876755
O O7 0.519161 0.750000 0.608271
O O8 0.601773 0.013701 0.485058
O O9 0.591132 0.942090 0.741655
O O10 0.450474 0.038203 0.709132
O O11 0.868839 0.750000 0.049205
O O12 0.816843 0.478438 0.935467
O O13 0.857775 0.406962 0.137251
O O14 0.418599 0.750000 0.163529
O O15 0.337186 0.525345 0.073587
O O16 0.500000 0.500000 0.000000
O O17 0.709657 0.407621 0.237018
O O18 0.757795 0.750000 0.859098
O O19 0.666056 0.750000 0.303667
#
# Coordination Sequence:
#
# PCOD9164379 Si02
#       8
#     4   4   4   4   4   2   4   4
#     4   8  15  26  45  65  95 138 183 221 257 314
#     4   9  14  25  43  69  97 139 181 215 263 311
#     4  10  21  41  60  79 104 137 180 230 271 318
#     4  10  21  33  49  75 113 149 181 221 267 324
#     4  12  26  37  54  76 106 145 185 225 271 321
#     4  12  22  34  56  80 108 142 176 224 276 330
#     4   9  19  35  48  70 106 145 184 224 264 318
#     4  10  22  38  61  83 104 136 182 228 272 316
#
# _framework density 24.488102000000001
#
# number of rings (size 3 to 8) (size 9 to 14) (size 15 to 20)
#    0.000    2.133    1.333    3.200    4.667    1.067 
#    0.000    0.000    0.000    0.000    0.000    0.000 
#    0.000    1.067    1.867    0.400    0.000    0.267 
#
# Total GULP energy -167014.113118 kJ/mol
# GULP energy per Si atom -5567.137104 kJ/mol
# Density = 2.443237 g / cm^3
# Si number density = 24.488102 Si / 1000 Ang^3
#
#
#
# Elastic Constant Matrix: (Units=GPa)
#
#
# Indices 1 2 3 4 5 6 
#
# 1 87.1439 1.2387 40.0516 0.0000 -20.1385 0.0000
# 2 1.2387 104.4138 16.2879 0.0000 -9.5078 0.0000
# 3 40.0516 16.2879 104.1027 0.0000 -13.8323 0.0000
# 4 0.0000 0.0000 0.0000 20.0605 0.0000 -4.3138
# 5 -20.1385 -9.5078 -13.8323 0.0000 41.7804 0.0000
# 6 0.0000 0.0000 0.0000 -4.3138 0.0000 8.5769
#
#
#
# Elastic Compliance Matrix: (Units=1/GPa)
#
#
# Indices 1 2 3 4 5 6 
#
# 1 0.015234 0.001175 -0.005265 0.000000 0.005867 0.000000
# 2 0.001175 0.010039 -0.001720 0.000000 0.002282 0.000000
# 3 -0.005265 -0.001720 0.012041 0.000000 0.001057 0.000000
# 4 0.000000 0.000000 0.000000 0.055895 0.000000 0.028113
# 5 0.005867 0.002282 0.001057 0.000000 0.027632 0.000000
# 6 0.000000 0.000000 0.000000 0.028113 0.000000 0.130733
#
#
# Mechanical properties :
#
#
# Convention : Reuss Voigt Hill
#
# Bulk Modulus (GPa) = 38.91844 45.64631 42.28237
# Shear Modulus (GPa) = 18.39863 29.95570 24.17716
#
# Velocity S-wave (km/s) = 2.74401 3.50133 3.14555
# Velocity P-wave (km/s) = 5.09576 5.91831 5.52237
#
# Compressibility (1/GPa) = 0.02569476
#
# Stress axis : x y z
#
# Youngs Moduli (GPa) = 65.64069 99.60806 83.04829
#
# Poissons Ratio (x) = -0.11703 0.43728
# Poissons Ratio (y) = -0.07712 0.14281
# Poissons Ratio (z) = 0.34562 0.17129
#
# Static dielectric constant tensor:
#      x y z
#    x 2.048340 0.000000 0.043550 
#    y 0.000000 1.992080 0.000000 
#    z 0.043550 0.000000 2.033270 
# 
# From -- ./inp_files/40931.got.cif
#   From: 2010.05.17/outbox.cif.g08.bks.cpg/sg11_21_cif.got.tgz:40931.got - 2010.06.03 12:22:45.
