data_PCOD9164169
_publ_section_title
;
Structure prediction by ZEFSAII (Michael W. Deem and Ramdas Pophale) SiO2 
 PCOD9164169
Probable space group: P 21/M
;
_chemical_formula_sum "Si O2"
_cell_formula_units_Z 28
_cell_length_a 26.348293
_cell_length_b 8.499572
_cell_length_c 9.787748
_cell_angle_alpha 90.000000
_cell_angle_beta 40.482046
_cell_angle_gamma 90.000000
_cell_volume 1423.040782
_symmetry_space_group_name_H-M "P 21/M"
_symmetry_group_IT_number 11
_symmetry_cell_setting 'monoclinic'
loop_
_space_group_symop_operation_xyz
x,y,z
-x,1/2+y,-z
-x,-y,-z
x,1/2-y,z
loop_
_atom_site_type_symbol
_atom_site_label
_atom_site_fract_x
_atom_site_fract_y
_atom_site_fract_z
Si Si1 0.678581 0.560428 0.781883
Si Si2 0.493337 0.438822 0.861300
Si Si3 0.917144 0.938977 0.220357
Si Si4 0.769918 0.062881 0.348968
Si Si5 0.424208 0.939648 0.573245
Si Si6 0.174264 0.441056 0.336140
Si Si7 0.253776 0.438729 0.907695
O O1 0.680549 0.750000 0.768770
O O2 0.698961 0.493502 0.591267
O O3 0.747551 0.511967 0.741659
O O4 0.593587 0.512370 0.007975
O O5 0.495918 0.250000 0.859432
O O6 0.557628 0.489468 0.620886
O O7 0.500000 0.500000 0.000000
O O8 0.916710 0.750000 0.219652
O O9 0.895407 0.991950 0.420174
O O10 0.847919 0.996637 0.262251
O O11 0.000000 0.000000 0.000000
O O12 0.772348 0.250000 0.344929
O O13 0.760997 0.004429 0.212847
O O14 0.421276 0.750000 0.587727
O O15 0.500000 0.000000 0.500000
O O16 0.339886 0.009152 0.782314
O O17 0.171495 0.250000 0.338374
O O18 0.188553 0.493173 0.151724
O O19 0.252511 0.250000 0.904721
#
# Coordination Sequence:
#
# PCOD9164169 Si02
#       7
#     4   4   4   4   4   4   4
#     4   9  17  34  55  74  98 138 186 231 275 326
#     4  10  21  34  50  72 102 138 182 231 281 327
#     4  10  20  39  64  90 115 143 177 219 268 324
#     4  11  22  36  55  84 116 148 183 225 272 326
#     4  11  23  38  54  78 110 147 188 235 284 333
#     4   8  17  34  58  81 105 138 179 221 267 320
#     4  11  21  37  58  81 110 148 188 230 276 326
#
# _framework density 19.676175000000001
#
# number of rings (size 3 to 8) (size 9 to 14) (size 15 to 20)
#    0.000    2.000    0.000    5.143    0.000    6.286 
#    0.000   10.714    0.000    0.000    0.000    0.000 
#    0.000    0.000    0.000    0.000    0.000    0.000 
#
# Total GULP energy -156288.339427 kJ/mol
# GULP energy per Si atom -5581.726408 kJ/mol
# Density = 1.963139 g / cm^3
# Si number density = 19.676175 Si / 1000 Ang^3
#
#
#
# Elastic Constant Matrix: (Units=GPa)
#
#
# Indices 1 2 3 4 5 6 
#
# 1 39.1838 4.4627 22.8704 0.0000 10.1325 0.0000
# 2 4.4627 42.5659 14.8833 0.0000 -2.2392 0.0000
# 3 22.8704 14.8833 140.2602 0.0000 6.9712 0.0000
# 4 0.0000 0.0000 0.0000 21.1115 0.0000 -4.5213
# 5 10.1325 -2.2392 6.9712 0.0000 36.2207 0.0000
# 6 0.0000 0.0000 0.0000 -4.5213 0.0000 27.7997
#
#
#
# Elastic Compliance Matrix: (Units=1/GPa)
#
#
# Indices 1 2 3 4 5 6 
#
# 1 0.030295 -0.002069 -0.004334 0.000000 -0.007769 0.000000
# 2 -0.002069 0.024688 -0.002410 0.000000 0.002569 0.000000
# 3 -0.004334 -0.002410 0.008117 0.000000 -0.000499 0.000000
# 4 0.000000 0.000000 0.000000 0.049077 0.000000 0.007982
# 5 -0.007769 0.002569 -0.000499 0.000000 0.030037 0.000000
# 6 0.000000 0.000000 0.000000 0.007982 0.000000 0.037270
#
#
# Mechanical properties :
#
#
# Convention : Reuss Voigt Hill
#
# Bulk Modulus (GPa) = 21.99125 34.04921 28.02023
# Shear Modulus (GPa) = 23.55521 29.01260 26.28390
#
# Velocity S-wave (km/s) = 3.46373 3.84409 3.65886
# Velocity P-wave (km/s) = 5.21511 6.08647 5.66756
#
# Compressibility (1/GPa) = 0.04547263
#
# Stress axis : x y z
#
# Youngs Moduli (GPa) = 33.00875 40.50601 123.20084
#
# Poissons Ratio (x) = 0.08382 0.53397
# Poissons Ratio (y) = 0.06831 0.29690
# Poissons Ratio (z) = 0.14306 0.09762
#
# Static dielectric constant tensor:
#      x y z
#    x 1.695280 0.000000 0.009980 
#    y 0.000000 1.658320 0.000000 
#    z 0.009980 0.000000 1.739710 
# 
# From -- ./inp_files/28245.got.cif
#   From: 2010.05.17/outbox.cif.g08.bks.cpg/sg11_15_cif.got.tgz:28245.got - 2010.06.03 12:22:45.
