data_PCOD9164326
_publ_section_title
;
Structure prediction by ZEFSAII (Michael W. Deem and Ramdas Pophale) SiO2 
 PCOD9164326
Probable space group: P 21/M
;
_chemical_formula_sum "Si O2"
_cell_formula_units_Z 28
_cell_length_a 6.644453
_cell_length_b 15.482133
_cell_length_c 14.473114
_cell_angle_alpha 90.000000
_cell_angle_beta 54.765400
_cell_angle_gamma 90.000000
_cell_volume 1216.090677
_symmetry_space_group_name_H-M "P 21/M"
_symmetry_group_IT_number 11
_symmetry_cell_setting 'monoclinic'
loop_
_space_group_symop_operation_xyz
x,y,z
-x,1/2+y,-z
-x,-y,-z
x,1/2-y,z
loop_
_atom_site_type_symbol
_atom_site_label
_atom_site_fract_x
_atom_site_fract_y
_atom_site_fract_z
Si Si1 0.411134 0.349261 0.882213
Si Si2 0.246615 0.936230 0.350834
Si Si3 0.178277 0.037485 0.103282
Si Si4 0.352432 0.912090 0.724493
Si Si5 0.240134 0.550300 0.556033
Si Si6 0.902420 0.343568 0.909873
Si Si7 0.567101 0.660750 0.833287
O O1 0.422705 0.250000 0.916251
O O2 0.641428 0.372785 0.755695
O O3 0.346904 0.421082 0.977586
O O4 0.170915 0.350724 0.881748
O O5 0.216063 0.900638 0.464259
O O6 0.464329 0.006342 0.312154
O O7 0.989451 0.982172 0.388580
O O8 0.283554 0.080304 0.167920
O O9 0.902389 0.068650 0.155759
O O10 0.151160 0.935256 0.122108
O O11 0.259727 0.894769 0.645162
O O12 0.503211 0.843198 0.742914
O O13 0.500000 0.500000 0.500000
O O14 0.898009 0.250000 0.861511
O O15 0.690679 0.339568 0.043629
O O16 0.700287 0.750000 0.821598
#
# Coordination Sequence:
#
# PCOD9164326 Si02
#       7
#     4   4   4   4   4   4   4
#     4  11  22  39  66 101 145 188 233 289 354 428
#     4  10  20  41  67  98 132 172 235 294 356 422
#     4  12  22  39  65  99 140 194 235 284 353 429
#     4  11  21  39  65  95 129 180 231 288 346 414
#     4   9  21  40  69  96 123 169 230 289 356 424
#     4  10  21  39  60  92 137 187 238 289 346 420
#     4  11  24  38  58  91 135 183 236 287 341 412
#
# _framework density 23.024598000000001
#
# number of rings (size 3 to 8) (size 9 to 14) (size 15 to 20)
#    0.000    1.429    2.857    3.000    0.000    1.714 
#    0.000    0.714    0.000   11.143    0.000    0.000 
#    0.000    0.000    0.000    0.000    0.000    0.143 
#
# Total GULP energy -156122.261263 kJ/mol
# GULP energy per Si atom -5575.795045 kJ/mol
# Density = 2.297219 g / cm^3
# Si number density = 23.024598 Si / 1000 Ang^3
#
#
#
# Elastic Constant Matrix: (Units=GPa)
#
#
# Indices 1 2 3 4 5 6 
#
# 1 175.4762 52.1697 37.6896 0.0000 1.4117 0.0000
# 2 52.1697 138.0712 30.8709 0.0000 32.2064 0.0000
# 3 37.6896 30.8709 72.3086 0.0000 4.6443 0.0000
# 4 0.0000 0.0000 0.0000 7.7749 0.0000 -14.9375
# 5 1.4117 32.2064 4.6443 0.0000 49.4472 0.0000
# 6 0.0000 0.0000 0.0000 -14.9375 0.0000 -11.7076
#
#
#
# Elastic Compliance Matrix: (Units=1/GPa)
#
#
# Indices 1 2 3 4 5 6 
#
# 1 0.006986 -0.002412 -0.002716 0.000000 0.001627 0.000000
# 2 -0.002412 0.010239 -0.002707 0.000000 -0.006346 0.000000
# 3 -0.002716 -0.002707 0.016382 0.000000 0.000302 0.000000
# 4 0.000000 0.000000 0.000000 0.037267 0.000000 -0.047548
# 5 0.001627 -0.006346 0.000302 0.000000 0.024282 0.000000
# 6 0.000000 0.000000 0.000000 -0.047548 0.000000 -0.024749
#
#
# Mechanical properties :
#
#
# Convention : Reuss Voigt Hill
#
# Bulk Modulus (GPa) = 55.74897 69.70182 62.72540
# Shear Modulus (GPa) = 54.31449 26.77795 40.54622
#
# Velocity S-wave (km/s) = 4.86220 3.41400 4.20097
# Velocity P-wave (km/s) = 7.46905 6.77340 7.12971
#
# Compressibility (1/GPa) = 0.01793755
#
# Stress axis : x y z
#
# Youngs Moduli (GPa) = 143.14090 97.66161 61.04395
#
# Poissons Ratio (x) = 0.23554 0.16581
# Poissons Ratio (y) = 0.34522 0.16524
# Poissons Ratio (z) = 0.38880 0.26435
#
# Static dielectric constant tensor:
#      x y z
#    x 1.884110 0.000000 0.063820 
#    y 0.000000 1.995230 0.000000 
#    z 0.063820 0.000000 1.976370 
# 
# From -- ./inp_files/56998.got.cif
#   From: 2010.05.17/outbox.cif.g08.bks.cpg/sg11_29_cif.got.tgz:56998.got - 2010.06.03 12:22:45.
