data_PCOD9164647
_publ_section_title
;
Structure prediction by ZEFSAII (Michael W. Deem and Ramdas Pophale) SiO2 
 PCOD9164647
Probable space group: P 21/M
;
_chemical_formula_sum "Si O2"
_cell_formula_units_Z 28
_cell_length_a 11.544601
_cell_length_b 9.603254
_cell_length_c 13.647602
_cell_angle_alpha 90.000000
_cell_angle_beta 107.830071
_cell_angle_gamma 90.000000
_cell_volume 1440.377792
_symmetry_space_group_name_H-M "P 21/M"
_symmetry_group_IT_number 11
_symmetry_cell_setting 'monoclinic'
loop_
_space_group_symop_operation_xyz
x,y,z
-x,1/2+y,-z
-x,-y,-z
x,1/2-y,z
loop_
_atom_site_type_symbol
_atom_site_label
_atom_site_fract_x
_atom_site_fract_y
_atom_site_fract_z
Si Si1 0.341249 0.589515 0.749164
Si Si2 0.170289 0.402424 0.581618
Si Si3 0.873290 0.100145 0.151501
Si Si4 0.808681 0.096551 0.792654
Si Si5 0.580310 0.411311 0.848104
Si Si6 0.799819 0.915161 0.967611
Si Si7 0.943503 0.998269 0.644721
O O1 0.375481 0.750000 0.737857
O O2 0.261083 0.521871 0.641557
O O3 0.251303 0.589591 0.819070
O O4 0.456122 0.492281 0.800172
O O5 0.224941 0.250000 0.612539
O O6 0.046521 0.414246 0.613784
O O7 0.130610 0.421511 0.459204
O O8 0.876065 0.250000 0.100037
O O9 0.977785 0.094146 0.260195
O O10 0.876792 0.971944 0.078292
O O11 0.846984 0.250000 0.838718
O O12 0.662588 0.090906 0.770151
O O13 0.851187 0.975625 0.878316
O O14 0.854233 0.078259 0.694882
O O15 0.565544 0.250000 0.875974
O O16 0.669912 0.502644 0.940528
O O17 0.787256 0.750000 0.963224
#
# Coordination Sequence:
#
# PCOD9164647 Si02
#       7
#     4   4   4   4   4   4   4
#     4  10  21  37  59  85 115 149 189 236 283 332
#     4  10  21  37  60  89 115 146 187 234 286 337
#     4  10  21  37  56  83 116 151 191 233 279 332
#     4   9  20  38  59  82 112 152 189 229 281 333
#     4   9  19  38  60  82 113 150 188 232 280 333
#     4  10  21  36  56  85 115 148 191 230 279 338
#     4  10  21  37  61  85 114 149 189 235 280 333
#
# _framework density 19.439343999999998
#
# number of rings (size 3 to 8) (size 9 to 14) (size 15 to 20)
#    0.857    1.429    0.000    2.571    0.000    9.714 
#    0.000    0.714    0.000    0.000    0.000    0.000 
#    0.000    0.000    0.000    0.000    0.000    0.000 
#
# Total GULP energy -155981.578068 kJ/mol
# GULP energy per Si atom -5570.770645 kJ/mol
# Density = 1.939510 g / cm^3
# Si number density = 19.439344 Si / 1000 Ang^3
#
#
#
# Elastic Constant Matrix: (Units=GPa)
#
#
# Indices 1 2 3 4 5 6 
#
# 1 24.6125 10.7997 -6.6239 0.0000 7.9256 0.0000
# 2 10.7997 161.2198 27.5545 0.0000 1.1461 0.0000
# 3 -6.6239 27.5545 64.9163 0.0000 -6.4673 0.0000
# 4 0.0000 0.0000 0.0000 6.0282 0.0000 -0.9644
# 5 7.9256 1.1461 -6.4673 0.0000 26.3661 0.0000
# 6 0.0000 0.0000 0.0000 -0.9644 0.0000 9.1941
#
#
#
# Elastic Compliance Matrix: (Units=1/GPa)
#
#
# Indices 1 2 3 4 5 6 
#
# 1 0.048001 -0.004033 0.005320 0.000000 -0.012949 0.000000
# 2 -0.004033 0.007053 -0.003398 0.000000 0.000072 0.000000
# 3 0.005320 -0.003398 0.017677 0.000000 0.002885 0.000000
# 4 0.000000 0.000000 0.000000 0.168717 0.000000 0.017697
# 5 -0.012949 0.000072 0.002885 0.000000 0.042524 0.000000
# 6 0.000000 0.000000 0.000000 0.017697 0.000000 0.110621
#
#
# Mechanical properties :
#
#
# Convention : Reuss Voigt Hill
#
# Bulk Modulus (GPa) = 14.59674 34.91213 24.75444
# Shear Modulus (GPa) = 11.85813 22.91891 17.38852
#
# Velocity S-wave (km/s) = 2.47251 3.43738 2.99407
# Velocity P-wave (km/s) = 3.95932 5.80970 4.97136
#
# Compressibility (1/GPa) = 0.06850846
#
# Stress axis : x y z
#
# Youngs Moduli (GPa) = 20.83309 141.78157 56.57071
#
# Poissons Ratio (x) = 0.57174 -0.30093
# Poissons Ratio (y) = 0.08401 0.19223
# Poissons Ratio (z) = -0.11082 0.48178
#
# Static dielectric constant tensor:
#      x y z
#    x 1.704260 0.000000 0.007030 
#    y 0.000000 1.702680 0.000000 
#    z 0.007030 0.000000 1.660870 
# 
# From -- ./inp_files/49457.got.cif
#   From: 2010.05.17/outbox.cif.g08.bks.cpg/sg11_25_cif.got.tgz:49457.got - 2010.06.03 12:22:45.
