data_PCOD9164944
_publ_section_title
;
Structure prediction by ZEFSAII (Michael W. Deem and Ramdas Pophale) SiO2 
 PCOD9164944
Probable space group: P 21/M
;
_chemical_formula_sum "Si O2"
_cell_formula_units_Z 28
_cell_length_a 10.821754
_cell_length_b 14.161427
_cell_length_c 7.870557
_cell_angle_alpha 90.000000
_cell_angle_beta 102.093330
_cell_angle_gamma 90.000000
_cell_volume 1179.406635
_symmetry_space_group_name_H-M "P 21/M"
_symmetry_group_IT_number 11
_symmetry_cell_setting 'monoclinic'
loop_
_space_group_symop_operation_xyz
x,y,z
-x,1/2+y,-z
-x,-y,-z
x,1/2-y,z
loop_
_atom_site_type_symbol
_atom_site_label
_atom_site_fract_x
_atom_site_fract_y
_atom_site_fract_z
Si Si1 0.967098 0.639681 0.002078
Si Si2 0.675053 0.644230 0.890579
Si Si3 0.991191 0.141488 0.361352
Si Si4 0.623680 0.646996 0.271220
Si Si5 0.652877 0.350026 0.656175
Si Si6 0.557256 0.046510 0.348203
Si Si7 0.115288 0.546691 0.346256
O O1 0.967439 0.750000 0.054172
O O2 0.821830 0.616391 0.910206
O O3 0.047944 0.632943 0.849736
O O4 0.013721 0.577713 0.173515
O O5 0.660418 0.750000 0.808662
O O6 0.560262 0.577396 0.799754
O O7 0.657364 0.653400 0.086033
O O8 0.031424 0.250000 0.394632
O O9 0.900732 0.112593 0.491079
O O10 0.096404 0.059741 0.403645
O O11 0.667297 0.750000 0.361149
O O12 0.472756 0.646515 0.266583
O O13 0.653126 0.536212 0.319704
O O14 0.716860 0.250000 0.709284
O O15 0.616116 0.359746 0.446864
O O16 0.752821 0.432191 0.705995
O O17 0.500000 0.000000 0.500000
#
# Coordination Sequence:
#
# PCOD9164944 Si02
#       7
#     4   4   4   4   4   4   4
#     4  10  22  41  66  95 128 168 213 267 320 376
#     4  10  21  40  63  89 123 161 209 260 308 366
#     4  10  23  42  63  96 128 167 222 260 315 385
#     4   9  20  38  59  89 122 163 213 255 307 372
#     4  10  21  39  62  90 126 164 208 257 316 382
#     4  10  21  37  59  86 122 163 204 255 311 369
#     4  11  23  43  68  93 132 171 207 267 327 384
#
# _framework density 23.740753000000002
#
# number of rings (size 3 to 8) (size 9 to 14) (size 15 to 20)
#    0.000    2.000    0.000    2.571    4.000    2.857 
#    5.143    2.143    0.000    0.000    0.000    0.000 
#    0.000    0.000    0.000    0.000    0.000    0.000 
#
# Total GULP energy -155891.733590 kJ/mol
# GULP energy per Si atom -5567.561914 kJ/mol
# Density = 2.368672 g / cm^3
# Si number density = 23.740753 Si / 1000 Ang^3
#
#
#
# Elastic Constant Matrix: (Units=GPa)
#
#
# Indices 1 2 3 4 5 6 
#
# 1 63.1268 13.9530 20.7704 0.0000 1.8577 0.0000
# 2 13.9530 127.9209 17.1142 0.0000 -4.6750 0.0000
# 3 20.7704 17.1142 90.3049 0.0000 -19.9677 0.0000
# 4 0.0000 0.0000 0.0000 24.9782 0.0000 -2.3929
# 5 1.8577 -4.6750 -19.9677 0.0000 23.1244 0.0000
# 6 0.0000 0.0000 0.0000 -2.3929 0.0000 16.3202
#
#
#
# Elastic Compliance Matrix: (Units=1/GPa)
#
#
# Indices 1 2 3 4 5 6 
#
# 1 0.018093 -0.001499 -0.005272 0.000000 -0.006309 0.000000
# 2 -0.001499 0.008148 -0.000999 0.000000 0.000905 0.000000
# 3 -0.005272 -0.000999 0.015480 0.000000 0.013589 0.000000
# 4 0.000000 0.000000 0.000000 0.040605 0.000000 0.005954
# 5 -0.006309 0.000905 0.013589 0.000000 0.055668 0.000000
# 6 0.000000 0.000000 0.000000 0.005954 0.000000 0.062147
#
#
# Mechanical properties :
#
#
# Convention : Reuss Voigt Hill
#
# Bulk Modulus (GPa) = 38.19743 42.78085 40.48914
# Shear Modulus (GPa) = 22.28086 28.18555 25.23321
#
# Velocity S-wave (km/s) = 3.06683 3.44935 3.26370
# Velocity P-wave (km/s) = 5.35396 5.82436 5.59411
#
# Compressibility (1/GPa) = 0.02617977
#
# Stress axis : x y z
#
# Youngs Moduli (GPa) = 55.27056 122.73607 64.59827
#
# Poissons Ratio (x) = 0.18394 0.34059
# Poissons Ratio (y) = 0.08283 0.06456
# Poissons Ratio (z) = 0.29141 0.12266
#
# Static dielectric constant tensor:
#      x y z
#    x 1.950210 0.000000 0.035210 
#    y 0.000000 2.119710 0.000000 
#    z 0.035210 0.000000 1.883000 
# 
# From -- ./inp_files/21725.got.cif
#   From: 2010.05.17/outbox.cif.g08.bks.cpg/sg11_11_cif.got.tgz:21725.got - 2010.06.03 12:22:45.
