data_PCOD9164331
_publ_section_title
;
Structure prediction by ZEFSAII (Michael W. Deem and Ramdas Pophale) SiO2 
 PCOD9164331
Probable space group: P 21/M
;
_chemical_formula_sum "Si O2"
_cell_formula_units_Z 26
_cell_length_a 21.344722
_cell_length_b 9.325757
_cell_length_c 9.242447
_cell_angle_alpha 90.000000
_cell_angle_beta 135.312956
_cell_angle_gamma 90.000000
_cell_volume 1293.782877
_symmetry_space_group_name_H-M "P 21/M"
_symmetry_group_IT_number 11
_symmetry_cell_setting 'monoclinic'
loop_
_space_group_symop_operation_xyz
x,y,z
-x,1/2+y,-z
-x,-y,-z
x,1/2-y,z
loop_
_atom_site_type_symbol
_atom_site_label
_atom_site_fract_x
_atom_site_fract_y
_atom_site_fract_z
Si Si1 0.959643 0.250000 0.942589
Si Si2 0.247186 0.089326 0.461326
Si Si3 0.907460 0.583184 0.329936
Si Si4 0.246931 0.578783 0.750402
Si Si5 0.586841 0.916788 0.478449
Si Si6 0.405781 0.080781 0.169380
Si Si7 0.081573 0.458828 0.983336
O O1 0.934811 0.124782 0.018491
O O2 0.992565 0.373528 0.879419
O O3 0.257862 0.250000 0.542862
O O4 0.329458 0.062438 0.488694
O O5 0.242787 0.970267 0.577049
O O6 0.157067 0.088851 0.220841
O O7 0.912834 0.750000 0.383837
O O8 0.833311 0.499588 0.298601
O O9 0.000000 0.500000 0.500000
O O10 0.886727 0.577120 0.125161
O O11 0.242710 0.750000 0.757478
O O12 0.337020 0.513335 0.965849
O O13 0.557444 0.750000 0.416709
O O14 0.612514 0.937800 0.688778
O O15 0.505540 0.021906 0.309228
O O16 0.398408 0.250000 0.123421
#
# Coordination Sequence:
#
# PCOD9164331 Si02
#       7
#     2   4   4   4   4   4   4
#     4  10  24  40  70  94 122 166 216 262 316 364
#     4  11  23  42  66  92 126 169 214 264 320 375
#     4  12  27  45  67  95 129 169 213 263 319 378
#     4  12  28  43  62  93 130 170 214 265 316 377
#     4   9  20  39  68  97 125 165 209 259 317 383
#     4  10  20  41  68  97 129 164 207 259 319 382
#     4  11  24  43  67  93 127 167 210 265 310 382
#
# _framework density 20.096108000000001
#
# number of rings (size 3 to 8) (size 9 to 14) (size 15 to 20)
#    0.000    1.231    1.538    3.231    7.538    3.077 
#    0.000    0.000    0.000    0.000    0.000    0.000 
#    0.000    0.000    0.000    0.000    0.000    0.000 
#
# Total GULP energy -144880.793558 kJ/mol
# GULP energy per Si atom -5572.338214 kJ/mol
# Density = 2.005037 g / cm^3
# Si number density = 20.096108 Si / 1000 Ang^3
#
#
#
# Elastic Constant Matrix: (Units=GPa)
#
#
# Indices 1 2 3 4 5 6 
#
# 1 72.8000 39.2366 15.8677 0.0000 -9.5558 0.0000
# 2 39.2366 187.3340 36.5322 0.0000 -5.7100 0.0000
# 3 15.8677 36.5322 79.7009 0.0000 -3.1224 0.0000
# 4 0.0000 0.0000 0.0000 22.1884 0.0000 -3.3774
# 5 -9.5558 -5.7100 -3.1224 0.0000 15.9261 0.0000
# 6 0.0000 0.0000 0.0000 -3.3774 0.0000 28.0257
#
#
#
# Elastic Compliance Matrix: (Units=1/GPa)
#
#
# Indices 1 2 3 4 5 6 
#
# 1 0.016824 -0.002934 -0.001663 0.000000 0.008717 0.000000
# 2 -0.002934 0.006414 -0.002353 0.000000 0.000078 0.000000
# 3 -0.001663 -0.002353 0.013992 0.000000 0.000902 0.000000
# 4 0.000000 0.000000 0.000000 0.045911 0.000000 0.005533
# 5 0.008717 0.000078 0.000902 0.000000 0.068225 0.000000
# 6 0.000000 0.000000 0.000000 0.005533 0.000000 0.036348
#
#
# Mechanical properties :
#
#
# Convention : Reuss Voigt Hill
#
# Bulk Modulus (GPa) = 42.86300 58.12309 50.49304
# Shear Modulus (GPa) = 23.87895 29.77462 26.82678
#
# Velocity S-wave (km/s) = 3.45082 3.85335 3.65763
# Velocity P-wave (km/s) = 6.10351 6.98449 6.55881
#
# Compressibility (1/GPa) = 0.02333015
#
# Stress axis : x y z
#
# Youngs Moduli (GPa) = 59.43843 155.91645 71.47056
#
# Poissons Ratio (x) = 0.45741 0.11888
# Poissons Ratio (y) = 0.17438 0.16815
# Poissons Ratio (z) = 0.09887 0.36682
#
# Static dielectric constant tensor:
#      x y z
#    x 1.697100 0.000000 0.005420 
#    y 0.000000 1.752800 0.000000 
#    z 0.005420 0.000000 1.729430 
# 
# From -- ./inp_files/26197.got.cif
#   From: 2010.05.17/outbox.cif.g08.bks.cpg/sg11_14_cif.got.tgz:26197.got - 2010.06.03 12:22:45.
