data_PCOD9164701
_publ_section_title
;
Structure prediction by ZEFSAII (Michael W. Deem and Ramdas Pophale) SiO2 
 PCOD9164701
Probable space group: P 21/M
;
_chemical_formula_sum "Si O2"
_cell_formula_units_Z 32
_cell_length_a 20.843827
_cell_length_b 11.106859
_cell_length_c 9.376083
_cell_angle_alpha 90.000000
_cell_angle_beta 129.562947
_cell_angle_gamma 90.000000
_cell_volume 1673.410390
_symmetry_space_group_name_H-M "P 21/M"
_symmetry_group_IT_number 11
_symmetry_cell_setting 'monoclinic'
loop_
_space_group_symop_operation_xyz
x,y,z
-x,1/2+y,-z
-x,-y,-z
x,1/2-y,z
loop_
_atom_site_type_symbol
_atom_site_label
_atom_site_fract_x
_atom_site_fract_y
_atom_site_fract_z
Si Si1 0.840584 0.614449 0.724077
Si Si2 0.164639 0.389833 0.703694
Si Si3 0.019792 0.106578 0.297844
Si Si4 0.298154 0.051533 0.689153
Si Si5 0.166348 0.987867 0.990300
Si Si6 0.605958 0.389462 0.398712
Si Si7 0.658602 0.109663 0.796410
Si Si8 0.407952 0.386819 0.104340
O O1 0.860821 0.750000 0.799134
O O2 0.918504 0.565616 0.742126
O O3 0.760225 0.619030 0.507979
O O4 0.823231 0.534234 0.835417
O O5 0.183439 0.250000 0.692420
O O6 0.072392 0.417073 0.516044
O O7 0.227583 0.477458 0.708439
O O8 0.175260 0.407838 0.885279
O O9 0.014813 0.250000 0.277506
O O10 0.927413 0.058057 0.160245
O O11 0.344580 0.956232 0.655887
O O12 0.367360 0.110378 0.889130
O O13 0.241058 0.896530 0.063478
O O14 0.628445 0.250000 0.420357
O O15 0.627896 0.424103 0.592883
O O16 0.507136 0.402122 0.237759
O O17 0.632829 0.250000 0.791329
O O18 0.626361 0.001884 0.854351
O O19 0.390916 0.250000 0.139020
#
# Coordination Sequence:
#
# PCOD9164701 Si02
#       8
#     4   4   4   4   4   4   4   4
#     4  10  21  36  58  87 121 155 201 255 305 360
#     4  10  21  37  58  86 123 154 198 260 305 356
#     4   9  20  37  56  83 117 156 198 252 310 361
#     4  11  20  39  60  89 121 160 199 254 306 359
#     4  12  20  36  61  85 118 160 210 240 310 364
#     4  10  23  43  63  90 125 162 203 256 311 371
#     4  11  24  42  62  91 131 164 203 255 314 373
#     4  11  23  42  68  93 123 161 211 259 310 370
#
# _framework density 19.122626
#
# number of rings (size 3 to 8) (size 9 to 14) (size 15 to 20)
#    0.000    1.500    2.500    4.125    0.000    1.000 
#    0.000    1.875    0.000    3.000    0.000    0.000 
#    0.000    0.000    0.000    0.000    0.000    0.000 
#
# Total GULP energy -178207.298398 kJ/mol
# GULP energy per Si atom -5568.978075 kJ/mol
# Density = 1.907910 g / cm^3
# Si number density = 19.122626 Si / 1000 Ang^3
#
#
#
# Elastic Constant Matrix: (Units=GPa)
#
#
# Indices 1 2 3 4 5 6 
#
# 1 84.3316 50.8837 41.9811 0.0000 -1.2942 0.0000
# 2 50.8837 75.1858 28.5386 0.0000 -8.1759 0.0000
# 3 41.9811 28.5386 121.3076 0.0000 1.3723 0.0000
# 4 0.0000 0.0000 0.0000 20.9357 0.0000 -4.0036
# 5 -1.2942 -8.1759 1.3723 0.0000 33.9693 0.0000
# 6 0.0000 0.0000 0.0000 -4.0036 0.0000 26.3518
#
#
#
# Elastic Compliance Matrix: (Units=1/GPa)
#
#
# Indices 1 2 3 4 5 6 
#
# 1 0.022267 -0.013615 -0.004478 0.000000 -0.002248 0.000000
# 2 -0.013615 0.023397 -0.000851 0.000000 0.005147 0.000000
# 3 -0.004478 -0.000851 0.010002 0.000000 -0.000779 0.000000
# 4 0.000000 0.000000 0.000000 0.049195 0.000000 0.007474
# 5 -0.002248 0.005147 -0.000779 0.000000 0.030623 0.000000
# 6 0.000000 0.000000 0.000000 0.007474 0.000000 0.039084
#
#
# Mechanical properties :
#
#
# Convention : Reuss Voigt Hill
#
# Bulk Modulus (GPa) = 56.24325 58.18133 57.21229
# Shear Modulus (GPa) = 22.89577 26.87947 24.88762
#
# Velocity S-wave (km/s) = 3.46398 3.75325 3.61151
# Velocity P-wave (km/s) = 6.74348 7.01954 6.88290
#
# Compressibility (1/GPa) = 0.01777991
#
# Stress axis : x y z
#
# Youngs Moduli (GPa) = 44.90894 42.74027 99.97892
#
# Poissons Ratio (x) = 0.58190 0.44767
# Poissons Ratio (y) = 0.61142 0.08508
# Poissons Ratio (z) = 0.20109 0.03637
#
# Static dielectric constant tensor:
#      x y z
#    x 1.675180 0.000000 0.006400 
#    y 0.000000 1.666330 0.000000 
#    z 0.006400 0.000000 1.687120 
# 
# From -- ./inp_files/26625.got.cif
#   From: 2010.05.17/outbox.cif.g08.bks.cpg/sg11_14_cif.got.tgz:26625.got - 2010.06.03 12:22:45.
