data_PCOD9164735
_publ_section_title
;
Structure prediction by ZEFSAII (Michael W. Deem and Ramdas Pophale) SiO2 
 PCOD9164735
Probable space group: P 21/M
;
_chemical_formula_sum "Si O2"
_cell_formula_units_Z 30
_cell_length_a 5.072003
_cell_length_b 9.278574
_cell_length_c 33.092779
_cell_angle_alpha 90.000000
_cell_angle_beta 108.570429
_cell_angle_gamma 90.000000
_cell_volume 1476.289647
_symmetry_space_group_name_H-M "P 21/M"
_symmetry_group_IT_number 11
_symmetry_cell_setting 'monoclinic'
loop_
_space_group_symop_operation_xyz
x,y,z
-x,1/2+y,-z
-x,-y,-z
x,1/2-y,z
loop_
_atom_site_type_symbol
_atom_site_label
_atom_site_fract_x
_atom_site_fract_y
_atom_site_fract_z
Si Si1 0.041595 0.578544 0.111236
Si Si2 0.143397 0.513923 0.450980
Si Si3 0.706884 0.922664 0.692293
Si Si4 0.337626 0.080553 0.832589
Si Si5 0.326209 0.921541 0.747099
Si Si6 0.884794 0.250000 0.487697
Si Si7 0.795871 0.425044 0.022234
Si Si8 0.479487 0.082887 0.603404
O O1 0.988410 0.750000 0.099962
O O2 0.371443 0.556415 0.130029
O O3 0.909396 0.546102 0.148514
O O4 0.904702 0.477009 0.071206
O O5 0.045744 0.372487 0.468719
O O6 0.850853 0.577204 0.419460
O O7 0.249855 0.625283 0.489399
O O8 0.358434 0.501584 0.424699
O O9 0.665439 0.750000 0.684762
O O10 0.571589 0.963850 0.728644
O O11 0.034342 0.952269 0.710697
O O12 0.562609 0.007520 0.649155
O O13 0.322463 0.250000 0.822346
O O14 0.333274 0.995653 0.790726
O O15 0.341413 0.750000 0.754042
O O16 0.787234 0.250000 0.018222
O O17 0.500000 0.500000 0.000000
O O18 0.000000 0.500000 0.000000
O O19 0.567286 0.250000 0.606775
#
# Coordination Sequence:
#
# PCOD9164735 Si02
#       8
#     4   4   4   4   4   2   4   4
#     4  10  21  38  58  88 124 161 207 261 313 374
#     4  11  25  41  64  90 120 156 197 239 295 344
#     4  10  23  39  60  85 116 154 198 239 295 357
#     4  10  21  36  60  88 120 157 200 250 313 373
#     4  10  21  39  59  86 117 152 195 247 298 361
#     4  10  24  44  64  90 122 156 196 244 288 352
#     4  12  25  42  65  93 128 174 224 273 330 388
#     4  12  24  42  61  91 122 154 196 246 291 349
#
# _framework density 20.321214999999999
#
# number of rings (size 3 to 8) (size 9 to 14) (size 15 to 20)
#    0.000    1.333    1.333    3.600    1.867    6.400 
#    0.000    0.000    0.000    0.000    0.000    0.000 
#    0.000    0.000    0.000    0.000    0.000    0.000 
#
# Total GULP energy -167239.149708 kJ/mol
# GULP energy per Si atom -5574.638324 kJ/mol
# Density = 2.027496 g / cm^3
# Si number density = 20.321215 Si / 1000 Ang^3
#
#
#
# Elastic Constant Matrix: (Units=GPa)
#
#
# Indices 1 2 3 4 5 6 
#
# 1 64.0094 -7.4848 -6.6710 0.0000 -6.3910 0.0000
# 2 -7.4848 81.1132 30.0529 0.0000 -0.3691 0.0000
# 3 -6.6710 30.0529 69.5152 0.0000 -7.5160 0.0000
# 4 0.0000 0.0000 0.0000 103.4414 0.0000 4.1350
# 5 -6.3910 -0.3691 -7.5160 0.0000 19.1558 0.0000
# 6 0.0000 0.0000 0.0000 4.1350 0.0000 16.9838
#
#
#
# Elastic Compliance Matrix: (Units=1/GPa)
#
#
# Indices 1 2 3 4 5 6 
#
# 1 0.016547 0.000852 0.001899 0.000000 0.006282 0.000000
# 2 0.000852 0.014822 -0.006542 0.000000 -0.001997 0.000000
# 3 0.001899 -0.006542 0.018224 0.000000 0.007658 0.000000
# 4 0.000000 0.000000 0.000000 0.009762 0.000000 -0.002377
# 5 0.006282 -0.001997 0.007658 0.000000 0.057266 0.000000
# 6 0.000000 0.000000 0.000000 -0.002377 0.000000 0.059458
#
#
# Mechanical properties :
#
#
# Convention : Reuss Voigt Hill
#
# Bulk Modulus (GPa) = 23.80338 27.38135 25.59236
# Shear Modulus (GPa) = 25.29532 41.16557 33.23045
#
# Velocity S-wave (km/s) = 3.53196 4.50571 4.04822
# Velocity P-wave (km/s) = 5.32654 6.36962 5.87129
#
# Compressibility (1/GPa) = 0.04201084
#
# Stress axis : x y z
#
# Youngs Moduli (GPa) = 60.43223 67.46820 54.87349
#
# Poissons Ratio (x) = -0.05748 -0.10420
# Poissons Ratio (y) = -0.05149 0.35898
# Poissons Ratio (z) = -0.11475 0.44137
#
# Static dielectric constant tensor:
#      x y z
#    x 1.719330 0.000000 0.021310 
#    y 0.000000 1.668530 0.000000 
#    z 0.021310 0.000000 1.703300 
# 
# From -- ./inp_files/72614.got.cif
#   From: 2010.05.17/outbox.cif.g08.bks.cpg/sg11_37_cif.got.tgz:72614.got - 2010.06.03 12:22:45.
