data_PCOD9164514
_publ_section_title
;
Structure prediction by ZEFSAII (Michael W. Deem and Ramdas Pophale) SiO2 
 PCOD9164514
Probable space group: P 21/M
;
_chemical_formula_sum "Si O2"
_cell_formula_units_Z 32
_cell_length_a 5.472015
_cell_length_b 21.290386
_cell_length_c 16.943217
_cell_angle_alpha 90.000000
_cell_angle_beta 58.011268
_cell_angle_gamma 90.000000
_cell_volume 1674.173755
_symmetry_space_group_name_H-M "P 21/M"
_symmetry_group_IT_number 11
_symmetry_cell_setting 'monoclinic'
loop_
_space_group_symop_operation_xyz
x,y,z
-x,1/2+y,-z
-x,-y,-z
x,1/2-y,z
loop_
_atom_site_type_symbol
_atom_site_label
_atom_site_fract_x
_atom_site_fract_y
_atom_site_fract_z
Si Si1 0.770808 0.082128 0.989153
Si Si2 0.806439 0.179922 0.462993
Si Si3 0.307759 0.389819 0.330710
Si Si4 0.429061 0.439646 0.568248
Si Si5 0.211360 0.681155 0.720534
Si Si6 0.406307 0.177760 0.146138
Si Si7 0.769119 0.467878 0.672691
Si Si8 0.575504 0.546666 0.106204
O O1 0.637427 0.074003 0.924494
O O2 0.117099 0.081409 0.935261
O O3 0.625036 0.142333 0.053232
O O4 0.659222 0.022720 0.059993
O O5 0.759038 0.250000 0.504378
O O6 0.569460 0.126898 0.518756
O O7 0.846358 0.187127 0.362289
O O8 0.119933 0.149570 0.425897
O O9 0.630891 0.385892 0.306476
O O10 0.376963 0.356801 0.235188
O O11 0.176207 0.457325 0.342759
O O12 0.500000 0.500000 0.500000
O O13 0.579480 0.451612 0.627836
O O14 0.081494 0.435687 0.626265
O O15 0.352913 0.750000 0.715052
O O16 0.929032 0.676464 0.822692
O O17 0.484709 0.250000 0.141836
O O18 0.586003 0.456433 0.782937
#
# Coordination Sequence:
#
# PCOD9164514 Si02
#       8
#     4   4   4   4   4   4   4   4
#     4  10  21  38  63  87 119 152 206 241 294 364
#     4  10  22  39  58  85 123 164 208 254 309 376
#     4  11  20  34  59  88 126 163 194 249 320 387
#     4  12  25  42  62  97 124 165 212 263 310 372
#     4   9  19  33  54  84 124 163 195 240 310 387
#     4  10  21  35  55  92 128 159 195 247 315 383
#     4  12  25  40  66  88 132 162 204 264 317 358
#     4  10  22  40  60  88 114 160 200 250 297 352
#
# _framework density 19.113907999999999
#
# number of rings (size 3 to 8) (size 9 to 14) (size 15 to 20)
#    0.000    1.500    2.500    3.750    5.250    1.000 
#    0.000    0.000    0.000    4.500    0.000    0.000 
#    0.000    0.000    0.000    0.000    0.000    0.000 
#
# Total GULP energy -178153.552266 kJ/mol
# GULP energy per Si atom -5567.298508 kJ/mol
# Density = 1.907040 g / cm^3
# Si number density = 19.113908 Si / 1000 Ang^3
#
#
#
# Elastic Constant Matrix: (Units=GPa)
#
#
# Indices 1 2 3 4 5 6 
#
# 1 108.5267 31.3427 60.7316 0.0000 -4.2439 0.0000
# 2 31.3427 100.1143 43.0476 0.0000 -8.5320 0.0000
# 3 60.7316 43.0476 109.5505 0.0000 -4.1349 0.0000
# 4 0.0000 0.0000 0.0000 16.6040 0.0000 -6.5483
# 5 -4.2439 -8.5320 -4.1349 0.0000 29.5667 0.0000
# 6 0.0000 0.0000 0.0000 -6.5483 0.0000 20.3811
#
#
#
# Elastic Compliance Matrix: (Units=1/GPa)
#
#
# Indices 1 2 3 4 5 6 
#
# 1 0.013491 -0.001161 -0.006999 0.000000 0.000623 0.000000
# 2 -0.001161 0.012358 -0.004106 0.000000 0.002825 0.000000
# 3 -0.006999 -0.004106 0.014616 0.000000 -0.000145 0.000000
# 4 0.000000 0.000000 0.000000 0.068965 0.000000 0.022158
# 5 0.000623 0.002825 -0.000145 0.000000 0.034706 0.000000
# 6 0.000000 0.000000 0.000000 0.022158 0.000000 0.056184
#
#
# Mechanical properties :
#
#
# Convention : Reuss Voigt Hill
#
# Bulk Modulus (GPa) = 62.76201 65.38169 64.07185
# Shear Modulus (GPa) = 21.72363 25.51499 23.61931
#
# Velocity S-wave (km/s) = 3.37491 3.65758 3.51909
# Velocity P-wave (km/s) = 6.93497 7.21927 7.07854
#
# Compressibility (1/GPa) = 0.01593320
#
# Stress axis : x y z
#
# Youngs Moduli (GPa) = 74.12527 80.91721 68.41689
#
# Poissons Ratio (x) = 0.09394 0.47886
# Poissons Ratio (y) = 0.08605 0.28092
# Poissons Ratio (z) = 0.51881 0.33224
#
# Static dielectric constant tensor:
#      x y z
#    x 1.930630 0.000000 -0.012660 
#    y 0.000000 1.799470 0.000000 
#    z -0.012660 0.000000 1.632260 
# 
# From -- ./inp_files/57227.got.cif
#   From: 2010.05.17/outbox.cif.g08.bks.cpg/sg11_29_cif.got.tgz:57227.got - 2010.06.03 12:22:45.
