data_PCOD9164928
_publ_section_title
;
Structure prediction by ZEFSAII (Michael W. Deem and Ramdas Pophale) SiO2 
 PCOD9164928
Probable space group: P 21/M
;
_chemical_formula_sum "Si O2"
_cell_formula_units_Z 28
_cell_length_a 12.170412
_cell_length_b 8.935853
_cell_length_c 16.038690
_cell_angle_alpha 90.000000
_cell_angle_beta 55.942866
_cell_angle_gamma 90.000000
_cell_volume 1445.080300
_symmetry_space_group_name_H-M "P 21/M"
_symmetry_group_IT_number 11
_symmetry_cell_setting 'monoclinic'
loop_
_space_group_symop_operation_xyz
x,y,z
-x,1/2+y,-z
-x,-y,-z
x,1/2-y,z
loop_
_atom_site_type_symbol
_atom_site_label
_atom_site_fract_x
_atom_site_fract_y
_atom_site_fract_z
Si Si1 0.143762 0.927916 0.634361
Si Si2 0.587691 0.071166 0.390244
Si Si3 0.127196 0.928683 0.184770
Si Si4 0.872381 0.069859 0.010744
Si Si5 0.858959 0.572553 0.537685
Si Si6 0.328249 0.071809 0.222736
Si Si7 0.588825 0.432710 0.201723
O O1 0.127749 0.750000 0.631558
O O2 0.257907 0.956842 0.653704
O O3 0.188651 0.998383 0.527692
O O4 0.003858 0.998484 0.719434
O O5 0.567099 0.250000 0.401352
O O6 0.557542 0.017892 0.309413
O O7 0.500000 0.000000 0.500000
O O8 0.118816 0.750000 0.196519
O O9 0.255484 0.987792 0.179122
O O10 0.131713 0.967937 0.085337
O O11 0.879929 0.250000 0.014584
O O12 0.735421 0.020654 0.112172
O O13 0.000000 0.000000 0.000000
O O14 0.874408 0.750000 0.518954
O O15 0.759724 0.549000 0.656539
O O16 0.000000 0.500000 0.500000
O O17 0.329307 0.250000 0.204956
O O18 0.475892 0.021242 0.184402
O O19 0.586622 0.250000 0.203877
#
# Coordination Sequence:
#
# PCOD9164928 Si02
#       7
#     4   4   4   4   4   4   4
#     4  11  22  36  57  85 116 155 199 240 291 351
#     4  10  21  37  59  85 114 150 191 238 289 346
#     4  11  23  37  57  86 117 149 190 243 294 339
#     4  10  22  41  64  88 114 148 192 240 292 347
#     4  11  21  34  55  84 118 156 196 239 288 343
#     4  10  21  37  59  84 114 155 197 234 286 353
#     4   9  19  39  62  83 113 154 193 234 288 347
#
# _framework density 19.376083999999999
#
# number of rings (size 3 to 8) (size 9 to 14) (size 15 to 20)
#    0.000    1.714    1.429    3.000    0.000    5.714 
#    0.000    2.143    0.000    0.000    0.000    0.000 
#    0.000    0.000    0.000    0.000    0.000    0.000 
#
# Total GULP energy -156480.947437 kJ/mol
# GULP energy per Si atom -5588.605266 kJ/mol
# Density = 1.933198 g / cm^3
# Si number density = 19.376084 Si / 1000 Ang^3
#
#
#
# Elastic Constant Matrix: (Units=GPa)
#
#
# Indices 1 2 3 4 5 6 
#
# 1 163.5029 51.9183 69.0111 0.0000 6.6826 0.0000
# 2 51.9183 31.7716 36.0013 0.0000 8.2635 0.0000
# 3 69.0111 36.0013 94.0450 0.0000 10.1173 0.0000
# 4 0.0000 0.0000 0.0000 19.5940 0.0000 3.8661
# 5 6.6826 8.2635 10.1173 0.0000 36.3872 0.0000
# 6 0.0000 0.0000 0.0000 3.8661 0.0000 29.2716
#
#
#
# Elastic Compliance Matrix: (Units=1/GPa)
#
#
# Indices 1 2 3 4 5 6 
#
# 1 0.013280 -0.019484 -0.002577 0.000000 0.002702 0.000000
# 2 -0.019484 0.085912 -0.017397 0.000000 -0.011095 0.000000
# 3 -0.002577 -0.017397 0.019285 0.000000 -0.000938 0.000000
# 4 0.000000 0.000000 0.000000 0.052402 0.000000 -0.006921
# 5 0.002702 -0.011095 -0.000938 0.000000 0.029766 0.000000
# 6 0.000000 0.000000 0.000000 -0.006921 0.000000 0.035077
#
#
# Mechanical properties :
#
#
# Convention : Reuss Voigt Hill
#
# Bulk Modulus (GPa) = 25.27722 67.02011 46.14867
# Shear Modulus (GPa) = 15.25199 25.87649 20.56424
#
# Velocity S-wave (km/s) = 2.80867 3.65839 3.26133
# Velocity P-wave (km/s) = 4.85717 7.24633 6.16853
#
# Compressibility (1/GPa) = 0.03956130
#
# Stress axis : x y z
#
# Youngs Moduli (GPa) = 75.29902 11.63978 51.85361
#
# Poissons Ratio (x) = 0.22679 0.13364
# Poissons Ratio (y) = 1.46713 0.90209
# Poissons Ratio (z) = 0.19407 0.20250
#
# Static dielectric constant tensor:
#      x y z
#    x 1.679990 0.000000 0.003590 
#    y 0.000000 1.654250 0.000000 
#    z 0.003590 0.000000 1.661440 
# 
# From -- ./inp_files/38472.got.cif
#   From: 2010.05.17/outbox.cif.g08.bks.cpg/sg11_20_cif.got.tgz:38472.got - 2010.06.03 12:22:45.
