data_PCOD9164429
_publ_section_title
;
Structure prediction by ZEFSAII (Michael W. Deem and Ramdas Pophale) SiO2 
 PCOD9164429
Probable space group: P 21/M
;
_chemical_formula_sum "Si O2"
_cell_formula_units_Z 24
_cell_length_a 5.858717
_cell_length_b 13.050355
_cell_length_c 14.854018
_cell_angle_alpha 90.000000
_cell_angle_beta 106.994592
_cell_angle_gamma 90.000000
_cell_volume 1086.119567
_symmetry_space_group_name_H-M "P 21/M"
_symmetry_group_IT_number 11
_symmetry_cell_setting 'monoclinic'
loop_
_space_group_symop_operation_xyz
x,y,z
-x,1/2+y,-z
-x,-y,-z
x,1/2-y,z
loop_
_atom_site_type_symbol
_atom_site_label
_atom_site_fract_x
_atom_site_fract_y
_atom_site_fract_z
Si Si1 0.970130 0.138606 0.779652
Si Si2 0.339340 0.867532 0.931109
Si Si3 0.523928 0.065132 0.637454
Si Si4 0.802568 0.066576 0.278162
Si Si5 0.111646 0.130564 0.003610
Si Si6 0.836234 0.572530 0.541445
O O1 0.065008 0.250000 0.760448
O O2 0.693383 0.131323 0.720146
O O3 0.090720 0.040948 0.747315
O O4 0.012897 0.131158 0.890773
O O5 0.359394 0.750000 0.966711
O O6 0.273610 0.872347 0.818308
O O7 0.612953 0.909875 0.966738
O O8 0.104735 0.910880 0.957690
O O9 0.409716 0.975046 0.684395
O O10 0.331798 0.124205 0.552832
O O11 0.682711 0.004597 0.583941
O O12 0.990378 0.123652 0.365258
O O13 0.141048 0.250000 0.036748
O O14 0.000000 0.500000 0.500000
#
# Coordination Sequence:
#
# PCOD9164429 Si02
#       6
#     4   4   4   4   4   4
#     4  10  22  37  55  84 119 157 200 242 293 352
#     4  10  22  40  60  85 120 159 201 250 303 354
#     4   9  18  34  57  82 109 151 187 236 294 354
#     4  10  21  34  60  87 114 153 196 246 297 356
#     4   9  21  39  58  82 121 163 199 250 300 347
#     4   8  16  34  56  81 113 143 183 234 296 349
#
# _framework density 22.097013
#
# number of rings (size 3 to 8) (size 9 to 14) (size 15 to 20)
#    0.000    2.667    0.000    0.000    7.000    2.000 
#    0.000    0.833    0.000   31.000    0.000    0.000 
#    0.000    0.000    0.000    0.000    0.000    0.000 
#
# Total GULP energy -133612.300331 kJ/mol
# GULP energy per Si atom -5567.179180 kJ/mol
# Density = 2.204672 g / cm^3
# Si number density = 22.097013 Si / 1000 Ang^3
#
#
#
# Elastic Constant Matrix: (Units=GPa)
#
#
# Indices 1 2 3 4 5 6 
#
# 1 157.2381 22.3267 72.0547 0.0000 -2.8834 0.0000
# 2 22.3267 58.2938 -9.3464 0.0000 3.3349 0.0000
# 3 72.0547 -9.3464 142.7137 0.0000 22.4910 0.0000
# 4 0.0000 0.0000 0.0000 -275.8582 0.0000 -95.5657
# 5 -2.8834 3.3349 22.4910 0.0000 49.9723 0.0000
# 6 0.0000 0.0000 0.0000 -95.5657 0.0000 -12.3423
#
#
#
# Elastic Compliance Matrix: (Units=1/GPa)
#
#
# Indices 1 2 3 4 5 6 
#
# 1 0.009778 -0.004877 -0.005809 0.000000 0.003504 0.000000
# 2 -0.004877 0.019920 0.004328 0.000000 -0.003558 0.000000
# 3 -0.005809 0.004328 0.011109 0.000000 -0.005624 0.000000
# 4 0.000000 0.000000 0.000000 0.002155 0.000000 -0.016684
# 5 0.003504 -0.003558 -0.005624 0.000000 0.022982 0.000000
# 6 0.000000 0.000000 0.000000 -0.016684 0.000000 0.048159
#
#
# Mechanical properties :
#
#
# Convention : Reuss Voigt Hill
#
# Bulk Modulus (GPa) = 35.59734 58.70171 47.14952
# Shear Modulus (GPa) = 36.71537 -29.43161 3.64188
#
# Velocity S-wave (km/s) = 4.08064 -3.65352 1.28519
# Velocity P-wave (km/s) = 6.19247 2.97078 4.85655
#
# Compressibility (1/GPa) = 0.02809199
#
# Stress axis : x y z
#
# Youngs Moduli (GPa) = 102.26724 50.20130 90.01345
#
# Poissons Ratio (x) = 0.24483 0.52285
# Poissons Ratio (y) = 0.49875 -0.38955
# Poissons Ratio (z) = 0.59402 -0.21725
#
# Static dielectric constant tensor:
#      x y z
#    x 1.891550 0.000000 0.049250 
#    y 0.000000 1.838520 0.000000 
#    z 0.049250 0.000000 1.811300 
# 
# From -- ./inp_files/45757.got.cif
#   From: 2010.05.17/outbox.cif.g08.bks.cpg/sg11_23_cif.got.tgz:45757.got - 2010.06.03 12:22:45.
