data_PCOD9164596
_publ_section_title
;
Structure prediction by ZEFSAII (Michael W. Deem and Ramdas Pophale) SiO2 
 PCOD9164596
Probable space group: P 21/M
;
_chemical_formula_sum "Si O2"
_cell_formula_units_Z 28
_cell_length_a 32.214704
_cell_length_b 8.476301
_cell_length_c 32.214704
_cell_angle_alpha 90.000000
_cell_angle_beta 170.540379
_cell_angle_gamma 90.000000
_cell_volume 1445.742447
_symmetry_space_group_name_H-M "P 21/M"
_symmetry_group_IT_number 11
_symmetry_cell_setting 'monoclinic'
loop_
_space_group_symop_operation_xyz
x,y,z
-x,1/2+y,-z
-x,-y,-z
x,1/2-y,z
loop_
_atom_site_type_symbol
_atom_site_label
_atom_site_fract_x
_atom_site_fract_y
_atom_site_fract_z
Si Si1 0.119574 0.440571 0.380405
Si Si2 0.738624 0.062183 0.761376
Si Si3 0.308513 0.058931 0.191478
Si Si4 0.595182 0.440709 0.904797
Si Si5 0.023583 0.940671 0.476441
Si Si6 0.548057 0.559288 0.951967
Si Si7 0.833286 0.059535 0.666705
O O1 0.119720 0.250000 0.380259
O O2 0.357448 0.493786 0.642640
O O3 0.143219 0.498459 0.356779
O O4 0.857332 0.493786 0.142522
O O5 0.739506 0.250000 0.760494
O O6 0.500000 0.000000 0.500000
O O7 0.714762 0.006155 0.785238
O O8 0.000000 0.000000 0.000000
O O9 0.307410 0.250000 0.192581
O O10 0.570685 0.008741 0.428740
O O11 0.071246 0.008741 0.929303
O O12 0.594923 0.250000 0.905057
O O13 0.571605 0.499710 0.928395
O O14 0.023266 0.750000 0.476757
O O15 0.285835 0.993271 0.714229
O O16 0.000000 0.000000 0.500000
O O17 0.785806 0.993271 0.214196
O O18 0.548404 0.750000 0.951620
O O19 0.833850 0.250000 0.666140
#
# Coordination Sequence:
#
# PCOD9164596 Si02
#       7
#     4   4   4   4   4   4   4
#     4  10  21  36  54  78 109 141 179 226 272 324
#     4  12  25  42  65  93 124 162 205 250 303 361
#     4  10  21  38  58  84 117 151 191 240 288 342
#     4  10  21  36  54  78 106 140 179 220 269 323
#     4  10  21  36  54  78 106 136 173 214 261 313
#     4  10  21  36  54  78 106 136 173 218 262 312
#     4  10  21  36  57  83 112 148 189 232 283 339
#
# _framework density 19.367211999999999
#
# number of rings (size 3 to 8) (size 9 to 14) (size 15 to 20)
#    0.000    1.714    0.000    4.286    0.000    4.571 
#    0.000    0.000    0.000    0.000    0.000    0.000 
#    0.000    0.000    0.000    0.000    0.000    0.000 
#
# Total GULP energy -156555.838293 kJ/mol
# GULP energy per Si atom -5591.279939 kJ/mol
# Density = 1.932313 g / cm^3
# Si number density = 19.367212 Si / 1000 Ang^3
#
#
#
# Elastic Constant Matrix: (Units=GPa)
#
#
# Indices 1 2 3 4 5 6 
#
# 1 242.8813 34.1202 153.0175 0.0000 0.4264 0.0000
# 2 34.1202 18.7652 40.3333 0.0000 0.5478 0.0000
# 3 153.0175 40.3333 250.0900 0.0000 0.2101 0.0000
# 4 0.0000 0.0000 0.0000 6.6454 0.0000 -3.2698
# 5 0.4264 0.5478 0.2101 0.0000 47.3282 0.0000
# 6 0.0000 0.0000 0.0000 -3.2698 0.0000 43.7348
#
#
#
# Elastic Compliance Matrix: (Units=1/GPa)
#
#
# Indices 1 2 3 4 5 6 
#
# 1 0.007043 -0.005425 -0.003434 0.000000 0.000015 0.000000
# 2 -0.005425 0.085779 -0.010514 0.000000 -0.000897 0.000000
# 3 -0.003434 -0.010514 0.007795 0.000000 0.000118 0.000000
# 4 0.000000 0.000000 0.000000 0.156228 0.000000 0.011680
# 5 0.000015 -0.000897 0.000118 0.000000 0.021139 0.000000
# 6 0.000000 0.000000 0.000000 0.011680 0.000000 0.023738
#
#
# Mechanical properties :
#
#
# Convention : Reuss Voigt Hill
#
# Bulk Modulus (GPa) = 16.16275 107.40873 61.78574
# Shear Modulus (GPa) = 13.84688 38.49270 26.16979
#
# Velocity S-wave (km/s) = 2.67678 4.46300 3.67991
# Velocity P-wave (km/s) = 4.23286 9.06296 7.07299
#
# Compressibility (1/GPa) = 0.06187067
#
# Stress axis : x y z
#
# Youngs Moduli (GPa) = 141.98552 11.65791 128.27993
#
# Poissons Ratio (x) = 0.06324 0.44056
# Poissons Ratio (y) = 0.77023 1.34875
# Poissons Ratio (z) = 0.48763 0.12257
#
# Static dielectric constant tensor:
#      x y z
#    x 1.614110 0.000000 0.036330 
#    y 0.000000 1.661080 0.000000 
#    z 0.036330 0.000000 2.026280 
# 
# From -- ./inp_files/9640.got.cif
#   From: 2010.05.17/outbox.cif.g08.bks.cpg/sg11_5_cif.got.tgz:9640.got - 2010.06.03 12:22:45.
