data_PCOD9164398
_publ_section_title
;
Structure prediction by ZEFSAII (Michael W. Deem and Ramdas Pophale) SiO2 
 PCOD9164398
Probable space group: P 21/M
;
_chemical_formula_sum "Si O2"
_cell_formula_units_Z 32
_cell_length_a 27.449622
_cell_length_b 8.842591
_cell_length_c 12.672574
_cell_angle_alpha 90.000000
_cell_angle_beta 40.335049
_cell_angle_gamma 90.000000
_cell_volume 1990.934444
_symmetry_space_group_name_H-M "P 21/M"
_symmetry_group_IT_number 11
_symmetry_cell_setting 'monoclinic'
loop_
_space_group_symop_operation_xyz
x,y,z
-x,1/2+y,-z
-x,-y,-z
x,1/2-y,z
loop_
_atom_site_type_symbol
_atom_site_label
_atom_site_fract_x
_atom_site_fract_y
_atom_site_fract_z
Si Si1 0.423894 0.068891 0.674688
Si Si2 0.311370 0.431553 0.280636
Si Si3 0.160480 0.568549 0.603976
Si Si4 0.678027 0.431525 0.329825
Si Si5 0.430945 0.067853 0.910177
Si Si6 0.994897 0.568842 0.890952
Si Si7 0.407826 0.431461 0.327874
Si Si8 0.159223 0.931661 0.853604
O O1 0.426034 0.250000 0.659951
O O2 0.419999 0.031919 0.805009
O O3 0.500000 0.000000 0.500000
O O4 0.355013 0.001744 0.721956
O O5 0.305757 0.250000 0.289178
O O6 0.228355 0.498686 0.426802
O O7 0.358156 0.474937 0.308347
O O8 0.360364 0.477955 0.098616
O O9 0.166779 0.750000 0.591246
O O10 0.168094 0.522261 0.715348
O O11 0.075743 0.528007 0.707309
O O12 0.671263 0.250000 0.338631
O O13 0.628310 0.494543 0.508588
O O14 0.764670 0.471459 0.210907
O O15 0.440019 0.250000 0.904495
O O16 0.507231 0.989696 0.823343
O O17 0.990997 0.750000 0.903782
O O18 0.916898 0.504668 0.975589
O O19 0.000000 0.500000 0.000000
O O20 0.407017 0.250000 0.339367
O O21 0.150671 0.750000 0.868303
#
# Coordination Sequence:
#
# PCOD9164398 Si02
#       8
#     4   4   4   4   4   4   4   4
#     4  11  22  36  54  73  96 128 169 211 254 298
#     4  10  21  34  49  73 100 131 169 203 243 297
#     4   9  17  30  46  69 100 133 162 192 241 293
#     4  11  21  34  52  73 101 133 165 206 253 296
#     4  10  22  38  52  68  97 133 166 208 255 293
#     4   9  17  28  44  68  99 132 164 197 238 291
#     4  11  21  32  50  75  99 127 169 207 242 298
#     4   9  18  31  47  70  99 131 164 198 246 297
#
# _framework density 16.072855000000001
#
# number of rings (size 3 to 8) (size 9 to 14) (size 15 to 20)
#    0.000    2.000    2.500    2.625    0.000    5.000 
#    0.000    0.000    0.000    0.000    0.000    0.875 
#    0.000    0.000    0.000    0.000    0.000    0.000 
#
# Total GULP energy -178508.357286 kJ/mol
# GULP energy per Si atom -5578.386165 kJ/mol
# Density = 1.603627 g / cm^3
# Si number density = 16.072855 Si / 1000 Ang^3
#
#
#
# Elastic Constant Matrix: (Units=GPa)
#
#
# Indices 1 2 3 4 5 6 
#
# 1 57.5195 23.0884 52.2818 0.0000 -24.2248 0.0000
# 2 23.0884 24.4777 33.8939 0.0000 -9.3333 0.0000
# 3 52.2818 33.8939 124.4481 0.0000 -28.4518 0.0000
# 4 0.0000 0.0000 0.0000 25.9152 0.0000 -7.6641
# 5 -24.2248 -9.3333 -28.4518 0.0000 32.2663 0.0000
# 6 0.0000 0.0000 0.0000 -7.6641 0.0000 24.4704
#
#
#
# Elastic Compliance Matrix: (Units=1/GPa)
#
#
# Indices 1 2 3 4 5 6 
#
# 1 0.039394 -0.021049 -0.006823 0.000000 0.017472 0.000000
# 2 -0.021049 0.077258 -0.013405 0.000000 -0.005276 0.000000
# 3 -0.006823 -0.013405 0.015650 0.000000 0.004800 0.000000
# 4 0.000000 0.000000 0.000000 0.042526 0.000000 0.013319
# 5 0.017472 -0.005276 0.004800 0.000000 0.046816 0.000000
# 6 0.000000 0.000000 0.000000 0.013319 0.000000 0.045037
#
#
# Mechanical properties :
#
#
# Convention : Reuss Voigt Hill
#
# Bulk Modulus (GPa) = 20.10096 47.21925 33.66011
# Shear Modulus (GPa) = 13.66802 23.00911 18.33857
#
# Velocity S-wave (km/s) = 2.91929 3.78769 3.38148
# Velocity P-wave (km/s) = 4.88839 6.96928 6.01943
#
# Compressibility (1/GPa) = 0.04974886
#
# Stress axis : x y z
#
# Youngs Moduli (GPa) = 25.38444 12.94372 63.89801
#
# Poissons Ratio (x) = 0.27246 0.43595
# Poissons Ratio (y) = 0.53432 0.85652
# Poissons Ratio (z) = 0.17319 0.17350
#
# Static dielectric constant tensor:
#      x y z
#    x 1.537360 0.000000 -0.018700 
#    y 0.000000 1.539220 0.000000 
#    z -0.018700 0.000000 1.533320 
# 
# From -- ./inp_files/44506.got.cif
#   From: 2010.05.17/outbox.cif.g08.bks.cpg/sg11_23_cif.got.tgz:44506.got - 2010.06.03 12:22:45.
