data_PCOD9164526
_publ_section_title
;
Structure prediction by ZEFSAII (Michael W. Deem and Ramdas Pophale) SiO2 
 PCOD9164526
Probable space group: P 21/M
;
_chemical_formula_sum "Si O2"
_cell_formula_units_Z 26
_cell_length_a 12.612852
_cell_length_b 8.405673
_cell_length_c 28.146098
_cell_angle_alpha 90.000000
_cell_angle_beta 25.981301
_cell_angle_gamma 90.000000
_cell_volume 1307.239691
_symmetry_space_group_name_H-M "P 21/M"
_symmetry_group_IT_number 11
_symmetry_cell_setting 'monoclinic'
loop_
_space_group_symop_operation_xyz
x,y,z
-x,1/2+y,-z
-x,-y,-z
x,1/2-y,z
loop_
_atom_site_type_symbol
_atom_site_label
_atom_site_fract_x
_atom_site_fract_y
_atom_site_fract_z
Si Si1 0.903869 0.505302 0.729412
Si Si2 0.715467 0.250000 0.461450
Si Si3 0.587366 0.059598 0.255393
Si Si4 0.167499 0.250000 0.684717
Si Si5 0.541656 0.750000 0.340315
Si Si6 0.851994 0.932716 0.990984
Si Si7 0.415538 0.064526 0.221818
Si Si8 0.566191 0.426679 0.023428
O O1 0.763071 0.455052 0.737621
O O2 0.680075 0.584149 0.847034
O O3 0.130011 0.603738 0.619454
O O4 0.016440 0.393395 0.723978
O O5 0.440376 0.250000 0.553544
O O6 0.679610 0.250000 0.532765
O O7 0.567735 0.250000 0.278181
O O8 0.422232 0.036753 0.275205
O O9 0.539972 0.915169 0.311326
O O10 0.864056 0.036266 0.126299
O O11 0.226155 0.250000 0.717155
O O12 0.814476 0.750000 0.020217
O O13 0.686412 0.039461 0.091924
O O14 0.745453 0.963797 0.981404
O O15 0.346044 0.250000 0.241947
O O16 0.668594 0.250000 0.977063
O O17 0.500000 0.500000 0.000000
#
# Coordination Sequence:
#
# PCOD9164526 Si02
#       8
#     4   2   4   2   2   4   4   4
#     4  11  21  43  66  91 125 166 206 269 323 383
#     4  10  22  48  62  96 114 170 220 262 338 373
#     4  10  23  42  63  95 134 174 218 265 327 373
#     4  10  26  39  68  94 122 157 223 267 324 396
#     4  10  26  43  66  92 128 169 217 283 314 397
#     4  10  21  35  57  92 128 169 213 254 308 389
#     4  10  21  38  65  93 128 172 214 262 316 393
#     4  11  24  36  58  89 129 170 206 254 318 387
#
# _framework density 19.889237999999999
#
# number of rings (size 3 to 8) (size 9 to 14) (size 15 to 20)
#    0.462    1.231    1.538    2.769   10.769    0.000 
#    2.769    0.769    0.000    0.000    0.000    0.000 
#    0.000    0.000    0.000    0.000    0.000    0.000 
#
# Total GULP energy -144788.614299 kJ/mol
# GULP energy per Si atom -5568.792858 kJ/mol
# Density = 1.984397 g / cm^3
# Si number density = 19.889238 Si / 1000 Ang^3
#
#
#
# Elastic Constant Matrix: (Units=GPa)
#
#
# Indices 1 2 3 4 5 6 
#
# 1 142.9218 41.4587 16.1219 0.0000 16.1903 0.0000
# 2 41.4587 70.3748 10.8259 0.0000 15.5070 0.0000
# 3 16.1219 10.8259 34.1519 0.0000 -1.9783 0.0000
# 4 0.0000 0.0000 0.0000 41.9525 0.0000 12.2603
# 5 16.1903 15.5070 -1.9783 0.0000 24.2274 0.0000
# 6 0.0000 0.0000 0.0000 12.2603 0.0000 25.1417
#
#
#
# Elastic Compliance Matrix: (Units=1/GPa)
#
#
# Indices 1 2 3 4 5 6 
#
# 1 0.008919 -0.003954 -0.003171 0.000000 -0.003689 0.000000
# 2 -0.003954 0.019563 -0.004930 0.000000 -0.010282 0.000000
# 3 -0.003171 -0.004930 0.032801 0.000000 0.007953 0.000000
# 4 0.000000 0.000000 0.000000 0.027798 0.000000 -0.013556
# 5 -0.003689 -0.010282 0.007953 0.000000 0.050971 0.000000
# 6 0.000000 0.000000 0.000000 -0.013556 0.000000 0.046385
#
#
# Mechanical properties :
#
#
# Convention : Reuss Voigt Hill
#
# Bulk Modulus (GPa) = 26.90094 42.69571 34.79833
# Shear Modulus (GPa) = 22.42768 30.20046 26.31407
#
# Velocity S-wave (km/s) = 3.36166 3.90093 3.64129
# Velocity P-wave (km/s) = 5.34999 6.46553 5.93403
#
# Compressibility (1/GPa) = 0.03717342
#
# Stress axis : x y z
#
# Youngs Moduli (GPa) = 112.11624 51.11700 30.48654
#
# Poissons Ratio (x) = 0.20211 0.09667
# Poissons Ratio (y) = 0.44330 0.15031
# Poissons Ratio (z) = 0.35550 0.25203
#
# Static dielectric constant tensor:
#      x y z
#    x 1.726490 0.000000 0.004510 
#    y 0.000000 1.777850 0.000000 
#    z 0.004510 0.000000 1.677730 
# 
# From -- ./inp_files/71339.got.cif
#   From: 2010.05.17/outbox.cif.g08.bks.cpg/sg11_36_cif.got.tgz:71339.got - 2010.06.03 12:22:45.
