data_PCOD9164225
_publ_section_title
;
Structure prediction by ZEFSAII (Michael W. Deem and Ramdas Pophale) SiO2 
 PCOD9164225
Probable space group: P 21/M
;
_chemical_formula_sum "Si O2"
_cell_formula_units_Z 24
_cell_length_a 9.285516
_cell_length_b 23.401765
_cell_length_c 5.215507
_cell_angle_alpha 90.000000
_cell_angle_beta 60.734053
_cell_angle_gamma 90.000000
_cell_volume 988.659904
_symmetry_space_group_name_H-M "P 21/M"
_symmetry_group_IT_number 11
_symmetry_cell_setting 'monoclinic'
loop_
_space_group_symop_operation_xyz
x,y,z
-x,1/2+y,-z
-x,-y,-z
x,1/2-y,z
loop_
_atom_site_type_symbol
_atom_site_label
_atom_site_fract_x
_atom_site_fract_y
_atom_site_fract_z
Si Si1 0.248331 0.537177 0.652345
Si Si2 0.367268 0.875638 0.161855
Si Si3 0.403726 0.075471 0.396216
Si Si4 0.918634 0.129702 0.934363
Si Si5 0.066728 0.314961 0.316118
Si Si6 0.601778 0.687538 0.274732
O O1 0.252861 0.578088 0.400928
O O2 0.424636 0.551366 0.633330
O O3 0.263941 0.471635 0.557709
O O4 0.107581 0.563519 0.956523
O O5 0.264658 0.853211 0.009552
O O6 0.427418 0.825515 0.291965
O O7 0.534099 0.910180 0.942658
O O8 0.365849 0.134961 0.565543
O O9 0.031341 0.145831 0.593463
O O10 0.974728 0.163152 0.139096
O O11 0.015425 0.250000 0.423872
O O12 0.256723 0.313452 0.064561
O O13 0.606898 0.750000 0.394903
#
# Coordination Sequence:
#
# PCOD9164225 Si02
#       6
#     4   4   4   4   4   4
#     4   9  18  38  64  98 128 165 211 268 324 384
#     4  10  20  39  67  98 129 163 218 269 319 381
#     4   9  19  36  66  95 127 171 210 266 325 382
#     4  11  22  43  67  97 128 167 218 267 318 385
#     4  11  25  44  65  89 132 181 214 258 330 391
#     4  10  24  42  61  93 131 172 219 266 319 385
#
# _framework density 24.275283000000002
#
# number of rings (size 3 to 8) (size 9 to 14) (size 15 to 20)
#    0.000    2.000    1.667    1.000    2.333    3.333 
#    0.000    4.167    0.000    0.000    0.000    0.000 
#    0.000    0.000    0.000    0.000    0.000    0.000 
#
# Total GULP energy -134041.916913 kJ/mol
# GULP energy per Si atom -5585.079871 kJ/mol
# Density = 2.422003 g / cm^3
# Si number density = 24.275283 Si / 1000 Ang^3
#
#
#
# Elastic Constant Matrix: (Units=GPa)
#
#
# Indices 1 2 3 4 5 6 
#
# 1 79.3960 24.3700 9.2460 0.0000 11.9653 0.0000
# 2 24.3700 115.3645 21.0172 0.0000 -6.8937 0.0000
# 3 9.2460 21.0172 101.2968 0.0000 0.2891 0.0000
# 4 0.0000 0.0000 0.0000 70.5649 0.0000 -30.2318
# 5 11.9653 -6.8937 0.2891 0.0000 29.0746 0.0000
# 6 0.0000 0.0000 0.0000 -30.2318 0.0000 31.1337
#
#
#
# Elastic Compliance Matrix: (Units=1/GPa)
#
#
# Indices 1 2 3 4 5 6 
#
# 1 0.014751 -0.003414 -0.000618 0.000000 -0.006874 0.000000
# 2 -0.003414 0.009936 -0.001761 0.000000 0.003778 0.000000
# 3 -0.000618 -0.001761 0.010294 0.000000 -0.000265 0.000000
# 4 0.000000 0.000000 0.000000 0.024267 0.000000 0.023564
# 5 -0.006874 0.003778 -0.000265 0.000000 0.038122 0.000000
# 6 0.000000 0.000000 0.000000 0.023564 0.000000 0.055001
#
#
# Mechanical properties :
#
#
# Convention : Reuss Voigt Hill
#
# Bulk Modulus (GPa) = 42.74431 45.03596 43.89013
# Shear Modulus (GPa) = 29.11118 42.24956 35.68037
#
# Velocity S-wave (km/s) = 3.46672 4.17638 3.83799
# Velocity P-wave (km/s) = 5.80263 6.46905 6.14488
#
# Compressibility (1/GPa) = 0.02339493
#
# Stress axis : x y z
#
# Youngs Moduli (GPa) = 67.79212 100.64475 97.13931
#
# Poissons Ratio (x) = 0.34362 0.06007
# Poissons Ratio (y) = 0.23145 0.17103
# Poissons Ratio (z) = 0.04192 0.17720
#
# Static dielectric constant tensor:
#      x y z
#    x 1.948200 0.000000 -0.026700 
#    y 0.000000 1.931570 0.000000 
#    z -0.026700 0.000000 2.008000 
# 
# From -- ./inp_files/4810.got.cif
#   From: 2010.05.17/outbox.cif.g08.bks.cpg/sg11_3_cif.got.tgz:4810.got - 2010.06.03 12:22:45.
