data_PCOD9164656
_publ_section_title
;
Structure prediction by ZEFSAII (Michael W. Deem and Ramdas Pophale) SiO2 
 PCOD9164656
Probable space group: P 21/M
;
_chemical_formula_sum "Si O2"
_cell_formula_units_Z 28
_cell_length_a 32.249697
_cell_length_b 8.397875
_cell_length_c 32.250496
_cell_angle_alpha 90.000000
_cell_angle_beta 170.572041
_cell_angle_gamma 90.000000
_cell_volume 1430.753682
_symmetry_space_group_name_H-M "P 21/M"
_symmetry_group_IT_number 11
_symmetry_cell_setting 'monoclinic'
loop_
_space_group_symop_operation_xyz
x,y,z
-x,1/2+y,-z
-x,-y,-z
x,1/2-y,z
loop_
_atom_site_type_symbol
_atom_site_label
_atom_site_fract_x
_atom_site_fract_y
_atom_site_fract_z
Si Si1 0.700970 0.055559 0.320178
Si Si2 0.738337 0.058919 0.261558
Si Si3 0.566944 0.442893 0.470853
Si Si4 0.096022 0.058926 0.859810
Si Si5 0.426822 0.060897 0.617255
Si Si6 0.823263 0.555526 0.155309
Si Si7 0.957495 0.557683 0.004657
O O1 0.700813 0.250000 0.319957
O O2 0.715572 0.004049 0.286859
O O3 0.943805 0.004023 0.586141
O O4 0.442495 0.003750 0.087306
O O5 0.738132 0.250000 0.261390
O O6 0.000000 0.000000 0.500000
O O7 0.500000 0.000000 0.000000
O O8 0.567472 0.250000 0.470226
O O9 0.571203 0.503280 0.428233
O O10 0.813178 0.495378 0.739471
O O11 0.311464 0.495367 0.242155
O O12 0.107657 0.250000 0.871826
O O13 0.140624 0.004233 0.856497
O O14 0.821520 0.007623 0.605178
O O15 0.319157 0.995470 0.109121
O O16 0.414355 0.250000 0.606031
O O17 0.823226 0.750000 0.155132
O O18 0.957660 0.750000 0.004586
O O19 0.000000 0.500000 0.000000
#
# Coordination Sequence:
#
# PCOD9164656 Si02
#       7
#     4   4   4   4   4   4   4
#     4   9  17  31  53  82 111 142 187 242 286 329
#     4  11  22  37  59  85 117 154 193 240 292 345
#     4  10  21  38  58  82 112 151 196 237 279 335
#     4  11  22  39  64  89 115 152 195 242 292 350
#     4  12  25  40  60  89 123 157 194 242 295 348
#     4   9  17  31  55  84 108 138 191 243 281 332
#     4  10  21  36  57  83 112 146 187 236 286 337
#
# _framework density 19.570105000000002
#
# number of rings (size 3 to 8) (size 9 to 14) (size 15 to 20)
#    0.000    1.714    0.000    5.143    0.000    6.857 
#    0.000    0.000    0.000   17.143    0.000    0.000 
#    0.000    0.000    0.000    0.000    0.000    0.000 
#
# Total GULP energy -156545.762442 kJ/mol
# GULP energy per Si atom -5590.920087 kJ/mol
# Density = 1.952556 g / cm^3
# Si number density = 19.570105 Si / 1000 Ang^3
#
#
#
# Elastic Constant Matrix: (Units=GPa)
#
#
# Indices 1 2 3 4 5 6 
#
# 1 91.7158 -5.4837 -13.2541 0.0000 -4.8195 0.0000
# 2 -5.4837 30.3234 -1.9986 0.0000 1.2992 0.0000
# 3 -13.2541 -1.9986 74.2526 0.0000 -2.8771 0.0000
# 4 0.0000 0.0000 0.0000 11.9223 0.0000 -53.6467
# 5 -4.8195 1.2992 -2.8771 0.0000 47.6462 0.0000
# 6 0.0000 0.0000 0.0000 -53.6467 0.0000 -317.9634
#
#
#
# Elastic Compliance Matrix: (Units=1/GPa)
#
#
# Indices 1 2 3 4 5 6 
#
# 1 0.011406 0.002151 0.002141 0.000000 0.001224 0.000000
# 2 0.002151 0.033476 0.001261 0.000000 -0.000619 0.000000
# 3 0.002141 0.001261 0.013923 0.000000 0.001023 0.000000
# 4 0.000000 0.000000 0.000000 0.047679 0.000000 -0.008044
# 5 0.001224 -0.000619 0.001023 0.000000 0.021191 0.000000
# 6 0.000000 0.000000 0.000000 -0.008044 0.000000 -0.001788
#
#
# Mechanical properties :
#
#
# Convention : Reuss Voigt Hill
#
# Bulk Modulus (GPa) = 14.30357 17.20213 15.75285
# Shear Modulus (GPa) = 36.20973 -37.21043 -0.50035
#
# Velocity S-wave (km/s) = 4.30613 -4.36523 -0.50619
# Velocity P-wave (km/s) = 5.66113 4.07404 2.77944
#
# Compressibility (1/GPa) = 0.06991261
#
# Stress axis : x y z
#
# Youngs Moduli (GPa) = 87.67590 29.87173 71.82188
#
# Poissons Ratio (x) = -0.06426 -0.15379
# Poissons Ratio (y) = -0.18861 -0.09057
# Poissons Ratio (z) = -0.18774 -0.03767
#
# Static dielectric constant tensor:
#      x y z
#    x 1.649870 0.000000 -0.002130 
#    y 0.000000 1.679040 0.000000 
#    z -0.002130 0.000000 1.626680 
# 
# From -- ./inp_files/73848.got.cif
#   From: 2010.05.17/outbox.cif.g08.bks.cpg/sg11_37_cif.got.tgz:73848.got - 2010.06.03 12:22:45.
