data_PCOD9164622
_publ_section_title
;
Structure prediction by ZEFSAII (Michael W. Deem and Ramdas Pophale) SiO2 
 PCOD9164622
Probable space group: P 21/M
;
_chemical_formula_sum "Si O2"
_cell_formula_units_Z 32
_cell_length_a 12.175622
_cell_length_b 20.542081
_cell_length_c 8.408386
_cell_angle_alpha 90.000000
_cell_angle_beta 131.589908
_cell_angle_gamma 90.000000
_cell_volume 1572.897748
_symmetry_space_group_name_H-M "P 21/M"
_symmetry_group_IT_number 11
_symmetry_cell_setting 'monoclinic'
loop_
_space_group_symop_operation_xyz
x,y,z
-x,1/2+y,-z
-x,-y,-z
x,1/2-y,z
loop_
_atom_site_type_symbol
_atom_site_label
_atom_site_fract_x
_atom_site_fract_y
_atom_site_fract_z
Si Si1 0.760926 0.179339 0.254823
Si Si2 0.652330 0.961005 0.146084
Si Si3 0.097565 0.950948 0.697479
Si Si4 0.170046 0.441823 0.351358
Si Si5 0.507236 0.862196 0.798655
Si Si6 0.363368 0.952486 0.415385
Si Si7 0.682171 0.679402 0.655196
Si Si8 0.372650 0.822078 0.225237
O O1 0.835285 0.250000 0.345228
O O2 0.862149 0.115167 0.358497
O O3 0.622464 0.176426 0.240243
O O4 0.693233 0.175457 0.012799
O O5 0.728739 0.948201 0.390390
O O6 0.755784 0.007308 0.138106
O O7 0.619354 0.892233 0.032594
O O8 0.500000 0.000000 0.000000
O O9 0.997047 0.936904 0.752458
O O10 0.000000 0.000000 0.500000
O O11 0.218614 0.505016 0.299582
O O12 0.214497 0.379738 0.290237
O O13 0.419535 0.921698 0.633547
O O14 0.597382 0.829616 0.741718
O O15 0.335506 0.889016 0.280051
O O16 0.500000 0.000000 0.500000
O O17 0.754640 0.750000 0.721146
O O18 0.549430 0.677866 0.399856
O O19 0.330506 0.750000 0.254556
#
# Coordination Sequence:
#
# PCOD9164622 Si02
#       8
#     4   4   4   4   4   4   4   4
#     4  11  22  38  62  89 118 157 207 257 304 357
#     4  11  20  35  63  88 118 149 198 259 295 350
#     4  10  23  39  58  90 127 157 197 249 309 362
#     4  11  21  38  58  87 121 158 198 244 304 362
#     4  11  20  33  60  88 117 148 198 257 298 347
#     4  11  20  34  57  87 122 156 197 238 303 360
#     4  10  21  36  55  84 122 157 195 245 307 365
#     4   9  20  36  57  87 120 152 201 258 299 353
#
# _framework density 20.344614
#
# number of rings (size 3 to 8) (size 9 to 14) (size 15 to 20)
#    0.000    1.500    5.000    1.875    1.750    1.000 
#    0.000    3.125    0.000    1.500    0.000    0.000 
#    0.000    0.000    0.000    0.000    0.000    0.000 
#
# Total GULP energy -178451.167961 kJ/mol
# GULP energy per Si atom -5576.598999 kJ/mol
# Density = 2.029831 g / cm^3
# Si number density = 20.344614 Si / 1000 Ang^3
#
#
#
# Elastic Constant Matrix: (Units=GPa)
#
#
# Indices 1 2 3 4 5 6 
#
# 1 133.3633 70.3217 10.2958 0.0000 5.6477 0.0000
# 2 70.3217 169.5229 15.2207 0.0000 -7.4632 0.0000
# 3 10.2958 15.2207 39.3706 0.0000 -4.3448 0.0000
# 4 0.0000 0.0000 0.0000 17.9081 0.0000 -2.5215
# 5 5.6477 -7.4632 -4.3448 0.0000 22.5951 0.0000
# 6 0.0000 0.0000 0.0000 -2.5215 0.0000 18.6831
#
#
#
# Elastic Compliance Matrix: (Units=1/GPa)
#
#
# Indices 1 2 3 4 5 6 
#
# 1 0.010003 -0.004203 -0.001451 0.000000 -0.004167 0.000000
# 2 -0.004203 0.007934 -0.001597 0.000000 0.003364 0.000000
# 3 -0.001451 -0.001597 0.026950 0.000000 0.005018 0.000000
# 4 0.000000 0.000000 0.000000 0.056922 0.000000 0.007682
# 5 -0.004167 0.003364 0.005018 0.000000 0.047375 0.000000
# 6 0.000000 0.000000 0.000000 0.007682 0.000000 0.054561
#
#
# Mechanical properties :
#
#
# Convention : Reuss Voigt Hill
#
# Bulk Modulus (GPa) = 32.91022 59.32592 46.11807
# Shear Modulus (GPa) = 21.89385 28.26517 25.07951
#
# Velocity S-wave (km/s) = 3.28403 3.73140 3.51484
# Velocity P-wave (km/s) = 5.53094 6.91291 6.26018
#
# Compressibility (1/GPa) = 0.03038570
#
# Stress axis : x y z
#
# Youngs Moduli (GPa) = 99.97196 126.04465 37.10546
#
# Poissons Ratio (x) = 0.52971 0.05384
# Poissons Ratio (y) = 0.42014 0.05926
# Poissons Ratio (z) = 0.14506 0.20129
#
# Static dielectric constant tensor:
#      x y z
#    x 1.755340 0.000000 -0.017590 
#    y 0.000000 1.781990 0.000000 
#    z -0.017590 0.000000 1.748560 
# 
# From -- ./inp_files/19197.got.cif
#   From: 2010.05.17/outbox.cif.g08.bks.cpg/sg11_10_cif.got.tgz:19197.got - 2010.06.03 12:22:45.
