data_PCOD9164543
_publ_section_title
;
Structure prediction by ZEFSAII (Michael W. Deem and Ramdas Pophale) SiO2 
 PCOD9164543
Probable space group: P 21/M
;
_chemical_formula_sum "Si O2"
_cell_formula_units_Z 20
_cell_length_a 11.050689
_cell_length_b 18.932789
_cell_length_c 5.224341
_cell_angle_alpha 90.000000
_cell_angle_beta 59.774342
_cell_angle_gamma 90.000000
_cell_volume 944.439338
_symmetry_space_group_name_H-M "P 21/M"
_symmetry_group_IT_number 11
_symmetry_cell_setting 'monoclinic'
loop_
_space_group_symop_operation_xyz
x,y,z
-x,1/2+y,-z
-x,-y,-z
x,1/2-y,z
loop_
_atom_site_type_symbol
_atom_site_label
_atom_site_fract_x
_atom_site_fract_y
_atom_site_fract_z
Si Si1 0.273154 0.667403 0.459942
Si Si2 0.374417 0.445356 0.198388
Si Si3 0.072230 0.032081 0.671619
Si Si4 0.089619 0.831934 0.164329
Si Si5 0.465174 0.417807 0.602178
O O1 0.312379 0.750000 0.393001
O O2 0.199048 0.646184 0.272450
O O3 0.406227 0.622581 0.406511
O O4 0.163604 0.661688 0.810114
O O5 0.237403 0.480183 0.467239
O O6 0.426587 0.390970 0.359949
O O7 0.500000 0.500000 0.000000
O O8 0.344644 0.415320 0.946729
O O9 0.040328 0.115448 0.697171
O O10 0.000000 0.000000 0.500000
O O11 0.000000 0.000000 0.000000
O O12 0.054145 0.750000 0.247937
O O13 0.500000 0.500000 0.500000
#
# Coordination Sequence:
#
# PCOD9164543 Si02
#       5
#     4   4   4   4   4
#     4  10  21  39  64  94 123 172 220 264 318 398
#     4  10  23  39  58  92 129 168 201 257 333 369
#     4  12  26  40  66  98 130 170 224 271 323 392
#     4  10  23  41  64  91 130 168 215 270 328 382
#     4  10  21  35  61  85 129 162 205 256 325 369
#
# _framework density 21.176583999999998
#
# number of rings (size 3 to 8) (size 9 to 14) (size 15 to 20)
#    0.000    1.600    0.000    3.600   16.800    0.000 
#    0.000    2.000    0.000    0.000    0.000    0.000 
#    0.000    0.000    0.000    0.000    0.000    0.000 
#
# Total GULP energy -111613.820309 kJ/mol
# GULP energy per Si atom -5580.691015 kJ/mol
# Density = 2.112839 g / cm^3
# Si number density = 21.176584 Si / 1000 Ang^3
#
#
#
# Elastic Constant Matrix: (Units=GPa)
#
#
# Indices 1 2 3 4 5 6 
#
# 1 75.6683 10.7434 50.2894 0.0000 1.7867 0.0000
# 2 10.7434 62.8781 15.8298 0.0000 -14.7425 0.0000
# 3 50.2894 15.8298 144.2469 0.0000 15.1899 0.0000
# 4 0.0000 0.0000 0.0000 15.5908 0.0000 -1.0403
# 5 1.7867 -14.7425 15.1899 0.0000 55.0699 0.0000
# 6 0.0000 0.0000 0.0000 -1.0403 0.0000 40.8058
#
#
#
# Elastic Compliance Matrix: (Units=1/GPa)
#
#
# Indices 1 2 3 4 5 6 
#
# 1 0.017361 -0.001283 -0.005990 0.000000 0.000745 0.000000
# 2 -0.001283 0.017919 -0.002089 0.000000 0.005415 0.000000
# 3 -0.005990 -0.002089 0.009567 0.000000 -0.003004 0.000000
# 4 0.000000 0.000000 0.000000 0.064250 0.000000 0.001638
# 5 0.000745 0.005415 -0.003004 0.000000 0.020413 0.000000
# 6 0.000000 0.000000 0.000000 0.001638 0.000000 0.024548
#
#
# Mechanical properties :
#
#
# Convention : Reuss Voigt Hill
#
# Bulk Modulus (GPa) = 38.28410 48.50206 43.39308
# Shear Modulus (GPa) = 27.54971 36.02200 31.78585
#
# Velocity S-wave (km/s) = 3.61078 4.12883 3.87847
# Velocity P-wave (km/s) = 5.95831 6.75892 6.37120
#
# Compressibility (1/GPa) = 0.02612050
#
# Stress axis : x y z
#
# Youngs Moduli (GPa) = 57.59876 55.80796 104.53031
#
# Poissons Ratio (x) = 0.07163 0.62619
# Poissons Ratio (y) = 0.07393 0.21838
# Poissons Ratio (z) = 0.34504 0.11659
#
# Static dielectric constant tensor:
#      x y z
#    x 1.871550 0.000000 0.065550 
#    y 0.000000 1.802960 0.000000 
#    z 0.065550 0.000000 1.821730 
# 
# From -- ./inp_files/4548.got.cif
#   From: 2010.05.17/outbox.cif.g08.bks.cpg/sg11_3_cif.got.tgz:4548.got - 2010.06.03 12:22:45.
