data_PCOD9164689
_publ_section_title
;
Structure prediction by ZEFSAII (Michael W. Deem and Ramdas Pophale) SiO2 
 PCOD9164689
Probable space group: P 21/M
;
_chemical_formula_sum "Si O2"
_cell_formula_units_Z 24
_cell_length_a 19.292080
_cell_length_b 13.995741
_cell_length_c 9.952575
_cell_angle_alpha 90.000000
_cell_angle_beta 150.103374
_cell_angle_gamma 90.000000
_cell_volume 1339.431207
_symmetry_space_group_name_H-M "P 21/M"
_symmetry_group_IT_number 11
_symmetry_cell_setting 'monoclinic'
loop_
_space_group_symop_operation_xyz
x,y,z
-x,1/2+y,-z
-x,-y,-z
x,1/2-y,z
loop_
_atom_site_type_symbol
_atom_site_label
_atom_site_fract_x
_atom_site_fract_y
_atom_site_fract_z
Si Si1 0.798020 0.641177 0.000997
Si Si2 0.344681 0.006190 0.023893
Si Si3 0.147321 0.514076 0.314580
Si Si4 0.368383 0.423793 0.528817
Si Si5 0.680992 0.639168 0.269384
Si Si6 0.873236 0.137881 0.471177
O O1 0.782090 0.750000 0.021749
O O2 0.730682 0.632951 0.739479
O O3 0.716935 0.569442 0.960911
O O4 0.962675 0.618908 0.277492
O O5 0.376043 0.076055 0.948979
O O6 0.228997 0.928273 0.787345
O O7 0.489035 0.954484 0.298848
O O8 0.272210 0.511876 0.417250
O O9 0.178135 0.418456 0.455121
O O10 0.152908 0.604750 0.419766
O O11 0.000000 0.500000 0.000000
O O12 0.400479 0.371095 0.725121
O O13 0.698175 0.750000 0.265076
O O14 0.847599 0.250000 0.407981
#
# Coordination Sequence:
#
# PCOD9164689 Si02
#       6
#     4   4   4   4   4   4
#     4  11  22  38  61  82 112 156 194 227 284 350
#     4  11  22  38  55  89 118 148 187 241 287 328
#     4   9  18  34  57  83 113 144 192 236 274 329
#     4  10  21  36  58  83 114 148 192 227 292 332
#     4   9  19  34  57  82 111 147 192 231 279 339
#     4  10  21  37  59  85 112 153 195 233 281 338
#
# _framework density 17.918053
#
# number of rings (size 3 to 8) (size 9 to 14) (size 15 to 20)
#    1.000    1.000    1.667    2.500    0.000    2.000 
#    0.000    0.833    0.000    1.000    0.000    0.000 
#    0.000    0.000    0.000    0.000    0.000    0.000 
#
# Total GULP energy -133601.559700 kJ/mol
# GULP energy per Si atom -5566.731654 kJ/mol
# Density = 1.787727 g / cm^3
# Si number density = 17.918053 Si / 1000 Ang^3
#
#
#
# Elastic Constant Matrix: (Units=GPa)
#
#
# Indices 1 2 3 4 5 6 
#
# 1 60.6333 28.0328 14.8160 0.0000 6.4580 0.0000
# 2 28.0328 82.9489 27.1462 0.0000 10.9400 0.0000
# 3 14.8160 27.1462 73.0718 0.0000 15.9841 0.0000
# 4 0.0000 0.0000 0.0000 -23.8600 0.0000 43.3448
# 5 6.4580 10.9400 15.9841 0.0000 25.0148 0.0000
# 6 0.0000 0.0000 0.0000 43.3448 0.0000 -26.9993
#
#
#
# Elastic Compliance Matrix: (Units=1/GPa)
#
#
# Indices 1 2 3 4 5 6 
#
# 1 0.019790 -0.006011 -0.001438 0.000000 -0.001561 0.000000
# 2 -0.006011 0.015773 -0.004035 0.000000 -0.002768 0.000000
# 3 -0.001438 -0.004035 0.017447 0.000000 -0.009013 0.000000
# 4 0.000000 0.000000 0.000000 0.021869 0.000000 0.035109
# 5 -0.001561 -0.002768 -0.009013 0.000000 0.047349 0.000000
# 6 0.000000 0.000000 0.000000 0.035109 0.000000 0.019327
#
#
# Mechanical properties :
#
#
# Convention : Reuss Voigt Hill
#
# Bulk Modulus (GPa) = 33.28836 39.62711 36.45774
# Shear Modulus (GPa) = 28.64726 4.60837 16.62781
#
# Velocity S-wave (km/s) = 4.00283 1.60546 3.04960
# Velocity P-wave (km/s) = 6.32313 5.05969 5.72636
#
# Compressibility (1/GPa) = 0.03004053
#
# Stress axis : x y z
#
# Youngs Moduli (GPa) = 50.53184 63.40008 57.31557
#
# Poissons Ratio (x) = 0.38113 0.08241
# Poissons Ratio (y) = 0.30377 0.23129
# Poissons Ratio (z) = 0.07265 0.25584
#
# Static dielectric constant tensor:
#      x y z
#    x 1.641340 0.000000 -0.010430 
#    y 0.000000 1.595870 0.000000 
#    z -0.010430 0.000000 1.594930 
# 
# From -- ./inp_files/44309.got.cif
#   From: 2010.05.17/outbox.cif.g08.bks.cpg/sg11_23_cif.got.tgz:44309.got - 2010.06.03 12:22:45.
