data_PCOD9164742
_publ_section_title
;
Structure prediction by ZEFSAII (Michael W. Deem and Ramdas Pophale) SiO2 
 PCOD9164742
Probable space group: P 21/M
;
_chemical_formula_sum "Si O2"
_cell_formula_units_Z 28
_cell_length_a 20.912655
_cell_length_b 10.828720
_cell_length_c 7.733079
_cell_angle_alpha 90.000000
_cell_angle_beta 54.994735
_cell_angle_gamma 90.000000
_cell_volume 1434.416647
_symmetry_space_group_name_H-M "P 21/M"
_symmetry_group_IT_number 11
_symmetry_cell_setting 'monoclinic'
loop_
_space_group_symop_operation_xyz
x,y,z
-x,1/2+y,-z
-x,-y,-z
x,1/2-y,z
loop_
_atom_site_type_symbol
_atom_site_label
_atom_site_fract_x
_atom_site_fract_y
_atom_site_fract_z
Si Si1 0.344110 0.111701 0.117816
Si Si2 0.990749 0.612789 0.148249
Si Si3 0.606645 0.110671 0.713165
Si Si4 0.134894 0.604811 0.175147
Si Si5 0.171455 0.037852 0.464635
Si Si6 0.530766 0.889039 0.335832
Si Si7 0.234059 0.894903 0.702472
O O1 0.367818 0.250000 0.140728
O O2 0.250791 0.103760 0.279444
O O3 0.378329 0.998967 0.176866
O O4 0.380965 0.097045 0.869876
O O5 0.008801 0.750000 0.046255
O O6 0.902911 0.613499 0.355532
O O7 0.051615 0.591389 0.209883
O O8 0.000000 0.500000 0.000000
O O9 0.618437 0.250000 0.768295
O O10 0.523300 0.106674 0.751700
O O11 0.672991 0.094188 0.462624
O O12 0.149368 0.750000 0.179794
O O13 0.142520 0.540228 0.346091
O O14 0.197767 0.556544 0.936631
O O15 0.197090 0.957663 0.591399
O O16 0.521432 0.750000 0.425587
O O17 0.500000 0.000000 0.500000
O O18 0.214454 0.750000 0.726452
#
# Coordination Sequence:
#
# PCOD9164742 Si02
#       7
#     4   4   4   4   4   4   4
#     4  10  22  39  59  86 121 153 189 240 298 354
#     4  11  23  41  63  88 121 158 201 248 297 356
#     4   9  19  36  60  85 113 153 201 242 287 345
#     4  10  21  36  60  90 119 156 200 248 298 349
#     4  11  21  37  62  86 121 158 197 238 305 359
#     4  10  22  38  57  85 120 156 195 243 290 346
#     4   9  18  34  56  88 123 151 194 250 292 346
#
# _framework density 19.520130999999999
#
# number of rings (size 3 to 8) (size 9 to 14) (size 15 to 20)
#    0.000    2.000    1.429    1.714    2.000    2.286 
#    0.000    1.429    0.000    0.000    0.000    0.000 
#    0.000    0.000    0.000    0.000    0.000    0.000 
#
# Total GULP energy -156118.025141 kJ/mol
# GULP energy per Si atom -5575.643755 kJ/mol
# Density = 1.947570 g / cm^3
# Si number density = 19.520131 Si / 1000 Ang^3
#
#
#
# Elastic Constant Matrix: (Units=GPa)
#
#
# Indices 1 2 3 4 5 6 
#
# 1 60.2411 28.0556 23.8801 0.0000 -17.0151 0.0000
# 2 28.0556 127.1091 56.2169 0.0000 1.5573 0.0000
# 3 23.8801 56.2169 85.3576 0.0000 -15.2767 0.0000
# 4 0.0000 0.0000 0.0000 -42.7677 0.0000 -26.1617
# 5 -17.0151 1.5573 -15.2767 0.0000 37.6666 0.0000
# 6 0.0000 0.0000 0.0000 -26.1617 0.0000 13.8675
#
#
#
# Elastic Compliance Matrix: (Units=1/GPa)
#
#
# Indices 1 2 3 4 5 6 
#
# 1 0.021867 -0.004201 -0.001673 0.000000 0.009373 0.000000
# 2 -0.004201 0.012405 -0.008008 0.000000 -0.005659 0.000000
# 3 -0.001673 -0.008008 0.018742 0.000000 0.007176 0.000000
# 4 0.000000 0.000000 0.000000 -0.010855 0.000000 -0.020479
# 5 0.009373 -0.005659 0.007176 0.000000 0.033927 0.000000
# 6 0.000000 0.000000 0.000000 -0.020479 0.000000 0.033477
#
#
# Mechanical properties :
#
#
# Convention : Reuss Voigt Hill
#
# Bulk Modulus (GPa) = 39.60347 54.33478 46.96912
# Shear Modulus (GPa) = 34.30643 12.72364 23.51503
#
# Velocity S-wave (km/s) = 4.19679 2.55585 3.47458
# Velocity P-wave (km/s) = 6.61941 6.05025 6.34122
#
# Compressibility (1/GPa) = 0.02525031
#
# Stress axis : x y z
#
# Youngs Moduli (GPa) = 45.73017 80.60954 53.35688
#
# Poissons Ratio (x) = 0.33868 0.08927
# Poissons Ratio (y) = 0.19213 0.42726
# Poissons Ratio (z) = 0.07651 0.64549
#
# Static dielectric constant tensor:
#      x y z
#    x 1.692220 0.000000 -0.053680 
#    y 0.000000 1.691170 0.000000 
#    z -0.053680 0.000000 1.689860 
# 
# From -- ./inp_files/8751.got.cif
#   From: 2010.05.17/outbox.cif.g08.bks.cpg/sg11_5_cif.got.tgz:8751.got - 2010.06.03 12:22:45.
