data_PCOD9164419
_publ_section_title
;
Structure prediction by ZEFSAII (Michael W. Deem and Ramdas Pophale) SiO2 
 PCOD9164419
Probable space group: P 21/M
;
_chemical_formula_sum "Si O2"
_cell_formula_units_Z 24
_cell_length_a 5.293012
_cell_length_b 13.274971
_cell_length_c 16.383894
_cell_angle_alpha 90.000000
_cell_angle_beta 111.899351
_cell_angle_gamma 90.000000
_cell_volume 1068.136866
_symmetry_space_group_name_H-M "P 21/M"
_symmetry_group_IT_number 11
_symmetry_cell_setting 'monoclinic'
loop_
_space_group_symop_operation_xyz
x,y,z
-x,1/2+y,-z
-x,-y,-z
x,1/2-y,z
loop_
_atom_site_type_symbol
_atom_site_label
_atom_site_fract_x
_atom_site_fract_y
_atom_site_fract_z
Si Si1 0.420184 0.965843 0.855406
Si Si2 0.463898 0.132994 0.442890
Si Si3 0.956250 0.491555 0.693374
Si Si4 0.739516 0.359076 0.806487
Si Si5 0.903264 0.632771 0.442556
Si Si6 0.819698 0.914831 0.021322
O O1 0.573018 0.043024 0.814172
O O2 0.335973 0.036252 0.921151
O O3 0.611202 0.884221 0.923981
O O4 0.151729 0.938568 0.772858
O O5 0.413130 0.250000 0.414214
O O6 0.789233 0.119120 0.485008
O O7 0.326214 0.118582 0.515944
O O8 0.300488 0.056912 0.365857
O O9 0.872922 0.395194 0.738128
O O10 0.108161 0.444546 0.633451
O O11 0.600825 0.250000 0.781594
O O12 0.962711 0.348524 0.905249
O O13 0.887425 0.750000 0.414350
O O14 0.000000 0.000000 0.000000
#
# Coordination Sequence:
#
# PCOD9164419 Si02
#       6
#     4   4   4   4   4   4
#     4   9  19  33  57  83 113 150 192 242 292 356
#     4  10  23  41  61  84 120 166 214 259 306 368
#     4  11  22  35  59  88 121 156 202 251 314 357
#     4  10  21  34  55  89 125 157 194 245 302 364
#     4  10  22  39  60  87 121 164 210 255 308 373
#     4   8  16  36  56  76 110 152 187 227 289 354
#
# _framework density 22.469031999999999
#
# number of rings (size 3 to 8) (size 9 to 14) (size 15 to 20)
#    0.000    2.333    0.000    1.500    4.667    3.333 
#    0.000    0.833    0.000   31.000    0.000    0.000 
#    0.000    0.000    0.000    0.000    0.000    0.000 
#
# Total GULP energy -133832.882882 kJ/mol
# GULP energy per Si atom -5576.370120 kJ/mol
# Density = 2.241789 g / cm^3
# Si number density = 22.469032 Si / 1000 Ang^3
#
#
#
# Elastic Constant Matrix: (Units=GPa)
#
#
# Indices 1 2 3 4 5 6 
#
# 1 71.0370 -5.2769 20.8720 0.0000 -4.3569 0.0000
# 2 -5.2769 67.7442 35.3929 0.0000 1.0150 0.0000
# 3 20.8720 35.3929 135.5183 0.0000 27.9936 0.0000
# 4 0.0000 0.0000 0.0000 -2.5241 0.0000 7.9181
# 5 -4.3569 1.0150 27.9936 0.0000 45.7057 0.0000
# 6 0.0000 0.0000 0.0000 7.9181 0.0000 7.3769
#
#
#
# Elastic Compliance Matrix: (Units=1/GPa)
#
#
# Indices 1 2 3 4 5 6 
#
# 1 0.015774 0.003318 -0.004111 0.000000 0.003948 0.000000
# 2 0.003318 0.018087 -0.005973 0.000000 0.003573 0.000000
# 3 -0.004111 -0.005973 0.011020 0.000000 -0.007009 0.000000
# 4 0.000000 0.000000 0.000000 -0.090718 0.000000 0.097375
# 5 0.003948 0.003573 -0.007009 0.000000 0.026469 0.000000
# 6 0.000000 0.000000 0.000000 0.097375 0.000000 0.031040
#
#
# Mechanical properties :
#
#
# Convention : Reuss Voigt Hill
#
# Bulk Modulus (GPa) = 31.90050 41.80838 36.85444
# Shear Modulus (GPa) = 140.24061 24.99912 82.61987
#
# Velocity S-wave (km/s) = 7.90889 3.33919 6.07045
# Velocity P-wave (km/s) = 9.88074 5.78916 8.09764
#
# Compressibility (1/GPa) = 0.03134747
#
# Stress axis : x y z
#
# Youngs Moduli (GPa) = 63.39636 55.28931 90.74486
#
# Poissons Ratio (x) = -0.18342 0.37309
# Poissons Ratio (y) = -0.21032 0.54198
# Poissons Ratio (z) = 0.26065 0.33022
#
# Static dielectric constant tensor:
#      x y z
#    x 1.856070 0.000000 0.119580 
#    y 0.000000 1.811600 0.000000 
#    z 0.119580 0.000000 1.829700 
# 
# From -- ./inp_files/45774.got.cif
#   From: 2010.05.17/outbox.cif.g08.bks.cpg/sg11_23_cif.got.tgz:45774.got - 2010.06.03 12:22:45.
