data_PCOD9164681
_publ_section_title
;
Structure prediction by ZEFSAII (Michael W. Deem and Ramdas Pophale) SiO2 
 PCOD9164681
Probable space group: P 21/M
;
_chemical_formula_sum "Si O2"
_cell_formula_units_Z 28
_cell_length_a 19.651817
_cell_length_b 9.643442
_cell_length_c 15.092984
_cell_angle_alpha 90.000000
_cell_angle_beta 29.227259
_cell_angle_gamma 90.000000
_cell_volume 1396.607274
_symmetry_space_group_name_H-M "P 21/M"
_symmetry_group_IT_number 11
_symmetry_cell_setting 'monoclinic'
loop_
_space_group_symop_operation_xyz
x,y,z
-x,1/2+y,-z
-x,-y,-z
x,1/2-y,z
loop_
_atom_site_type_symbol
_atom_site_label
_atom_site_fract_x
_atom_site_fract_y
_atom_site_fract_z
Si Si1 0.347281 0.418743 0.464882
Si Si2 0.093478 0.914686 0.824743
Si Si3 0.956283 0.403705 0.630441
Si Si4 0.658167 0.594646 0.729024
Si Si5 0.384664 0.403867 0.852719
Si Si6 0.660068 0.026509 0.914964
Si Si7 0.937197 0.907996 0.814800
O O1 0.657596 0.750000 0.521309
O O2 0.238365 0.501766 0.648933
O O3 0.308436 0.458666 0.406926
O O4 0.503109 0.479388 0.300177
O O5 0.111113 0.750000 0.826519
O O6 0.012771 0.920541 0.822400
O O7 0.000000 0.000000 0.000000
O O8 0.013451 0.250000 0.557937
O O9 0.788635 0.395154 0.812116
O O10 0.989571 0.480468 0.684217
O O11 0.000000 0.500000 0.500000
O O12 0.710368 0.750000 0.674876
O O13 0.701085 0.515942 0.768898
O O14 0.489094 0.598365 0.923833
O O15 0.434729 0.250000 0.770703
O O16 0.366795 0.408581 0.980373
O O17 0.230640 0.425561 0.987711
O O18 0.959497 0.750000 0.755494
#
# Coordination Sequence:
#
# PCOD9164681 Si02
#       7
#     4   4   4   4   4   4   4
#     4  10  21  36  57  88 121 154 198 246 294 354
#     4  11  24  44  67  91 119 152 194 248 309 367
#     4  11  23  36  53  79 116 159 202 244 286 343
#     4   9  17  30  50  76 109 148 192 238 284 334
#     4   9  17  34  59  85 117 156 197 242 295 349
#     4   9  18  31  48  76 111 154 197 240 282 333
#     4   9  21  41  63  88 118 155 198 247 300 357
#
# _framework density 20.048584000000002
#
# number of rings (size 3 to 8) (size 9 to 14) (size 15 to 20)
#    0.000    2.286    0.000    2.143    2.000    6.286 
#    0.000    2.143    0.000    0.000    0.000    0.000 
#    0.000    0.000    0.000    0.000    0.000    0.000 
#
# Total GULP energy -156121.561074 kJ/mol
# GULP energy per Si atom -5575.770038 kJ/mol
# Density = 2.000295 g / cm^3
# Si number density = 20.048584 Si / 1000 Ang^3
#
#
#
# Elastic Constant Matrix: (Units=GPa)
#
#
# Indices 1 2 3 4 5 6 
#
# 1 38.9880 22.7870 0.1581 0.0000 -14.7450 0.0000
# 2 22.7870 141.1818 51.6202 0.0000 8.1811 0.0000
# 3 0.1581 51.6202 82.5569 0.0000 7.2478 0.0000
# 4 0.0000 0.0000 0.0000 25.4433 0.0000 4.2237
# 5 -14.7450 8.1811 7.2478 0.0000 30.0315 0.0000
# 6 0.0000 0.0000 0.0000 4.2237 0.0000 11.3386
#
#
#
# Elastic Compliance Matrix: (Units=1/GPa)
#
#
# Indices 1 2 3 4 5 6 
#
# 1 0.038412 -0.008685 0.003569 0.000000 0.020364 0.000000
# 2 -0.008685 0.011184 -0.006472 0.000000 -0.005749 0.000000
# 3 0.003569 -0.006472 0.016187 0.000000 -0.000391 0.000000
# 4 0.000000 0.000000 0.000000 0.041894 0.000000 -0.015606
# 5 0.020364 -0.005749 -0.000391 0.000000 0.044957 0.000000
# 6 0.000000 0.000000 0.000000 -0.015606 0.000000 0.094007
#
#
# Mechanical properties :
#
#
# Convention : Reuss Voigt Hill
#
# Bulk Modulus (GPa) = 23.46983 45.76192 34.61588
# Shear Modulus (GPa) = 17.60445 25.90679 21.75562
#
# Velocity S-wave (km/s) = 2.96647 3.59862 3.29773
# Velocity P-wave (km/s) = 4.84409 6.33576 5.63946
#
# Compressibility (1/GPa) = 0.04260789
#
# Stress axis : x y z
#
# Youngs Moduli (GPa) = 26.03364 89.41192 61.77807
#
# Poissons Ratio (x) = 0.77651 -0.22048
# Poissons Ratio (y) = 0.22609 0.39981
# Poissons Ratio (z) = -0.09291 0.57865
#
# Static dielectric constant tensor:
#      x y z
#    x 1.705190 0.000000 -0.024890 
#    y 0.000000 1.723850 0.000000 
#    z -0.024890 0.000000 1.748040 
# 
# From -- ./inp_files/54505.got.cif
#   From: 2010.05.17/outbox.cif.g08.bks.cpg/sg11_28_cif.got.tgz:54505.got - 2010.06.03 12:22:45.
