data_PCOD9164559
_publ_section_title
;
Structure prediction by ZEFSAII (Michael W. Deem and Ramdas Pophale) SiO2 
 PCOD9164559
Probable space group: P 21/M
;
_chemical_formula_sum "Si O2"
_cell_formula_units_Z 32
_cell_length_a 23.101422
_cell_length_b 7.863895
_cell_length_c 11.662616
_cell_angle_alpha 90.000000
_cell_angle_beta 52.921880
_cell_angle_gamma 90.000000
_cell_volume 1690.340395
_symmetry_space_group_name_H-M "P 21/M"
_symmetry_group_IT_number 11
_symmetry_cell_setting 'monoclinic'
loop_
_space_group_symop_operation_xyz
x,y,z
-x,1/2+y,-z
-x,-y,-z
x,1/2-y,z
loop_
_atom_site_type_symbol
_atom_site_label
_atom_site_fract_x
_atom_site_fract_y
_atom_site_fract_z
Si Si1 0.106737 0.549350 0.121008
Si Si2 0.915064 0.545815 0.601305
Si Si3 0.594316 0.457560 0.301222
Si Si4 0.838410 0.948247 0.463896
Si Si5 0.033058 0.943143 0.839685
Si Si6 0.295416 0.044531 0.513517
Si Si7 0.749244 0.454983 0.174922
Si Si8 0.448748 0.449558 0.388422
O O1 0.096679 0.750000 0.109285
O O2 0.118634 0.523956 0.241376
O O3 0.032627 0.460247 0.171710
O O4 0.175073 0.483254 0.966964
O O5 0.910681 0.750000 0.607527
O O6 0.875014 0.479118 0.534974
O O7 0.000000 0.500000 0.500000
O O8 0.590848 0.250000 0.311906
O O9 0.678215 0.506537 0.185968
O O10 0.531561 0.515919 0.288240
O O11 0.573316 0.529436 0.451398
O O12 0.824754 0.750000 0.504053
O O13 0.762964 0.022651 0.507775
O O14 0.898204 0.957718 0.291592
O O15 0.057324 0.750000 0.822004
O O16 0.000000 0.000000 0.000000
O O17 0.298625 0.250000 0.500047
O O18 0.378360 0.977891 0.407377
O O19 0.265072 0.007131 0.677124
O O20 0.752052 0.250000 0.168887
O O21 0.452664 0.250000 0.355207
#
# Coordination Sequence:
#
# PCOD9164559 Si02
#       8
#     4   4   4   4   4   4   4   4
#     4  11  22  36  52  71  96 124 161 203 243 286
#     4  11  22  37  56  73  91 120 160 206 249 290
#     4   8  13  23  39  61  91 124 155 184 221 271
#     4  10  21  36  52  70  95 123 157 199 242 287
#     4  12  24  36  52  72  97 127 159 192 236 290
#     4   9  17  29  46  70  98 126 154 190 234 282
#     4   9  18  30  45  68  98 129 156 190 233 280
#     4   8  13  22  39  63  91 122 154 185 221 271
#
# _framework density 18.931097999999999
#
# number of rings (size 3 to 8) (size 9 to 14) (size 15 to 20)
#    0.000    2.250    1.250    2.625    0.000    4.000 
#    0.000    0.000    0.000    0.000    0.000    0.875 
#    0.000    0.000    0.000    0.000    0.000    0.000 
#
# Total GULP energy -178347.453379 kJ/mol
# GULP energy per Si atom -5573.357918 kJ/mol
# Density = 1.888801 g / cm^3
# Si number density = 18.931098 Si / 1000 Ang^3
#
#
#
# Elastic Constant Matrix: (Units=GPa)
#
#
# Indices 1 2 3 4 5 6 
#
# 1 153.9514 -1.6639 12.8204 0.0000 -8.7679 0.0000
# 2 -1.6639 26.3550 -2.3967 0.0000 -2.1474 0.0000
# 3 12.8204 -2.3967 8.5525 0.0000 7.5550 0.0000
# 4 0.0000 0.0000 0.0000 11.0190 0.0000 4.2171
# 5 -8.7679 -2.1474 7.5550 0.0000 28.0798 0.0000
# 6 0.0000 0.0000 0.0000 4.2171 0.0000 14.0735
#
#
#
# Elastic Compliance Matrix: (Units=1/GPa)
#
#
# Indices 1 2 3 4 5 6 
#
# 1 0.008641 -0.000639 -0.020296 0.000000 0.008110 0.000000
# 2 -0.000639 0.038983 0.012364 0.000000 -0.000545 0.000000
# 3 -0.020296 0.012364 0.204081 0.000000 -0.060301 0.000000
# 4 0.000000 0.000000 0.000000 0.102508 0.000000 -0.030716
# 5 0.008110 -0.000545 -0.060301 0.000000 0.054328 0.000000
# 6 0.000000 0.000000 0.000000 -0.030716 0.000000 0.080259
#
#
# Mechanical properties :
#
#
# Convention : Reuss Voigt Hill
#
# Bulk Modulus (GPa) = 4.26325 22.93095 13.59710
# Shear Modulus (GPa) = 8.55975 22.64106 15.60041
#
# Velocity S-wave (km/s) = 2.12870 3.46203 2.87376
# Velocity P-wave (km/s) = 2.88074 5.30283 4.26724
#
# Compressibility (1/GPa) = 0.23456305
#
# Stress axis : x y z
#
# Youngs Moduli (GPa) = 115.73184 25.65219 4.90001
#
# Poissons Ratio (x) = 0.01640 0.09945
# Poissons Ratio (y) = 0.07399 -0.06058
# Poissons Ratio (z) = 2.34886 -0.31717
#
# Static dielectric constant tensor:
#      x y z
#    x 1.729830 0.000000 -0.023490 
#    y 0.000000 1.650430 0.000000 
#    z -0.023490 0.000000 1.627980 
# 
# From -- ./inp_files/42506.got.cif
#   From: 2010.05.17/outbox.cif.g08.bks.cpg/sg11_22_cif.got.tgz:42506.got - 2010.06.03 12:22:45.
