data_PCOD9164092
_publ_section_title
;
Structure prediction by ZEFSAII (Michael W. Deem and Ramdas Pophale) SiO2 
 PCOD9164092
Probable space group: P 21/M
;
_chemical_formula_sum "Si O2"
_cell_formula_units_Z 28
_cell_length_a 9.059045
_cell_length_b 27.455800
_cell_length_c 9.276019
_cell_angle_alpha 90.000000
_cell_angle_beta 147.741425
_cell_angle_gamma 90.000000
_cell_volume 1231.427312
_symmetry_space_group_name_H-M "P 21/M"
_symmetry_group_IT_number 11
_symmetry_cell_setting 'monoclinic'
loop_
_space_group_symop_operation_xyz
x,y,z
-x,1/2+y,-z
-x,-y,-z
x,1/2-y,z
loop_
_atom_site_type_symbol
_atom_site_label
_atom_site_fract_x
_atom_site_fract_y
_atom_site_fract_z
Si Si1 0.432038 0.422511 0.986307
Si Si2 0.320042 0.353122 0.437761
Si Si3 0.469009 0.492725 0.273409
Si Si4 0.947944 0.932421 0.601309
Si Si5 0.937881 0.250000 0.814699
Si Si6 0.685094 0.750000 0.598219
Si Si7 0.190946 0.146658 0.994613
Si Si8 0.258000 0.925504 0.272517
O O1 0.387159 0.467068 0.059064
O O2 0.728637 0.433817 0.161857
O O3 0.201229 0.419494 0.673199
O O4 0.416191 0.372919 0.067688
O O5 0.103661 0.389817 0.326383
O O6 0.305823 0.299146 0.485155
O O7 0.607105 0.380361 0.700012
O O8 0.298793 0.347931 0.247258
O O9 0.760792 0.521448 0.496579
O O10 0.527399 0.450409 0.438188
O O11 0.239773 0.530640 0.142580
O O12 0.047942 0.198625 0.839943
O O13 0.606574 0.250000 0.555320
O O14 0.062495 0.250000 0.080245
O O15 0.980249 0.100670 0.834683
#
# Coordination Sequence:
#
# PCOD9164092 Si02
#       8
#     4   4   4   4   2   2   4   4
#     4  12  25  44  62  93 133 176 211 265 318 384
#     4  10  22  42  65  98 123 167 215 269 322 384
#     4  10  22  41  63  95 130 176 222 263 322 378
#     4  11  27  42  64  91 136 173 217 258 322 382
#     4  10  22  38  68 102 122 160 209 273 326 384
#     4  10  20  38  70  98 126 154 215 271 328 376
#     4  11  23  41  71  92 131 163 220 268 329 381
#     4  10  20  39  65  98 126 165 218 279 311 376
#
# _framework density 22.737842000000001
#
# number of rings (size 3 to 8) (size 9 to 14) (size 15 to 20)
#    0.000    1.429    2.857    1.714    4.000    1.714 
#    2.571    1.429    0.000    0.000    0.000    0.000 
#    0.000    0.000    0.000    0.000    0.000    0.000 
#
# Total GULP energy -156480.874175 kJ/mol
# GULP energy per Si atom -5588.602649 kJ/mol
# Density = 2.268609 g / cm^3
# Si number density = 22.737842 Si / 1000 Ang^3
#
#
#
# Elastic Constant Matrix: (Units=GPa)
#
#
# Indices 1 2 3 4 5 6 
#
# 1 66.8853 33.7738 7.0246 0.0000 4.5922 0.0000
# 2 33.7738 137.2334 12.2347 0.0000 17.8589 0.0000
# 3 7.0246 12.2347 61.7555 0.0000 -0.7342 0.0000
# 4 0.0000 0.0000 0.0000 22.6500 0.0000 4.2950
# 5 4.5922 17.8589 -0.7342 0.0000 30.8931 0.0000
# 6 0.0000 0.0000 0.0000 4.2950 0.0000 22.5124
#
#
#
# Elastic Compliance Matrix: (Units=1/GPa)
#
#
# Indices 1 2 3 4 5 6 
#
# 1 0.017152 -0.004092 -0.001143 0.000000 -0.000211 0.000000
# 2 -0.004092 0.009020 -0.001377 0.000000 -0.004639 0.000000
# 3 -0.001143 -0.001377 0.016612 0.000000 0.001361 0.000000
# 4 0.000000 0.000000 0.000000 0.045807 0.000000 -0.008739
# 5 -0.000211 -0.004639 0.001361 0.000000 0.035115 0.000000
# 6 0.000000 0.000000 0.000000 -0.008739 0.000000 0.046087
#
#
# Mechanical properties :
#
#
# Convention : Reuss Voigt Hill
#
# Bulk Modulus (GPa) = 33.82830 41.32671 37.57750
# Shear Modulus (GPa) = 25.92423 29.40052 27.66238
#
# Velocity S-wave (km/s) = 3.38025 3.59976 3.49173
# Velocity P-wave (km/s) = 5.49041 5.95756 5.72875
#
# Compressibility (1/GPa) = 0.02956105
#
# Stress axis : x y z
#
# Youngs Moduli (GPa) = 58.30352 110.86126 60.19809
#
# Poissons Ratio (x) = 0.45361 0.06880
# Poissons Ratio (y) = 0.23856 0.08288
# Poissons Ratio (z) = 0.06663 0.15263
#
# Static dielectric constant tensor:
#      x y z
#    x 1.898630 0.000000 0.021480 
#    y 0.000000 1.894520 0.000000 
#    z 0.021480 0.000000 1.895230 
# 
# From -- ./inp_files/15306.got.cif
#   From: 2010.05.17/outbox.cif.g08.bks.cpg/sg11_8_cif.got.tgz:15306.got - 2010.06.03 12:22:45.
