data_PCOD9164911
_publ_section_title
;
Structure prediction by ZEFSAII (Michael W. Deem and Ramdas Pophale) SiO2 
 PCOD9164911
Probable space group: P 21/M
;
_chemical_formula_sum "Si O2"
_cell_formula_units_Z 16
_cell_length_a 11.117760
_cell_length_b 11.378228
_cell_length_c 10.069478
_cell_angle_alpha 90.000000
_cell_angle_beta 40.910123
_cell_angle_gamma 90.000000
_cell_volume 834.174410
_symmetry_space_group_name_H-M "P 21/M"
_symmetry_group_IT_number 11
_symmetry_cell_setting 'monoclinic'
loop_
_space_group_symop_operation_xyz
x,y,z
-x,1/2+y,-z
-x,-y,-z
x,1/2-y,z
loop_
_atom_site_type_symbol
_atom_site_label
_atom_site_fract_x
_atom_site_fract_y
_atom_site_fract_z
Si Si1 0.818767 0.539415 0.972533
Si Si2 0.115860 0.381558 0.370228
Si Si3 0.177078 0.114701 0.733086
Si Si4 0.458968 0.113665 0.279605
O O1 0.849110 0.615341 0.816246
O O2 0.999574 0.459252 0.839944
O O3 0.796132 0.604682 0.131809
O O4 0.637799 0.461655 0.102777
O O5 0.038729 0.250000 0.469183
O O6 0.306285 0.393091 0.291752
O O7 0.000000 0.500000 0.500000
O O8 0.146879 0.250000 0.720804
O O9 0.353134 0.073997 0.501760
O O10 0.512810 0.250000 0.251118
#
# Coordination Sequence:
#
# PCOD9164911 Si02
#       4
#     4   4   4   4
#     4  11  21  37  62  86 120 159 204 243 305 356
#     4  11  23  41  63  90 125 160 205 254 302 359
#     4  10  21  37  58  87 123 157 198 252 300 357
#     4  10  21  38  61  88 119 159 203 249 303 363
#
# _framework density 19.180641999999999
#
# number of rings (size 3 to 8) (size 9 to 14) (size 15 to 20)
#    0.000    1.500    2.500    3.000    0.000    1.000 
#    0.000    2.500    0.000    0.000    0.000    0.000 
#    0.000    0.000    0.000    0.000    0.000    0.000 
#
# Total GULP energy -89292.930769 kJ/mol
# GULP energy per Si atom -5580.808173 kJ/mol
# Density = 1.913699 g / cm^3
# Si number density = 19.180642 Si / 1000 Ang^3
#
#
#
# Elastic Constant Matrix: (Units=GPa)
#
#
# Indices 1 2 3 4 5 6 
#
# 1 75.0621 31.3835 28.7249 0.0000 18.7360 0.0000
# 2 31.3835 107.6316 43.2098 0.0000 -14.5885 0.0000
# 3 28.7249 43.2098 66.2296 0.0000 10.4710 0.0000
# 4 0.0000 0.0000 0.0000 47.1438 0.0000 -19.3147
# 5 18.7360 -14.5885 10.4710 0.0000 40.6855 0.0000
# 6 0.0000 0.0000 0.0000 -19.3147 0.0000 44.0896
#
#
#
# Elastic Compliance Matrix: (Units=1/GPa)
#
#
# Indices 1 2 3 4 5 6 
#
# 1 0.019503 -0.005888 -0.002985 0.000000 -0.010324 0.000000
# 2 -0.005888 0.016552 -0.010020 0.000000 0.011225 0.000000
# 3 -0.002985 -0.010020 0.024269 0.000000 -0.008464 0.000000
# 4 0.000000 0.000000 0.000000 0.025852 0.000000 0.011325
# 5 -0.010324 0.011225 -0.008464 0.000000 0.035536 0.000000
# 6 0.000000 0.000000 0.000000 0.011325 0.000000 0.027642
#
#
# Mechanical properties :
#
#
# Convention : Reuss Voigt Hill
#
# Bulk Modulus (GPa) = 44.36867 50.61777 47.49322
# Shear Modulus (GPa) = 25.68670 36.09079 30.88874
#
# Velocity S-wave (km/s) = 3.66348 4.34248 4.01735
# Velocity P-wave (km/s) = 6.40913 7.18263 6.80688
#
# Compressibility (1/GPa) = 0.02253843
#
# Stress axis : x y z
#
# Youngs Moduli (GPa) = 51.27307 60.41669 41.20453
#
# Poissons Ratio (x) = 0.35572 0.12301
# Poissons Ratio (y) = 0.30188 0.41286
# Poissons Ratio (z) = 0.15307 0.60537
#
# Static dielectric constant tensor:
#      x y z
#    x 1.637460 0.000000 0.036040 
#    y 0.000000 1.670480 0.000000 
#    z 0.036040 0.000000 1.672650 
# 
# From -- ./inp_files/3715.got.cif
#   From: 2010.05.17/outbox.cif.g08.bks.cpg/sg11_2_cif.got.tgz:3715.got - 2010.06.03 12:22:45.
