data_PCOD9164193
_publ_section_title
;
Structure prediction by ZEFSAII (Michael W. Deem and Ramdas Pophale) SiO2 
 PCOD9164193
Probable space group: P 21/M
;
_chemical_formula_sum "Si O2"
_cell_formula_units_Z 24
_cell_length_a 7.336467
_cell_length_b 16.708851
_cell_length_c 9.095671
_cell_angle_alpha 90.000000
_cell_angle_beta 91.776534
_cell_angle_gamma 90.000000
_cell_volume 1114.447207
_symmetry_space_group_name_H-M "P 21/M"
_symmetry_group_IT_number 11
_symmetry_cell_setting 'monoclinic'
loop_
_space_group_symop_operation_xyz
x,y,z
-x,1/2+y,-z
-x,-y,-z
x,1/2-y,z
loop_
_atom_site_type_symbol
_atom_site_label
_atom_site_fract_x
_atom_site_fract_y
_atom_site_fract_z
Si Si1 0.484378 0.162850 0.717748
Si Si2 0.930340 0.159785 0.186726
Si Si3 0.873053 0.519473 0.726072
Si Si4 0.353568 0.929040 0.033813
Si Si5 0.661104 0.163143 0.425231
Si Si6 0.270829 0.491185 0.606992
O O1 0.395357 0.250000 0.704538
O O2 0.543893 0.143558 0.883251
O O3 0.647501 0.163553 0.600696
O O4 0.366465 0.088229 0.663501
O O5 0.950171 0.250000 0.130622
O O6 0.857859 0.165600 0.353580
O O7 0.111965 0.107634 0.201785
O O8 0.775693 0.110822 0.092607
O O9 0.778407 0.464817 0.843999
O O10 0.778082 0.515954 0.565811
O O11 0.082606 0.496882 0.693633
O O12 0.500000 0.000000 0.000000
O O13 0.574176 0.250000 0.376929
O O14 0.607154 0.072602 0.375424
#
# Coordination Sequence:
#
# PCOD9164193 Si02
#       6
#     4   4   4   4   4   4
#     4  11  23  39  63  94 124 159 210 259 306 360
#     4  10  22  40  60  88 125 162 201 248 310 372
#     4  10  22  39  63  88 118 163 206 244 307 366
#     4  12  24  40  63  89 123 163 204 252 312 372
#     4   9  18  35  62  90 118 158 204 252 302 359
#     4  10  20  39  65  90 121 158 205 262 301 358
#
# _framework density 21.535339
#
# number of rings (size 3 to 8) (size 9 to 14) (size 15 to 20)
#    0.000    1.667    1.667    3.500    2.333    0.667 
#    0.000    7.500    0.000    0.000    0.000    0.000 
#    0.000    0.000    0.000    0.000    0.000    0.000 
#
# Total GULP energy -133606.122745 kJ/mol
# GULP energy per Si atom -5566.921781 kJ/mol
# Density = 2.148632 g / cm^3
# Si number density = 21.535339 Si / 1000 Ang^3
#
#
#
# Elastic Constant Matrix: (Units=GPa)
#
#
# Indices 1 2 3 4 5 6 
#
# 1 47.3682 41.2611 20.9844 0.0000 -9.9181 0.0000
# 2 41.2611 204.4274 34.8750 0.0000 15.1777 0.0000
# 3 20.9844 34.8750 77.5556 0.0000 -0.2941 0.0000
# 4 0.0000 0.0000 0.0000 30.7175 0.0000 2.4128
# 5 -9.9181 15.1777 -0.2941 0.0000 21.9553 0.0000
# 6 0.0000 0.0000 0.0000 2.4128 0.0000 21.5373
#
#
#
# Elastic Compliance Matrix: (Units=1/GPa)
#
#
# Indices 1 2 3 4 5 6 
#
# 1 0.034630 -0.007523 -0.005908 0.000000 0.020765 0.000000
# 2 -0.007523 0.007250 -0.001257 0.000000 -0.008428 0.000000
# 3 -0.005908 -0.001257 0.015052 0.000000 -0.001599 0.000000
# 4 0.000000 0.000000 0.000000 0.032844 0.000000 -0.003679
# 5 0.020765 -0.008428 -0.001599 0.000000 0.060732 0.000000
# 6 0.000000 0.000000 0.000000 -0.003679 0.000000 0.046843
#
#
# Mechanical properties :
#
#
# Convention : Reuss Voigt Hill
#
# Bulk Modulus (GPa) = 36.29032 58.17691 47.23361
# Shear Modulus (GPa) = 21.19433 30.32408 25.75920
#
# Velocity S-wave (km/s) = 3.14054 3.75655 3.46227
# Velocity P-wave (km/s) = 5.48077 6.77413 6.16148
#
# Compressibility (1/GPa) = 0.02755556
#
# Stress axis : x y z
#
# Youngs Moduli (GPa) = 28.87681 137.92517 66.43839
#
# Poissons Ratio (x) = 1.03767 0.39252
# Poissons Ratio (y) = 0.21725 0.08349
# Poissons Ratio (z) = 0.17060 0.17332
#
# Static dielectric constant tensor:
#      x y z
#    x 1.789700 0.000000 -0.002090 
#    y 0.000000 1.903590 0.000000 
#    z -0.002090 0.000000 1.809040 
# 
# From -- ./inp_files/12558.got.cif
#   From: 2010.05.17/outbox.cif.g08.bks.cpg/sg11_7_cif.got.tgz:12558.got - 2010.06.03 12:22:45.
