data_PCOD9164773
_publ_section_title
;
Structure prediction by ZEFSAII (Michael W. Deem and Ramdas Pophale) SiO2 
 PCOD9164773
Probable space group: P 21/M
;
_chemical_formula_sum "Si O2"
_cell_formula_units_Z 28
_cell_length_a 29.739157
_cell_length_b 7.809749
_cell_length_c 9.200403
_cell_angle_alpha 90.000000
_cell_angle_beta 140.298349
_cell_angle_gamma 90.000000
_cell_volume 1364.993808
_symmetry_space_group_name_H-M "P 21/M"
_symmetry_group_IT_number 11
_symmetry_cell_setting 'monoclinic'
loop_
_space_group_symop_operation_xyz
x,y,z
-x,1/2+y,-z
-x,-y,-z
x,1/2-y,z
loop_
_atom_site_type_symbol
_atom_site_label
_atom_site_fract_x
_atom_site_fract_y
_atom_site_fract_z
Si Si1 0.002828 0.455797 0.335891
Si Si2 0.570910 0.456575 0.261627
Si Si3 0.155959 0.457841 0.734277
Si Si4 0.290327 0.548179 0.555274
Si Si5 0.149617 0.955143 0.058995
Si Si6 0.289586 0.048566 0.884658
Si Si7 0.571535 0.045224 0.595005
O O1 0.002672 0.250000 0.319861
O O2 0.080335 0.516454 0.481619
O O3 0.000000 0.500000 0.500000
O O4 0.928165 0.522209 0.090052
O O5 0.574652 0.250000 0.275231
O O6 0.640302 0.522963 0.351330
O O7 0.568999 0.518890 0.422849
O O8 0.500000 0.500000 0.000000
O O9 0.156461 0.250000 0.735744
O O10 0.222712 0.519497 0.808816
O O11 0.160198 0.512771 0.913260
O O12 0.288915 0.750000 0.516108
O O13 0.216664 0.474877 0.312463
O O14 0.296037 0.530605 0.741739
O O15 0.147159 0.750000 0.074063
O O16 0.278378 0.250000 0.834718
O O17 0.360598 0.023348 0.152138
O O18 0.577871 0.250000 0.607498
O O19 0.500000 0.000000 0.500000
#
# Coordination Sequence:
#
# PCOD9164773 Si02
#       7
#     4   4   4   4   4   4   4
#     4   8  14  27  48  74 102 133 170 217 267 317
#     4  10  22  38  57  80 106 135 169 209 255 305
#     4   9  18  32  51  76 107 139 174 218 269 318
#     4  10  21  37  54  75 104 139 177 220 265 310
#     4   9  17  31  54  79 102 133 178 224 269 320
#     4  11  23  37  53  77 108 144 181 217 260 312
#     4  11  23  40  61  85 111 139 173 215 260 310
#
# _framework density 20.512915
#
# number of rings (size 3 to 8) (size 9 to 14) (size 15 to 20)
#    0.000    2.286    0.000    2.571    0.000    6.857 
#    0.000    0.714    0.000    0.000    0.000    0.000 
#    0.000    0.000    0.000    0.000    0.000    0.000 
#
# Total GULP energy -156246.833592 kJ/mol
# GULP energy per Si atom -5580.244057 kJ/mol
# Density = 2.046623 g / cm^3
# Si number density = 20.512915 Si / 1000 Ang^3
#
#
#
# Elastic Constant Matrix: (Units=GPa)
#
#
# Indices 1 2 3 4 5 6 
#
# 1 122.7461 -16.0223 90.7101 0.0000 27.4471 0.0000
# 2 -16.0223 23.9744 -7.9981 0.0000 4.0454 0.0000
# 3 90.7101 -7.9981 192.0412 0.0000 27.8987 0.0000
# 4 0.0000 0.0000 0.0000 20.4816 0.0000 -2.6499
# 5 27.4471 4.0454 27.8987 0.0000 39.3803 0.0000
# 6 0.0000 0.0000 0.0000 -2.6499 0.0000 15.3109
#
#
#
# Elastic Compliance Matrix: (Units=1/GPa)
#
#
# Indices 1 2 3 4 5 6 
#
# 1 0.015352 0.009630 -0.005744 0.000000 -0.007621 0.000000
# 2 0.009630 0.049759 -0.000846 0.000000 -0.011224 0.000000
# 3 -0.005744 -0.000846 0.008127 0.000000 -0.001668 0.000000
# 4 0.000000 0.000000 0.000000 0.049943 0.000000 0.008644
# 5 -0.007621 -0.011224 -0.001668 0.000000 0.033039 0.000000
# 6 0.000000 0.000000 0.000000 0.008644 0.000000 0.066809
#
#
# Mechanical properties :
#
#
# Convention : Reuss Voigt Hill
#
# Bulk Modulus (GPa) = 12.60720 52.46011 32.53365
# Shear Modulus (GPa) = 20.54334 33.17269 26.85801
#
# Velocity S-wave (km/s) = 3.16806 4.02576 3.62238
# Velocity P-wave (km/s) = 4.42057 6.87304 5.77841
#
# Compressibility (1/GPa) = 0.07931977
#
# Stress axis : x y z
#
# Youngs Moduli (GPa) = 65.13612 20.09696 123.04342
#
# Poissons Ratio (x) = -0.19353 0.70671
# Poissons Ratio (y) = -0.62726 0.10407
# Poissons Ratio (z) = 0.37411 0.01700
#
# Static dielectric constant tensor:
#      x y z
#    x 1.718310 0.000000 0.046070 
#    y 0.000000 1.771670 0.000000 
#    z 0.046070 0.000000 1.723620 
# 
# From -- ./inp_files/28553.got.cif
#   From: 2010.05.17/outbox.cif.g08.bks.cpg/sg11_15_cif.got.tgz:28553.got - 2010.06.03 12:22:45.
