data_PCOD9164325
_publ_section_title
;
Structure prediction by ZEFSAII (Michael W. Deem and Ramdas Pophale) SiO2 
 PCOD9164325
Probable space group: P 21/M
;
_chemical_formula_sum "Si O2"
_cell_formula_units_Z 22
_cell_length_a 8.234606
_cell_length_b 15.109227
_cell_length_c 7.115092
_cell_angle_alpha 90.000000
_cell_angle_beta 109.286230
_cell_angle_gamma 90.000000
_cell_volume 835.569423
_symmetry_space_group_name_H-M "P 21/M"
_symmetry_group_IT_number 11
_symmetry_cell_setting 'monoclinic'
loop_
_space_group_symop_operation_xyz
x,y,z
-x,1/2+y,-z
-x,-y,-z
x,1/2-y,z
loop_
_atom_site_type_symbol
_atom_site_label
_atom_site_fract_x
_atom_site_fract_y
_atom_site_fract_z
Si Si1 0.233227 0.750000 0.868318
Si Si2 0.590109 0.398959 0.542042
Si Si3 0.849394 0.250000 0.730208
Si Si4 0.503423 0.897846 0.054264
Si Si5 0.740605 0.648377 0.837272
Si Si6 0.852515 0.948214 0.563806
Si Si7 0.906690 0.750000 0.470184
O O1 0.354919 0.836405 0.906545
O O2 0.081976 0.750000 0.661424
O O3 0.160420 0.750000 0.051370
O O4 0.749735 0.332652 0.607092
O O5 0.561786 0.631317 0.653377
O O6 0.683553 0.488948 0.508657
O O7 0.530617 0.391890 0.736980
O O8 0.038060 0.250000 0.724017
O O9 0.681504 0.866824 0.027630
O O10 0.500000 0.000000 0.000000
O O11 0.787179 0.750000 0.821243
O O12 0.875000 0.578768 0.795386
O O13 0.828473 0.847477 0.478456
O O14 0.000000 0.000000 0.500000
#
# Coordination Sequence:
#
# PCOD9164325 Si02
#       7
#     2   4   2   4   4   4   2
#     4  10  24  41  65  99 129 179 222 270 350 392
#     4  11  23  44  70 101 135 171 227 288 335 394
#     4  10  20  41  67  97 131 173 221 276 329 398
#     4  11  23  39  70 104 129 170 230 282 338 402
#     4  12  24  44  72 101 133 179 226 282 343 394
#     4  12  26  41  68  99 135 182 224 268 335 405
#     4  12  24  46  66  90 144 184 221 272 331 414
#
# _framework density 26.329348
#
# number of rings (size 3 to 8) (size 9 to 14) (size 15 to 20)
#    0.000    0.727    6.364    1.636    0.000    0.000 
#    0.000    7.273    0.000    0.000    0.000    0.000 
#    0.000    0.000    0.000    0.000    0.000    0.000 
#
# Total GULP energy -123040.105930 kJ/mol
# GULP energy per Si atom -5592.732088 kJ/mol
# Density = 2.626942 g / cm^3
# Si number density = 26.329348 Si / 1000 Ang^3
#
#
#
# Elastic Constant Matrix: (Units=GPa)
#
#
# Indices 1 2 3 4 5 6 
#
# 1 139.9693 79.9489 81.1845 0.0000 -32.7453 0.0000
# 2 79.9489 199.0562 48.7565 0.0000 -2.2548 0.0000
# 3 81.1845 48.7565 128.3414 0.0000 -23.9427 0.0000
# 4 0.0000 0.0000 0.0000 88.7165 0.0000 25.5967
# 5 -32.7453 -2.2548 -23.9427 0.0000 69.5103 0.0000
# 6 0.0000 0.0000 0.0000 25.5967 0.0000 97.2708
#
#
#
# Elastic Compliance Matrix: (Units=1/GPa)
#
#
# Indices 1 2 3 4 5 6 
#
# 1 0.014407 -0.004083 -0.006755 0.000000 0.004328 0.000000
# 2 -0.004083 0.006718 -0.000308 0.000000 -0.001811 0.000000
# 3 -0.006755 -0.000308 0.012382 0.000000 0.001073 0.000000
# 4 0.000000 0.000000 0.000000 0.012198 0.000000 -0.003210
# 5 0.004328 -0.001811 0.001073 0.000000 0.016736 0.000000
# 6 0.000000 0.000000 0.000000 -0.003210 0.000000 0.011125
#
#
# Mechanical properties :
#
#
# Convention : Reuss Voigt Hill
#
# Bulk Modulus (GPa) = 89.15603 98.57185 93.86394
# Shear Modulus (GPa) = 50.20323 68.26467 59.23395
#
# Velocity S-wave (km/s) = 4.37136 5.09740 4.74828
# Velocity P-wave (km/s) = 7.70803 8.49494 8.11103
#
# Compressibility (1/GPa) = 0.01121629
#
# Stress axis : x y z
#
# Youngs Moduli (GPa) = 69.41120 148.84635 80.76500
#
# Poissons Ratio (x) = 0.60771 0.54556
# Poissons Ratio (y) = 0.28339 0.02484
# Poissons Ratio (z) = 0.46887 0.04578
#
# Static dielectric constant tensor:
#      x y z
#    x 2.105140 0.000000 -0.071700 
#    y 0.000000 2.121850 0.000000 
#    z -0.071700 0.000000 2.111370 
# 
# From -- ./inp_files/17122.got.cif
#   From: 2010.05.17/outbox.cif.g08.bks.cpg/sg11_9_cif.got.tgz:17122.got - 2010.06.03 12:22:45.
