data_PCOD9164702
_publ_section_title
;
Structure prediction by ZEFSAII (Michael W. Deem and Ramdas Pophale) SiO2 
 PCOD9164702
Probable space group: P 21/M
;
_chemical_formula_sum "Si O2"
_cell_formula_units_Z 32
_cell_length_a 14.931329
_cell_length_b 8.957605
_cell_length_c 12.043687
_cell_angle_alpha 90.000000
_cell_angle_beta 94.131810
_cell_angle_gamma 90.000000
_cell_volume 1606.643804
_symmetry_space_group_name_H-M "P 21/M"
_symmetry_group_IT_number 11
_symmetry_cell_setting 'monoclinic'
loop_
_space_group_symop_operation_xyz
x,y,z
-x,1/2+y,-z
-x,-y,-z
x,1/2-y,z
loop_
_atom_site_type_symbol
_atom_site_label
_atom_site_fract_x
_atom_site_fract_y
_atom_site_fract_z
Si Si1 0.975084 0.576147 0.315384
Si Si2 0.082793 0.424906 0.944281
Si Si3 0.712138 0.930528 0.023741
Si Si4 0.344533 0.926108 0.752015
Si Si5 0.834210 0.575637 0.653220
Si Si6 0.497702 0.572137 0.377579
Si Si7 0.819779 0.423940 0.429083
Si Si8 0.658413 0.926396 0.775890
O O1 0.970946 0.750000 0.347018
O O2 0.933658 0.560424 0.188779
O O3 0.915807 0.479488 0.394050
O O4 0.076634 0.519668 0.320249
O O5 0.080935 0.250000 0.973525
O O6 0.183483 0.480480 0.978623
O O7 0.000000 0.500000 0.000000
O O8 0.713447 0.750000 0.037633
O O9 0.669305 0.004928 0.127865
O O10 0.659130 0.964821 0.905989
O O11 0.365556 0.750000 0.760963
O O12 0.251892 0.942741 0.675405
O O13 0.420448 0.009534 0.688587
O O14 0.857944 0.750000 0.650755
O O15 0.793639 0.522196 0.532574
O O16 0.759587 0.554488 0.740269
O O17 0.500000 0.500000 0.500000
O O18 0.502351 0.750000 0.387863
O O19 0.408362 0.521888 0.304503
O O20 0.822689 0.250000 0.460316
O O21 0.635975 0.750000 0.761632
#
# Coordination Sequence:
#
# PCOD9164702 Si02
#       8
#     4   4   4   4   4   4   4   4
#     4  11  22  37  58  86 122 163 209 258 311 374
#     4  10  21  36  58  87 122 166 214 260 309 367
#     4  10  21  41  65  92 128 168 213 261 314 376
#     4  11  24  42  67  97 128 165 212 264 319 381
#     4  11  23  39  61  88 123 165 209 259 315 374
#     4  12  26  45  71  99 130 165 206 259 317 382
#     4  11  23  39  60  88 123 162 208 261 314 373
#     4  10  23  43  67  94 127 167 210 258 313 374
#
# _framework density 19.917296
#
# number of rings (size 3 to 8) (size 9 to 14) (size 15 to 20)
#    0.000    1.250    1.250    4.500    0.000    8.000 
#    0.000    0.000    0.000    0.000    0.000    0.000 
#    0.000    0.000    0.000    0.000    0.000    0.000 
#
# Total GULP energy -179001.442441 kJ/mol
# GULP energy per Si atom -5593.795076 kJ/mol
# Density = 1.987196 g / cm^3
# Si number density = 19.917296 Si / 1000 Ang^3
#
#
#
# Elastic Constant Matrix: (Units=GPa)
#
#
# Indices 1 2 3 4 5 6 
#
# 1 66.9818 36.6716 42.5396 0.0000 -6.3722 0.0000
# 2 36.6716 67.2469 51.5727 0.0000 1.3380 0.0000
# 3 42.5396 51.5727 112.9336 0.0000 -2.2610 0.0000
# 4 0.0000 0.0000 0.0000 31.6474 0.0000 -0.3175
# 5 -6.3722 1.3380 -2.2610 0.0000 32.1749 0.0000
# 6 0.0000 0.0000 0.0000 -0.3175 0.0000 30.2511
#
#
#
# Elastic Compliance Matrix: (Units=1/GPa)
#
#
# Indices 1 2 3 4 5 6 
#
# 1 0.023338 -0.009466 -0.004374 0.000000 0.004708 0.000000
# 2 -0.009466 0.026817 -0.008753 0.000000 -0.003605 0.000000
# 3 -0.004374 -0.008753 0.014510 0.000000 0.000517 0.000000
# 4 0.000000 0.000000 0.000000 0.031602 0.000000 0.000332
# 5 0.004708 -0.003605 0.000517 0.000000 0.032199 0.000000
# 6 0.000000 0.000000 0.000000 0.000332 0.000000 0.033060
#
#
# Mechanical properties :
#
#
# Convention : Reuss Voigt Hill
#
# Bulk Modulus (GPa) = 51.33704 56.52556 53.93130
# Shear Modulus (GPa) = 23.45180 26.57326 25.01253
#
# Velocity S-wave (km/s) = 3.43513 3.65661 3.54760
# Velocity P-wave (km/s) = 6.44706 6.80216 6.62699
#
# Compressibility (1/GPa) = 0.01947911
#
# Stress axis : x y z
#
# Youngs Moduli (GPa) = 42.84935 37.28956 68.91926
#
# Poissons Ratio (x) = 0.35298 0.30143
# Poissons Ratio (y) = 0.40561 0.60325
# Poissons Ratio (z) = 0.18741 0.32639
#
# Static dielectric constant tensor:
#      x y z
#    x 1.694590 0.000000 0.015950 
#    y 0.000000 1.380090 0.000000 
#    z 0.015950 0.000000 1.696080 
# 
# From -- ./inp_files/38209.got.cif
#   From: 2010.05.17/outbox.cif.g08.bks.cpg/sg11_20_cif.got.tgz:38209.got - 2010.06.03 12:22:45.
