data_PCOD9164470
_publ_section_title
;
Structure prediction by ZEFSAII (Michael W. Deem and Ramdas Pophale) SiO2 
 PCOD9164470
Probable space group: P 21/M
;
_chemical_formula_sum "Si O2"
_cell_formula_units_Z 32
_cell_length_a 18.036491
_cell_length_b 14.430283
_cell_length_c 13.296324
_cell_angle_alpha 90.000000
_cell_angle_beta 30.127220
_cell_angle_gamma 90.000000
_cell_volume 1736.978550
_symmetry_space_group_name_H-M "P 21/M"
_symmetry_group_IT_number 11
_symmetry_cell_setting 'monoclinic'
loop_
_space_group_symop_operation_xyz
x,y,z
-x,1/2+y,-z
-x,-y,-z
x,1/2-y,z
loop_
_atom_site_type_symbol
_atom_site_label
_atom_site_fract_x
_atom_site_fract_y
_atom_site_fract_z
Si Si1 0.087194 0.859791 0.364261
Si Si2 0.118435 0.140168 0.575627
Si Si3 0.669041 0.048460 0.058546
Si Si4 0.083299 0.485240 0.092000
Si Si5 0.458763 0.642771 0.602875
Si Si6 0.865092 0.359727 0.463605
Si Si7 0.720927 0.499440 0.316250
Si Si8 0.652920 0.001757 0.626238
O O1 0.118658 0.750000 0.321696
O O2 0.941515 0.874947 0.467554
O O3 0.075880 0.884316 0.494242
O O4 0.221436 0.912882 0.153858
O O5 0.118160 0.250000 0.597302
O O6 0.275115 0.091361 0.411441
O O7 0.000979 0.081150 0.780119
O O8 0.613002 0.127067 0.202601
O O9 0.521787 0.004309 0.184971
O O10 0.767002 0.983299 0.016359
O O11 0.979947 0.402589 0.249869
O O12 0.132239 0.483235 0.919537
O O13 0.477707 0.750000 0.559035
O O14 0.610840 0.585639 0.425809
O O15 0.355011 0.590914 0.644228
O O16 0.850456 0.250000 0.472097
O O17 0.712196 0.413318 0.622795
O O18 0.725322 0.488674 0.430235
#
# Coordination Sequence:
#
# PCOD9164470 Si02
#       8
#     4   4   4   4   4   4   4   4
#     4   9  18  35  56  76 101 135 177 217 252 306
#     4   9  19  34  54  78 102 132 172 219 266 307
#     4   9  18  33  56  81 102 127 169 222 269 303
#     4   9  19  36  55  73 102 141 180 210 244 304
#     4   9  17  31  52  76 104 138 172 208 257 310
#     4  10  22  38  53  73 105 144 178 208 252 312
#     4   9  19  33  48  76 109 136 172 215 253 299
#     4  10  21  35  52  79 113 136 164 217 269 310
#
# _framework density 18.422796000000002
#
# number of rings (size 3 to 8) (size 9 to 14) (size 15 to 20)
#    0.000    2.750    0.000    1.125    0.000   13.500 
#    0.000    1.875    0.000    3.000    0.000    0.000 
#    0.000    0.000    0.000    0.000    0.000    0.000 
#
# Total GULP energy -178417.378065 kJ/mol
# GULP energy per Si atom -5575.543065 kJ/mol
# Density = 1.838086 g / cm^3
# Si number density = 18.422796 Si / 1000 Ang^3
#
#
#
# Elastic Constant Matrix: (Units=GPa)
#
#
# Indices 1 2 3 4 5 6 
#
# 1 77.8107 21.1010 13.0390 0.0000 -13.8157 0.0000
# 2 21.1010 102.6041 8.7069 0.0000 -1.5196 0.0000
# 3 13.0390 8.7069 30.1562 0.0000 -12.5486 0.0000
# 4 0.0000 0.0000 0.0000 7.3898 0.0000 4.1220
# 5 -13.8157 -1.5196 -12.5486 0.0000 30.1685 0.0000
# 6 0.0000 0.0000 0.0000 4.1220 0.0000 18.5748
#
#
#
# Elastic Compliance Matrix: (Units=1/GPa)
#
#
# Indices 1 2 3 4 5 6 
#
# 1 0.015130 -0.002732 -0.003540 0.000000 0.005319 0.000000
# 2 -0.002732 0.010502 -0.002602 0.000000 -0.001805 0.000000
# 3 -0.003540 -0.002602 0.041979 0.000000 0.015709 0.000000
# 4 0.000000 0.000000 0.000000 0.154438 0.000000 -0.034272
# 5 0.005319 -0.001805 0.015709 0.000000 0.042026 0.000000
# 6 0.000000 0.000000 0.000000 -0.034272 0.000000 0.061442
#
#
# Mechanical properties :
#
#
# Convention : Reuss Voigt Hill
#
# Bulk Modulus (GPa) = 20.05461 32.91832 26.48646
# Shear Modulus (GPa) = 13.89325 22.40821 18.15073
#
# Velocity S-wave (km/s) = 2.74913 3.49138 3.14225
# Velocity P-wave (km/s) = 4.58108 5.84465 5.25102
#
# Compressibility (1/GPa) = 0.04986384
#
# Stress axis : x y z
#
# Youngs Moduli (GPa) = 66.09259 95.21819 23.82122
#
# Poissons Ratio (x) = 0.26018 0.08432
# Poissons Ratio (y) = 0.18059 0.06198
# Poissons Ratio (z) = 0.23396 0.24773
#
# Static dielectric constant tensor:
#      x y z
#    x 1.667370 0.000000 -0.008980 
#    y 0.000000 1.609640 0.000000 
#    z -0.008980 0.000000 1.641540 
# 
# From -- ./inp_files/39651.got.cif
#   From: 2010.05.17/outbox.cif.g08.bks.cpg/sg11_20_cif.got.tgz:39651.got - 2010.06.03 12:22:45.
