data_PCOD9164088
_publ_section_title
;
Structure prediction by ZEFSAII (Michael W. Deem and Ramdas Pophale) SiO2 
 PCOD9164088
Probable space group: P 21/M
;
_chemical_formula_sum "Si O2"
_cell_formula_units_Z 28
_cell_length_a 7.462635
_cell_length_b 14.712038
_cell_length_c 11.348919
_cell_angle_alpha 90.000000
_cell_angle_beta 56.819668
_cell_angle_gamma 90.000000
_cell_volume 1042.846059
_symmetry_space_group_name_H-M "P 21/M"
_symmetry_group_IT_number 11
_symmetry_cell_setting 'monoclinic'
loop_
_space_group_symop_operation_xyz
x,y,z
-x,1/2+y,-z
-x,-y,-z
x,1/2-y,z
loop_
_atom_site_type_symbol
_atom_site_label
_atom_site_fract_x
_atom_site_fract_y
_atom_site_fract_z
Si Si1 0.909828 0.644771 0.731327
Si Si2 0.780949 0.962318 0.010511
Si Si3 0.476626 0.853363 0.295716
Si Si4 0.245817 0.652832 0.000880
Si Si5 0.263990 0.468482 0.424553
Si Si6 0.134483 0.150515 0.672369
Si Si7 0.337826 0.847362 0.698319
O O1 0.839107 0.750000 0.753922
O O2 0.825248 0.591526 0.649782
O O3 0.165542 0.647413 0.657825
O O4 0.837111 0.591547 0.873490
O O5 0.634334 0.896885 0.141385
O O6 0.651762 0.054443 0.024195
O O7 0.000000 0.000000 0.000000
O O8 0.409977 0.750000 0.291308
O O9 0.290616 0.926659 0.381864
O O10 0.631150 0.849343 0.353454
O O11 0.349562 0.750000 0.995685
O O12 0.219724 0.657392 0.868223
O O13 0.037692 0.646337 0.159720
O O14 0.134424 0.435206 0.585923
O O15 0.505088 0.431642 0.358145
O O16 0.098902 0.250000 0.627612
O O17 0.454492 0.750000 0.648219
#
# Coordination Sequence:
#
# PCOD9164088 Si02
#       7
#     4   4   4   4   4   4   4
#     4  11  24  41  68 107 146 183 237 308 366 423
#     4  12  20  39  70  99 135 186 237 284 359 429
#     4  11  23  41  67 100 143 191 242 305 366 421
#     4  10  20  38  69 103 140 185 234 295 358 423
#     4  12  24  44  72 104 141 197 242 289 364 447
#     4  10  21  39  69 103 141 191 238 292 366 436
#     4  10  20  40  70 107 144 184 239 302 358 428
#
# _framework density 26.849601
#
# number of rings (size 3 to 8) (size 9 to 14) (size 15 to 20)
#    0.000    1.143    4.286    2.143    0.000    0.571 
#    0.000    1.429    0.000    1.714    0.000    0.000 
#    0.000    0.000    0.000    0.000    0.000    0.000 
#
# Total GULP energy -156829.981127 kJ/mol
# GULP energy per Si atom -5601.070755 kJ/mol
# Density = 2.678849 g / cm^3
# Si number density = 26.849601 Si / 1000 Ang^3
#
#
#
# Elastic Constant Matrix: (Units=GPa)
#
#
# Indices 1 2 3 4 5 6 
#
# 1 103.9295 50.9382 33.9174 0.0000 -7.4492 0.0000
# 2 50.9382 278.0392 53.0816 0.0000 6.7045 0.0000
# 3 33.9174 53.0816 150.2277 0.0000 12.3186 0.0000
# 4 0.0000 0.0000 0.0000 41.8052 0.0000 -1.6801
# 5 -7.4492 6.7045 12.3186 0.0000 30.0339 0.0000
# 6 0.0000 0.0000 0.0000 -1.6801 0.0000 15.2322
#
#
#
# Elastic Compliance Matrix: (Units=1/GPa)
#
#
# Indices 1 2 3 4 5 6 
#
# 1 0.011553 -0.001774 -0.002327 0.000000 0.004216 0.000000
# 2 -0.001774 0.004132 -0.000981 0.000000 -0.000960 0.000000
# 3 -0.002327 -0.000981 0.007821 0.000000 -0.003566 0.000000
# 4 0.000000 0.000000 0.000000 0.024027 0.000000 0.002650
# 5 0.004216 -0.000960 -0.003566 0.000000 0.036018 0.000000
# 6 0.000000 0.000000 0.000000 0.002650 0.000000 0.065943
#
#
# Mechanical properties :
#
#
# Convention : Reuss Voigt Hill
#
# Bulk Modulus (GPa) = 74.95098 89.78564 82.36831
# Shear Modulus (GPa) = 30.46822 43.69820 37.08321
#
# Velocity S-wave (km/s) = 3.37229 4.03863 3.72041
# Velocity P-wave (km/s) = 6.56802 7.43372 7.01424
#
# Compressibility (1/GPa) = 0.01334205
#
# Stress axis : x y z
#
# Youngs Moduli (GPa) = 86.55732 242.01339 127.86147
#
# Poissons Ratio (x) = 0.42931 0.29757
# Poissons Ratio (y) = 0.15355 0.12540
# Poissons Ratio (z) = 0.20144 0.23736
#
# Static dielectric constant tensor:
#      x y z
#    x 2.116720 0.000000 -0.034500 
#    y 0.000000 2.130150 0.000000 
#    z -0.034500 0.000000 2.127360 
# 
# From -- ./inp_files/50226.got.cif
#   From: 2010.05.17/outbox.cif.g08.bks.cpg/sg11_26_cif.got.tgz:50226.got - 2010.06.03 12:22:45.
