data_PCOD9164200
_publ_section_title
;
Structure prediction by ZEFSAII (Michael W. Deem and Ramdas Pophale) SiO2 
 PCOD9164200
Probable space group: P 21/M
;
_chemical_formula_sum "Si O2"
_cell_formula_units_Z 28
_cell_length_a 9.652530
_cell_length_b 15.176382
_cell_length_c 11.174204
_cell_angle_alpha 90.000000
_cell_angle_beta 121.345419
_cell_angle_gamma 90.000000
_cell_volume 1398.001512
_symmetry_space_group_name_H-M "P 21/M"
_symmetry_group_IT_number 11
_symmetry_cell_setting 'monoclinic'
loop_
_space_group_symop_operation_xyz
x,y,z
-x,1/2+y,-z
-x,-y,-z
x,1/2-y,z
loop_
_atom_site_type_symbol
_atom_site_label
_atom_site_fract_x
_atom_site_fract_y
_atom_site_fract_z
Si Si1 0.364153 0.467604 0.798253
Si Si2 0.516056 0.854411 0.932127
Si Si3 0.530004 0.852419 0.369782
Si Si4 0.161458 0.109580 0.068746
Si Si5 0.000247 0.005144 0.644130
Si Si6 0.832139 0.078806 0.793600
Si Si7 0.180608 0.156149 0.343321
O O1 0.410371 0.571281 0.814718
O O2 0.384295 0.420611 0.680903
O O3 0.179917 0.465251 0.759931
O O4 0.469520 0.404936 0.933571
O O5 0.468222 0.750000 0.916858
O O6 0.691140 0.860533 0.947742
O O7 0.549009 0.750000 0.342028
O O8 0.339673 0.873051 0.285305
O O9 0.633456 0.866325 0.537920
O O10 0.164104 0.159036 0.194980
O O11 0.185639 0.008787 0.129567
O O12 0.990975 0.121968 0.924605
O O13 0.877986 0.059551 0.675024
O O14 0.953131 0.908672 0.666608
O O15 0.000000 0.000000 0.500000
O O16 0.148615 0.250000 0.385688
#
# Coordination Sequence:
#
# PCOD9164200 Si02
#       7
#     4   4   4   4   4   4   4
#     4  11  23  42  63  96 131 169 218 267 326 395
#     4  11  23  39  65  95 129 170 214 272 330 388
#     4  11  23  42  65  95 133 175 218 268 325 387
#     4  10  20  39  65  92 129 164 217 268 324 383
#     4  11  22  41  67  92 128 172 213 266 332 383
#     4  10  22  40  64  97 124 170 216 267 320 392
#     4  10  23  39  63  96 131 170 218 268 327 392
#
# _framework density 20.028589
#
# number of rings (size 3 to 8) (size 9 to 14) (size 15 to 20)
#    0.000    1.429    4.286    0.857    0.000    5.143 
#    0.000    0.714    0.000    0.000    0.000    0.000 
#    0.000    0.000    0.000    0.000    0.000    0.000 
#
# Total GULP energy -155899.899002 kJ/mol
# GULP energy per Si atom -5567.853536 kJ/mol
# Density = 1.998300 g / cm^3
# Si number density = 20.028589 Si / 1000 Ang^3
#
#
#
# Elastic Constant Matrix: (Units=GPa)
#
#
# Indices 1 2 3 4 5 6 
#
# 1 63.9605 29.8635 7.7704 0.0000 -0.6982 0.0000
# 2 29.8635 115.7702 27.3805 0.0000 1.6477 0.0000
# 3 7.7704 27.3805 68.2326 0.0000 -22.1685 0.0000
# 4 0.0000 0.0000 0.0000 15.7707 0.0000 11.8407
# 5 -0.6982 1.6477 -22.1685 0.0000 18.7967 0.0000
# 6 0.0000 0.0000 0.0000 11.8407 0.0000 -54.8861
#
#
#
# Elastic Compliance Matrix: (Units=1/GPa)
#
#
# Indices 1 2 3 4 5 6 
#
# 1 0.017801 -0.004691 0.000330 0.000000 0.001461 0.000000
# 2 -0.004691 0.011741 -0.007406 0.000000 -0.009938 0.000000
# 3 0.000330 -0.007406 0.028866 0.000000 0.034705 0.000000
# 4 0.000000 0.000000 0.000000 0.054570 0.000000 0.011773
# 5 0.001461 -0.009938 0.034705 0.000000 0.095057 0.000000
# 6 0.000000 0.000000 0.000000 0.011773 0.000000 -0.015680
#
#
# Mechanical properties :
#
#
# Convention : Reuss Voigt Hill
#
# Bulk Modulus (GPa) = 28.67497 41.99912 35.33704
# Shear Modulus (GPa) = 21.97694 8.13285 15.05489
#
# Velocity S-wave (km/s) = 3.31611 2.01728 2.74463
# Velocity P-wave (km/s) = 5.38612 5.14208 5.26551
#
# Compressibility (1/GPa) = 0.03487362
#
# Stress axis : x y z
#
# Youngs Moduli (GPa) = 56.17803 85.17348 34.64343
#
# Poissons Ratio (x) = 0.39951 -0.01143
# Poissons Ratio (y) = 0.26351 0.25657
# Poissons Ratio (z) = -0.01853 0.63079
#
# Static dielectric constant tensor:
#      x y z
#    x 1.668850 0.000000 -0.013420 
#    y 0.000000 1.769590 0.000000 
#    z -0.013420 0.000000 1.764830 
# 
# From -- ./inp_files/31943.got.cif
#   From: 2010.05.17/outbox.cif.g08.bks.cpg/sg11_16_cif.got.tgz:31943.got - 2010.06.03 12:22:45.
