data_PCOD9164354
_publ_section_title
;
Structure prediction by ZEFSAII (Michael W. Deem and Ramdas Pophale) SiO2 
 PCOD9164354
Probable space group: P 21/M
;
_chemical_formula_sum "Si O2"
_cell_formula_units_Z 14
_cell_length_a 6.922435
_cell_length_b 7.678343
_cell_length_c 9.718504
_cell_angle_alpha 90.000000
_cell_angle_beta 92.949014
_cell_angle_gamma 90.000000
_cell_volume 515.881912
_symmetry_space_group_name_H-M "P 21/M"
_symmetry_group_IT_number 11
_symmetry_cell_setting 'monoclinic'
loop_
_space_group_symop_operation_xyz
x,y,z
-x,1/2+y,-z
-x,-y,-z
x,1/2-y,z
loop_
_atom_site_type_symbol
_atom_site_label
_atom_site_fract_x
_atom_site_fract_y
_atom_site_fract_z
Si Si1 0.272142 0.552072 0.386645
Si Si2 0.725953 0.444473 0.015114
Si Si3 0.745167 0.750000 0.823726
Si Si4 0.809740 0.948438 0.316370
O O1 0.334988 0.750000 0.362788
O O2 0.336590 0.403793 0.283804
O O3 0.297041 0.506781 0.548570
O O4 0.038016 0.544851 0.357273
O O5 0.748837 0.250000 0.959450
O O6 0.774276 0.444302 0.178018
O O7 0.500000 0.500000 0.000000
O O8 0.824454 0.596518 0.932327
O O9 0.758334 0.750000 0.282514
#
# Coordination Sequence:
#
# PCOD9164354 Si02
#       4
#     4   4   2   4
#     4  10  22  40  67 100 131 163 210 261 321 376
#     4  12  25  45  68  89 127 176 217 258 321 380
#     4  12  24  42  64  98 130 164 214 272 310 378
#     4  10  20  42  69  95 131 173 206 256 320 385
#
# _framework density 27.137995
#
# number of rings (size 3 to 8) (size 9 to 14) (size 15 to 20)
#    0.000    1.143    4.286    1.714    4.000    1.143 
#    0.000    1.429    0.000    0.000    0.000    0.000 
#    0.000    0.000    0.000    0.000    0.000    0.000 
#
# Total GULP energy -78052.951719 kJ/mol
# GULP energy per Si atom -5575.210837 kJ/mol
# Density = 2.707623 g / cm^3
# Si number density = 27.137995 Si / 1000 Ang^3
#
#
#
# Elastic Constant Matrix: (Units=GPa)
#
#
# Indices 1 2 3 4 5 6 
#
# 1 76.4388 5.5779 -0.8728 0.0000 -11.1137 0.0000
# 2 5.5779 323.3873 100.9789 0.0000 -5.1996 0.0000
# 3 -0.8728 100.9789 205.1914 0.0000 -0.4132 0.0000
# 4 0.0000 0.0000 0.0000 60.6150 0.0000 5.0755
# 5 -11.1137 -5.1996 -0.4132 0.0000 36.0713 0.0000
# 6 0.0000 0.0000 0.0000 5.0755 0.0000 4.0646
#
#
#
# Elastic Compliance Matrix: (Units=1/GPa)
#
#
# Indices 1 2 3 4 5 6 
#
# 1 0.013711 -0.000224 0.000177 0.000000 0.004194 0.000000
# 2 -0.000224 0.003667 -0.001805 0.000000 0.000439 0.000000
# 3 0.000177 -0.001805 0.005762 0.000000 -0.000140 0.000000
# 4 0.000000 0.000000 0.000000 0.018424 0.000000 -0.023006
# 5 0.004194 0.000439 -0.000140 0.000000 0.029077 0.000000
# 6 0.000000 0.000000 0.000000 -0.023006 0.000000 0.274753
#
#
# Mechanical properties :
#
#
# Convention : Reuss Voigt Hill
#
# Bulk Modulus (GPa) = 51.45147 90.70949 71.08048
# Shear Modulus (GPa) = 14.06175 53.43908 33.75041
#
# Velocity S-wave (km/s) = 2.27878 4.44234 3.53038
# Velocity P-wave (km/s) = 5.09157 7.73371 6.54731
#
# Compressibility (1/GPa) = 0.01943579
#
# Stress axis : x y z
#
# Youngs Moduli (GPa) = 72.93666 272.72803 173.55062
#
# Poissons Ratio (x) = 0.06119 -0.03075
# Poissons Ratio (y) = 0.01637 0.31317
# Poissons Ratio (z) = -0.01292 0.49214
#
# Static dielectric constant tensor:
#      x y z
#    x 2.350010 0.000000 -0.015490 
#    y 0.000000 1.993030 0.000000 
#    z -0.015490 0.000000 2.057870 
# 
# From -- ./inp_files/11086.got.cif
#   From: 2010.05.17/outbox.cif.g08.bks.cpg/sg11_6_cif.got.tgz:11086.got - 2010.06.03 12:22:45.
