data_PCOD9164849
_publ_section_title
;
Structure prediction by ZEFSAII (Michael W. Deem and Ramdas Pophale) SiO2 
 PCOD9164849
Probable space group: P 21/M
;
_chemical_formula_sum "Si O2"
_cell_formula_units_Z 28
_cell_length_a 4.994186
_cell_length_b 12.213385
_cell_length_c 23.657340
_cell_angle_alpha 90.000000
_cell_angle_beta 69.068080
_cell_angle_gamma 90.000000
_cell_volume 1347.771120
_symmetry_space_group_name_H-M "P 21/M"
_symmetry_group_IT_number 11
_symmetry_cell_setting 'monoclinic'
loop_
_space_group_symop_operation_xyz
x,y,z
-x,1/2+y,-z
-x,-y,-z
x,1/2-y,z
loop_
_atom_site_type_symbol
_atom_site_label
_atom_site_fract_x
_atom_site_fract_y
_atom_site_fract_z
Si Si1 0.806896 0.509807 0.569532
Si Si2 0.731017 0.126337 0.679437
Si Si3 0.187901 0.872694 0.910813
Si Si4 0.355335 0.623326 0.020019
Si Si5 0.764326 0.996965 0.868057
Si Si6 0.851719 0.512345 0.271371
Si Si7 0.776741 0.125569 0.380725
O O1 0.794938 0.401678 0.609295
O O2 0.485122 0.547761 0.581053
O O3 0.000000 0.500000 0.500000
O O4 0.951637 0.597328 0.601110
O O5 0.641106 0.250000 0.693762
O O6 0.471905 0.047298 0.717491
O O7 0.007346 0.099650 0.696196
O O8 0.282343 0.750000 0.889446
O O9 0.442656 0.957824 0.878734
O O10 0.911515 0.903787 0.895966
O O11 0.141997 0.876048 0.982130
O O12 0.481794 0.750000 0.008601
O O13 0.235233 0.604080 0.091962
O O14 0.500000 0.500000 0.000000
O O15 0.953604 0.007048 0.798220
O O16 0.844163 0.403669 0.310479
O O17 0.691792 0.250000 0.393794
#
# Coordination Sequence:
#
# PCOD9164849 Si02
#       7
#     4   4   4   4   4   4   4
#     4  10  21  38  58  86 115 142 189 237 278 341
#     4  10  21  38  58  80 113 152 184 229 287 335
#     4  10  21  37  58  85 117 150 191 243 298 354
#     4   9  20  38  60  88 121 158 199 250 307 362
#     4  11  21  38  59  85 114 152 196 241 293 351
#     4  10  22  38  56  84 116 148 195 241 280 341
#     4  10  21  37  57  82 117 154 186 233 292 344
#
# _framework density 20.775041000000002
#
# number of rings (size 3 to 8) (size 9 to 14) (size 15 to 20)
#    0.000    2.000    0.000    3.000    0.000    4.000 
#    0.000    5.714    0.000    0.000    0.000    0.000 
#    0.000    0.000    0.000    0.000    0.000    0.000 
#
# Total GULP energy -156094.022358 kJ/mol
# GULP energy per Si atom -5574.786513 kJ/mol
# Density = 2.072776 g / cm^3
# Si number density = 20.775041 Si / 1000 Ang^3
#
#
#
# Elastic Constant Matrix: (Units=GPa)
#
#
# Indices 1 2 3 4 5 6 
#
# 1 54.6934 -1.6982 -4.5876 0.0000 -2.5810 0.0000
# 2 -1.6982 78.1976 11.2570 0.0000 6.3398 0.0000
# 3 -4.5876 11.2570 93.5435 0.0000 -20.3067 0.0000
# 4 0.0000 0.0000 0.0000 7.2801 0.0000 -1.3090
# 5 -2.5810 6.3398 -20.3067 0.0000 25.9169 0.0000
# 6 0.0000 0.0000 0.0000 -1.3090 0.0000 17.7547
#
#
#
# Elastic Compliance Matrix: (Units=1/GPa)
#
#
# Indices 1 2 3 4 5 6 
#
# 1 0.018562 -0.000080 0.001597 0.000000 0.003119 0.000000
# 2 -0.000080 0.013651 -0.002860 0.000000 -0.005588 0.000000
# 3 0.001597 -0.002860 0.013615 0.000000 0.011526 0.000000
# 4 0.000000 0.000000 0.000000 0.139206 0.000000 0.010263
# 5 0.003119 -0.005588 0.011526 0.000000 0.049294 0.000000
# 6 0.000000 0.000000 0.000000 0.010263 0.000000 0.057080
#
#
# Mechanical properties :
#
#
# Convention : Reuss Voigt Hill
#
# Bulk Modulus (GPa) = 23.17831 26.26409 24.72120
# Shear Modulus (GPa) = 16.20881 24.95456 20.58169
#
# Velocity S-wave (km/s) = 2.79625 3.46956 3.15094
# Velocity P-wave (km/s) = 4.64826 5.35911 5.01630
#
# Compressibility (1/GPa) = 0.04314379
#
# Stress axis : x y z
#
# Youngs Moduli (GPa) = 53.87218 73.25423 73.44927
#
# Poissons Ratio (x) = 0.00584 -0.11731
# Poissons Ratio (y) = 0.00429 0.21004
# Poissons Ratio (z) = -0.08604 0.20949
#
# Static dielectric constant tensor:
#      x y z
#    x 1.732580 0.000000 -0.020520 
#    y 0.000000 1.751830 0.000000 
#    z -0.020520 0.000000 1.768570 
# 
# From -- ./inp_files/62670.got.cif
#   From: 2010.05.17/outbox.cif.g08.bks.cpg/sg11_32_cif.got.tgz:62670.got - 2010.06.03 12:22:45.
