data_PCOD9164887
_publ_section_title
;
Structure prediction by ZEFSAII (Michael W. Deem and Ramdas Pophale) SiO2 
 PCOD9164887
Probable space group: P 21/M
;
_chemical_formula_sum "Si O2"
_cell_formula_units_Z 24
_cell_length_a 21.617600
_cell_length_b 8.765170
_cell_length_c 10.337973
_cell_angle_alpha 90.000000
_cell_angle_beta 44.159239
_cell_angle_gamma 90.000000
_cell_volume 1364.648851
_symmetry_space_group_name_H-M "P 21/M"
_symmetry_group_IT_number 11
_symmetry_cell_setting 'monoclinic'
loop_
_space_group_symop_operation_xyz
x,y,z
-x,1/2+y,-z
-x,-y,-z
x,1/2-y,z
loop_
_atom_site_type_symbol
_atom_site_label
_atom_site_fract_x
_atom_site_fract_y
_atom_site_fract_z
Si Si1 0.234093 0.432374 0.293077
Si Si2 0.567272 0.067287 0.295766
Si Si3 0.227819 0.566446 0.020582
Si Si4 0.429636 0.566285 0.005410
Si Si5 0.894141 0.067946 0.298743
Si Si6 0.896487 0.567811 0.014236
O O1 0.237691 0.250000 0.284109
O O2 0.331670 0.499621 0.176673
O O3 0.165473 0.489252 0.503562
O O4 0.208037 0.496919 0.191108
O O5 0.562805 0.250000 0.309786
O O6 0.670013 0.023264 0.165236
O O7 0.500000 0.000000 0.500000
O O8 0.545975 0.023689 0.179340
O O9 0.223159 0.750000 0.035294
O O10 0.162015 0.503876 0.011176
O O11 0.426261 0.750000 0.018401
O O12 0.500000 0.500000 0.000000
O O13 0.880872 0.250000 0.321314
O O14 0.998768 0.036811 0.164647
O O15 0.872311 0.003847 0.189232
O O16 0.884343 0.750000 0.036742
#
# Coordination Sequence:
#
# PCOD9164887 Si02
#       6
#     4   4   4   4   4   4
#     4  11  22  37  58  83 110 144 187 232 277 327
#     4   9  20  36  55  79 107 140 178 220 266 319
#     4  10  21  38  57  80 112 147 183 226 278 331
#     4  10  21  38  57  81 112 145 183 226 275 330
#     4  10  21  38  58  81 112 147 182 226 278 330
#     4  10  21  37  58  84 111 143 185 228 273 329
#
# _framework density 17.586942000000001
#
# number of rings (size 3 to 8) (size 9 to 14) (size 15 to 20)
#    0.000    2.000    0.000    4.500    0.000    8.000 
#    0.000    3.333    0.000    0.000    0.000    0.000 
#    0.000    0.000    0.000    0.000    0.000    0.000 
#
# Total GULP energy -134044.055623 kJ/mol
# GULP energy per Si atom -5585.168984 kJ/mol
# Density = 1.754691 g / cm^3
# Si number density = 17.586942 Si / 1000 Ang^3
#
#
#
# Elastic Constant Matrix: (Units=GPa)
#
#
# Indices 1 2 3 4 5 6 
#
# 1 176.5233 76.6588 89.9118 0.0000 24.3768 0.0000
# 2 76.6588 97.6165 74.9436 0.0000 7.2163 0.0000
# 3 89.9118 74.9436 168.9586 0.0000 11.0915 0.0000
# 4 0.0000 0.0000 0.0000 36.9735 0.0000 2.3229
# 5 24.3768 7.2163 11.0915 0.0000 8.8997 0.0000
# 6 0.0000 0.0000 0.0000 2.3229 0.0000 35.5507
#
#
#
# Elastic Compliance Matrix: (Units=1/GPa)
#
#
# Indices 1 2 3 4 5 6 
#
# 1 0.014034 -0.006956 -0.002429 0.000000 -0.029774 0.000000
# 2 -0.006956 0.019139 -0.005467 0.000000 0.010347 0.000000
# 3 -0.002429 -0.005467 0.009702 0.000000 -0.001007 0.000000
# 4 0.000000 0.000000 0.000000 0.027158 0.000000 -0.001775
# 5 -0.029774 0.010347 -0.001007 0.000000 0.186781 0.000000
# 6 0.000000 0.000000 0.000000 -0.001775 0.000000 0.028245
#
#
# Mechanical properties :
#
#
# Convention : Reuss Voigt Hill
#
# Bulk Modulus (GPa) = 75.91485 102.90299 89.40892
# Shear Modulus (GPa) = 15.66651 29.72371 22.69511
#
# Velocity S-wave (km/s) = 2.98787 4.11554 3.59618
# Velocity P-wave (km/s) = 7.42714 9.01230 8.25784
#
# Compressibility (1/GPa) = 0.01317265
#
# Stress axis : x y z
#
# Youngs Moduli (GPa) = 71.25483 52.24989 103.07153
#
# Poissons Ratio (x) = 0.36343 0.25031
# Poissons Ratio (y) = 0.49562 0.56349
# Poissons Ratio (z) = 0.17304 0.28565
#
# Static dielectric constant tensor:
#      x y z
#    x 1.574810 0.000000 -0.004260 
#    y 0.000000 1.585810 0.000000 
#    z -0.004260 0.000000 1.573990 
# 
# From -- ./inp_files/25718.got.cif
#   From: 2010.05.17/outbox.cif.g08.bks.cpg/sg11_13_cif.got.tgz:25718.got - 2010.06.03 12:22:45.
