data_PCOD9164121
_publ_section_title
;
Structure prediction by ZEFSAII (Michael W. Deem and Ramdas Pophale) SiO2 
 PCOD9164121
Probable space group: P 21/M
;
_chemical_formula_sum "Si O2"
_cell_formula_units_Z 24
_cell_length_a 5.318417
_cell_length_b 12.497633
_cell_length_c 15.296921
_cell_angle_alpha 90.000000
_cell_angle_beta 88.951298
_cell_angle_gamma 90.000000
_cell_volume 1016.579684
_symmetry_space_group_name_H-M "P 21/M"
_symmetry_group_IT_number 11
_symmetry_cell_setting 'monoclinic'
loop_
_space_group_symop_operation_xyz
x,y,z
-x,1/2+y,-z
-x,-y,-z
x,1/2-y,z
loop_
_atom_site_type_symbol
_atom_site_label
_atom_site_fract_x
_atom_site_fract_y
_atom_site_fract_z
Si Si1 0.571839 0.047385 0.814103
Si Si2 0.895323 0.632790 0.860432
Si Si3 0.679729 0.750000 0.104127
Si Si4 0.815858 0.250000 0.008152
Si Si5 0.748246 0.428427 0.494575
Si Si6 0.775564 0.075457 0.304813
Si Si7 0.066039 0.862074 0.328598
O O1 0.370693 0.134248 0.849096
O O2 0.760116 0.118671 0.755824
O O3 0.731301 0.972744 0.879236
O O4 0.467194 0.954266 0.750171
O O5 0.762284 0.750000 0.864828
O O6 0.119710 0.649285 0.929200
O O7 0.025194 0.623232 0.764358
O O8 0.960225 0.750000 0.064572
O O9 0.454069 0.750000 0.033808
O O10 0.500000 0.500000 0.500000
O O11 0.743969 0.371516 0.399718
O O12 0.767870 0.364122 0.584583
O O13 0.000000 0.500000 0.500000
O O14 0.874512 0.958423 0.329902
O O15 0.928551 0.750000 0.323478
#
# Coordination Sequence:
#
# PCOD9164121 Si02
#       7
#     4   4   2   2   4   4   4
#     4  11  23  39  71 101 136 182 221 288 344 419
#     4   9  24  46  67  94 134 182 232 282 346 405
#     4  12  28  44  72 107 137 173 229 280 368 418
#     4  10  28  50  68 101 139 175 231 294 338 430
#     4  10  20  39  61  93 133 178 224 267 325 390
#     4  10  22  39  69  93 139 183 225 283 338 402
#     4  10  21  38  61  97 140 177 224 275 335 401
#
# _framework density 23.608574999999998
#
# number of rings (size 3 to 8) (size 9 to 14) (size 15 to 20)
#    0.500    1.333    2.500    0.000    8.167    2.667 
#    0.000    0.000    0.000    0.000    0.000    0.000 
#    0.000    0.000    0.000    0.000    0.000    0.000 
#
# Total GULP energy -133831.489376 kJ/mol
# GULP energy per Si atom -5576.312057 kJ/mol
# Density = 2.355484 g / cm^3
# Si number density = 23.608575 Si / 1000 Ang^3
#
#
#
# Elastic Constant Matrix: (Units=GPa)
#
#
# Indices 1 2 3 4 5 6 
#
# 1 77.0392 12.7942 21.8315 0.0000 2.0737 0.0000
# 2 12.7942 114.9722 19.0762 0.0000 0.2728 0.0000
# 3 21.8315 19.0762 87.0225 0.0000 2.2713 0.0000
# 4 0.0000 0.0000 0.0000 5.1741 0.0000 1.4302
# 5 2.0737 0.2728 2.2713 0.0000 40.7234 0.0000
# 6 0.0000 0.0000 0.0000 1.4302 0.0000 0.4387
#
#
#
# Elastic Compliance Matrix: (Units=1/GPa)
#
#
# Indices 1 2 3 4 5 6 
#
# 1 0.014099 -0.001020 -0.003300 0.000000 -0.000527 0.000000
# 2 -0.001020 0.009100 -0.001741 0.000000 0.000088 0.000000
# 3 -0.003300 -0.001741 0.012715 0.000000 -0.000529 0.000000
# 4 0.000000 0.000000 0.000000 1.957294 0.000000 -6.381639
# 5 -0.000527 0.000088 -0.000529 0.000000 0.024612 0.000000
# 6 0.000000 0.000000 0.000000 -6.381639 0.000000 23.086598
#
#
# Mechanical properties :
#
#
# Convention : Reuss Voigt Hill
#
# Bulk Modulus (GPa) = 42.03175 42.93752 42.48464
# Shear Modulus (GPa) = 0.19901 24.28936 12.24419
#
# Velocity S-wave (km/s) = 0.29065 3.21103 2.27982
# Velocity P-wave (km/s) = 4.23732 5.65459 4.99646
#
# Compressibility (1/GPa) = 0.02379154
#
# Stress axis : x y z
#
# Youngs Moduli (GPa) = 70.92652 109.89046 78.64988
#
# Poissons Ratio (x) = 0.11211 0.25952
# Poissons Ratio (y) = 0.07236 0.13694
# Poissons Ratio (z) = 0.23403 0.19134
#
# Static dielectric constant tensor:
#      x y z
#    x 1.881330 0.000000 0.050050 
#    y 0.000000 1.929960 0.000000 
#    z 0.050050 0.000000 2.020040 
# 
# From -- ./inp_files/56811.got.cif
#   From: 2010.05.17/outbox.cif.g08.bks.cpg/sg11_29_cif.got.tgz:56811.got - 2010.06.03 12:22:45.
