data_PCOD9164553
_publ_section_title
;
Structure prediction by ZEFSAII (Michael W. Deem and Ramdas Pophale) SiO2 
 PCOD9164553
Probable space group: P 21/M
;
_chemical_formula_sum "Si O2"
_cell_formula_units_Z 24
_cell_length_a 19.595670
_cell_length_b 9.517285
_cell_length_c 9.971548
_cell_angle_alpha 90.000000
_cell_angle_beta 128.027284
_cell_angle_gamma 90.000000
_cell_volume 1464.894214
_symmetry_space_group_name_H-M "P 21/M"
_symmetry_group_IT_number 11
_symmetry_cell_setting 'monoclinic'
loop_
_space_group_symop_operation_xyz
x,y,z
-x,1/2+y,-z
-x,-y,-z
x,1/2-y,z
loop_
_atom_site_type_symbol
_atom_site_label
_atom_site_fract_x
_atom_site_fract_y
_atom_site_fract_z
Si Si1 0.220069 0.080427 0.313293
Si Si2 0.949397 0.914194 0.327519
Si Si3 0.770826 0.579250 0.991974
Si Si4 0.415660 0.411325 0.558312
Si Si5 0.419711 0.087716 0.236509
Si Si6 0.054182 0.585054 0.176558
O O1 0.207864 0.250000 0.311260
O O2 0.317954 0.045877 0.477407
O O3 0.146559 0.992112 0.297638
O O4 0.214018 0.045579 0.146689
O O5 0.943878 0.750000 0.359461
O O6 0.852048 0.967196 0.178504
O O7 0.001816 0.921929 0.251702
O O8 0.000000 0.000000 0.500000
O O9 0.768627 0.750000 0.993405
O O10 0.674999 0.530875 0.919065
O O11 0.428018 0.250000 0.613542
O O12 0.495699 0.503366 0.704404
O O13 0.417277 0.414544 0.396913
O O14 0.427141 0.250000 0.204523
O O15 0.062993 0.750000 0.150925
O O16 0.000000 0.500000 0.000000
#
# Coordination Sequence:
#
# PCOD9164553 Si02
#       6
#     4   4   4   4   4   4
#     4   9  16  29  47  67  95 128 158 192 238 287
#     4  10  21  36  51  69  97 129 163 201 242 286
#     4   8  14  28  46  64  91 127 158 191 238 284
#     4   8  14  23  37  60  92 123 148 185 235 278
#     4   8  13  22  39  59  85 122 156 184 224 280
#     4  11  21  33  51  73  97 127 162 202 243 286
#
# _framework density 16.383434999999999
#
# number of rings (size 3 to 8) (size 9 to 14) (size 15 to 20)
#    0.000    3.000    1.667    2.500    0.000    2.000 
#    0.000    3.333    0.000    0.000    0.000    1.167 
#    0.000    0.000    0.000    0.000    0.000    0.000 
#
# Total GULP energy -133603.387368 kJ/mol
# GULP energy per Si atom -5566.807807 kJ/mol
# Density = 1.634615 g / cm^3
# Si number density = 16.383435 Si / 1000 Ang^3
#
#
#
# Elastic Constant Matrix: (Units=GPa)
#
#
# Indices 1 2 3 4 5 6 
#
# 1 81.0753 49.3506 43.8187 0.0000 47.7827 0.0000
# 2 49.3506 60.5546 40.9193 0.0000 23.7827 0.0000
# 3 43.8187 40.9193 81.3730 0.0000 34.7191 0.0000
# 4 0.0000 0.0000 0.0000 22.7519 0.0000 6.3914
# 5 47.7827 23.7827 34.7191 0.0000 36.7111 0.0000
# 6 0.0000 0.0000 0.0000 6.3914 0.0000 28.0701
#
#
#
# Elastic Compliance Matrix: (Units=1/GPa)
#
#
# Indices 1 2 3 4 5 6 
#
# 1 0.105656 -0.052385 0.022873 0.000000 -0.125216 0.000000
# 2 -0.052385 0.052184 -0.021291 0.000000 0.054514 0.000000
# 3 0.022873 -0.021291 0.029332 0.000000 -0.043718 0.000000
# 4 0.000000 0.000000 0.000000 0.046956 0.000000 -0.010692
# 5 -0.125216 0.054514 -0.043718 0.000000 0.196248 0.000000
# 6 0.000000 0.000000 0.000000 -0.010692 0.000000 0.038060
#
#
# Mechanical properties :
#
#
# Convention : Reuss Voigt Hill
#
# Bulk Modulus (GPa) = 11.68711 54.57557 33.13134
# Shear Modulus (GPa) = 8.35330 23.43425 15.89377
#
# Velocity S-wave (km/s) = 2.26046 3.78612 3.11804
# Velocity P-wave (km/s) = 3.73656 7.24546 5.76448
#
# Compressibility (1/GPa) = 0.08556432
#
# Stress axis : x y z
#
# Youngs Moduli (GPa) = 9.46463 19.16281 34.09266
#
# Poissons Ratio (x) = 1.00385 -0.77979
# Poissons Ratio (y) = 0.49581 0.72588
# Poissons Ratio (z) = -0.21648 0.40800
#
# Static dielectric constant tensor:
#      x y z
#    x 1.563920 0.000000 0.034010 
#    y 0.000000 1.546600 0.000000 
#    z 0.034010 0.000000 1.550230 
# 
# From -- ./inp_files/25930.got.cif
#   From: 2010.05.17/outbox.cif.g08.bks.cpg/sg11_13_cif.got.tgz:25930.got - 2010.06.03 12:22:45.
