data_PCOD9164401
_publ_section_title
;
Structure prediction by ZEFSAII (Michael W. Deem and Ramdas Pophale) SiO2 
 PCOD9164401
Probable space group: P 21/M
;
_chemical_formula_sum "Si O2"
_cell_formula_units_Z 28
_cell_length_a 20.075271
_cell_length_b 7.575926
_cell_length_c 17.081794
_cell_angle_alpha 90.000000
_cell_angle_beta 150.196042
_cell_angle_gamma 90.000000
_cell_volume 1291.268735
_symmetry_space_group_name_H-M "P 21/M"
_symmetry_group_IT_number 11
_symmetry_cell_setting 'monoclinic'
loop_
_space_group_symop_operation_xyz
x,y,z
-x,1/2+y,-z
-x,-y,-z
x,1/2-y,z
loop_
_atom_site_type_symbol
_atom_site_label
_atom_site_fract_x
_atom_site_fract_y
_atom_site_fract_z
Si Si1 0.809220 0.036038 0.486250
Si Si2 0.358737 0.537549 0.529255
Si Si3 0.084216 0.462753 0.008417
Si Si4 0.616078 0.965458 0.882765
Si Si5 0.922212 0.533825 0.171934
Si Si6 0.346791 0.447965 0.345019
Si Si7 0.446107 0.961449 0.859335
O O1 0.815362 0.250000 0.486687
O O2 0.733903 0.995599 0.491199
O O3 0.704742 0.973169 0.313646
O O4 0.961992 0.973776 0.650227
O O5 0.357652 0.750000 0.518614
O O6 0.510555 0.482668 0.707138
O O7 0.307766 0.459040 0.396390
O O8 0.087286 0.250000 0.006278
O O9 0.232783 0.537688 0.177433
O O10 0.037893 0.521678 0.875660
O O11 0.000000 0.500000 0.000000
O O12 0.617350 0.750000 0.882838
O O13 0.546948 0.023166 0.893695
O O14 0.769401 0.023544 0.031188
O O15 0.921184 0.750000 0.173317
O O16 0.500000 0.500000 0.500000
O O17 0.347618 0.250000 0.316463
O O18 0.441530 0.750000 0.846225
O O19 0.500000 0.000000 0.000000
#
# Coordination Sequence:
#
# PCOD9164401 Si02
#       7
#     4   4   4   4   4   4   4
#     4   8  15  27  47  70  90 117 154 189 228 279
#     4   9  16  30  49  67  89 121 160 201 240 283
#     4  10  21  34  50  72  98 129 166 206 251 294
#     4   8  15  28  48  70  93 122 158 195 233 278
#     4   9  15  27  47  69  90 118 159 201 231 270
#     4  11  22  33  46  69  98 129 166 208 250 293
#     4   9  17  31  50  73  96 120 149 184 227 279
#
# _framework density 21.684100999999998
#
# number of rings (size 3 to 8) (size 9 to 14) (size 15 to 20)
#    0.000    2.857    0.000    3.857    0.000    4.571 
#    0.000    3.571    0.000    1.714    0.000    0.000 
#    0.000    0.000    0.000    0.000    0.000    0.000 
#
# Total GULP energy -156165.630346 kJ/mol
# GULP energy per Si atom -5577.343941 kJ/mol
# Density = 2.163475 g / cm^3
# Si number density = 21.684101 Si / 1000 Ang^3
#
#
#
# Elastic Constant Matrix: (Units=GPa)
#
#
# Indices 1 2 3 4 5 6 
#
# 1 41.1660 -3.6979 38.3797 0.0000 -2.8891 0.0000
# 2 -3.6979 41.2007 1.9780 0.0000 4.7894 0.0000
# 3 38.3797 1.9780 179.3585 0.0000 4.0004 0.0000
# 4 0.0000 0.0000 0.0000 7.4549 0.0000 -6.7575
# 5 -2.8891 4.7894 4.0004 0.0000 35.4615 0.0000
# 6 0.0000 0.0000 0.0000 -6.7575 0.0000 16.4305
#
#
#
# Elastic Compliance Matrix: (Units=1/GPa)
#
#
# Indices 1 2 3 4 5 6 
#
# 1 0.031023 0.002769 -0.006734 0.000000 0.002913 0.000000
# 2 0.002769 0.024913 -0.000799 0.000000 -0.003049 0.000000
# 3 -0.006734 -0.000799 0.007053 0.000000 -0.001236 0.000000
# 4 0.000000 0.000000 0.000000 0.213869 0.000000 0.087959
# 5 0.002913 -0.003049 -0.001236 0.000000 0.028988 0.000000
# 6 0.000000 0.000000 0.000000 0.087959 0.000000 0.097038
#
#
# Mechanical properties :
#
#
# Convention : Reuss Voigt Hill
#
# Bulk Modulus (GPa) = 18.70543 37.22721 27.96632
# Shear Modulus (GPa) = 11.62162 26.87374 19.24768
#
# Velocity S-wave (km/s) = 2.31757 3.52423 2.98256
# Velocity P-wave (km/s) = 3.97575 5.81081 4.97856
#
# Compressibility (1/GPa) = 0.05346042
#
# Stress axis : x y z
#
# Youngs Moduli (GPa) = 32.23390 40.14006 141.78831
#
# Poissons Ratio (x) = -0.11115 0.95480
# Poissons Ratio (y) = -0.08926 0.11333
# Poissons Ratio (z) = 0.21706 0.03208
#
# Static dielectric constant tensor:
#      x y z
#    x 1.780810 0.000000 0.022240 
#    y 0.000000 1.836140 0.000000 
#    z 0.022240 0.000000 1.881860 
# 
# From -- ./inp_files/61300.got.cif
#   From: 2010.05.17/outbox.cif.g08.bks.cpg/sg11_31_cif.got.tgz:61300.got - 2010.06.03 12:22:45.
