data_PCOD9164782
_publ_section_title
;
Structure prediction by ZEFSAII (Michael W. Deem and Ramdas Pophale) SiO2 
 PCOD9164782
Probable space group: P 21/M
;
_chemical_formula_sum "Si O2"
_cell_formula_units_Z 32
_cell_length_a 16.131964
_cell_length_b 8.929459
_cell_length_c 26.011274
_cell_angle_alpha 90.000000
_cell_angle_beta 150.255338
_cell_angle_gamma 90.000000
_cell_volume 1858.978726
_symmetry_space_group_name_H-M "P 21/M"
_symmetry_group_IT_number 11
_symmetry_cell_setting 'monoclinic'
loop_
_space_group_symop_operation_xyz
x,y,z
-x,1/2+y,-z
-x,-y,-z
x,1/2-y,z
loop_
_atom_site_type_symbol
_atom_site_label
_atom_site_fract_x
_atom_site_fract_y
_atom_site_fract_z
Si Si1 0.848826 0.429061 0.949609
Si Si2 0.239856 0.929596 0.982858
Si Si3 0.408345 0.571408 0.802782
Si Si4 0.348354 0.930237 0.449451
Si Si5 0.028946 0.429775 0.778145
Si Si6 0.107300 0.428658 0.702433
Si Si7 0.723458 0.429775 0.472656
Si Si8 0.468861 0.429595 0.725860
O O1 0.863478 0.250000 0.954493
O O2 0.665793 0.470308 0.829167
O O3 0.844085 0.470308 0.007459
O O4 0.000000 0.500000 0.000000
O O5 0.258387 0.750000 0.991539
O O6 0.129935 0.987236 0.876638
O O7 0.422439 0.004214 0.081569
O O8 0.418460 0.750000 0.806153
O O9 0.249645 0.518199 0.749882
O O10 0.399829 0.504214 0.740699
O O11 0.358158 0.750000 0.452720
O O12 0.346907 0.972440 0.508970
O O13 0.166904 0.972440 0.328967
O O14 0.500000 0.000000 0.500000
O O15 0.038562 0.250000 0.790942
O O16 0.100760 0.461325 0.759879
O O17 0.135847 0.250000 0.711949
O O18 0.921882 0.461326 0.581001
O O19 0.704296 0.250000 0.456677
O O20 0.629955 0.512764 0.376658
O O21 0.457843 0.250000 0.724691
#
# Coordination Sequence:
#
# PCOD9164782 Si02
#       8
#     4   4   4   4   4   4   4   4
#     4   9  20  36  53  75 103 136 172 212 259 307
#     4  10  21  37  55  78 108 139 174 217 263 311
#     4  11  22  36  56  80 105 137 176 215 261 316
#     4   9  19  35  54  78 109 142 178 220 263 310
#     4   9  19  36  56  78 105 140 179 217 261 311
#     4   9  19  37  57  77 106 139 174 219 262 305
#     4   9  19  36  56  78 105 140 179 217 261 311
#     4  10  21  37  55  78 108 139 174 217 263 311
#
# _framework density 17.213753000000001
#
# number of rings (size 3 to 8) (size 9 to 14) (size 15 to 20)
#    0.000    2.500    0.000    4.125    0.000    7.000 
#    0.000    7.500    0.000    0.000    0.000    0.000 
#    0.000    0.000    0.000    0.000    0.000    0.000 
#
# Total GULP energy -178568.812115 kJ/mol
# GULP energy per Si atom -5580.275379 kJ/mol
# Density = 1.717457 g / cm^3
# Si number density = 17.213753 Si / 1000 Ang^3
#
#
#
# Elastic Constant Matrix: (Units=GPa)
#
#
# Indices 1 2 3 4 5 6 
#
# 1 143.5776 75.8005 109.4363 0.0000 16.2946 0.0000
# 2 75.8005 71.5901 75.7387 0.0000 0.0399 0.0000
# 3 109.4363 75.7387 149.2686 0.0000 -19.9502 0.0000
# 4 0.0000 0.0000 0.0000 33.9156 0.0000 1.0099
# 5 16.2946 0.0399 -19.9502 0.0000 27.6671 0.0000
# 6 0.0000 0.0000 0.0000 1.0099 0.0000 35.4880
#
#
#
# Elastic Compliance Matrix: (Units=1/GPa)
#
#
# Indices 1 2 3 4 5 6 
#
# 1 0.043372 -0.011509 -0.032502 0.000000 -0.048964 0.000000
# 2 -0.011509 0.037502 -0.010725 0.000000 -0.001010 0.000000
# 3 -0.032502 -0.010725 0.042640 0.000000 0.049905 0.000000
# 4 0.000000 0.000000 0.000000 0.029510 0.000000 -0.000840
# 5 -0.048964 -0.001010 0.049905 0.000000 0.100969 0.000000
# 6 0.000000 0.000000 0.000000 -0.000840 0.000000 0.028202
#
#
# Mechanical properties :
#
#
# Convention : Reuss Voigt Hill
#
# Bulk Modulus (GPa) = 71.22446 98.48748 84.85597
# Shear Modulus (GPa) = 12.61513 26.31153 19.46333
#
# Velocity S-wave (km/s) = 2.71006 3.91387 3.36621
# Velocity P-wave (km/s) = 7.15953 8.81834 8.03187
#
# Compressibility (1/GPa) = 0.01404012
#
# Stress axis : x y z
#
# Youngs Moduli (GPa) = 23.05654 26.66516 23.45192
#
# Poissons Ratio (x) = 0.30690 0.76224
# Poissons Ratio (y) = 0.26536 0.25153
# Poissons Ratio (z) = 0.74939 0.28600
#
# Static dielectric constant tensor:
#      x y z
#    x 1.562550 0.000000 -0.000270 
#    y 0.000000 1.573520 0.000000 
#    z -0.000270 0.000000 1.562970 
# 
# From -- ./inp_files/51636.got.cif
#   From: 2010.05.17/outbox.cif.g08.bks.cpg/sg11_26_cif.got.tgz:51636.got - 2010.06.03 12:22:45.
