data_PCOD9164921
_publ_section_title
;
Structure prediction by ZEFSAII (Michael W. Deem and Ramdas Pophale) SiO2 
 PCOD9164921
Probable space group: P 21/M
;
_chemical_formula_sum "Si O2"
_cell_formula_units_Z 28
_cell_length_a 8.079856
_cell_length_b 18.957248
_cell_length_c 14.396665
_cell_angle_alpha 90.000000
_cell_angle_beta 143.080613
_cell_angle_gamma 90.000000
_cell_volume 1324.621427
_symmetry_space_group_name_H-M "P 21/M"
_symmetry_group_IT_number 11
_symmetry_cell_setting 'monoclinic'
loop_
_space_group_symop_operation_xyz
x,y,z
-x,1/2+y,-z
-x,-y,-z
x,1/2-y,z
loop_
_atom_site_type_symbol
_atom_site_label
_atom_site_fract_x
_atom_site_fract_y
_atom_site_fract_z
Si Si1 0.375255 0.562457 0.212998
Si Si2 0.067162 0.062534 0.651606
Si Si3 0.806400 0.591333 0.903761
Si Si4 0.720439 0.329450 0.374755
Si Si5 0.614681 0.577917 0.030369
Si Si6 0.323953 0.059466 0.473206
Si Si7 0.095566 0.831464 0.759507
O O1 0.640516 0.556355 0.267481
O O2 0.257623 0.483135 0.174934
O O3 0.484527 0.590925 0.359946
O O4 0.131548 0.604412 0.053044
O O5 0.138739 0.089587 0.786683
O O6 0.874802 0.115056 0.508673
O O7 0.922680 0.986597 0.591988
O O8 0.600767 0.649945 0.774037
O O9 0.723081 0.580511 0.974271
O O10 0.760400 0.250000 0.425880
O O11 0.839904 0.333668 0.323032
O O12 0.500000 0.500000 0.000000
O O13 0.362410 0.632517 0.925668
O O14 0.172908 0.119691 0.346535
O O15 0.500000 0.000000 0.500000
O O16 0.060230 0.750000 0.770143
#
# Coordination Sequence:
#
# PCOD9164921 Si02
#       7
#     4   4   4   4   4   4   4
#     4  11  21  35  64  93 124 156 212 267 304 374
#     4  12  21  38  64  93 124 163 218 265 309 373
#     4  10  21  37  58  93 123 160 206 254 316 374
#     4  10  21  41  64  88 126 170 209 261 324 382
#     4  11  20  35  62  93 125 160 209 259 311 372
#     4  12  23  37  65  97 127 163 218 270 317 373
#     4  10  22  40  63  91 128 169 207 260 332 388
#
# _framework density 21.138114999999999
#
# number of rings (size 3 to 8) (size 9 to 14) (size 15 to 20)
#    0.000    1.143    5.714    2.143    0.000    0.571 
#    0.000    2.143    0.000    1.714    0.000    0.000 
#    0.000    0.000    0.000    0.000    0.000    0.000 
#
# Total GULP energy -156604.324305 kJ/mol
# GULP energy per Si atom -5593.011582 kJ/mol
# Density = 2.109000 g / cm^3
# Si number density = 21.138115 Si / 1000 Ang^3
#
#
#
# Elastic Constant Matrix: (Units=GPa)
#
#
# Indices 1 2 3 4 5 6 
#
# 1 51.7075 12.5506 20.5381 0.0000 19.2403 0.0000
# 2 12.5506 118.9646 39.4386 0.0000 12.0441 0.0000
# 3 20.5381 39.4386 131.0238 0.0000 12.6772 0.0000
# 4 0.0000 0.0000 0.0000 27.0942 0.0000 3.9054
# 5 19.2403 12.0441 12.6772 0.0000 40.2328 0.0000
# 6 0.0000 0.0000 0.0000 3.9054 0.0000 16.9105
#
#
#
# Elastic Compliance Matrix: (Units=1/GPa)
#
#
# Indices 1 2 3 4 5 6 
#
# 1 0.024518 -0.000635 -0.002616 0.000000 -0.010711 0.000000
# 2 -0.000635 0.009508 -0.002595 0.000000 -0.001725 0.000000
# 3 -0.002616 -0.002595 0.008899 0.000000 -0.000776 0.000000
# 4 0.000000 0.000000 0.000000 0.038179 0.000000 -0.008817
# 5 -0.010711 -0.001725 -0.000776 0.000000 0.030738 0.000000
# 6 0.000000 0.000000 0.000000 -0.008817 0.000000 0.061171
#
#
# Mechanical properties :
#
#
# Convention : Reuss Voigt Hill
#
# Bulk Modulus (GPa) = 32.01849 49.63895 40.82872
# Shear Modulus (GPa) = 25.62567 32.12539 28.87553
#
# Velocity S-wave (km/s) = 3.48558 3.90267 3.70001
# Velocity P-wave (km/s) = 5.60171 6.62132 6.13275
#
# Compressibility (1/GPa) = 0.03123196
#
# Stress axis : x y z
#
# Youngs Moduli (GPa) = 40.78610 105.17546 112.37778
#
# Poissons Ratio (x) = 0.06680 0.29395
# Poissons Ratio (y) = 0.02590 0.29168
# Poissons Ratio (z) = 0.10669 0.27298
#
# Static dielectric constant tensor:
#      x y z
#    x 1.830560 0.000000 -0.006380 
#    y 0.000000 1.730330 0.000000 
#    z -0.006380 0.000000 1.779830 
# 
# From -- ./inp_files/48309.got.cif
#   From: 2010.05.17/outbox.cif.g08.bks.cpg/sg11_25_cif.got.tgz:48309.got - 2010.06.03 12:22:45.
