data_PCOD9164527
_publ_section_title
;
Structure prediction by ZEFSAII (Michael W. Deem and Ramdas Pophale) SiO2 
 PCOD9164527
Probable space group: P 21/M
;
_chemical_formula_sum "Si O2"
_cell_formula_units_Z 24
_cell_length_a 5.347413
_cell_length_b 13.954205
_cell_length_c 14.774935
_cell_angle_alpha 90.000000
_cell_angle_beta 79.015892
_cell_angle_gamma 90.000000
_cell_volume 1082.291828
_symmetry_space_group_name_H-M "P 21/M"
_symmetry_group_IT_number 11
_symmetry_cell_setting 'monoclinic'
loop_
_space_group_symop_operation_xyz
x,y,z
-x,1/2+y,-z
-x,-y,-z
x,1/2-y,z
loop_
_atom_site_type_symbol
_atom_site_label
_atom_site_fract_x
_atom_site_fract_y
_atom_site_fract_z
Si Si1 0.197573 0.854396 0.803109
Si Si2 0.222188 0.501260 0.123195
Si Si3 0.476329 0.138420 0.561788
Si Si4 0.412055 0.476089 0.304253
Si Si5 0.037008 0.361468 0.442053
Si Si6 0.428094 0.645672 0.987776
O O1 0.076325 0.750000 0.792545
O O2 0.612287 0.012320 0.797243
O O3 0.409804 0.881866 0.715243
O O4 0.320234 0.847086 0.894032
O O5 0.978483 0.446640 0.176228
O O6 0.338395 0.426763 0.041683
O O7 0.222358 0.600038 0.069439
O O8 0.478627 0.250000 0.592806
O O9 0.232560 0.126890 0.513297
O O10 0.744940 0.122541 0.490886
O O11 0.479579 0.059835 0.640560
O O12 0.145787 0.436083 0.361781
O O13 0.058468 0.250000 0.411397
O O14 0.511648 0.750000 0.012613
#
# Coordination Sequence:
#
# PCOD9164527 Si02
#       6
#     4   4   4   4   4   4
#     4  10  21  36  57  85 117 151 195 246 300 357
#     4  10  21  35  58  86 114 153 193 246 297 364
#     4  10  23  41  62  87 123 165 206 248 300 363
#     4  11  23  36  58  88 119 150 198 249 304 354
#     4  10  22  40  62  88 119 164 208 248 301 362
#     4   9  19  38  57  81 115 153 195 239 295 362
#
# _framework density 22.175166000000001
#
# number of rings (size 3 to 8) (size 9 to 14) (size 15 to 20)
#    0.000    2.000    0.000    2.500    4.667    2.667 
#    0.000    0.833    0.000    0.000    0.000    0.000 
#    0.000    0.000    0.000    0.000    0.000    0.000 
#
# Total GULP energy -134013.395534 kJ/mol
# GULP energy per Si atom -5583.891481 kJ/mol
# Density = 2.212469 g / cm^3
# Si number density = 22.175166 Si / 1000 Ang^3
#
#
#
# Elastic Constant Matrix: (Units=GPa)
#
#
# Indices 1 2 3 4 5 6 
#
# 1 50.6280 -12.8223 3.7364 0.0000 -8.3611 0.0000
# 2 -12.8223 90.8622 46.9171 0.0000 -0.7195 0.0000
# 3 3.7364 46.9171 72.3968 0.0000 -6.6966 0.0000
# 4 0.0000 0.0000 0.0000 0.2400 0.0000 1.2768
# 5 -8.3611 -0.7195 -6.6966 0.0000 12.7928 0.0000
# 6 0.0000 0.0000 0.0000 1.2768 0.0000 18.4453
#
#
#
# Elastic Compliance Matrix: (Units=1/GPa)
#
#
# Indices 1 2 3 4 5 6 
#
# 1 0.023600 0.005111 -0.003233 0.000000 0.014019 0.000000
# 2 0.005111 0.017947 -0.012077 0.000000 -0.001972 0.000000
# 3 -0.003233 -0.012077 0.022644 0.000000 0.009061 0.000000
# 4 0.000000 0.000000 0.000000 6.594641 0.000000 -0.456491
# 5 0.014019 -0.001972 0.009061 0.000000 0.091964 0.000000
# 6 0.000000 0.000000 0.000000 -0.456491 0.000000 0.085813
#
#
# Mechanical properties :
#
#
# Convention : Reuss Voigt Hill
#
# Bulk Modulus (GPa) = 22.83468 32.17214 27.50341
# Shear Modulus (GPa) = 0.72763 18.03269 9.38016
#
# Velocity S-wave (km/s) = 0.57345 2.85475 2.05893
# Velocity P-wave (km/s) = 3.27997 5.04042 4.25229
#
# Compressibility (1/GPa) = 0.04379305
#
# Stress axis : x y z
#
# Youngs Moduli (GPa) = 42.37242 55.71847 44.16112
#
# Poissons Ratio (x) = -0.28478 0.14279
# Poissons Ratio (y) = -0.21657 0.53334
# Poissons Ratio (z) = 0.13701 0.67292
#
# Static dielectric constant tensor:
#      x y z
#    x 1.897010 0.000000 -0.009500 
#    y 0.000000 1.880940 0.000000 
#    z -0.009500 0.000000 1.807680 
# 
# From -- ./inp_files/45726.got.cif
#   From: 2010.05.17/outbox.cif.g08.bks.cpg/sg11_23_cif.got.tgz:45726.got - 2010.06.03 12:22:45.
