data_PCOD9164005
_publ_section_title
;
Structure prediction by ZEFSAII (Michael W. Deem and Ramdas Pophale) SiO2 
 PCOD9164005
Probable space group: P 21/M
;
_chemical_formula_sum "Si O2"
_cell_formula_units_Z 20
_cell_length_a 13.601474
_cell_length_b 10.789698
_cell_length_c 16.072631
_cell_angle_alpha 90.000000
_cell_angle_beta 153.150206
_cell_angle_gamma 90.000000
_cell_volume 1065.337523
_symmetry_space_group_name_H-M "P 21/M"
_symmetry_group_IT_number 11
_symmetry_cell_setting 'monoclinic'
loop_
_space_group_symop_operation_xyz
x,y,z
-x,1/2+y,-z
-x,-y,-z
x,1/2-y,z
loop_
_atom_site_type_symbol
_atom_site_label
_atom_site_fract_x
_atom_site_fract_y
_atom_site_fract_z
Si Si1 0.621543 0.895689 0.386921
Si Si2 0.740570 0.509976 0.297021
Si Si3 0.348598 0.118416 0.941518
Si Si4 0.142562 0.605292 0.063667
Si Si5 0.083576 0.891710 0.820754
O O1 0.602963 0.750000 0.353575
O O2 0.650863 0.961182 0.320589
O O3 0.398387 0.928167 0.264755
O O4 0.837685 0.913486 0.604041
O O5 0.686110 0.608780 0.183694
O O6 0.000000 0.500000 0.500000
O O7 0.601897 0.394415 0.157480
O O8 0.261456 0.250000 0.906175
O O9 0.229059 0.999550 0.890586
O O10 0.107646 0.750000 0.064573
O O11 0.097422 0.602260 0.930615
O O12 0.000000 0.500000 0.000000
O O13 0.146083 0.750000 0.843243
#
# Coordination Sequence:
#
# PCOD9164005 Si02
#       5
#     4   4   4   4   4
#     4  10  20  38  63  87 117 161 207 242 289 364
#     4  11  22  39  58  87 127 172 201 242 295 362
#     4  11  24  37  58  94 128 160 204 255 298 347
#     4  10  22  41  64  88 116 153 200 252 308 362
#     4  10  21  40  64  88 118 161 203 243 298 367
#
# _framework density 18.773392999999999
#
# number of rings (size 3 to 8) (size 9 to 14) (size 15 to 20)
#    0.000    1.600    4.000    0.600    0.000    6.400 
#    0.000    1.000    0.000    0.000    0.000    0.000 
#    0.000    0.000    0.000    0.000    0.000    0.000 
#
# Total GULP energy -111528.359261 kJ/mol
# GULP energy per Si atom -5576.417963 kJ/mol
# Density = 1.873066 g / cm^3
# Si number density = 18.773393 Si / 1000 Ang^3
#
#
#
# Elastic Constant Matrix: (Units=GPa)
#
#
# Indices 1 2 3 4 5 6 
#
# 1 55.0407 55.0021 24.7631 0.0000 19.0896 0.0000
# 2 55.0021 133.7804 49.7360 0.0000 22.7807 0.0000
# 3 24.7631 49.7360 131.9567 0.0000 11.5091 0.0000
# 4 0.0000 0.0000 0.0000 12.3175 0.0000 11.0049
# 5 19.0896 22.7807 11.5091 0.0000 29.1434 0.0000
# 6 0.0000 0.0000 0.0000 11.0049 0.0000 26.3077
#
#
#
# Elastic Compliance Matrix: (Units=1/GPa)
#
#
# Indices 1 2 3 4 5 6 
#
# 1 0.034968 -0.011743 -0.000972 0.000000 -0.013341 0.000000
# 2 -0.011743 0.013658 -0.002779 0.000000 -0.001886 0.000000
# 3 -0.000972 -0.002779 0.008869 0.000000 -0.000693 0.000000
# 4 0.000000 0.000000 0.000000 0.129635 0.000000 -0.054228
# 5 -0.013341 -0.001886 -0.000693 0.000000 0.044800 0.000000
# 6 0.000000 0.000000 0.000000 -0.054228 0.000000 0.060696
#
#
# Mechanical properties :
#
#
# Convention : Reuss Voigt Hill
#
# Bulk Modulus (GPa) = 37.72993 64.42002 51.07497
# Shear Modulus (GPa) = 15.03986 26.30550 20.67268
#
# Velocity S-wave (km/s) = 2.83349 3.74734 3.32199
# Velocity P-wave (km/s) = 5.55392 7.28783 6.47914
#
# Compressibility (1/GPa) = 0.02650416
#
# Stress axis : x y z
#
# Youngs Moduli (GPa) = 28.59753 73.21972 112.75563
#
# Poissons Ratio (x) = 0.85984 0.10963
# Poissons Ratio (y) = 0.33583 0.31339
# Poissons Ratio (z) = 0.02781 0.20351
#
# Static dielectric constant tensor:
#      x y z
#    x 1.638760 0.000000 0.022590 
#    y 0.000000 1.688640 0.000000 
#    z 0.022590 0.000000 1.684840 
# 
# From -- ./inp_files/39119.got.cif
#   From: 2010.05.17/outbox.cif.g08.bks.cpg/sg11_20_cif.got.tgz:39119.got - 2010.06.03 12:22:45.
