data_PCOD9164042
_publ_section_title
;
Structure prediction by ZEFSAII (Michael W. Deem and Ramdas Pophale) SiO2 
 PCOD9164042
Probable space group: P 21/M
;
_chemical_formula_sum "Si O2"
_cell_formula_units_Z 20
_cell_length_a 10.309324
_cell_length_b 16.236543
_cell_length_c 4.980916
_cell_angle_alpha 90.000000
_cell_angle_beta 97.539062
_cell_angle_gamma 90.000000
_cell_volume 826.537299
_symmetry_space_group_name_H-M "P 21/M"
_symmetry_group_IT_number 11
_symmetry_cell_setting 'monoclinic'
loop_
_space_group_symop_operation_xyz
x,y,z
-x,1/2+y,-z
-x,-y,-z
x,1/2-y,z
loop_
_atom_site_type_symbol
_atom_site_label
_atom_site_fract_x
_atom_site_fract_y
_atom_site_fract_z
Si Si1 0.228359 0.342895 0.523055
Si Si2 0.202327 0.840164 0.527440
Si Si3 0.338754 0.898709 0.082095
Si Si4 0.121817 0.499687 0.230423
Si Si5 0.597596 0.655859 0.928679
O O1 0.176436 0.250000 0.466687
O O2 0.137521 0.416568 0.400866
O O3 0.277471 0.350855 0.840165
O O4 0.354934 0.351045 0.362842
O O5 0.144670 0.750000 0.467340
O O6 0.249192 0.851037 0.842477
O O7 0.117708 0.918548 0.414270
O O8 0.327584 0.851816 0.362969
O O9 0.259863 0.983254 0.112055
O O10 0.481922 0.902144 0.999323
O O11 0.000000 0.500000 0.000000
O O12 0.547327 0.750000 0.953102
#
# Coordination Sequence:
#
# PCOD9164042 Si02
#       5
#     4   4   4   4   4
#     4  10  23  41  63  91 127 168 204 254 319 373
#     4  10  21  39  62  94 124 158 206 257 311 362
#     4  10  22  38  67  91 127 159 202 255 319 364
#     4  10  26  44  64  90 131 164 218 258 304 363
#     4  10  20  38  64  93 127 160 204 258 312 378
#
# _framework density 24.197337999999998
#
# number of rings (size 3 to 8) (size 9 to 14) (size 15 to 20)
#    1.200    0.800    0.000    3.000    2.800    4.800 
#    0.000    0.000    0.000    0.000    0.000    0.000 
#    0.000    0.000    0.000    0.000    0.000    0.000 
#
# Total GULP energy -111765.882879 kJ/mol
# GULP energy per Si atom -5588.294144 kJ/mol
# Density = 2.414226 g / cm^3
# Si number density = 24.197338 Si / 1000 Ang^3
#
#
#
# Elastic Constant Matrix: (Units=GPa)
#
#
# Indices 1 2 3 4 5 6 
#
# 1 76.3866 21.9099 -8.7374 0.0000 -3.8888 0.0000
# 2 21.9099 191.6331 18.9893 0.0000 20.9048 0.0000
# 3 -8.7374 18.9893 64.4565 0.0000 -2.3651 0.0000
# 4 0.0000 0.0000 0.0000 21.6134 0.0000 71.0680
# 5 -3.8888 20.9048 -2.3651 0.0000 43.9601 0.0000
# 6 0.0000 0.0000 0.0000 71.0680 0.0000 -456.8020
#
#
#
# Elastic Compliance Matrix: (Units=1/GPa)
#
#
# Indices 1 2 3 4 5 6 
#
# 1 0.014129 -0.002139 0.002634 0.000000 0.002409 0.000000
# 2 -0.002139 0.006025 -0.002181 0.000000 -0.003172 0.000000
# 3 0.002634 -0.002181 0.016593 0.000000 0.002163 0.000000
# 4 0.000000 0.000000 0.000000 0.030609 0.000000 0.004762
# 5 0.002409 -0.003172 0.002163 0.000000 0.024586 0.000000
# 6 0.000000 0.000000 0.000000 0.004762 0.000000 -0.001448
#
#
# Mechanical properties :
#
#
# Convention : Reuss Voigt Hill
#
# Bulk Modulus (GPa) = 29.96365 44.08888 37.02626
# Shear Modulus (GPa) = 47.62281 -58.22475 -5.30097
#
# Velocity S-wave (km/s) = 4.44114 -4.91067 -1.48172
# Velocity P-wave (km/s) = 6.22159 3.72731 3.52246
#
# Compressibility (1/GPa) = 0.03337378
#
# Stress axis : x y z
#
# Youngs Moduli (GPa) = 70.77763 165.97434 60.26503
#
# Poissons Ratio (x) = 0.35504 -0.15873
# Poissons Ratio (y) = 0.15140 0.13146
# Poissons Ratio (z) = -0.18641 0.36205
#
# Static dielectric constant tensor:
#      x y z
#    x 1.967230 0.000000 -0.052260 
#    y 0.000000 1.984240 0.000000 
#    z -0.052260 0.000000 1.840860 
# 
# From -- ./inp_files/4455.got.cif
#   From: 2010.05.17/outbox.cif.g08.bks.cpg/sg11_3_cif.got.tgz:4455.got - 2010.06.03 12:22:45.
