data_PCOD9164093
_publ_section_title
;
Structure prediction by ZEFSAII (Michael W. Deem and Ramdas Pophale) SiO2 
 PCOD9164093
Probable space group: P 21/M
;
_chemical_formula_sum "Si O2"
_cell_formula_units_Z 16
_cell_length_a 5.162888
_cell_length_b 14.758268
_cell_length_c 9.623844
_cell_angle_alpha 90.000000
_cell_angle_beta 103.416396
_cell_angle_gamma 90.000000
_cell_volume 713.279656
_symmetry_space_group_name_H-M "P 21/M"
_symmetry_group_IT_number 11
_symmetry_cell_setting 'monoclinic'
loop_
_space_group_symop_operation_xyz
x,y,z
-x,1/2+y,-z
-x,-y,-z
x,1/2-y,z
loop_
_atom_site_type_symbol
_atom_site_label
_atom_site_fract_x
_atom_site_fract_y
_atom_site_fract_z
Si Si1 0.802787 0.250000 0.631616
Si Si2 0.506808 0.349967 0.123007
Si Si3 0.025604 0.460518 0.155535
Si Si4 0.391007 0.250000 0.836426
Si Si5 0.224769 0.948677 0.440759
O O1 0.760859 0.341253 0.537534
O O2 0.599916 0.250000 0.737036
O O3 0.099753 0.250000 0.733343
O O4 0.593881 0.250000 0.179778
O O5 0.435478 0.333954 0.949776
O O6 0.245653 0.381601 0.171044
O O7 0.136461 0.536222 0.271142
O O8 0.000000 0.500000 0.500000
O O9 0.743329 0.420877 0.167544
O O10 0.000000 0.500000 0.000000
O O11 0.500000 0.000000 0.500000
#
# Coordination Sequence:
#
# PCOD9164093 Si02
#       5
#     2   4   4   2   4
#     4  12  24  48  71  96 141 198 232 288 346 442
#     4  10  22  38  63 108 141 176 220 291 348 404
#     4  12  23  43  72 105 140 177 237 292 347 417
#     4  10  20  38  71 106 143 182 240 276 360 422
#     4  12  28  50  71 106 142 191 239 289 358 428
#
# _framework density 22.431595999999999
#
# number of rings (size 3 to 8) (size 9 to 14) (size 15 to 20)
#    0.750    0.000    0.000    9.000    0.000    0.000 
#   13.500    0.000    0.000    0.000    0.000    0.000 
#    0.000    0.000    0.000    0.000    0.000    0.000 
#
# Total GULP energy -89551.648478 kJ/mol
# GULP energy per Si atom -5596.978030 kJ/mol
# Density = 2.238054 g / cm^3
# Si number density = 22.431596 Si / 1000 Ang^3
#
#
#
# Elastic Constant Matrix: (Units=GPa)
#
#
# Indices 1 2 3 4 5 6 
#
# 1 158.4317 33.1200 12.7117 0.0000 2.9237 0.0000
# 2 33.1200 147.2704 24.1606 0.0000 12.4941 0.0000
# 3 12.7117 24.1606 64.2560 0.0000 3.2920 0.0000
# 4 0.0000 0.0000 0.0000 43.1172 0.0000 2.0028
# 5 2.9237 12.4941 3.2920 0.0000 39.9423 0.0000
# 6 0.0000 0.0000 0.0000 2.0028 0.0000 30.1773
#
#
#
# Elastic Compliance Matrix: (Units=1/GPa)
#
#
# Indices 1 2 3 4 5 6 
#
# 1 0.006662 -0.001367 -0.000804 0.000000 0.000006 0.000000
# 2 -0.001367 0.007688 -0.002513 0.000000 -0.002098 0.000000
# 3 -0.000804 -0.002513 0.016694 0.000000 -0.000531 0.000000
# 4 0.000000 0.000000 0.000000 0.023264 0.000000 -0.001544
# 5 0.000006 -0.002098 -0.000531 0.000000 0.025736 0.000000
# 6 0.000000 0.000000 0.000000 -0.001544 0.000000 0.033240
#
#
# Mechanical properties :
#
#
# Convention : Reuss Voigt Hill
#
# Bulk Modulus (GPa) = 46.13425 56.66028 51.39726
# Shear Modulus (GPa) = 38.49806 42.64509 40.57157
#
# Velocity S-wave (km/s) = 4.14725 4.36491 4.25747
# Velocity P-wave (km/s) = 6.59880 7.12160 6.86518
#
# Compressibility (1/GPa) = 0.02167587
#
# Stress axis : x y z
#
# Youngs Moduli (GPa) = 150.10470 130.07608 59.90213
#
# Poissons Ratio (x) = 0.17779 0.04818
# Poissons Ratio (y) = 0.20516 0.15052
# Poissons Ratio (z) = 0.12073 0.32685
#
# Static dielectric constant tensor:
#      x y z
#    x 1.791080 0.000000 -0.001510 
#    y 0.000000 0.783970 0.000000 
#    z -0.001510 0.000000 1.854550 
# 
# From -- ./inp_files/488.got.cif
#   From: 2010.05.17/outbox.cif.g08.bks.cpg/sg11_1_cif.got.tgz:488.got - 2010.06.03 12:22:45.
