data_PCOD9164869
_publ_section_title
;
Structure prediction by ZEFSAII (Michael W. Deem and Ramdas Pophale) SiO2 
 PCOD9164869
Probable space group: P 21/M
;
_chemical_formula_sum "Si O2"
_cell_formula_units_Z 32
_cell_length_a 18.762366
_cell_length_b 11.524892
_cell_length_c 17.635706
_cell_angle_alpha 90.000000
_cell_angle_beta 22.619096
_cell_angle_gamma 90.000000
_cell_volume 1466.661802
_symmetry_space_group_name_H-M "P 21/M"
_symmetry_group_IT_number 11
_symmetry_cell_setting 'monoclinic'
loop_
_space_group_symop_operation_xyz
x,y,z
-x,1/2+y,-z
-x,-y,-z
x,1/2-y,z
loop_
_atom_site_type_symbol
_atom_site_label
_atom_site_fract_x
_atom_site_fract_y
_atom_site_fract_z
Si Si1 0.199345 0.003388 0.342864
Si Si2 0.451935 0.122733 0.977394
Si Si3 0.358307 0.121193 0.451868
Si Si4 0.909584 0.381794 0.119749
Si Si5 0.673868 0.047510 0.032267
Si Si6 0.069812 0.124405 0.612137
Si Si7 0.557396 0.116787 0.541531
Si Si8 0.820514 0.877575 0.017373
O O1 0.157195 0.030305 0.471396
O O2 0.335126 0.893453 0.206559
O O3 0.321508 0.097546 0.177460
O O4 0.000000 0.000000 0.500000
O O5 0.418053 0.250000 0.980153
O O6 0.406068 0.029283 0.957571
O O7 0.374852 0.250000 0.472769
O O8 0.510558 0.115623 0.234738
O O9 0.158096 0.114560 0.608531
O O10 0.389768 0.002707 0.467199
O O11 0.959827 0.250000 0.041480
O O12 0.686025 0.388277 0.340743
O O13 0.982848 0.384832 0.134761
O O14 0.000000 0.500000 0.000000
O O15 0.766240 0.967819 0.006997
O O16 0.849074 0.117456 0.829658
O O17 0.126869 0.250000 0.525634
O O18 0.598396 0.250000 0.532010
O O19 0.334408 0.114344 0.763405
O O20 0.804316 0.750000 0.998743
#
# Coordination Sequence:
#
# PCOD9164869 Si02
#       8
#     4   4   4   4   4   4   4   4
#     4  11  23  44  57  82 116 151 201 246 304 369
#     4  11  24  40  62  87 115 150 200 257 308 364
#     4  10  21  37  57  86 119 154 197 245 297 355
#     4  10  21  38  59  88 121 157 196 235 285 340
#     4  11  20  38  60  87 118 148 198 245 302 356
#     4  11  22  37  57  80 113 155 194 241 300 363
#     4   9  19  37  60  85 117 155 194 238 289 345
#     4   9  19  36  59  84 117 155 192 238 290 344
#
# _framework density 21.818255000000001
#
# number of rings (size 3 to 8) (size 9 to 14) (size 15 to 20)
#    0.000    1.750    2.500    1.875    0.000    2.500 
#    0.000    3.750    0.000    0.000    0.000    0.000 
#    0.000    0.000    0.000    0.000    0.000    0.000 
#
# Total GULP energy -178245.119431 kJ/mol
# GULP energy per Si atom -5570.159982 kJ/mol
# Density = 2.176860 g / cm^3
# Si number density = 21.818255 Si / 1000 Ang^3
#
#
#
# Elastic Constant Matrix: (Units=GPa)
#
#
# Indices 1 2 3 4 5 6 
#
# 1 19.5527 19.5294 -7.2746 0.0000 -6.2114 0.0000
# 2 19.5294 137.1695 22.4934 0.0000 7.2737 0.0000
# 3 -7.2746 22.4934 95.9334 0.0000 -3.8458 0.0000
# 4 0.0000 0.0000 0.0000 14.2100 0.0000 -1.8493
# 5 -6.2114 7.2737 -3.8458 0.0000 27.8094 0.0000
# 6 0.0000 0.0000 0.0000 -1.8493 0.0000 18.3850
#
#
#
# Elastic Compliance Matrix: (Units=1/GPa)
#
#
# Indices 1 2 3 4 5 6 
#
# 1 0.075018 -0.013417 0.009701 0.000000 0.021606 0.000000
# 2 -0.013417 0.010123 -0.003637 0.000000 -0.006147 0.000000
# 3 0.009701 -0.003637 0.012205 0.000000 0.004806 0.000000
# 4 0.000000 0.000000 0.000000 0.071306 0.000000 0.007172
# 5 0.021606 -0.006147 0.004806 0.000000 0.043057 0.000000
# 6 0.000000 0.000000 0.000000 0.007172 0.000000 0.055114
#
#
# Mechanical properties :
#
#
# Convention : Reuss Voigt Hill
#
# Bulk Modulus (GPa) = 12.10098 35.79469 23.94783
# Shear Modulus (GPa) = 16.17722 26.60804 21.39263
#
# Velocity S-wave (km/s) = 2.72592 3.49597 3.13468
# Velocity P-wave (km/s) = 3.93266 5.72164 4.90933
#
# Compressibility (1/GPa) = 0.08263795
#
# Stress axis : x y z
#
# Youngs Moduli (GPa) = 13.33020 98.78561 81.93369
#
# Poissons Ratio (x) = 1.32541 -0.79480
# Poissons Ratio (y) = 0.17885 0.29802
# Poissons Ratio (z) = -0.12931 0.35932
#
# Static dielectric constant tensor:
#      x y z
#    x 1.787320 0.000000 0.008620 
#    y 0.000000 1.816610 0.000000 
#    z 0.008620 0.000000 1.804030 
# 
# From -- ./inp_files/66525.got.cif
#   From: 2010.05.17/outbox.cif.g08.bks.cpg/sg11_34_cif.got.tgz:66525.got - 2010.06.03 12:22:45.
