data_PCOD9164318
_publ_section_title
;
Structure prediction by ZEFSAII (Michael W. Deem and Ramdas Pophale) SiO2 
 PCOD9164318
Probable space group: P 21/M
;
_chemical_formula_sum "Si O2"
_cell_formula_units_Z 14
_cell_length_a 9.983845
_cell_length_b 8.200229
_cell_length_c 11.496225
_cell_angle_alpha 90.000000
_cell_angle_beta 138.656698
_cell_angle_gamma 90.000000
_cell_volume 621.723700
_symmetry_space_group_name_H-M "P 21/M"
_symmetry_group_IT_number 11
_symmetry_cell_setting 'monoclinic'
loop_
_space_group_symop_operation_xyz
x,y,z
-x,1/2+y,-z
-x,-y,-z
x,1/2-y,z
loop_
_atom_site_type_symbol
_atom_site_label
_atom_site_fract_x
_atom_site_fract_y
_atom_site_fract_z
Si Si1 0.330279 0.570999 0.034590
Si Si2 0.933811 0.250000 0.971490
Si Si3 0.597733 0.750000 0.792584
Si Si4 0.074256 0.434150 0.670916
Si Si5 0.238909 0.750000 0.392377
O O1 0.430170 0.750000 0.105101
O O2 0.442429 0.413252 0.158089
O O3 0.135766 0.599357 0.992971
O O4 0.241087 0.535678 0.849256
O O5 0.165712 0.250000 0.086097
O O6 0.793937 0.250000 0.765679
O O7 0.462468 0.750000 0.589333
O O8 0.151747 0.250000 0.706575
O O9 0.881053 0.403993 0.629750
O O10 0.000000 0.500000 0.500000
#
# Coordination Sequence:
#
# PCOD9164318 Si02
#       5
#     4   2   2   4   2
#     4  10  22  38  67  91 125 174 206 247 323 372
#     4  10  22  41  62  96 128 173 203 249 324 377
#     4  12  20  42  63  92 137 158 206 271 302 376
#     4  10  20  41  65  90 123 165 211 259 309 372
#     4  10  24  37  67  96 125 165 213 258 322 365
#
# _framework density 22.518042000000001
#
# number of rings (size 3 to 8) (size 9 to 14) (size 15 to 20)
#    1.714    0.000    4.286    1.714    0.000    1.143 
#    0.000    4.286    0.000    0.000    0.000    0.000 
#    0.000    0.000    0.000    0.000    0.000    0.000 
#
# Total GULP energy -78105.277043 kJ/mol
# GULP energy per Si atom -5578.948360 kJ/mol
# Density = 2.246679 g / cm^3
# Si number density = 22.518042 Si / 1000 Ang^3
#
#
#
# Elastic Constant Matrix: (Units=GPa)
#
#
# Indices 1 2 3 4 5 6 
#
# 1 61.7040 33.3459 51.0478 0.0000 -24.3425 0.0000
# 2 33.3459 135.1832 37.1664 0.0000 -0.6920 0.0000
# 3 51.0478 37.1664 170.6729 0.0000 -19.9084 0.0000
# 4 0.0000 0.0000 0.0000 24.0046 0.0000 -22.5379
# 5 -24.3425 -0.6920 -19.9084 0.0000 35.6305 0.0000
# 6 0.0000 0.0000 0.0000 -22.5379 0.0000 8.4684
#
#
#
# Elastic Compliance Matrix: (Units=1/GPa)
#
#
# Indices 1 2 3 4 5 6 
#
# 1 0.031599 -0.006046 -0.006023 0.000000 0.018106 0.000000
# 2 -0.006046 0.009050 -0.000667 0.000000 -0.004328 0.000000
# 3 -0.006023 -0.000667 0.007835 0.000000 0.000250 0.000000
# 4 0.000000 0.000000 0.000000 -0.027795 0.000000 -0.073973
# 5 0.018106 -0.004328 0.000250 0.000000 0.040491 0.000000
# 6 0.000000 0.000000 0.000000 -0.073973 0.000000 -0.078787
#
#
# Mechanical properties :
#
#
# Convention : Reuss Voigt Hill
#
# Bulk Modulus (GPa) = 43.45504 67.85337 55.65420
# Shear Modulus (GPa) = 321.83342 30.02069 175.92706
#
# Velocity S-wave (km/s) = 11.96799 3.65524 8.84855
# Velocity P-wave (km/s) = 14.50230 6.92912 11.36507
#
# Compressibility (1/GPa) = 0.02301229
#
# Stress axis : x y z
#
# Youngs Moduli (GPa) = 31.64645 110.49654 127.63258
#
# Poissons Ratio (x) = 0.66807 0.76868
# Poissons Ratio (y) = 0.19134 0.08516
# Poissons Ratio (z) = 0.19059 0.07372
#
# Static dielectric constant tensor:
#      x y z
#    x 1.880630 0.000000 0.031350 
#    y 0.000000 1.871270 0.000000 
#    z 0.031350 0.000000 1.764600 
# 
# From -- ./inp_files/33495.got.cif
#   From: 2010.05.17/outbox.cif.g08.bks.cpg/sg11_17_cif.got.tgz:33495.got - 2010.06.03 12:22:45.
