data_PCOD9164160
_publ_section_title
;
Structure prediction by ZEFSAII (Michael W. Deem and Ramdas Pophale) SiO2 
 PCOD9164160
Probable space group: P 21/M
;
_chemical_formula_sum "Si O2"
_cell_formula_units_Z 28
_cell_length_a 11.504099
_cell_length_b 13.945024
_cell_length_c 9.094514
_cell_angle_alpha 90.000000
_cell_angle_beta 123.620258
_cell_angle_gamma 90.000000
_cell_volume 1214.935578
_symmetry_space_group_name_H-M "P 21/M"
_symmetry_group_IT_number 11
_symmetry_cell_setting 'monoclinic'
loop_
_space_group_symop_operation_xyz
x,y,z
-x,1/2+y,-z
-x,-y,-z
x,1/2-y,z
loop_
_atom_site_type_symbol
_atom_site_label
_atom_site_fract_x
_atom_site_fract_y
_atom_site_fract_z
Si Si1 0.658977 0.361035 0.989065
Si Si2 0.905033 0.477929 0.073772
Si Si3 0.084871 0.138209 0.700491
Si Si4 0.607166 0.640544 0.602333
Si Si5 0.512860 0.995971 0.290931
Si Si6 0.120911 0.140622 0.405977
Si Si7 0.243411 0.860862 0.604880
O O1 0.625403 0.250000 0.933546
O O2 0.723392 0.365223 0.197693
O O3 0.776099 0.405784 0.962441
O O4 0.529044 0.433215 0.879145
O O5 0.865107 0.574863 0.129793
O O6 0.002773 0.425711 0.260751
O O7 0.000000 0.500000 0.000000
O O8 0.105643 0.250000 0.746993
O O9 0.918916 0.123502 0.549789
O O10 0.161446 0.113720 0.600546
O O11 0.566361 0.750000 0.598100
O O12 0.598692 0.577489 0.742580
O O13 0.512261 0.584319 0.418435
O O14 0.755183 0.639760 0.624057
O O15 0.655983 0.057277 0.390751
O O16 0.067096 0.250000 0.380047
O O17 0.275799 0.750000 0.582188
#
# Coordination Sequence:
#
# PCOD9164160 Si02
#       7
#     4   4   4   4   4   4   4
#     4  11  24  41  61  89 127 171 213 260 321 380
#     4  12  24  38  61  95 129 165 204 258 324 383
#     4  10  22  41  66  94 123 163 214 262 314 381
#     4  10  22  38  61  90 121 163 213 265 317 372
#     4  11  22  39  60  90 127 168 213 258 316 379
#     4  10  20  39  64  87 118 161 209 261 313 373
#     4  10  21  40  66  94 125 165 213 265 315 376
#
# _framework density 23.046492000000001
#
# number of rings (size 3 to 8) (size 9 to 14) (size 15 to 20)
#    0.000    1.429    1.429    3.857    2.000    2.286 
#    0.000    4.286    0.000    0.000    0.000    0.000 
#    0.000    0.000    0.000    0.000    0.000    0.000 
#
# Total GULP energy -156506.774683 kJ/mol
# GULP energy per Si atom -5589.527667 kJ/mol
# Density = 2.299404 g / cm^3
# Si number density = 23.046492 Si / 1000 Ang^3
#
#
#
# Elastic Constant Matrix: (Units=GPa)
#
#
# Indices 1 2 3 4 5 6 
#
# 1 56.7372 39.9445 -6.5267 0.0000 -1.9563 0.0000
# 2 39.9445 175.0635 43.7509 0.0000 0.1381 0.0000
# 3 -6.5267 43.7509 44.1430 0.0000 7.5326 0.0000
# 4 0.0000 0.0000 0.0000 30.3333 0.0000 -6.4100
# 5 -1.9563 0.1381 7.5326 0.0000 24.1054 0.0000
# 6 0.0000 0.0000 0.0000 -6.4100 0.0000 27.0700
#
#
#
# Elastic Compliance Matrix: (Units=1/GPa)
#
#
# Indices 1 2 3 4 5 6 
#
# 1 0.025458 -0.009082 0.013102 0.000000 -0.001976 0.000000
# 2 -0.009082 0.010971 -0.012760 0.000000 0.003187 0.000000
# 3 0.013102 -0.012760 0.039130 0.000000 -0.011091 0.000000
# 4 0.000000 0.000000 0.000000 0.034704 0.000000 0.008218
# 5 -0.001976 0.003187 -0.011091 0.000000 0.044772 0.000000
# 6 0.000000 0.000000 0.000000 0.008218 0.000000 0.038887
#
#
# Mechanical properties :
#
#
# Convention : Reuss Voigt Hill
#
# Bulk Modulus (GPa) = 17.21763 47.80903 32.51333
# Shear Modulus (GPa) = 21.66753 29.55341 25.61047
#
# Velocity S-wave (km/s) = 3.06954 3.58486 3.33716
# Velocity P-wave (km/s) = 4.47770 6.15830 5.38398
#
# Compressibility (1/GPa) = 0.05808001
#
# Stress axis : x y z
#
# Youngs Moduli (GPa) = 39.28050 91.15118 25.55575
#
# Poissons Ratio (x) = 0.82780 -0.33484
# Poissons Ratio (y) = 0.35673 0.32609
# Poissons Ratio (z) = -0.51466 1.16309
#
# Static dielectric constant tensor:
#      x y z
#    x 1.913270 0.000000 0.019920 
#    y 0.000000 1.863510 0.000000 
#    z 0.019920 0.000000 1.859210 
# 
# From -- ./inp_files/18165.got.cif
#   From: 2010.05.17/outbox.cif.g08.bks.cpg/sg11_10_cif.got.tgz:18165.got - 2010.06.03 12:22:45.
