data_PCOD9164016
_publ_section_title
;
Structure prediction by ZEFSAII (Michael W. Deem and Ramdas Pophale) SiO2 
 PCOD9164016
Probable space group: P 21/M
;
_chemical_formula_sum "Si O2"
_cell_formula_units_Z 32
_cell_length_a 23.182387
_cell_length_b 14.954857
_cell_length_c 9.036277
_cell_angle_alpha 90.000000
_cell_angle_beta 149.623133
_cell_angle_gamma 90.000000
_cell_volume 1584.201573
_symmetry_space_group_name_H-M "P 21/M"
_symmetry_group_IT_number 11
_symmetry_cell_setting 'monoclinic'
loop_
_space_group_symop_operation_xyz
x,y,z
-x,1/2+y,-z
-x,-y,-z
x,1/2-y,z
loop_
_atom_site_type_symbol
_atom_site_label
_atom_site_fract_x
_atom_site_fract_y
_atom_site_fract_z
Si Si1 0.168286 0.644320 0.581939
Si Si2 0.814979 0.147988 0.058198
Si Si3 0.966490 0.527794 0.089655
Si Si4 0.455843 0.073437 0.520101
Si Si5 0.310624 0.348949 0.957824
Si Si6 0.716679 0.004019 0.626250
Si Si7 0.345175 0.973906 0.833165
Si Si8 0.049135 0.350653 0.440409
O O1 0.183480 0.750000 0.599968
O O2 0.216853 0.613661 0.849684
O O3 0.232376 0.585971 0.602430
O O4 0.037424 0.615592 0.285972
O O5 0.777433 0.250000 0.964844
O O6 0.953644 0.147819 0.357796
O O7 0.760757 0.094247 0.803704
O O8 0.012802 0.440919 0.278395
O O9 0.833631 0.541291 0.829263
O O10 0.000000 0.500000 0.000000
O O11 0.405506 0.146320 0.296654
O O12 0.351747 0.043981 0.394928
O O13 0.500000 0.000000 0.500000
O O14 0.558588 0.081416 0.864699
O O15 0.314052 0.250000 0.894899
O O16 0.328753 0.430413 0.881272
O O17 0.185405 0.358274 0.757400
O O18 0.640030 0.015348 0.309929
O O19 0.031082 0.250000 0.331790
#
# Coordination Sequence:
#
# PCOD9164016 Si02
#       8
#     4   4   4   4   4   4   4   4
#     4  11  23  39  62  90 129 170 209 261 317 378
#     4   9  20  35  55  90 125 163 208 256 314 375
#     4  11  21  37  58  94 131 160 204 248 322 387
#     4  10  23  40  63  90 121 166 217 263 310 365
#     4  10  20  38  63  90 123 167 212 258 316 374
#     4  11  22  38  66  91 127 169 209 263 317 379
#     4  11  22  43  62  89 128 166 218 258 317 367
#     4   9  18  32  56  83 120 160 201 249 303 376
#
# _framework density 20.199448
#
# number of rings (size 3 to 8) (size 9 to 14) (size 15 to 20)
#    0.000    1.750    2.500    1.875    1.750    2.500 
#    0.000    5.000    0.000    3.000    0.000    0.000 
#    0.000    0.000    0.000    0.000    0.000    0.000 
#
# Total GULP energy -178165.262492 kJ/mol
# GULP energy per Si atom -5567.664453 kJ/mol
# Density = 2.015347 g / cm^3
# Si number density = 20.199448 Si / 1000 Ang^3
#
#
#
# Elastic Constant Matrix: (Units=GPa)
#
#
# Indices 1 2 3 4 5 6 
#
# 1 82.4865 22.6795 7.0278 0.0000 -9.0124 0.0000
# 2 22.6795 67.8290 9.7427 0.0000 -5.8572 0.0000
# 3 7.0278 9.7427 68.1668 0.0000 0.2072 0.0000
# 4 0.0000 0.0000 0.0000 7.8269 0.0000 1.8129
# 5 -9.0124 -5.8572 0.2072 0.0000 35.2123 0.0000
# 6 0.0000 0.0000 0.0000 1.8129 0.0000 14.7103
#
#
#
# Elastic Compliance Matrix: (Units=1/GPa)
#
#
# Indices 1 2 3 4 5 6 
#
# 1 0.013655 -0.004207 -0.000815 0.000000 0.002800 0.000000
# 2 -0.004207 0.016574 -0.001940 0.000000 0.001692 0.000000
# 3 -0.000815 -0.001940 0.015033 0.000000 -0.000620 0.000000
# 4 0.000000 0.000000 0.000000 0.131518 0.000000 -0.016208
# 5 0.002800 0.001692 -0.000620 0.000000 0.029401 0.000000
# 6 0.000000 0.000000 0.000000 -0.016208 0.000000 0.069977
#
#
# Mechanical properties :
#
#
# Convention : Reuss Voigt Hill
#
# Bulk Modulus (GPa) = 31.90998 33.04247 32.47623
# Shear Modulus (GPa) = 16.63733 23.48540 20.06136
#
# Velocity S-wave (km/s) = 2.87305 3.41350 3.15487
# Velocity P-wave (km/s) = 5.18050 5.65063 5.42067
#
# Compressibility (1/GPa) = 0.03133816
#
# Stress axis : x y z
#
# Youngs Moduli (GPa) = 73.23181 60.33409 66.51977
#
# Poissons Ratio (x) = 0.25382 0.05422
# Poissons Ratio (y) = 0.30808 0.12907
# Poissons Ratio (z) = 0.05969 0.11707
#
# Static dielectric constant tensor:
#      x y z
#    x 0.459750 0.000000 0.008350 
#    y 0.000000 1.668060 0.000000 
#    z 0.008350 0.000000 1.775370 
# 
# From -- ./inp_files/26802.got.cif
#   From: 2010.05.17/outbox.cif.g08.bks.cpg/sg11_14_cif.got.tgz:26802.got - 2010.06.03 12:22:45.
