data_PCOD9164672
_publ_section_title
;
Structure prediction by ZEFSAII (Michael W. Deem and Ramdas Pophale) SiO2 
 PCOD9164672
Probable space group: P 21/M
;
_chemical_formula_sum "Si O2"
_cell_formula_units_Z 28
_cell_length_a 25.563865
_cell_length_b 8.875812
_cell_length_c 9.590354
_cell_angle_alpha 90.000000
_cell_angle_beta 45.615588
_cell_angle_gamma 90.000000
_cell_volume 1555.143787
_symmetry_space_group_name_H-M "P 21/M"
_symmetry_group_IT_number 11
_symmetry_cell_setting 'monoclinic'
loop_
_space_group_symop_operation_xyz
x,y,z
-x,1/2+y,-z
-x,-y,-z
x,1/2-y,z
loop_
_atom_site_type_symbol
_atom_site_label
_atom_site_fract_x
_atom_site_fract_y
_atom_site_fract_z
Si Si1 0.578737 0.068137 0.820553
Si Si2 0.931772 0.931147 0.713282
Si Si3 0.762068 0.931667 0.977691
Si Si4 0.324661 0.921856 0.606764
Si Si5 0.051811 0.575808 0.015745
Si Si6 0.299784 0.426482 0.204609
Si Si7 0.206890 0.914399 0.578878
O O1 0.577778 0.250000 0.822436
O O2 0.606646 0.019751 0.613068
O O3 0.635898 0.012284 0.832385
O O4 0.500000 0.000000 0.000000
O O5 0.934581 0.750000 0.697061
O O6 0.848150 0.979970 0.826583
O O7 0.943404 0.984554 0.850156
O O8 0.000000 0.000000 0.500000
O O9 0.763571 0.750000 0.977563
O O10 0.722131 0.978848 0.908929
O O11 0.712232 0.988550 0.198579
O O12 0.339755 0.750000 0.624674
O O13 0.263889 0.916843 0.598926
O O14 0.031593 0.750000 0.082373
O O15 0.129678 0.573638 0.794928
O O16 0.000000 0.500000 0.000000
O O17 0.317920 0.250000 0.166683
O O18 0.227975 0.456620 0.432394
O O19 0.213343 0.750000 0.495962
#
# Coordination Sequence:
#
# PCOD9164672 Si02
#       7
#     4   4   4   4   4   4   4
#     4  10  21  39  62  91 120 150 189 232 281 342
#     4  11  24  41  58  83 116 158 202 249 304 356
#     4  10  22  38  57  84 117 151 195 240 287 345
#     4   9  18  35  59  84 111 145 187 231 280 337
#     4  11  23  39  57  81 112 148 195 249 301 356
#     4  10  21  36  57  86 117 151 189 235 283 337
#     4   9  19  36  55  79 108 144 190 238 287 343
#
# _framework density 18.004764999999999
#
# number of rings (size 3 to 8) (size 9 to 14) (size 15 to 20)
#    0.000    2.000    1.429    2.571    2.000    5.714 
#    0.000    0.714    0.000    0.000    0.000    0.000 
#    0.000    0.000    0.000    0.000    0.000    0.000 
#
# Total GULP energy -156035.517503 kJ/mol
# GULP energy per Si atom -5572.697054 kJ/mol
# Density = 1.796379 g / cm^3
# Si number density = 18.004765 Si / 1000 Ang^3
#
#
#
# Elastic Constant Matrix: (Units=GPa)
#
#
# Indices 1 2 3 4 5 6 
#
# 1 88.2236 34.8498 66.4973 0.0000 9.1915 0.0000
# 2 34.8498 51.5376 41.7069 0.0000 -1.2597 0.0000
# 3 66.4973 41.7069 132.1860 0.0000 -1.2688 0.0000
# 4 0.0000 0.0000 0.0000 36.3902 0.0000 1.9800
# 5 9.1915 -1.2597 -1.2688 0.0000 25.7231 0.0000
# 6 0.0000 0.0000 0.0000 1.9800 0.0000 23.1953
#
#
#
# Elastic Compliance Matrix: (Units=1/GPa)
#
#
# Indices 1 2 3 4 5 6 
#
# 1 0.021854 -0.008091 -0.008524 0.000000 -0.008626 0.000000
# 2 -0.008091 0.029071 -0.005063 0.000000 0.004065 0.000000
# 3 -0.008524 -0.005063 0.013484 0.000000 0.003463 0.000000
# 4 0.000000 0.000000 0.000000 0.027608 0.000000 -0.002357
# 5 -0.008626 0.004065 0.003463 0.000000 0.042328 0.000000
# 6 0.000000 0.000000 0.000000 -0.002357 0.000000 0.043313
#
#
# Mechanical properties :
#
#
# Convention : Reuss Voigt Hill
#
# Bulk Modulus (GPa) = 47.49839 62.00614 54.75227
# Shear Modulus (GPa) = 21.92667 25.65458 23.79063
#
# Velocity S-wave (km/s) = 3.49352 3.77885 3.63898
# Velocity P-wave (km/s) = 6.53538 7.31800 6.93773
#
# Compressibility (1/GPa) = 0.02105334
#
# Stress axis : x y z
#
# Youngs Moduli (GPa) = 45.75739 34.39837 74.16188
#
# Poissons Ratio (x) = 0.27831 0.63216
# Poissons Ratio (y) = 0.37021 0.37551
# Poissons Ratio (z) = 0.39004 0.17417
#
# Static dielectric constant tensor:
#      x y z
#    x 1.573800 0.000000 0.018240 
#    y 0.000000 1.628810 0.000000 
#    z 0.018240 0.000000 1.598940 
# 
# From -- ./inp_files/28431.got.cif
#   From: 2010.05.17/outbox.cif.g08.bks.cpg/sg11_15_cif.got.tgz:28431.got - 2010.06.03 12:22:45.
