data_PCOD9164896
_publ_section_title
;
Structure prediction by ZEFSAII (Michael W. Deem and Ramdas Pophale) SiO2 
 PCOD9164896
Probable space group: P 21/M
;
_chemical_formula_sum "Si O2"
_cell_formula_units_Z 28
_cell_length_a 7.863631
_cell_length_b 9.271124
_cell_length_c 28.237660
_cell_angle_alpha 90.000000
_cell_angle_beta 134.122970
_cell_angle_gamma 90.000000
_cell_volume 1477.802033
_symmetry_space_group_name_H-M "P 21/M"
_symmetry_group_IT_number 11
_symmetry_cell_setting 'monoclinic'
loop_
_space_group_symop_operation_xyz
x,y,z
-x,1/2+y,-z
-x,-y,-z
x,1/2-y,z
loop_
_atom_site_type_symbol
_atom_site_label
_atom_site_fract_x
_atom_site_fract_y
_atom_site_fract_z
Si Si1 0.054927 0.086574 0.303587
Si Si2 0.536995 0.913426 0.696413
Si Si3 0.711321 0.087158 0.565437
Si Si4 0.273710 0.077313 0.829468
Si Si5 0.126368 0.577313 0.170532
Si Si6 0.884136 0.587158 0.434563
Si Si7 0.175199 0.576971 0.070080
O O1 0.994778 0.250000 0.306559
O O2 0.251280 0.094688 0.300512
O O3 0.176063 0.997993 0.369002
O O4 0.836852 0.003920 0.237120
O O5 0.461984 0.750000 0.693441
O O6 0.651254 0.996080 0.762880
O O7 0.331057 0.002007 0.630998
O O8 0.637586 0.250000 0.564640
O O9 0.915076 0.097864 0.566030
O O10 0.500000 0.000000 0.500000
O O11 0.257025 0.250000 0.818611
O O12 0.550133 0.039860 0.887635
O O13 0.108495 0.043806 0.843398
O O14 0.163969 0.750000 0.181389
O O15 0.111955 0.539860 0.112365
O O16 0.814388 0.750000 0.435361
O O17 0.000000 0.500000 0.500000
O O18 0.152891 0.750000 0.061157
O O19 0.000000 0.500000 0.000000
#
# Coordination Sequence:
#
# PCOD9164896 Si02
#       7
#     4   4   4   4   4   4   4
#     4  10  21  37  58  85 114 145 186 236 288 344
#     4  10  21  37  58  85 114 145 186 236 288 344
#     4  11  24  39  56  80 111 148 190 236 286 341
#     4   9  19  37  59  83 115 154 193 237 289 344
#     4   9  19  37  59  83 115 154 193 237 289 344
#     4  11  24  39  56  80 111 148 190 236 286 341
#     4  10  22  38  58  86 118 152 194 240 290 352
#
# _framework density 18.947057999999998
#
# number of rings (size 3 to 8) (size 9 to 14) (size 15 to 20)
#    0.000    2.000    0.000    2.571    2.000    9.143 
#    0.000    0.000    0.000    0.000    0.000    0.000 
#    0.000    0.000    0.000    0.000    0.000    0.000 
#
# Total GULP energy -156344.320789 kJ/mol
# GULP energy per Si atom -5583.725742 kJ/mol
# Density = 1.890393 g / cm^3
# Si number density = 18.947058 Si / 1000 Ang^3
#
#
#
# Elastic Constant Matrix: (Units=GPa)
#
#
# Indices 1 2 3 4 5 6 
#
# 1 65.7221 44.3509 66.4308 0.0000 3.4143 0.0000
# 2 44.3509 120.5454 107.5525 0.0000 2.8370 0.0000
# 3 66.4308 107.5525 218.6719 0.0000 3.4514 0.0000
# 4 0.0000 0.0000 0.0000 42.4237 0.0000 1.0757
# 5 3.4143 2.8370 3.4514 0.0000 37.6772 0.0000
# 6 0.0000 0.0000 0.0000 1.0757 0.0000 18.4605
#
#
#
# Elastic Compliance Matrix: (Units=1/GPa)
#
#
# Indices 1 2 3 4 5 6 
#
# 1 0.023041 -0.003955 -0.005034 0.000000 -0.001329 0.000000
# 2 -0.003955 0.015469 -0.006403 0.000000 -0.000220 0.000000
# 3 -0.005034 -0.006403 0.009250 0.000000 0.000091 0.000000
# 4 0.000000 0.000000 0.000000 0.023607 0.000000 -0.001376
# 5 -0.001329 -0.000220 0.000091 0.000000 0.026670 0.000000
# 6 0.000000 0.000000 0.000000 -0.001376 0.000000 0.054250
#
#
# Mechanical properties :
#
#
# Convention : Reuss Voigt Hill
#
# Bulk Modulus (GPa) = 58.90402 93.51195 76.20798
# Shear Modulus (GPa) = 26.49280 32.15262 29.32271
#
# Velocity S-wave (km/s) = 3.74338 4.12390 3.93824
# Velocity P-wave (km/s) = 7.05975 8.49334 7.80951
#
# Compressibility (1/GPa) = 0.01697677
#
# Stress axis : x y z
#
# Youngs Moduli (GPa) = 43.40006 64.64456 108.10500
#
# Poissons Ratio (x) = 0.25568 0.54415
# Poissons Ratio (y) = 0.17165 0.69224
# Poissons Ratio (z) = 0.21846 0.41395
#
# Static dielectric constant tensor:
#      x y z
#    x 1.663960 0.000000 0.064680 
#    y 0.000000 1.674370 0.000000 
#    z 0.064680 0.000000 3.105540 
# 
# From -- ./inp_files/66693.got.cif
#   From: 2010.05.17/outbox.cif.g08.bks.cpg/sg11_34_cif.got.tgz:66693.got - 2010.06.03 12:22:45.
