data_PCOD9164710
_publ_section_title
;
Structure prediction by ZEFSAII (Michael W. Deem and Ramdas Pophale) SiO2 
 PCOD9164710
Probable space group: P 21/M
;
_chemical_formula_sum "Si O2"
_cell_formula_units_Z 32
_cell_length_a 22.849263
_cell_length_b 8.626740
_cell_length_c 14.957074
_cell_angle_alpha 90.000000
_cell_angle_beta 148.298576
_cell_angle_gamma 90.000000
_cell_volume 1549.288564
_symmetry_space_group_name_H-M "P 21/M"
_symmetry_group_IT_number 11
_symmetry_cell_setting 'monoclinic'
loop_
_space_group_symop_operation_xyz
x,y,z
-x,1/2+y,-z
-x,-y,-z
x,1/2-y,z
loop_
_atom_site_type_symbol
_atom_site_label
_atom_site_fract_x
_atom_site_fract_y
_atom_site_fract_z
Si Si1 0.976473 0.934897 0.370604
Si Si2 0.014263 0.937385 0.118821
Si Si3 0.356934 0.567298 0.458555
Si Si4 0.268018 0.436944 0.907822
Si Si5 0.776964 0.932825 0.872106
Si Si6 0.407848 0.931161 0.239154
Si Si7 0.253116 0.935343 0.507722
Si Si8 0.203702 0.066017 0.623198
O O1 0.984101 0.750000 0.379770
O O2 0.847120 0.973697 0.188332
O O3 0.000000 0.000000 0.500000
O O4 0.078720 0.000013 0.447290
O O5 0.014622 0.750000 0.115093
O O6 0.132035 0.986557 0.313086
O O7 0.906155 0.981826 0.036941
O O8 0.000000 0.000000 0.000000
O O9 0.332945 0.750000 0.413735
O O10 0.271927 0.466677 0.289931
O O11 0.482266 0.527504 0.594054
O O12 0.339166 0.532116 0.540078
O O13 0.283063 0.250000 0.930544
O O14 0.249438 0.483924 0.780215
O O15 0.366906 0.520895 0.087197
O O16 0.771510 0.750000 0.886661
O O17 0.693669 0.024129 0.827978
O O18 0.432558 0.750000 0.277561
O O19 0.249005 0.750000 0.515442
O O20 0.274612 0.012451 0.630853
O O21 0.195771 0.250000 0.616623
#
# Coordination Sequence:
#
# PCOD9164710 Si02
#       8
#     4   4   4   4   4   4   4   4
#     4   9  17  31  53  79 113 152 191 238 292 350
#     4  10  21  38  61  91 125 160 197 243 299 356
#     4  11  23  43  66  87 119 159 203 251 301 358
#     4   9  20  39  58  82 118 157 200 249 300 349
#     4  11  23  40  64  92 125 160 197 245 302 359
#     4  12  26  41  62  90 119 155 205 255 302 357
#     4  10  22  39  61  90 123 162 202 243 298 359
#     4  10  21  36  58  88 121 160 201 245 297 358
#
# _framework density 20.654641000000002
#
# number of rings (size 3 to 8) (size 9 to 14) (size 15 to 20)
#    0.000    1.750    1.250    3.750    1.750    5.000 
#    0.000    0.625    0.000    0.000    0.000    0.000 
#    0.000    0.000    0.000    0.000    0.000    0.000 
#
# Total GULP energy -178782.322364 kJ/mol
# GULP energy per Si atom -5586.947574 kJ/mol
# Density = 2.060763 g / cm^3
# Si number density = 20.654641 Si / 1000 Ang^3
#
#
#
# Elastic Constant Matrix: (Units=GPa)
#
#
# Indices 1 2 3 4 5 6 
#
# 1 88.2089 6.3173 2.5563 0.0000 -3.7713 0.0000
# 2 6.3173 19.5361 1.1829 0.0000 -0.4979 0.0000
# 3 2.5563 1.1829 32.3166 0.0000 3.5289 0.0000
# 4 0.0000 0.0000 0.0000 20.8511 0.0000 -4.9330
# 5 -3.7713 -0.4979 3.5289 0.0000 30.5919 0.0000
# 6 0.0000 0.0000 0.0000 -4.9330 0.0000 32.9443
#
#
#
# Elastic Compliance Matrix: (Units=1/GPa)
#
#
# Indices 1 2 3 4 5 6 
#
# 1 0.011692 -0.003685 -0.000953 0.000000 0.001491 0.000000
# 2 -0.003685 0.052497 -0.001695 0.000000 0.000596 0.000000
# 3 -0.000953 -0.001695 0.031494 0.000000 -0.003778 0.000000
# 4 0.000000 0.000000 0.000000 0.049720 0.000000 0.007445
# 5 0.001491 0.000596 -0.003778 0.000000 0.033318 0.000000
# 6 0.000000 0.000000 0.000000 0.007445 0.000000 0.031469
#
#
# Mechanical properties :
#
#
# Convention : Reuss Voigt Hill
#
# Bulk Modulus (GPa) = 12.04580 17.79717 14.92148
# Shear Modulus (GPa) = 19.95783 25.54446 22.75114
#
# Velocity S-wave (km/s) = 3.11185 3.52055 3.32249
# Velocity P-wave (km/s) = 4.33084 5.01607 4.68599
#
# Compressibility (1/GPa) = 0.08301652
#
# Stress axis : x y z
#
# Youngs Moduli (GPa) = 85.52842 19.04877 31.75222
#
# Poissons Ratio (x) = 0.07020 0.03025
# Poissons Ratio (y) = 0.31518 0.05383
# Poissons Ratio (z) = 0.08149 0.03229
#
# Static dielectric constant tensor:
#      x y z
#    x 1.766900 0.000000 -0.006350 
#    y 0.000000 1.690170 0.000000 
#    z -0.006350 0.000000 1.741110 
# 
# From -- ./inp_files/55738.got.cif
#   From: 2010.05.17/outbox.cif.g08.bks.cpg/sg11_28_cif.got.tgz:55738.got - 2010.06.03 12:22:45.
