data_PCOD9164105
_publ_section_title
;
Structure prediction by ZEFSAII (Michael W. Deem and Ramdas Pophale) SiO2 
 PCOD9164105
Probable space group: P 21/M
;
_chemical_formula_sum "Si O2"
_cell_formula_units_Z 30
_cell_length_a 8.847712
_cell_length_b 33.849697
_cell_length_c 5.256266
_cell_angle_alpha 90.000000
_cell_angle_beta 55.194357
_cell_angle_gamma 90.000000
_cell_volume 1292.574089
_symmetry_space_group_name_H-M "P 21/M"
_symmetry_group_IT_number 11
_symmetry_cell_setting 'monoclinic'
loop_
_space_group_symop_operation_xyz
x,y,z
-x,1/2+y,-z
-x,-y,-z
x,1/2-y,z
loop_
_atom_site_type_symbol
_atom_site_label
_atom_site_fract_x
_atom_site_fract_y
_atom_site_fract_z
Si Si1 0.842966 0.385170 0.418743
Si Si2 0.264640 0.750000 0.482068
Si Si3 0.764141 0.516979 0.988447
Si Si4 0.789668 0.473619 0.463876
Si Si5 0.956562 0.313548 0.627072
Si Si6 0.664070 0.181360 0.282197
Si Si7 0.654403 0.653437 0.737589
Si Si8 0.738694 0.894650 0.154612
O O1 0.762613 0.427846 0.555834
O O2 0.890821 0.357958 0.614627
O O3 0.709786 0.359837 0.369717
O O4 0.039298 0.390759 0.089453
O O5 0.126507 0.784368 0.499252
O O6 0.399862 0.714901 0.465772
O O7 0.712724 0.501516 0.759369
O O8 0.692212 0.559968 0.138046
O O9 0.987947 0.520616 0.761039
O O10 0.719491 0.486062 0.254233
O O11 0.174034 0.316556 0.435125
O O12 0.855613 0.301921 0.983263
O O13 0.528514 0.175269 0.176799
O O14 0.656003 0.632890 0.010746
O O15 0.688818 0.620720 0.482453
#
# Coordination Sequence:
#
# PCOD9164105 Si02
#       8
#     4   2   4   4   4   4   4   4
#     4   9  20  35  62  88 129 163 218 256 318 364
#     4  10  24  44  66  96 128 158 206 252 318 372
#     4   9  17  29  52  83 126 157 213 258 312 352
#     4   9  17  28  51  89 116 165 209 260 304 371
#     4  10  22  43  64  93 125 165 200 262 306 381
#     4  11  23  42  66  94 124 167 202 262 308 381
#     4  11  24  39  68  94 127 165 216 247 316 367
#     4  10  20  39  59  93 127 171 210 269 303 374
#
# _framework density 23.209503999999999
#
# number of rings (size 3 to 8) (size 9 to 14) (size 15 to 20)
#    0.000    2.133    1.333    1.200    5.600    3.733 
#    0.000    1.333    0.000    4.800    0.000    0.000 
#    0.000    0.000    0.000    0.000    0.000    0.000 
#
# Total GULP energy -167248.243944 kJ/mol
# GULP energy per Si atom -5574.941465 kJ/mol
# Density = 2.315668 g / cm^3
# Si number density = 23.209504 Si / 1000 Ang^3
#
#
#
# Elastic Constant Matrix: (Units=GPa)
#
#
# Indices 1 2 3 4 5 6 
#
# 1 60.1381 3.3508 20.4941 0.0000 -1.9330 0.0000
# 2 3.3508 100.8988 5.9261 0.0000 -2.0514 0.0000
# 3 20.4941 5.9261 66.2558 0.0000 9.1490 0.0000
# 4 0.0000 0.0000 0.0000 896.3980 0.0000 187.7884
# 5 -1.9330 -2.0514 9.1490 0.0000 30.8439 0.0000
# 6 0.0000 0.0000 0.0000 187.7884 0.0000 52.1021
#
#
#
# Elastic Compliance Matrix: (Units=1/GPa)
#
#
# Indices 1 2 3 4 5 6 
#
# 1 0.018860 -0.000199 -0.006233 0.000000 0.003018 0.000000
# 2 -0.000199 0.009993 -0.000962 0.000000 0.000937 0.000000
# 3 -0.006233 -0.000962 0.017903 0.000000 -0.005765 0.000000
# 4 0.000000 0.000000 0.000000 0.004554 0.000000 -0.016415
# 5 0.003018 0.000937 -0.005765 0.000000 0.034383 0.000000
# 6 0.000000 0.000000 0.000000 -0.016415 0.000000 0.078358
#
#
# Mechanical properties :
#
#
# Convention : Reuss Voigt Hill
#
# Bulk Modulus (GPa) = 31.27959 31.87053 31.57506
# Shear Modulus (GPa) = 26.38589 209.03692 117.71141
#
# Velocity S-wave (km/s) = 3.37539 9.50057 7.12931
# Velocity P-wave (km/s) = 5.35699 11.58055 9.02237
#
# Compressibility (1/GPa) = 0.03196973
#
# Stress axis : x y z
#
# Youngs Moduli (GPa) = 53.02090 100.06938 55.85656
#
# Poissons Ratio (x) = 0.01991 0.34814
# Poissons Ratio (y) = 0.01055 0.05372
# Poissons Ratio (z) = 0.33047 0.09624
#
# Static dielectric constant tensor:
#      x y z
#    x 1.883340 0.000000 -0.031620 
#    y 0.000000 1.835350 0.000000 
#    z -0.031620 0.000000 1.908680 
# 
# From -- ./inp_files/3377.got.cif
#   From: 2010.05.17/outbox.cif.g08.bks.cpg/sg11_2_cif.got.tgz:3377.got - 2010.06.03 12:22:45.
