data_PCOD9164691
_publ_section_title
;
Structure prediction by ZEFSAII (Michael W. Deem and Ramdas Pophale) SiO2 
 PCOD9164691
Probable space group: P 21/M
;
_chemical_formula_sum "Si O2"
_cell_formula_units_Z 32
_cell_length_a 18.108030
_cell_length_b 13.604801
_cell_length_c 18.516676
_cell_angle_alpha 90.000000
_cell_angle_beta 158.770203
_cell_angle_gamma 90.000000
_cell_volume 1651.833247
_symmetry_space_group_name_H-M "P 21/M"
_symmetry_group_IT_number 11
_symmetry_cell_setting 'monoclinic'
loop_
_space_group_symop_operation_xyz
x,y,z
-x,1/2+y,-z
-x,-y,-z
x,1/2-y,z
loop_
_atom_site_type_symbol
_atom_site_label
_atom_site_fract_x
_atom_site_fract_y
_atom_site_fract_z
Si Si1 0.400511 0.510229 0.307459
Si Si2 0.536907 0.139005 0.046720
Si Si3 0.852671 0.980312 0.298860
Si Si4 0.508887 0.640337 0.831277
Si Si5 0.110135 0.635875 0.941700
Si Si6 0.713077 0.864398 0.681433
Si Si7 0.276740 0.862592 0.470427
Si Si8 0.088435 0.479990 0.808983
O O1 0.276571 0.567859 0.133460
O O2 0.257763 0.438716 0.225099
O O3 0.513669 0.591832 0.459666
O O4 0.574137 0.436196 0.435940
O O5 0.570880 0.250000 0.055828
O O6 0.684719 0.067027 0.138846
O O7 0.589359 0.126661 0.179676
O O8 0.297803 0.111573 0.823545
O O9 0.964992 0.973856 0.324545
O O10 0.000000 0.000000 0.500000
O O11 0.605334 0.750000 0.921669
O O12 0.358890 0.639100 0.627435
O O13 0.682277 0.560166 0.978535
O O14 0.172164 0.750000 0.994180
O O15 0.072077 0.587185 0.829059
O O16 0.903563 0.630589 0.800669
O O17 0.686580 0.750000 0.678521
O O18 0.278654 0.750000 0.444879
O O19 0.053507 0.909217 0.272392
#
# Coordination Sequence:
#
# PCOD9164691 Si02
#       8
#     4   4   4   4   4   4   4   4
#     4  11  21  39  63  85 118 155 195 242 287 338
#     4   9  19  36  56  81 111 148 192 240 293 350
#     4  10  21  36  58  84 115 153 195 245 296 347
#     4   9  18  34  57  82 113 147 184 237 300 350
#     4  11  23  40  60  84 116 160 200 236 289 345
#     4  10  22  40  61  87 119 154 194 238 289 346
#     4  11  21  34  57  89 116 147 191 239 296 351
#     4  11  21  37  57  82 120 154 194 240 295 349
#
# _framework density 19.372415
#
# number of rings (size 3 to 8) (size 9 to 14) (size 15 to 20)
#    0.000    1.750    2.500    2.250    0.000    1.500 
#    0.000    0.000    0.000    0.000    0.000    0.000 
#    0.000    0.000    0.000    0.000    0.000    0.000 
#
# Total GULP energy -178543.949562 kJ/mol
# GULP energy per Si atom -5579.498424 kJ/mol
# Density = 1.932832 g / cm^3
# Si number density = 19.372415 Si / 1000 Ang^3
#
#
#
# Elastic Constant Matrix: (Units=GPa)
#
#
# Indices 1 2 3 4 5 6 
#
# 1 49.4916 27.0867 4.3438 0.0000 12.9432 0.0000
# 2 27.0867 122.9063 16.3405 0.0000 11.9858 0.0000
# 3 4.3438 16.3405 30.4522 0.0000 -5.4277 0.0000
# 4 0.0000 0.0000 0.0000 24.6413 0.0000 -0.1050
# 5 12.9432 11.9858 -5.4277 0.0000 26.2780 0.0000
# 6 0.0000 0.0000 0.0000 -0.1050 0.0000 27.7464
#
#
#
# Elastic Compliance Matrix: (Units=1/GPa)
#
#
# Indices 1 2 3 4 5 6 
#
# 1 0.025775 -0.004081 -0.003549 0.000000 -0.011567 0.000000
# 2 -0.004081 0.010137 -0.005526 0.000000 -0.003755 0.000000
# 3 -0.003549 -0.005526 0.038488 0.000000 0.012218 0.000000
# 4 0.000000 0.000000 0.000000 0.040583 0.000000 0.000154
# 5 -0.011567 -0.003755 0.012218 0.000000 0.047988 0.000000
# 6 0.000000 0.000000 0.000000 0.000154 0.000000 0.036041
#
#
# Mechanical properties :
#
#
# Convention : Reuss Voigt Hill
#
# Bulk Modulus (GPa) = 20.79520 33.15468 26.97494
# Shear Modulus (GPa) = 20.71652 26.07176 23.39414
#
# Velocity S-wave (km/s) = 3.27369 3.67252 3.47883
# Velocity P-wave (km/s) = 5.00471 5.92746 5.48552
#
# Compressibility (1/GPa) = 0.04808801
#
# Stress axis : x y z
#
# Youngs Moduli (GPa) = 38.79674 98.65310 25.98228
#
# Poissons Ratio (x) = 0.40257 0.09220
# Poissons Ratio (y) = 0.15832 0.14359
# Poissons Ratio (z) = 0.13768 0.54520
#
# Static dielectric constant tensor:
#      x y z
#    x 1.693450 0.000000 -0.007410 
#    y 0.000000 1.679910 0.000000 
#    z -0.007410 0.000000 1.675060 
# 
# From -- ./inp_files/66580.got.cif
#   From: 2010.05.17/outbox.cif.g08.bks.cpg/sg11_34_cif.got.tgz:66580.got - 2010.06.03 12:22:45.
