data_PCOD9164009
_publ_section_title
;
Structure prediction by ZEFSAII (Michael W. Deem and Ramdas Pophale) SiO2 
 PCOD9164009
Probable space group: P 21/M
;
_chemical_formula_sum "Si O2"
_cell_formula_units_Z 32
_cell_length_a 9.025847
_cell_length_b 15.354014
_cell_length_c 13.718858
_cell_angle_alpha 90.000000
_cell_angle_beta 126.171573
_cell_angle_gamma 90.000000
_cell_volume 1534.750051
_symmetry_space_group_name_H-M "P 21/M"
_symmetry_group_IT_number 11
_symmetry_cell_setting 'monoclinic'
loop_
_space_group_symop_operation_xyz
x,y,z
-x,1/2+y,-z
-x,-y,-z
x,1/2-y,z
loop_
_atom_site_type_symbol
_atom_site_label
_atom_site_fract_x
_atom_site_fract_y
_atom_site_fract_z
Si Si1 0.357816 0.351242 0.544904
Si Si2 0.708192 0.351196 0.540803
Si Si3 0.896200 0.651426 0.739280
Si Si4 0.781454 0.013356 0.400905
Si Si5 0.923614 0.347588 0.805365
Si Si6 0.190646 0.490872 0.133336
Si Si7 0.679032 0.584406 0.003979
Si Si8 0.715281 0.081691 0.157808
O O1 0.359033 0.250000 0.578328
O O2 0.539487 0.366041 0.549754
O O3 0.195782 0.361956 0.401818
O O4 0.320582 0.422239 0.613727
O O5 0.698836 0.250000 0.505362
O O6 0.710077 0.417737 0.453471
O O7 0.890040 0.363605 0.677687
O O8 0.853369 0.750000 0.754350
O O9 0.824032 0.581129 0.788396
O O10 0.112534 0.636703 0.811951
O O11 0.747208 0.053254 0.281429
O O12 0.000000 0.000000 0.500000
O O13 0.292157 0.492462 0.907173
O O14 0.796670 0.415570 0.812741
O O15 0.136071 0.359402 0.916852
O O16 0.330289 0.461207 0.105736
O O17 0.000000 0.500000 0.000000
O O18 0.136571 0.750000 0.197235
O O19 0.480565 0.627095 0.937796
#
# Coordination Sequence:
#
# PCOD9164009 Si02
#       8
#     4   4   4   4   4   4   4   4
#     4  10  23  42  62  95 129 160 208 263 311 378
#     4  10  23  41  64  94 127 160 210 263 311 374
#     4  11  22  40  64  91 128 165 203 256 318 370
#     4  12  23  38  68  93 127 172 208 247 326 382
#     4  10  20  38  65  90 119 158 203 260 311 359
#     4  10  20  38  63  88 118 158 209 264 297 359
#     4  10  23  42  61  86 125 162 208 262 303 357
#     4  11  23  41  61  91 126 168 203 253 312 376
#
# _framework density 20.850301000000002
#
# number of rings (size 3 to 8) (size 9 to 14) (size 15 to 20)
#    0.000    1.500    3.750    1.875    3.500    3.500 
#    0.000    0.625    0.000    0.750    0.000    0.000 
#    0.000    0.000    0.000    0.000    0.000    0.000 
#
# Total GULP energy -178741.566740 kJ/mol
# GULP energy per Si atom -5585.673961 kJ/mol
# Density = 2.080284 g / cm^3
# Si number density = 20.850301 Si / 1000 Ang^3
#
#
#
# Elastic Constant Matrix: (Units=GPa)
#
#
# Indices 1 2 3 4 5 6 
#
# 1 60.7572 18.5774 18.9755 0.0000 3.8415 0.0000
# 2 18.5774 95.2595 29.1989 0.0000 -26.7181 0.0000
# 3 18.9755 29.1989 44.6498 0.0000 -0.5962 0.0000
# 4 0.0000 0.0000 0.0000 16.3392 0.0000 6.9817
# 5 3.8415 -26.7181 -0.5962 0.0000 41.2290 0.0000
# 6 0.0000 0.0000 0.0000 6.9817 0.0000 8.3321
#
#
#
# Elastic Compliance Matrix: (Units=1/GPa)
#
#
# Indices 1 2 3 4 5 6 
#
# 1 0.019613 -0.002903 -0.006488 0.000000 -0.003802 0.000000
# 2 -0.002903 0.017279 -0.009915 0.000000 0.011325 0.000000
# 3 -0.006488 -0.009915 0.031566 0.000000 -0.005364 0.000000
# 4 0.000000 0.000000 0.000000 0.095338 0.000000 -0.079887
# 5 -0.003802 0.011325 -0.005364 0.000000 0.031870 0.000000
# 6 0.000000 0.000000 0.000000 -0.079887 0.000000 0.186959
#
#
# Mechanical properties :
#
#
# Convention : Reuss Voigt Hill
#
# Bulk Modulus (GPa) = 33.50380 37.13001 35.31690
# Shear Modulus (GPa) = 11.59593 22.10771 16.85182
#
# Velocity S-wave (km/s) = 2.36084 3.25977 2.84602
# Velocity P-wave (km/s) = 4.85130 5.65815 5.27019
#
# Compressibility (1/GPa) = 0.02984736
#
# Stress axis : x y z
#
# Youngs Moduli (GPa) = 50.98609 57.87318 31.67967
#
# Poissons Ratio (x) = 0.16799 0.20553
# Poissons Ratio (y) = 0.14800 0.31410
# Poissons Ratio (z) = 0.33079 0.57381
#
# Static dielectric constant tensor:
#      x y z
#    x 1.756830 0.000000 0.009220 
#    y 0.000000 1.727800 0.000000 
#    z 0.009220 0.000000 1.716270 
# 
# From -- ./inp_files/47652.got.cif
#   From: 2010.05.17/outbox.cif.g08.bks.cpg/sg11_24_cif.got.tgz:47652.got - 2010.06.03 12:22:45.
