data_PCOD9164627
_publ_section_title
;
Structure prediction by ZEFSAII (Michael W. Deem and Ramdas Pophale) SiO2 
 PCOD9164627
Probable space group: P 21/M
;
_chemical_formula_sum "Si O2"
_cell_formula_units_Z 32
_cell_length_a 22.977972
_cell_length_b 8.817989
_cell_length_c 28.717980
_cell_angle_alpha 90.000000
_cell_angle_beta 18.223744
_cell_angle_gamma 90.000000
_cell_volume 1819.712159
_symmetry_space_group_name_H-M "P 21/M"
_symmetry_group_IT_number 11
_symmetry_cell_setting 'monoclinic'
loop_
_space_group_symop_operation_xyz
x,y,z
-x,1/2+y,-z
-x,-y,-z
x,1/2-y,z
loop_
_atom_site_type_symbol
_atom_site_label
_atom_site_fract_x
_atom_site_fract_y
_atom_site_fract_z
Si Si1 0.980215 0.930096 0.212823
Si Si2 0.980365 0.932037 0.963721
Si Si3 0.705189 0.567740 0.845115
Si Si4 0.299488 0.568245 0.896132
Si Si5 0.293981 0.931766 0.398944
Si Si6 0.991656 0.930402 0.707364
Si Si7 0.703106 0.069215 0.351655
Si Si8 0.006969 0.431737 0.546179
O O1 0.954588 0.750000 0.230350
O O2 0.001469 0.984018 0.249334
O O3 0.163452 0.967738 0.043040
O O4 0.807279 0.008206 0.318293
O O5 0.963569 0.750000 0.978339
O O6 0.804824 0.001821 0.069768
O O7 0.161248 0.970369 0.794751
O O8 0.000000 0.000000 0.000000
O O9 0.703041 0.750000 0.841158
O O10 0.810771 0.533897 0.813503
O O11 0.832207 0.494550 0.708467
O O12 0.500000 0.500000 0.000000
O O13 0.315244 0.750000 0.880350
O O14 0.499813 0.494365 0.751186
O O15 0.293929 0.750000 0.392613
O O16 0.167943 0.965334 0.540274
O O17 0.188522 0.009140 0.435865
O O18 0.992236 0.750000 0.715789
O O19 0.690063 0.250000 0.363931
O O20 0.500000 0.000000 0.500000
O O21 0.004638 0.250000 0.546731
O O22 0.000000 0.500000 0.500000
#
# Coordination Sequence:
#
# PCOD9164627 Si02
#       8
#     4   4   4   4   4   4   4   4
#     4  10  21  36  56  81 109 141 180 223 268 318
#     4  10  21  37  57  81 108 142 181 224 272 324
#     4  10  21  38  58  83 114 148 187 230 277 331
#     4  10  21  37  56  81 111 144 182 225 271 323
#     4  10  21  38  58  82 111 144 183 227 274 327
#     4   9  20  37  56  79 109 143 180 222 269 320
#     4  10  21  37  57  80 108 141 179 220 267 320
#     4  11  22  38  59  83 112 147 186 231 280 331
#
# _framework density 17.585197999999998
#
# number of rings (size 3 to 8) (size 9 to 14) (size 15 to 20)
#    0.000    2.000    0.000    4.125    0.000    8.000 
#    0.000    2.500    0.000    0.000    0.000    0.000 
#    0.000    0.000    0.000    0.000    0.000    0.000 
#
# Total GULP energy -178738.593630 kJ/mol
# GULP energy per Si atom -5585.581051 kJ/mol
# Density = 1.754517 g / cm^3
# Si number density = 17.585198 Si / 1000 Ang^3
#
#
#
# Elastic Constant Matrix: (Units=GPa)
#
#
# Indices 1 2 3 4 5 6 
#
# 1 175.3816 83.8756 95.8024 0.0000 -4.5067 0.0000
# 2 83.8756 94.8655 70.2399 0.0000 -9.2468 0.0000
# 3 95.8024 70.2399 139.2966 0.0000 -37.0756 0.0000
# 4 0.0000 0.0000 0.0000 34.7745 0.0000 -2.4730
# 5 -4.5067 -9.2468 -37.0756 0.0000 21.8260 0.0000
# 6 0.0000 0.0000 0.0000 -2.4730 0.0000 38.6226
#
#
#
# Elastic Compliance Matrix: (Units=1/GPa)
#
#
# Indices 1 2 3 4 5 6 
#
# 1 0.015219 -0.005557 -0.013607 0.000000 -0.022326 0.000000
# 2 -0.005557 0.021267 -0.008778 0.000000 -0.007049 0.000000
# 3 -0.013607 -0.008778 0.035092 0.000000 0.053082 0.000000
# 4 0.000000 0.000000 0.000000 0.028888 0.000000 0.001850
# 5 -0.022326 -0.007049 0.053082 0.000000 0.128390 0.000000
# 6 0.000000 0.000000 0.000000 0.001850 0.000000 0.026010
#
#
# Mechanical properties :
#
#
# Convention : Reuss Voigt Hill
#
# Bulk Modulus (GPa) = 63.72050 101.04218 82.38134
# Shear Modulus (GPa) = 15.82375 29.68633 22.75504
#
# Velocity S-wave (km/s) = 3.00298 4.11316 3.60111
# Velocity P-wave (km/s) = 6.95254 8.95214 8.01494
#
# Compressibility (1/GPa) = 0.01569354
#
# Stress axis : x y z
#
# Youngs Moduli (GPa) = 65.70934 47.02195 28.49655
#
# Poissons Ratio (x) = 0.26129 0.38775
# Poissons Ratio (y) = 0.36514 0.25014
# Poissons Ratio (z) = 0.89411 0.41276
#
# Static dielectric constant tensor:
#      x y z
#    x 1.567980 0.000000 0.006150 
#    y 0.000000 1.585240 0.000000 
#    z 0.006150 0.000000 1.578900 
# 
# From -- ./inp_files/72109.got.cif
#   From: 2010.05.17/outbox.cif.g08.bks.cpg/sg11_37_cif.got.tgz:72109.got - 2010.06.03 12:22:45.
