data_PCOD9164932
_publ_section_title
;
Structure prediction by ZEFSAII (Michael W. Deem and Ramdas Pophale) SiO2 
 PCOD9164932
Probable space group: P 21/M
;
_chemical_formula_sum "Si O2"
_cell_formula_units_Z 20
_cell_length_a 22.640612
_cell_length_b 7.618186
_cell_length_c 13.779569
_cell_angle_alpha 90.000000
_cell_angle_beta 158.705293
_cell_angle_gamma 90.000000
_cell_volume 863.136624
_symmetry_space_group_name_H-M "P 21/M"
_symmetry_group_IT_number 11
_symmetry_cell_setting 'monoclinic'
loop_
_space_group_symop_operation_xyz
x,y,z
-x,1/2+y,-z
-x,-y,-z
x,1/2-y,z
loop_
_atom_site_type_symbol
_atom_site_label
_atom_site_fract_x
_atom_site_fract_y
_atom_site_fract_z
Si Si1 0.730104 0.464208 0.891025
Si Si2 0.823791 0.961600 0.684803
Si Si3 0.440499 0.047272 0.570542
Si Si4 0.688583 0.539298 0.274795
Si Si5 0.939817 0.540214 0.515100
O O1 0.720056 0.250000 0.870947
O O2 0.660667 0.536664 0.684644
O O3 0.615308 0.525534 0.804721
O O4 0.913919 0.517076 0.190681
O O5 0.812336 0.750000 0.666863
O O6 0.675346 0.031026 0.524539
O O7 0.791365 0.023364 0.525624
O O8 0.000000 0.000000 0.000000
O O9 0.468916 0.250000 0.640481
O O10 0.700478 0.750000 0.292483
O O11 0.770943 0.472667 0.301257
O O12 0.500000 0.500000 0.000000
O O13 0.933745 0.750000 0.509632
O O14 0.000000 0.500000 0.500000
#
# Coordination Sequence:
#
# PCOD9164932 Si02
#       5
#     4   4   4   4   4
#     4   9  18  34  55  80 111 144 181 229 282 331
#     4  10  21  37  59  85 115 150 193 239 289 348
#     4   9  18  32  54  83 110 141 181 226 279 338
#     4  10  23  41  60  87 121 157 198 243 292 352
#     4  10  22  38  58  83 112 150 195 236 284 342
#
# _framework density 23.171302000000001
#
# number of rings (size 3 to 8) (size 9 to 14) (size 15 to 20)
#    0.000    2.400    0.000    1.200    2.800    4.800 
#    0.000    0.000    0.000    0.000    0.000    0.000 
#    0.000    0.000    0.000    0.000    0.000    0.000 
#
# Total GULP energy -111662.611703 kJ/mol
# GULP energy per Si atom -5583.130585 kJ/mol
# Density = 2.311856 g / cm^3
# Si number density = 23.171302 Si / 1000 Ang^3
#
#
#
# Elastic Constant Matrix: (Units=GPa)
#
#
# Indices 1 2 3 4 5 6 
#
# 1 173.9112 8.6811 58.8552 0.0000 40.2128 0.0000
# 2 8.6811 49.0204 3.7201 0.0000 5.9578 0.0000
# 3 58.8552 3.7201 101.8945 0.0000 26.0491 0.0000
# 4 0.0000 0.0000 0.0000 22.8127 0.0000 0.3139
# 5 40.2128 5.9578 26.0491 0.0000 39.0048 0.0000
# 6 0.0000 0.0000 0.0000 0.3139 0.0000 18.4785
#
#
#
# Elastic Compliance Matrix: (Units=1/GPa)
#
#
# Indices 1 2 3 4 5 6 
#
# 1 0.008320 -0.000456 -0.003152 0.000000 -0.006403 0.000000
# 2 -0.000456 0.020811 0.000236 0.000000 -0.002867 0.000000
# 3 -0.003152 0.000236 0.013029 0.000000 -0.005488 0.000000
# 4 0.000000 0.000000 0.000000 0.043845 0.000000 -0.000745
# 5 -0.006403 -0.002867 -0.005488 0.000000 0.036342 0.000000
# 6 0.000000 0.000000 0.000000 -0.000745 0.000000 0.054130
#
#
# Mechanical properties :
#
#
# Convention : Reuss Voigt Hill
#
# Bulk Modulus (GPa) = 28.23543 51.92655 40.08099
# Shear Modulus (GPa) = 25.63758 32.96385 29.30072
#
# Velocity S-wave (km/s) = 3.32992 3.77585 3.55988
# Velocity P-wave (km/s) = 5.19581 6.43956 5.85083
#
# Compressibility (1/GPa) = 0.03541650
#
# Stress axis : x y z
#
# Youngs Moduli (GPa) = 120.19029 48.05180 76.75126
#
# Poissons Ratio (x) = 0.02191 0.24194
# Poissons Ratio (y) = 0.05481 -0.01815
# Poissons Ratio (z) = 0.37887 -0.01136
#
# Static dielectric constant tensor:
#      x y z
#    x 1.898310 0.000000 0.028610 
#    y 0.000000 1.882970 0.000000 
#    z 0.028610 0.000000 1.846010 
# 
# From -- ./inp_files/46718.got.cif
#   From: 2010.05.17/outbox.cif.g08.bks.cpg/sg11_24_cif.got.tgz:46718.got - 2010.06.03 12:22:45.
