data_PCOD9164607
_publ_section_title
;
Structure prediction by ZEFSAII (Michael W. Deem and Ramdas Pophale) SiO2 
 PCOD9164607
Probable space group: P 21/M
;
_chemical_formula_sum "Si O2"
_cell_formula_units_Z 24
_cell_length_a 9.873777
_cell_length_b 19.435107
_cell_length_c 7.286538
_cell_angle_alpha 90.000000
_cell_angle_beta 126.838996
_cell_angle_gamma 90.000000
_cell_volume 1119.069465
_symmetry_space_group_name_H-M "P 21/M"
_symmetry_group_IT_number 11
_symmetry_cell_setting 'monoclinic'
loop_
_space_group_symop_operation_xyz
x,y,z
-x,1/2+y,-z
-x,-y,-z
x,1/2-y,z
loop_
_atom_site_type_symbol
_atom_site_label
_atom_site_fract_x
_atom_site_fract_y
_atom_site_fract_z
Si Si1 0.377875 0.170253 0.963205
Si Si2 0.703721 0.828380 0.497122
Si Si3 0.800472 0.578107 0.905735
Si Si4 0.704124 0.170885 0.488143
Si Si5 0.194280 0.919730 0.105150
Si Si6 0.904993 0.171371 0.307433
O O1 0.318050 0.250000 0.923847
O O2 0.406734 0.155349 0.771820
O O3 0.246532 0.118123 0.947651
O O4 0.545022 0.165300 0.222733
O O5 0.667470 0.750000 0.531833
O O6 0.705702 0.881249 0.665000
O O7 0.896133 0.829436 0.575082
O O8 0.750723 0.498365 0.872013
O O9 0.000100 0.581021 0.022825
O O10 0.719494 0.250000 0.563566
O O11 0.699796 0.121522 0.657891
O O12 0.861433 0.154722 0.481658
O O13 0.184503 0.880159 0.904952
O O14 0.844417 0.250000 0.226919
#
# Coordination Sequence:
#
# PCOD9164607 Si02
#       6
#     4   4   4   4   4   4
#     4  10  21  36  55  79 106 138 176 219 266 314
#     4   9  18  34  56  78 101 135 178 220 261 309
#     4  10  21  36  55  80 109 141 177 218 264 314
#     4  10  21  36  55  79 106 138 176 219 266 314
#     4  10  21  36  55  80 109 141 177 218 264 314
#     4   9  18  34  56  78 101 135 178 220 261 309
#
# _framework density 21.446387999999999
#
# number of rings (size 3 to 8) (size 9 to 14) (size 15 to 20)
#    0.000    2.333    0.000    2.000    0.000    6.667 
#    0.000   10.000    0.000    0.000    0.000    0.000 
#    0.000    0.000    0.000    0.000    0.000    0.000 
#
# Total GULP energy -134174.834287 kJ/mol
# GULP energy per Si atom -5590.618095 kJ/mol
# Density = 2.139758 g / cm^3
# Si number density = 21.446388 Si / 1000 Ang^3
#
#
#
# Elastic Constant Matrix: (Units=GPa)
#
#
# Indices 1 2 3 4 5 6 
#
# 1 44.6344 13.3063 -1.2014 0.0000 -1.2624 0.0000
# 2 13.3063 108.0789 74.0533 0.0000 -12.3031 0.0000
# 3 -1.2014 74.0533 117.7712 0.0000 -8.1977 0.0000
# 4 0.0000 0.0000 0.0000 -46.5265 0.0000 -20.9508
# 5 -1.2624 -12.3031 -8.1977 0.0000 23.7589 0.0000
# 6 0.0000 0.0000 0.0000 -20.9508 0.0000 14.2979
#
#
#
# Elastic Compliance Matrix: (Units=1/GPa)
#
#
# Indices 1 2 3 4 5 6 
#
# 1 0.024152 -0.005557 0.003719 0.000000 -0.000311 0.000000
# 2 -0.005557 0.018139 -0.011095 0.000000 0.005269 0.000000
# 3 0.003719 -0.011095 0.015492 0.000000 -0.000203 0.000000
# 4 0.000000 0.000000 0.000000 -0.012949 0.000000 -0.018974
# 5 -0.000311 0.005269 -0.000203 0.000000 0.044732 0.000000
# 6 0.000000 0.000000 0.000000 -0.018974 0.000000 0.042137
#
#
# Mechanical properties :
#
#
# Convention : Reuss Voigt Hill
#
# Bulk Modulus (GPa) = 31.33276 49.20011 40.26644
# Shear Modulus (GPa) = 29.72509 10.59447 20.15978
#
# Velocity S-wave (km/s) = 3.72697 2.22502 3.06928
# Velocity P-wave (km/s) = 5.75864 5.43983 5.60150
#
# Compressibility (1/GPa) = 0.03191547
#
# Stress axis : x y z
#
# Youngs Moduli (GPa) = 41.40403 55.13026 64.55127
#
# Poissons Ratio (x) = 0.30637 -0.24007
# Poissons Ratio (y) = 0.23009 0.71622
# Poissons Ratio (z) = -0.15398 0.61169
#
# Static dielectric constant tensor:
#      x y z
#    x 1.821620 0.000000 0.043820 
#    y 0.000000 1.703120 0.000000 
#    z 0.043820 0.000000 1.763730 
# 
# From -- ./inp_files/18417.got.cif
#   From: 2010.05.17/outbox.cif.g08.bks.cpg/sg11_10_cif.got.tgz:18417.got - 2010.06.03 12:22:45.
