data_PCOD9164484
_publ_section_title
;
Structure prediction by ZEFSAII (Michael W. Deem and Ramdas Pophale) SiO2 
 PCOD9164484
Probable space group: P 21/M
;
_chemical_formula_sum "Si O2"
_cell_formula_units_Z 32
_cell_length_a 21.891915
_cell_length_b 7.611956
_cell_length_c 12.431830
_cell_angle_alpha 90.000000
_cell_angle_beta 43.768707
_cell_angle_gamma 90.000000
_cell_volume 1433.057259
_symmetry_space_group_name_H-M "P 21/M"
_symmetry_group_IT_number 11
_symmetry_cell_setting 'monoclinic'
loop_
_space_group_symop_operation_xyz
x,y,z
-x,1/2+y,-z
-x,-y,-z
x,1/2-y,z
loop_
_atom_site_type_symbol
_atom_site_label
_atom_site_fract_x
_atom_site_fract_y
_atom_site_fract_z
Si Si1 0.906774 0.459958 0.061535
Si Si2 0.597447 0.541911 0.837927
Si Si3 0.835736 0.549869 0.512106
Si Si4 0.636196 0.963230 0.024847
Si Si5 0.444122 0.947579 0.340408
Si Si6 0.173325 0.465760 0.232205
Si Si7 0.258334 0.959057 0.589270
Si Si8 0.968167 0.546316 0.754737
O O1 0.899406 0.250000 0.065174
O O2 0.823201 0.527426 0.235575
O O3 0.912268 0.532475 0.934509
O O4 0.000000 0.500000 0.000000
O O5 0.608241 0.750000 0.802868
O O6 0.596844 0.439656 0.727819
O O7 0.500000 0.500000 0.000000
O O8 0.646533 0.490562 0.884630
O O9 0.806607 0.750000 0.561827
O O10 0.833068 0.472539 0.635999
O O11 0.775438 0.481142 0.491609
O O12 0.937676 0.543086 0.348169
O O13 0.627907 0.750000 0.036502
O O14 0.543388 0.026323 0.196519
O O15 0.733053 0.014020 0.943067
O O16 0.457094 0.750000 0.367254
O O17 0.355061 0.032538 0.503291
O O18 0.171019 0.250000 0.235498
O O19 0.089653 0.525707 0.269791
O O20 0.265314 0.750000 0.597764
O O21 0.988402 0.750000 0.708170
#
# Coordination Sequence:
#
# PCOD9164484 Si02
#       8
#     4   4   4   4   4   4   4   4
#     4  11  22  38  59  80 106 137 175 220 271 323
#     4   9  15  24  41  65  96 134 172 211 252 301
#     4  11  21  34  54  79 109 142 178 218 266 323
#     4   8  14  27  46  68  98 134 174 211 248 303
#     4   9  17  29  47  72 101 133 169 212 263 316
#     4   9  19  33  51  78 108 142 180 219 260 310
#     4  10  21  35  53  80 111 139 170 217 275 327
#     4  11  22  37  56  77 106 140 179 224 268 315
#
# _framework density 22.329881
#
# number of rings (size 3 to 8) (size 9 to 14) (size 15 to 20)
#    0.000    2.250    1.250    3.375    0.000    2.000 
#    0.000    1.875    0.000    9.000    0.000    0.000 
#    0.000    0.000    0.000    0.000    0.000    0.250 
#
# Total GULP energy -178181.634419 kJ/mol
# GULP energy per Si atom -5568.176076 kJ/mol
# Density = 2.227906 g / cm^3
# Si number density = 22.329881 Si / 1000 Ang^3
#
#
#
# Elastic Constant Matrix: (Units=GPa)
#
#
# Indices 1 2 3 4 5 6 
#
# 1 43.6291 -0.6693 13.1305 0.0000 -10.2379 0.0000
# 2 -0.6693 57.7109 -4.3271 0.0000 -3.6408 0.0000
# 3 13.1305 -4.3271 69.8755 0.0000 -2.7939 0.0000
# 4 0.0000 0.0000 0.0000 11.2546 0.0000 6.0639
# 5 -10.2379 -3.6408 -2.7939 0.0000 24.0794 0.0000
# 6 0.0000 0.0000 0.0000 6.0639 0.0000 3.1375
#
#
#
# Elastic Compliance Matrix: (Units=1/GPa)
#
#
# Indices 1 2 3 4 5 6 
#
# 1 0.026888 0.000663 -0.004572 0.000000 0.011002 0.000000
# 2 0.000663 0.017611 0.001089 0.000000 0.003071 0.000000
# 3 -0.004572 0.001089 0.015237 0.000000 -0.000011 0.000000
# 4 0.000000 0.000000 0.000000 -2.148967 0.000000 4.153377
# 5 0.011002 0.003071 -0.000011 0.000000 0.046670 0.000000
# 6 0.000000 0.000000 0.000000 4.153377 0.000000 -7.708637
#
#
# Mechanical properties :
#
#
# Convention : Reuss Voigt Hill
#
# Bulk Modulus (GPa) = 18.48541 20.83152 19.65847
# Shear Modulus (GPa) = -0.51401 18.56639 9.02619
#
# Velocity S-wave (km/s) = -0.48030 2.88663 2.01270
# Velocity P-wave (km/s) = 2.82643 4.52321 3.77148
#
# Compressibility (1/GPa) = 0.05409671
#
# Stress axis : x y z
#
# Youngs Moduli (GPa) = 37.19093 56.78331 65.62883
#
# Poissons Ratio (x) = -0.03766 0.30003
# Poissons Ratio (y) = -0.02466 -0.07145
# Poissons Ratio (z) = 0.17002 -0.06182
#
# Static dielectric constant tensor:
#      x y z
#    x 1.985140 0.000000 -0.013070 
#    y 0.000000 1.836690 0.000000 
#    z -0.013070 0.000000 1.886420 
# 
# From -- ./inp_files/42801.got.cif
#   From: 2010.05.17/outbox.cif.g08.bks.cpg/sg11_22_cif.got.tgz:42801.got - 2010.06.03 12:22:45.
