data_PCOD9164976
_publ_section_title
;
Structure prediction by ZEFSAII (Michael W. Deem and Ramdas Pophale) SiO2 
 PCOD9164976
Probable space group: P 21/M
;
_chemical_formula_sum "Si O2"
_cell_formula_units_Z 32
_cell_length_a 15.736288
_cell_length_b 8.756839
_cell_length_c 26.940608
_cell_angle_alpha 90.000000
_cell_angle_beta 153.233543
_cell_angle_gamma 90.000000
_cell_volume 1671.906386
_symmetry_space_group_name_H-M "P 21/M"
_symmetry_group_IT_number 11
_symmetry_cell_setting 'monoclinic'
loop_
_space_group_symop_operation_xyz
x,y,z
-x,1/2+y,-z
-x,-y,-z
x,1/2-y,z
loop_
_atom_site_type_symbol
_atom_site_label
_atom_site_fract_x
_atom_site_fract_y
_atom_site_fract_z
Si Si1 0.724572 0.066208 0.530633
Si Si2 0.110276 0.566648 0.487578
Si Si3 0.018194 0.567323 0.064326
Si Si4 0.296109 0.432243 0.678561
Si Si5 0.368666 0.432944 0.082228
Si Si6 0.360658 0.566344 0.968709
Si Si7 0.073090 0.066332 0.268288
Si Si8 0.706019 0.565653 0.715397
O O1 0.728516 0.250000 0.537066
O O2 0.846196 0.021990 0.545921
O O3 0.508862 0.020715 0.407595
O O4 0.809229 0.996790 0.624429
O O5 0.132787 0.750000 0.503680
O O6 0.253604 0.488889 0.600784
O O7 0.897042 0.529009 0.392466
O O8 0.022360 0.750000 0.063828
O O9 0.203410 0.506035 0.188545
O O10 0.835518 0.521732 0.002044
O O11 0.000000 0.500000 0.000000
O O12 0.321182 0.250000 0.692541
O O13 0.471637 0.512093 0.796265
O O14 0.373343 0.250000 0.080103
O O15 0.402047 0.506423 0.045712
O O16 0.371876 0.750000 0.974494
O O17 0.145373 0.519355 0.844025
O O18 0.500000 0.500000 0.000000
O O19 0.079230 0.250000 0.272893
O O20 0.167451 0.018064 0.265716
O O21 0.712486 0.750000 0.723165
#
# Coordination Sequence:
#
# PCOD9164976 Si02
#       8
#     4   4   4   4   4   4   4   4
#     4  10  22  37  61  89 117 155 199 247 300 358
#     4   9  20  39  57  85 121 156 198 246 297 355
#     4  11  25  42  64  92 124 163 204 252 307 366
#     4  10  21  37  60  86 119 161 199 244 300 356
#     4  11  24  42  64  92 124 163 205 252 308 367
#     4  11  24  42  64  92 126 164 206 256 307 363
#     4  10  22  40  61  87 120 156 198 249 301 356
#     4  10  21  41  63  87 121 158 198 249 304 357
#
# _framework density 19.139828000000001
#
# number of rings (size 3 to 8) (size 9 to 14) (size 15 to 20)
#    0.000    1.750    1.250    1.875    3.500    4.500 
#    0.000    0.000    0.000    0.000    0.000    0.000 
#    0.000    0.000    0.000    0.000    0.000    0.000 
#
# Total GULP energy -178856.161534 kJ/mol
# GULP energy per Si atom -5589.255048 kJ/mol
# Density = 1.909626 g / cm^3
# Si number density = 19.139828 Si / 1000 Ang^3
#
#
#
# Elastic Constant Matrix: (Units=GPa)
#
#
# Indices 1 2 3 4 5 6 
#
# 1 56.0862 7.3377 -5.3120 0.0000 -23.7524 0.0000
# 2 7.3377 18.8836 11.1014 0.0000 -4.2995 0.0000
# 3 -5.3120 11.1014 89.0610 0.0000 -22.8402 0.0000
# 4 0.0000 0.0000 0.0000 38.7781 0.0000 -7.6325
# 5 -23.7524 -4.2995 -22.8402 0.0000 30.2154 0.0000
# 6 0.0000 0.0000 0.0000 -7.6325 0.0000 27.0862
#
#
#
# Elastic Compliance Matrix: (Units=1/GPa)
#
#
# Indices 1 2 3 4 5 6 
#
# 1 0.036435 -0.013605 0.013295 0.000000 0.036755 0.000000
# 2 -0.013605 0.062508 -0.011245 0.000000 -0.010300 0.000000
# 3 0.013295 -0.011245 0.019467 0.000000 0.023566 0.000000
# 4 0.000000 0.000000 0.000000 0.027302 0.000000 0.007693
# 5 0.036755 -0.010300 0.023566 0.000000 0.078338 0.000000
# 6 0.000000 0.000000 0.000000 0.007693 0.000000 0.039087
#
#
# Mechanical properties :
#
#
# Convention : Reuss Voigt Hill
#
# Bulk Modulus (GPa) = 10.49318 21.14278 15.81798
# Shear Modulus (GPa) = 15.72270 29.27619 22.49945
#
# Velocity S-wave (km/s) = 2.86923 3.91525 3.43232
# Velocity P-wave (km/s) = 4.05844 5.61332 4.89797
#
# Compressibility (1/GPa) = 0.09530004
#
# Stress axis : x y z
#
# Youngs Moduli (GPa) = 27.44645 15.99795 51.37017
#
# Poissons Ratio (x) = 0.21765 -0.68297
# Poissons Ratio (y) = 0.37341 0.57764
# Poissons Ratio (z) = -0.36490 0.17989
#
# Static dielectric constant tensor:
#      x y z
#    x 1.654230 0.000000 0.022560 
#    y 0.000000 1.643880 0.000000 
#    z 0.022560 0.000000 1.629570 
# 
# From -- ./inp_files/69106.got.cif
#   From: 2010.05.17/outbox.cif.g08.bks.cpg/sg11_35_cif.got.tgz:69106.got - 2010.06.03 12:22:45.
