data_PCOD9164866
_publ_section_title
;
Structure prediction by ZEFSAII (Michael W. Deem and Ramdas Pophale) SiO2 
 PCOD9164866
Probable space group: P 21/M
;
_chemical_formula_sum "Si O2"
_cell_formula_units_Z 28
_cell_length_a 10.453053
_cell_length_b 8.668902
_cell_length_c 20.665362
_cell_angle_alpha 90.000000
_cell_angle_beta 128.230656
_cell_angle_gamma 90.000000
_cell_volume 1470.993567
_symmetry_space_group_name_H-M "P 21/M"
_symmetry_group_IT_number 11
_symmetry_cell_setting 'monoclinic'
loop_
_space_group_symop_operation_xyz
x,y,z
-x,1/2+y,-z
-x,-y,-z
x,1/2-y,z
loop_
_atom_site_type_symbol
_atom_site_label
_atom_site_fract_x
_atom_site_fract_y
_atom_site_fract_z
Si Si1 0.999137 0.434894 0.315332
Si Si2 0.962215 0.063556 0.058889
Si Si3 0.868445 0.433940 0.509536
Si Si4 0.406347 0.936060 0.032592
Si Si5 0.358889 0.063890 0.777787
Si Si6 0.443840 0.434924 0.656892
Si Si7 0.801862 0.936384 0.751257
O O1 0.998864 0.250000 0.320464
O O2 0.085213 0.505184 0.405221
O O3 0.095296 0.477942 0.280324
O O4 0.813778 0.493423 0.256348
O O5 0.962499 0.250000 0.056662
O O6 0.096152 0.015317 0.153461
O O7 0.781343 0.013514 0.023642
O O8 0.000000 0.000000 0.000000
O O9 0.876936 0.250000 0.511116
O O10 0.691969 0.490902 0.431486
O O11 0.000000 0.500000 0.500000
O O12 0.407942 0.750000 0.029998
O O13 0.502066 0.982301 0.127719
O O14 0.500000 0.000000 0.000000
O O15 0.345341 0.250000 0.774807
O O16 0.403729 0.018846 0.718554
O O17 0.432472 0.250000 0.649193
O O18 0.624255 0.489698 0.696019
O O19 0.786046 0.750000 0.747474
#
# Coordination Sequence:
#
# PCOD9164866 Si02
#       7
#     4   4   4   4   4   4   4
#     4  11  23  40  64  90 121 163 204 249 306 361
#     4  10  21  39  61  86 120 161 205 253 302 359
#     4  12  24  41  65  94 125 157 198 247 299 358
#     4  10  21  37  57  85 119 156 199 252 306 358
#     4  10  21  37  59  87 119 155 201 254 305 360
#     4  11  23  40  64  91 120 158 202 249 302 358
#     4  10  23  41  60  88 124 161 205 253 306 363
#
# _framework density 19.034754
#
# number of rings (size 3 to 8) (size 9 to 14) (size 15 to 20)
#    0.000    1.429    1.429    3.857    0.000    6.286 
#    0.000    0.000    0.000    0.000    0.000    0.000 
#    0.000    0.000    0.000    0.000    0.000    0.000 
#
# Total GULP energy -156580.444217 kJ/mol
# GULP energy per Si atom -5592.158722 kJ/mol
# Density = 1.899143 g / cm^3
# Si number density = 19.034754 Si / 1000 Ang^3
#
#
#
# Elastic Constant Matrix: (Units=GPa)
#
#
# Indices 1 2 3 4 5 6 
#
# 1 106.6344 22.0512 27.9664 0.0000 14.0962 0.0000
# 2 22.0512 29.4406 23.3267 0.0000 2.7782 0.0000
# 3 27.9664 23.3267 118.3703 0.0000 14.6594 0.0000
# 4 0.0000 0.0000 0.0000 26.5734 0.0000 0.4322
# 5 14.0962 2.7782 14.6594 0.0000 39.4072 0.0000
# 6 0.0000 0.0000 0.0000 0.4322 0.0000 36.0191
#
#
#
# Elastic Compliance Matrix: (Units=1/GPa)
#
#
# Indices 1 2 3 4 5 6 
#
# 1 0.011633 -0.007759 -0.000809 0.000000 -0.003313 0.000000
# 2 -0.007759 0.045428 -0.007407 0.000000 0.002328 0.000000
# 3 -0.000809 -0.007407 0.010481 0.000000 -0.003087 0.000000
# 4 0.000000 0.000000 0.000000 0.037639 0.000000 -0.000452
# 5 -0.003313 0.002328 -0.003087 0.000000 0.027546 0.000000
# 6 0.000000 0.000000 0.000000 -0.000452 0.000000 0.027768
#
#
# Mechanical properties :
#
#
# Convention : Reuss Voigt Hill
#
# Bulk Modulus (GPa) = 28.09746 44.57046 36.33396
# Shear Modulus (GPa) = 24.47271 32.47333 28.47302
#
# Velocity S-wave (km/s) = 3.58954 4.13486 3.87181
# Velocity P-wave (km/s) = 5.65446 6.80163 6.25440
#
# Compressibility (1/GPa) = 0.03559041
#
# Stress axis : x y z
#
# Youngs Moduli (GPa) = 85.96596 22.01297 95.40806
#
# Poissons Ratio (x) = 0.17080 0.07718
# Poissons Ratio (y) = 0.66703 0.70673
# Poissons Ratio (z) = 0.06954 0.16306
#
# Static dielectric constant tensor:
#      x y z
#    x 1.620730 0.000000 -0.005550 
#    y 0.000000 1.646080 0.000000 
#    z -0.005550 0.000000 1.637570 
# 
# From -- ./inp_files/63423.got.cif
#   From: 2010.05.17/outbox.cif.g08.bks.cpg/sg11_32_cif.got.tgz:63423.got - 2010.06.03 12:22:45.
