data_PCOD9164011
_publ_section_title
;
Structure prediction by ZEFSAII (Michael W. Deem and Ramdas Pophale) SiO2 
 PCOD9164011
Probable space group: P 21/M
;
_chemical_formula_sum "Si O2"
_cell_formula_units_Z 32
_cell_length_a 11.117131
_cell_length_b 7.821186
_cell_length_c 27.679787
_cell_angle_alpha 90.000000
_cell_angle_beta 35.849342
_cell_angle_gamma 90.000000
_cell_volume 1409.518001
_symmetry_space_group_name_H-M "P 21/M"
_symmetry_group_IT_number 11
_symmetry_cell_setting 'monoclinic'
loop_
_space_group_symop_operation_xyz
x,y,z
-x,1/2+y,-z
-x,-y,-z
x,1/2-y,z
loop_
_atom_site_type_symbol
_atom_site_label
_atom_site_fract_x
_atom_site_fract_y
_atom_site_fract_z
Si Si1 0.220906 0.955625 0.792735
Si Si2 0.120988 0.956582 0.337410
Si Si3 0.291267 0.053996 0.482946
Si Si4 0.216123 0.543872 0.905820
Si Si5 0.606612 0.553809 0.838506
Si Si6 0.338046 0.061084 0.594466
Si Si7 0.030248 0.046964 0.218034
Si Si8 0.689062 0.046423 0.623034
O O1 0.194934 0.750000 0.802757
O O2 0.210633 0.019214 0.851806
O O3 0.062950 0.019901 0.802523
O O4 0.450622 0.995639 0.701184
O O5 0.141868 0.750000 0.325476
O O6 0.224537 0.009664 0.353644
O O7 0.880965 0.996035 0.422290
O O8 0.233165 0.048805 0.257877
O O9 0.355034 0.250000 0.469874
O O10 0.490418 0.938563 0.419432
O O11 0.204641 0.040106 0.457449
O O12 0.243478 0.750000 0.894468
O O13 0.400818 0.477625 0.880665
O O14 0.000000 0.500000 0.000000
O O15 0.557173 0.750000 0.868027
O O16 0.748797 0.476640 0.835180
O O17 0.267873 0.250000 0.605073
O O18 0.500000 0.000000 0.500000
O O19 0.142714 0.973921 0.683388
O O20 0.058486 0.250000 0.203131
O O21 0.713482 0.250000 0.611905
#
# Coordination Sequence:
#
# PCOD9164011 Si02
#       8
#     4   4   4   4   4   4   4   4
#     4  10  20  38  63  88 119 157 197 239 300 367
#     4  10  22  36  53  81 117 157 201 252 303 349
#     4  11  22  36  52  76 114 158 204 253 304 354
#     4  10  22  41  66  95 122 154 192 239 298 366
#     4  10  21  38  61  89 118 152 199 244 295 358
#     4  12  24  37  53  77 112 158 212 261 304 354
#     4  10  21  38  61  87 118 158 200 250 302 353
#     4  11  21  34  54  83 115 151 200 252 301 352
#
# _framework density 22.702797
#
# number of rings (size 3 to 8) (size 9 to 14) (size 15 to 20)
#    0.000    1.500    2.500    3.000    0.000    5.000 
#    0.000    0.625    0.000    0.000    0.000    0.000 
#    0.000    0.000    0.000    0.000    0.000    0.000 
#
# Total GULP energy -178521.611649 kJ/mol
# GULP energy per Si atom -5578.800364 kJ/mol
# Density = 2.265112 g / cm^3
# Si number density = 22.702797 Si / 1000 Ang^3
#
#
#
# Elastic Constant Matrix: (Units=GPa)
#
#
# Indices 1 2 3 4 5 6 
#
# 1 162.6094 9.8718 49.1703 0.0000 -34.0438 0.0000
# 2 9.8718 28.5797 -5.2027 0.0000 -3.8449 0.0000
# 3 49.1703 -5.2027 85.1375 0.0000 -17.2751 0.0000
# 4 0.0000 0.0000 0.0000 22.5992 0.0000 1.4482
# 5 -34.0438 -3.8449 -17.2751 0.0000 36.9124 0.0000
# 6 0.0000 0.0000 0.0000 1.4482 0.0000 10.9461
#
#
#
# Elastic Compliance Matrix: (Units=1/GPa)
#
#
# Indices 1 2 3 4 5 6 
#
# 1 0.008795 -0.002984 -0.004065 0.000000 0.005898 0.000000
# 2 -0.002984 0.037320 0.004679 0.000000 0.003324 0.000000
# 3 -0.004065 0.004679 0.015157 0.000000 0.003832 0.000000
# 4 0.000000 0.000000 0.000000 0.044628 0.000000 -0.005904
# 5 0.005898 0.003324 0.003832 0.000000 0.034670 0.000000
# 6 0.000000 0.000000 0.000000 -0.005904 0.000000 0.092138
#
#
# Mechanical properties :
#
#
# Convention : Reuss Voigt Hill
#
# Bulk Modulus (GPa) = 17.68968 42.66728 30.17848
# Shear Modulus (GPa) = 19.50897 28.92400 24.21649
#
# Velocity S-wave (km/s) = 2.93460 3.57323 3.26954
# Velocity P-wave (km/s) = 4.39218 5.98820 5.25118
#
# Compressibility (1/GPa) = 0.05653014
#
# Stress axis : x y z
#
# Youngs Moduli (GPa) = 113.70222 26.79546 65.97701
#
# Poissons Ratio (x) = 0.07997 0.26820
# Poissons Ratio (y) = 0.33933 -0.30869
# Poissons Ratio (z) = 0.46220 -0.12537
#
# Static dielectric constant tensor:
#      x y z
#    x 2.063870 0.000000 0.000630 
#    y 0.000000 1.837430 0.000000 
#    z 0.000630 0.000000 1.775860 
# 
# From -- ./inp_files/73086.got.cif
#   From: 2010.05.17/outbox.cif.g08.bks.cpg/sg11_37_cif.got.tgz:73086.got - 2010.06.03 12:22:45.
