data_PCOD9164873
_publ_section_title
;
Structure prediction by ZEFSAII (Michael W. Deem and Ramdas Pophale) SiO2 
 PCOD9164873
Probable space group: P 21/M
;
_chemical_formula_sum "Si O2"
_cell_formula_units_Z 26
_cell_length_a 12.491299
_cell_length_b 10.323980
_cell_length_c 18.539897
_cell_angle_alpha 90.000000
_cell_angle_beta 140.011799
_cell_angle_gamma 90.000000
_cell_volume 1536.466040
_symmetry_space_group_name_H-M "P 21/M"
_symmetry_group_IT_number 11
_symmetry_cell_setting 'monoclinic'
loop_
_space_group_symop_operation_xyz
x,y,z
-x,1/2+y,-z
-x,-y,-z
x,1/2-y,z
loop_
_atom_site_type_symbol
_atom_site_label
_atom_site_fract_x
_atom_site_fract_y
_atom_site_fract_z
Si Si1 0.893946 0.486527 0.194775
Si Si2 0.648426 0.250000 0.040264
Si Si3 0.278190 0.250000 0.882019
Si Si4 0.284037 0.014251 0.633396
Si Si5 0.253210 0.402025 0.361550
Si Si6 0.956041 0.104510 0.380521
Si Si7 0.405803 0.250000 0.790610
Si Si8 0.422168 0.900967 0.561864
O O1 0.757248 0.376022 0.111533
O O2 0.813035 0.623684 0.135709
O O3 0.937890 0.487214 0.302639
O O4 0.067159 0.447622 0.246637
O O5 0.477401 0.250000 0.998650
O O6 0.580598 0.250000 0.923124
O O7 0.278408 0.250000 0.793587
O O8 0.377415 0.124397 0.726961
O O9 0.126486 0.078870 0.510946
O O10 0.197014 0.917346 0.644611
O O11 0.392054 0.944034 0.628282
O O12 0.249789 0.250000 0.383012
O O13 0.386923 0.410659 0.366144
O O14 0.321341 0.498555 0.458879
O O15 0.955897 0.250000 0.352274
O O16 0.369909 0.750000 0.524708
#
# Coordination Sequence:
#
# PCOD9164873 Si02
#       8
#     4   2   2   4   4   4   2   4
#     4  12  20  37  61  86 115 148 192 236 289 336
#     4  10  22  39  61  81 113 155 194 242 285 336
#     4  10  24  36  53  88 119 146 186 238 285 340
#     4  11  21  34  52  78 119 150 186 226 287 345
#     4  10  21  37  57  87 116 156 189 231 287 338
#     4  11  20  30  52  82 111 150 184 222 284 349
#     4  10  22  37  52  81 112 155 186 228 284 346
#     4  10  22  37  56  85 122 154 190 232 281 346
#
# _framework density 16.921949000000001
#
# number of rings (size 3 to 8) (size 9 to 14) (size 15 to 20)
#    0.462    0.923    5.385    0.923    2.154    0.000 
#    0.000    0.000    1.692    0.923    0.000    0.000 
#    0.000    0.000    0.000    0.000    0.000    0.000 
#
# Total GULP energy -144938.977750 kJ/mol
# GULP energy per Si atom -5574.576067 kJ/mol
# Density = 1.688343 g / cm^3
# Si number density = 16.921949 Si / 1000 Ang^3
#
#
#
# Elastic Constant Matrix: (Units=GPa)
#
#
# Indices 1 2 3 4 5 6 
#
# 1 107.2678 34.8102 19.9491 0.0000 17.0760 0.0000
# 2 34.8102 118.1798 27.8771 0.0000 25.3508 0.0000
# 3 19.9491 27.8771 75.4940 0.0000 17.9264 0.0000
# 4 0.0000 0.0000 0.0000 21.9022 0.0000 -0.0665
# 5 17.0760 25.3508 17.9264 0.0000 28.2371 0.0000
# 6 0.0000 0.0000 0.0000 -0.0665 0.0000 19.8538
#
#
#
# Elastic Compliance Matrix: (Units=1/GPa)
#
#
# Indices 1 2 3 4 5 6 
#
# 1 0.010840 -0.002070 -0.001160 0.000000 -0.003961 0.000000
# 2 -0.002070 0.011119 -0.001749 0.000000 -0.007620 0.000000
# 3 -0.001160 -0.001749 0.016084 0.000000 -0.007939 0.000000
# 4 0.000000 0.000000 0.000000 0.045658 0.000000 0.000153
# 5 -0.003961 -0.007620 -0.007939 0.000000 0.049691 0.000000
# 6 0.000000 0.000000 0.000000 0.000153 0.000000 0.050369
#
#
# Mechanical properties :
#
#
# Convention : Reuss Voigt Hill
#
# Bulk Modulus (GPa) = 35.60637 51.80162 43.70400
# Shear Modulus (GPa) = 24.62095 28.55231 26.58663
#
# Velocity S-wave (km/s) = 3.81855 4.11213 3.96805
# Velocity P-wave (km/s) = 6.36623 7.29552 6.84666
#
# Compressibility (1/GPa) = 0.02808486
#
# Stress axis : x y z
#
# Youngs Moduli (GPa) = 92.24762 89.94002 62.17502
#
# Poissons Ratio (x) = 0.18616 0.07210
# Poissons Ratio (y) = 0.19094 0.10877
# Poissons Ratio (z) = 0.10697 0.15734
#
# Static dielectric constant tensor:
#      x y z
#    x 1.582630 0.000000 0.009380 
#    y 0.000000 1.583270 0.000000 
#    z 0.009380 0.000000 1.555540 
# 
# From -- ./inp_files/59108.got.cif
#   From: 2010.05.17/outbox.cif.g08.bks.cpg/sg11_30_cif.got.tgz:59108.got - 2010.06.03 12:22:45.
