data_PCOD9164937
_publ_section_title
;
Structure prediction by ZEFSAII (Michael W. Deem and Ramdas Pophale) SiO2 
 PCOD9164937
Probable space group: P 21/M
;
_chemical_formula_sum "Si O2"
_cell_formula_units_Z 32
_cell_length_a 15.436701
_cell_length_b 7.720414
_cell_length_c 12.862290
_cell_angle_alpha 90.000000
_cell_angle_beta 109.040491
_cell_angle_gamma 90.000000
_cell_volume 1449.030888
_symmetry_space_group_name_H-M "P 21/M"
_symmetry_group_IT_number 11
_symmetry_cell_setting 'monoclinic'
loop_
_space_group_symop_operation_xyz
x,y,z
-x,1/2+y,-z
-x,-y,-z
x,1/2-y,z
loop_
_atom_site_type_symbol
_atom_site_label
_atom_site_fract_x
_atom_site_fract_y
_atom_site_fract_z
Si Si1 0.358472 0.451090 0.186671
Si Si2 0.156574 0.550953 0.098662
Si Si3 0.531977 0.042197 0.128257
Si Si4 0.103961 0.962976 0.855698
Si Si5 0.090181 0.449621 0.295634
Si Si6 0.740187 0.462163 0.240362
Si Si7 0.762876 0.452817 0.479151
Si Si8 0.604677 0.042162 0.564971
O O1 0.348966 0.250000 0.152539
O O2 0.265061 0.543591 0.117805
O O3 0.451812 0.522575 0.173035
O O4 0.367704 0.464556 0.313899
O O5 0.129157 0.750000 0.103154
O O6 0.137184 0.459972 0.200367
O O7 0.106999 0.479161 0.976833
O O8 0.535900 0.250000 0.143879
O O9 0.635106 0.978800 0.187555
O O10 0.500000 0.000000 0.000000
O O11 0.102843 0.750000 0.858795
O O12 0.192907 0.018475 0.825910
O O13 0.011754 0.020714 0.761927
O O14 0.081628 0.250000 0.322609
O O15 0.152833 0.532286 0.408589
O O16 0.740900 0.250000 0.235809
O O17 0.776006 0.520148 0.367744
O O18 0.743461 0.250000 0.456954
O O19 0.673486 0.524954 0.503068
O O20 0.615350 0.250000 0.577069
O O21 0.500000 0.000000 0.500000
#
# Coordination Sequence:
#
# PCOD9164937 Si02
#       8
#     4   4   4   4   4   4   4   4
#     4  11  22  36  56  86 119 152 192 239 292 348
#     4  11  21  37  60  86 116 153 198 242 295 361
#     4  10  21  37  59  86 117 155 196 239 289 348
#     4   9  20  36  58  86 114 150 196 243 296 354
#     4  11  22  37  58  86 118 151 191 246 302 347
#     4   9  18  37  60  82 114 155 195 236 285 348
#     4  10  21  38  60  84 114 154 197 238 285 349
#     4  11  22  36  56  83 115 152 195 238 287 345
#
# _framework density 22.083725000000001
#
# number of rings (size 3 to 8) (size 9 to 14) (size 15 to 20)
#    0.000    1.750    1.250    3.375    0.000    5.000 
#    0.000    2.500    0.000    3.750    0.000    0.000 
#    0.000    0.000    0.000    0.000    0.000    0.000 
#
# Total GULP energy -178849.174783 kJ/mol
# GULP energy per Si atom -5589.036712 kJ/mol
# Density = 2.203346 g / cm^3
# Si number density = 22.083725 Si / 1000 Ang^3
#
#
#
# Elastic Constant Matrix: (Units=GPa)
#
#
# Indices 1 2 3 4 5 6 
#
# 1 82.4049 -5.7318 12.5062 0.0000 6.3912 0.0000
# 2 -5.7318 33.5722 -14.1308 0.0000 -3.8185 0.0000
# 3 12.5062 -14.1308 105.2704 0.0000 1.1030 0.0000
# 4 0.0000 0.0000 0.0000 14.5060 0.0000 5.2034
# 5 6.3912 -3.8185 1.1030 0.0000 36.7340 0.0000
# 6 0.0000 0.0000 0.0000 5.2034 0.0000 14.5288
#
#
#
# Elastic Compliance Matrix: (Units=1/GPa)
#
#
# Indices 1 2 3 4 5 6 
#
# 1 0.012582 0.001377 -0.001289 0.000000 -0.002007 0.000000
# 2 0.001377 0.032091 0.004113 0.000000 0.002973 0.000000
# 3 -0.001289 0.004113 0.010201 0.000000 0.000345 0.000000
# 4 0.000000 0.000000 0.000000 0.079099 0.000000 -0.028329
# 5 -0.002007 0.002973 0.000345 0.000000 0.027871 0.000000
# 6 0.000000 0.000000 0.000000 -0.028329 0.000000 0.078974
#
#
# Mechanical properties :
#
#
# Convention : Reuss Voigt Hill
#
# Bulk Modulus (GPa) = 15.80351 22.94830 19.37590
# Shear Modulus (GPa) = 19.72327 28.39401 24.05864
#
# Velocity S-wave (km/s) = 2.99174 3.58962 3.30423
# Velocity P-wave (km/s) = 4.37101 5.25305 4.83220
#
# Compressibility (1/GPa) = 0.06327709
#
# Stress axis : x y z
#
# Youngs Moduli (GPa) = 79.47679 31.16135 98.03019
#
# Poissons Ratio (x) = -0.04292 0.12635
# Poissons Ratio (y) = -0.10947 -0.40319
# Poissons Ratio (z) = 0.10244 -0.12816
#
# Static dielectric constant tensor:
#      x y z
#    x 1.793990 0.000000 -0.001490 
#    y 0.000000 1.664410 0.000000 
#    z -0.001490 0.000000 1.777130 
# 
# From -- ./inp_files/38368.got.cif
#   From: 2010.05.17/outbox.cif.g08.bks.cpg/sg11_20_cif.got.tgz:38368.got - 2010.06.03 12:22:45.
