data_PCOD9164930
_publ_section_title
;
Structure prediction by ZEFSAII (Michael W. Deem and Ramdas Pophale) SiO2 
 PCOD9164930
Probable space group: P 21/M
;
_chemical_formula_sum "Si O2"
_cell_formula_units_Z 24
_cell_length_a 8.810456
_cell_length_b 15.426316
_cell_length_c 15.255493
_cell_angle_alpha 90.000000
_cell_angle_beta 145.028357
_cell_angle_gamma 90.000000
_cell_volume 1188.422942
_symmetry_space_group_name_H-M "P 21/M"
_symmetry_group_IT_number 11
_symmetry_cell_setting 'monoclinic'
loop_
_space_group_symop_operation_xyz
x,y,z
-x,1/2+y,-z
-x,-y,-z
x,1/2-y,z
loop_
_atom_site_type_symbol
_atom_site_label
_atom_site_fract_x
_atom_site_fract_y
_atom_site_fract_z
Si Si1 0.265031 0.850605 0.760287
Si Si2 0.176045 0.646983 0.354790
Si Si3 0.795770 0.067780 0.444941
Si Si4 0.810632 0.581058 0.829721
Si Si5 0.244596 0.349486 0.383000
Si Si6 0.832122 0.583800 0.033376
O O1 0.313669 0.750000 0.808821
O O2 0.216652 0.856090 0.633386
O O3 0.007139 0.887661 0.687112
O O4 0.519728 0.908744 0.901933
O O5 0.197315 0.750000 0.381528
O O6 0.115464 0.600474 0.417892
O O7 0.466271 0.612923 0.462239
O O8 0.977199 0.629943 0.181905
O O9 0.485558 0.038925 0.304030
O O10 0.000000 0.000000 0.500000
O O11 0.794948 0.644438 0.739919
O O12 0.035090 0.510518 0.913980
O O13 0.867818 0.622326 0.951767
O O14 0.251297 0.250000 0.415559
#
# Coordination Sequence:
#
# PCOD9164930 Si02
#       6
#     4   4   4   4   4   4
#     4  10  21  39  59  84 117 156 193 232 289 356
#     4  10  21  38  60  85 113 152 197 243 286 342
#     4  10  22  37  60  87 116 156 194 242 293 344
#     4   9  21  39  56  85 119 155 193 233 289 359
#     4   9  20  37  60  84 112 153 196 235 284 348
#     4  10  21  37  59  84 117 150 188 244 287 342
#
# _framework density 20.194831000000001
#
# number of rings (size 3 to 8) (size 9 to 14) (size 15 to 20)
#    0.000    2.333    0.000    1.000    4.667    6.667 
#    6.000    0.000    0.000    0.000    0.000    0.000 
#    0.000    0.000    0.000    0.000    0.000    0.000 
#
# Total GULP energy -133796.671035 kJ/mol
# GULP energy per Si atom -5574.861293 kJ/mol
# Density = 2.014887 g / cm^3
# Si number density = 20.194831 Si / 1000 Ang^3
#
#
#
# Elastic Constant Matrix: (Units=GPa)
#
#
# Indices 1 2 3 4 5 6 
#
# 1 125.8485 27.4471 77.1213 0.0000 9.6572 0.0000
# 2 27.4471 46.9047 30.6201 0.0000 11.1840 0.0000
# 3 77.1213 30.6201 104.6100 0.0000 -6.0078 0.0000
# 4 0.0000 0.0000 0.0000 18.2752 0.0000 -6.6623
# 5 9.6572 11.1840 -6.0078 0.0000 43.3273 0.0000
# 6 0.0000 0.0000 0.0000 -6.6623 0.0000 30.2622
#
#
#
# Elastic Compliance Matrix: (Units=1/GPa)
#
#
# Indices 1 2 3 4 5 6 
#
# 1 0.015537 -0.000288 -0.011657 0.000000 -0.005005 0.000000
# 2 -0.000288 0.029378 -0.008889 0.000000 -0.008752 0.000000
# 3 -0.011657 -0.008889 0.021205 0.000000 0.007833 0.000000
# 4 0.000000 0.000000 0.000000 0.059494 0.000000 0.013098
# 5 -0.005005 -0.008752 0.007833 0.000000 0.027541 0.000000
# 6 0.000000 0.000000 0.000000 0.013098 0.000000 0.035928
#
#
# Mechanical properties :
#
#
# Convention : Reuss Voigt Hill
#
# Bulk Modulus (GPa) = 40.89866 60.86003 50.87934
# Shear Modulus (GPa) = 20.92906 27.85124 24.39015
#
# Velocity S-wave (km/s) = 3.22274 3.71769 3.47903
# Velocity P-wave (km/s) = 5.84330 6.97353 6.43328
#
# Compressibility (1/GPa) = 0.02445068
#
# Stress axis : x y z
#
# Youngs Moduli (GPa) = 64.36443 34.03861 47.15857
#
# Poissons Ratio (x) = 0.00981 0.54973
# Poissons Ratio (y) = 0.01855 0.41921
# Poissons Ratio (z) = 0.75030 0.30258
#
# Static dielectric constant tensor:
#      x y z
#    x 1.727100 0.000000 0.014230 
#    y 0.000000 1.726320 0.000000 
#    z 0.014230 0.000000 1.718300 
# 
# From -- ./inp_files/14406.got.cif
#   From: 2010.05.17/outbox.cif.g08.bks.cpg/sg11_8_cif.got.tgz:14406.got - 2010.06.03 12:22:45.
