data_PCOD9164718
_publ_section_title
;
Structure prediction by ZEFSAII (Michael W. Deem and Ramdas Pophale) SiO2 
 PCOD9164718
Probable space group: P 21/M
;
_chemical_formula_sum "Si O2"
_cell_formula_units_Z 32
_cell_length_a 9.198775
_cell_length_b 21.399091
_cell_length_c 14.864258
_cell_angle_alpha 90.000000
_cell_angle_beta 37.506850
_cell_angle_gamma 90.000000
_cell_volume 1781.489809
_symmetry_space_group_name_H-M "P 21/M"
_symmetry_group_IT_number 11
_symmetry_cell_setting 'monoclinic'
loop_
_space_group_symop_operation_xyz
x,y,z
-x,1/2+y,-z
-x,-y,-z
x,1/2-y,z
loop_
_atom_site_type_symbol
_atom_site_label
_atom_site_fract_x
_atom_site_fract_y
_atom_site_fract_z
Si Si1 0.378677 0.177186 0.020246
Si Si2 0.656137 0.101433 0.120642
Si Si3 0.896650 0.435991 0.506205
Si Si4 0.217312 0.580394 0.150626
Si Si5 0.035509 0.084633 0.087832
Si Si6 0.215486 0.993309 0.630593
Si Si7 0.526390 0.024510 0.813381
Si Si8 0.233602 0.178754 0.300260
O O1 0.404854 0.250000 0.987661
O O2 0.181717 0.143059 0.056032
O O3 0.275305 0.170158 0.172485
O O4 0.635584 0.141819 0.887838
O O5 0.498611 0.163464 0.206381
O O6 0.866688 0.100758 0.088089
O O7 0.470431 0.044741 0.228330
O O8 0.739864 0.087112 0.977299
O O9 0.836157 0.455307 0.434788
O O10 0.662389 0.427578 0.682292
O O11 0.000000 0.500000 0.500000
O O12 0.052310 0.373219 0.426490
O O13 0.354882 0.528862 0.145778
O O14 0.941941 0.557922 0.296938
O O15 0.888790 0.047216 0.235666
O O16 0.249290 0.040018 0.952280
O O17 0.500000 0.000000 0.500000
O O18 0.161229 0.250000 0.353499
#
# Coordination Sequence:
#
# PCOD9164718 Si02
#       8
#     4   4   4   4   4   4   4   4
#     4   9  20  40  64  85 111 158 209 248 300 364
#     4  11  20  34  59  90 119 155 197 245 301 361
#     4  12  22  37  61  90 122 157 203 254 297 362
#     4  10  21  36  59  86 120 156 197 252 292 355
#     4  11  23  36  59  88 121 155 192 250 304 358
#     4  12  24  36  57  92 127 154 192 247 314 362
#     4  11  21  35  59  86 121 157 199 245 303 350
#     4  10  21  39  62  86 117 161 205 248 303 367
#
# _framework density 17.962494
#
# number of rings (size 3 to 8) (size 9 to 14) (size 15 to 20)
#    0.000    1.250    5.000    1.500    3.500    0.500 
#    0.000    2.500    0.000    1.500    0.000    0.000 
#    0.000    0.000    0.000    0.000    0.000    0.000 
#
# Total GULP energy -178215.382517 kJ/mol
# GULP energy per Si atom -5569.230704 kJ/mol
# Density = 1.792161 g / cm^3
# Si number density = 17.962494 Si / 1000 Ang^3
#
#
#
# Elastic Constant Matrix: (Units=GPa)
#
#
# Indices 1 2 3 4 5 6 
#
# 1 115.7170 55.5775 36.9465 0.0000 -6.5512 0.0000
# 2 55.5775 115.1053 49.6508 0.0000 -17.3731 0.0000
# 3 36.9465 49.6508 109.8054 0.0000 -12.6463 0.0000
# 4 0.0000 0.0000 0.0000 25.9939 0.0000 0.7445
# 5 -6.5512 -17.3731 -12.6463 0.0000 26.5209 0.0000
# 6 0.0000 0.0000 0.0000 0.7445 0.0000 11.4275
#
#
#
# Elastic Compliance Matrix: (Units=1/GPa)
#
#
# Indices 1 2 3 4 5 6 
#
# 1 0.011535 -0.004999 -0.001767 0.000000 -0.001268 0.000000
# 2 -0.004999 0.013629 -0.003804 0.000000 0.005880 0.000000
# 3 -0.001767 -0.003804 0.011728 0.000000 0.002664 0.000000
# 4 0.000000 0.000000 0.000000 0.038543 0.000000 -0.002511
# 5 -0.001268 0.005880 0.002664 0.000000 0.042515 0.000000
# 6 0.000000 0.000000 0.000000 -0.002511 0.000000 0.087672
#
#
# Mechanical properties :
#
#
# Convention : Reuss Voigt Hill
#
# Bulk Modulus (GPa) = 63.47596 69.44193 66.45894
# Shear Modulus (GPa) = 21.55054 26.01862 23.78458
#
# Velocity S-wave (km/s) = 3.46750 3.81004 3.64280
# Velocity P-wave (km/s) = 7.17260 7.62224 7.40084
#
# Compressibility (1/GPa) = 0.01575400
#
# Stress axis : x y z
#
# Youngs Moduli (GPa) = 86.69274 73.37034 85.26357
#
# Poissons Ratio (x) = 0.36676 0.15065
# Poissons Ratio (y) = 0.43335 0.32432
# Poissons Ratio (z) = 0.15318 0.27908
#
# Static dielectric constant tensor:
#      x y z
#    x 1.625620 0.000000 -0.054650 
#    y 0.000000 1.624290 0.000000 
#    z -0.054650 0.000000 2.058800 
# 
# From -- ./inp_files/48231.got.cif
#   From: 2010.05.17/outbox.cif.g08.bks.cpg/sg11_25_cif.got.tgz:48231.got - 2010.06.03 12:22:45.
