data_PCOD9164762
_publ_section_title
;
Structure prediction by ZEFSAII (Michael W. Deem and Ramdas Pophale) SiO2 
 PCOD9164762
Probable space group: P 21/M
;
_chemical_formula_sum "Si O2"
_cell_formula_units_Z 32
_cell_length_a 20.481475
_cell_length_b 7.959445
_cell_length_c 10.878985
_cell_angle_alpha 90.000000
_cell_angle_beta 124.307315
_cell_angle_gamma 90.000000
_cell_volume 1464.961768
_symmetry_space_group_name_H-M "P 21/M"
_symmetry_group_IT_number 11
_symmetry_cell_setting 'monoclinic'
loop_
_space_group_symop_operation_xyz
x,y,z
-x,1/2+y,-z
-x,-y,-z
x,1/2-y,z
loop_
_atom_site_type_symbol
_atom_site_label
_atom_site_fract_x
_atom_site_fract_y
_atom_site_fract_z
Si Si1 0.306773 0.450992 0.309287
Si Si2 0.116809 0.951435 0.577265
Si Si3 0.587947 0.059694 0.072367
Si Si4 0.545389 0.548770 0.673817
Si Si5 0.394134 0.448385 0.648355
Si Si6 0.979679 0.048398 0.282327
Si Si7 0.163553 0.952224 0.015363
Si Si8 0.738956 0.456177 0.122434
O O1 0.315750 0.250000 0.319683
O O2 0.365833 0.513529 0.262774
O O3 0.342682 0.509578 0.477322
O O4 0.215982 0.491738 0.185874
O O5 0.115827 0.750000 0.579590
O O6 0.066932 0.011829 0.644278
O O7 0.205434 0.006287 0.703214
O O8 0.070224 0.002172 0.405180
O O9 0.581314 0.250000 0.025893
O O10 0.650649 0.975708 0.047177
O O11 0.625198 0.044272 0.247772
O O12 0.500000 0.000000 0.000000
O O13 0.500000 0.500000 0.500000
O O14 0.545618 0.750000 0.690260
O O15 0.487253 0.473567 0.714128
O O16 0.380994 0.250000 0.652380
O O17 0.976267 0.250000 0.278094
O O18 0.926102 0.990086 0.110226
O O19 0.162468 0.750000 0.016491
O O20 0.215654 0.007688 0.952421
O O21 0.737032 0.250000 0.118560
#
# Coordination Sequence:
#
# PCOD9164762 Si02
#       8
#     4   4   4   4   4   4   4   4
#     4   9  19  32  47  70  97 122 155 201 244 287
#     4   8  13  25  45  64  89 125 161 188 225 283
#     4  11  23  38  54  72  97 128 167 209 249 290
#     4   9  17  30  47  69  93 119 155 200 246 291
#     4  10  21  37  52  68  93 126 165 208 252 292
#     4   8  14  24  39  66  99 125 152 187 229 280
#     4   9  17  29  47  71 101 133 159 187 236 297
#     4   8  17  33  49  69  96 129 163 198 239 288
#
# _framework density 21.843572999999999
#
# number of rings (size 3 to 8) (size 9 to 14) (size 15 to 20)
#    0.000    3.000    0.000    3.375    1.750    3.500 
#    0.000    3.750    0.000    0.000    0.000    0.875 
#    0.000    0.000    0.000    0.000    0.000    0.000 
#
# Total GULP energy -178232.161948 kJ/mol
# GULP energy per Si atom -5569.755061 kJ/mol
# Density = 2.179386 g / cm^3
# Si number density = 21.843573 Si / 1000 Ang^3
#
#
#
# Elastic Constant Matrix: (Units=GPa)
#
#
# Indices 1 2 3 4 5 6 
#
# 1 15.5052 -0.8376 3.8651 0.0000 6.1922 0.0000
# 2 -0.8376 21.2817 2.2496 0.0000 5.0486 0.0000
# 3 3.8651 2.2496 113.1530 0.0000 25.2365 0.0000
# 4 0.0000 0.0000 0.0000 27.1071 0.0000 4.8704
# 5 6.1922 5.0486 25.2365 0.0000 31.8194 0.0000
# 6 0.0000 0.0000 0.0000 4.8704 0.0000 10.9761
#
#
#
# Elastic Compliance Matrix: (Units=1/GPa)
#
#
# Indices 1 2 3 4 5 6 
#
# 1 0.070807 0.006371 0.000915 0.000000 -0.015516 0.000000
# 2 0.006371 0.049479 0.001004 0.000000 -0.009886 0.000000
# 3 0.000915 0.001004 0.010766 0.000000 -0.008876 0.000000
# 4 0.000000 0.000000 0.000000 0.040087 0.000000 -0.017787
# 5 -0.015516 -0.009886 -0.008876 0.000000 0.043055 0.000000
# 6 0.000000 0.000000 0.000000 -0.017787 0.000000 0.098999
#
#
# Mechanical properties :
#
#
# Convention : Reuss Voigt Hill
#
# Bulk Modulus (GPa) = 6.77361 17.83268 12.30314
# Shear Modulus (GPa) = 14.45823 23.62472 19.04148
#
# Velocity S-wave (km/s) = 2.57553 3.29225 2.95569
# Velocity P-wave (km/s) = 3.45719 4.75746 4.15846
#
# Compressibility (1/GPa) = 0.14763174
#
# Stress axis : x y z
#
# Youngs Moduli (GPa) = 14.12289 20.21067 92.88506
#
# Poissons Ratio (x) = -0.12876 -0.08502
# Poissons Ratio (y) = -0.08998 -0.09322
# Poissons Ratio (z) = -0.01293 -0.02028
#
# Static dielectric constant tensor:
#      x y z
#    x 1.848530 0.000000 0.035920 
#    y 0.000000 1.772510 0.000000 
#    z 0.035920 0.000000 1.868020 
# 
# From -- ./inp_files/43824.got.cif
#   From: 2010.05.17/outbox.cif.g08.bks.cpg/sg11_22_cif.got.tgz:43824.got - 2010.06.03 12:22:45.
