data_PCOD9164571
_publ_section_title
;
Structure prediction by ZEFSAII (Michael W. Deem and Ramdas Pophale) SiO2 
 PCOD9164571
Probable space group: P 21/M
;
_chemical_formula_sum "Si O2"
_cell_formula_units_Z 28
_cell_length_a 15.851203
_cell_length_b 8.016626
_cell_length_c 18.986975
_cell_angle_alpha 90.000000
_cell_angle_beta 141.881257
_cell_angle_gamma 90.000000
_cell_volume 1489.365095
_symmetry_space_group_name_H-M "P 21/M"
_symmetry_group_IT_number 11
_symmetry_cell_setting 'monoclinic'
loop_
_space_group_symop_operation_xyz
x,y,z
-x,1/2+y,-z
-x,-y,-z
x,1/2-y,z
loop_
_atom_site_type_symbol
_atom_site_label
_atom_site_fract_x
_atom_site_fract_y
_atom_site_fract_z
Si Si1 0.396140 0.054067 0.211572
Si Si2 0.326706 0.548277 0.668016
Si Si3 0.911117 0.549349 0.009705
Si Si4 0.894061 0.951928 0.595002
Si Si5 0.889076 0.450875 0.368083
Si Si6 0.407276 0.558056 0.374305
Si Si7 0.131312 0.051876 0.261500
O O1 0.388097 0.250000 0.189434
O O2 0.522324 0.982577 0.249849
O O3 0.430335 0.037625 0.316712
O O4 0.244185 0.984726 0.099346
O O5 0.332905 0.750000 0.675159
O O6 0.226241 0.505159 0.536986
O O7 0.253411 0.488509 0.691957
O O8 0.908825 0.750000 0.010977
O O9 0.989254 0.481254 0.129093
O O10 0.000000 0.500000 0.000000
O O11 0.895290 0.750000 0.596927
O O12 0.870783 0.008697 0.659360
O O13 0.039178 0.009364 0.656796
O O14 0.880991 0.250000 0.358843
O O15 0.000000 0.500000 0.500000
O O16 0.500000 0.500000 0.500000
O O17 0.437233 0.750000 0.379425
O O18 0.251358 0.534242 0.296313
O O19 0.159905 0.250000 0.279655
#
# Coordination Sequence:
#
# PCOD9164571 Si02
#       7
#     4   4   4   4   4   4   4
#     4  10  21  36  53  74 101 131 169 213 255 303
#     4   9  17  30  51  77 103 132 164 204 251 304
#     4  11  22  37  56  74  97 132 176 219 260 303
#     4   9  18  31  49  75 105 135 164 203 251 302
#     4   8  14  27  47  72 101 131 164 198 244 301
#     4  12  24  36  52  74 103 136 167 204 256 307
#     4  11  22  36  53  74 102 134 173 215 254 302
#
# _framework density 18.799958
#
# number of rings (size 3 to 8) (size 9 to 14) (size 15 to 20)
#    0.000    2.000    1.429    3.000    0.000    4.571 
#    0.000    0.000    0.000    0.857    0.000    0.000 
#    0.000    0.000    0.000    0.000    0.000    0.286 
#
# Total GULP energy -156177.648011 kJ/mol
# GULP energy per Si atom -5577.773143 kJ/mol
# Density = 1.875717 g / cm^3
# Si number density = 18.799958 Si / 1000 Ang^3
#
#
#
# Elastic Constant Matrix: (Units=GPa)
#
#
# Indices 1 2 3 4 5 6 
#
# 1 101.9834 -0.5642 5.2213 0.0000 34.1308 0.0000
# 2 -0.5642 18.7789 -3.8580 0.0000 0.4318 0.0000
# 3 5.2213 -3.8580 55.1773 0.0000 26.0144 0.0000
# 4 0.0000 0.0000 0.0000 20.0174 0.0000 3.1176
# 5 34.1308 0.4318 26.0144 0.0000 29.6799 0.0000
# 6 0.0000 0.0000 0.0000 3.1176 0.0000 10.4304
#
#
#
# Elastic Compliance Matrix: (Units=1/GPa)
#
#
# Indices 1 2 3 4 5 6 
#
# 1 0.023317 0.005493 0.018503 0.000000 -0.043111 0.000000
# 2 0.005493 0.056184 0.011542 0.000000 -0.017251 0.000000
# 3 0.018503 0.011542 0.046511 0.000000 -0.062213 0.000000
# 4 0.000000 0.000000 0.000000 0.052396 0.000000 -0.015661
# 5 -0.043111 -0.017251 -0.062213 0.000000 0.138050 0.000000
# 6 0.000000 0.000000 0.000000 -0.015661 0.000000 0.100555
#
#
# Mechanical properties :
#
#
# Convention : Reuss Voigt Hill
#
# Bulk Modulus (GPa) = 5.07386 19.72642 12.40014
# Shear Modulus (GPa) = 12.14679 23.70158 17.92419
#
# Velocity S-wave (km/s) = 2.54462 3.55452 3.09109
# Velocity P-wave (km/s) = 3.36722 5.23085 4.39886
#
# Compressibility (1/GPa) = 0.19708854
#
# Stress axis : x y z
#
# Youngs Moduli (GPa) = 42.88780 17.79864 21.50027
#
# Poissons Ratio (x) = -0.09777 -0.39783
# Poissons Ratio (y) = -0.23559 -0.24815
# Poissons Ratio (z) = -0.79357 -0.20543
#
# Static dielectric constant tensor:
#      x y z
#    x 1.690300 0.000000 0.033060 
#    y 0.000000 1.642300 0.000000 
#    z 0.033060 0.000000 1.629490 
# 
# From -- ./inp_files/42320.got.cif
#   From: 2010.05.17/outbox.cif.g08.bks.cpg/sg11_22_cif.got.tgz:42320.got - 2010.06.03 12:22:45.
