data_PCOD9164958
_publ_section_title
;
Structure prediction by ZEFSAII (Michael W. Deem and Ramdas Pophale) SiO2 
 PCOD9164958
Probable space group: P 21/M
;
_chemical_formula_sum "Si O2"
_cell_formula_units_Z 32
_cell_length_a 12.131006
_cell_length_b 19.210742
_cell_length_c 14.978234
_cell_angle_alpha 90.000000
_cell_angle_beta 28.468457
_cell_angle_gamma 90.000000
_cell_volume 1663.886998
_symmetry_space_group_name_H-M "P 21/M"
_symmetry_group_IT_number 11
_symmetry_cell_setting 'monoclinic'
loop_
_space_group_symop_operation_xyz
x,y,z
-x,1/2+y,-z
-x,-y,-z
x,1/2-y,z
loop_
_atom_site_type_symbol
_atom_site_label
_atom_site_fract_x
_atom_site_fract_y
_atom_site_fract_z
Si Si1 0.710468 0.169787 0.067353
Si Si2 0.194197 0.380083 0.663034
Si Si3 0.852123 0.665681 0.967284
Si Si4 0.200035 0.436825 0.149428
Si Si5 0.729604 0.995511 0.529050
Si Si6 0.446847 0.449764 0.163604
Si Si7 0.689072 0.170457 0.281470
Si Si8 0.227563 0.450881 0.827138
O O1 0.638830 0.250000 0.120481
O O2 0.531260 0.123022 0.142482
O O3 0.725085 0.139154 0.157574
O O4 0.961681 0.162242 0.844649
O O5 0.191875 0.423992 0.573982
O O6 0.426735 0.335709 0.495846
O O7 0.223380 0.431033 0.726358
O O8 0.809269 0.750000 0.002327
O O9 0.760565 0.629909 0.942133
O O10 0.127701 0.648443 0.775172
O O11 0.774474 0.619147 0.108641
O O12 0.322257 0.436711 0.158698
O O13 0.929093 0.450758 0.358826
O O14 0.325831 0.501778 0.010669
O O15 0.709875 0.986270 0.649510
O O16 0.472474 0.013303 0.676602
O O17 0.753533 0.250000 0.220520
O O18 0.000000 0.500000 0.000000
#
# Coordination Sequence:
#
# PCOD9164958 Si02
#       8
#     4   4   4   4   4   4   4   4
#     4  11  22  39  61  92 129 163 203 260 322 384
#     4  12  21  35  61  93 129 164 205 251 320 381
#     4  11  23  42  65  92 130 173 212 258 325 391
#     4  11  24  43  67  89 121 166 221 269 313 374
#     4  12  22  39  64  96 125 165 219 268 316 380
#     4  11  23  43  66  92 120 164 218 271 319 374
#     4  10  21  37  59  88 125 164 200 246 310 384
#     4  12  23  38  62  98 138 169 210 260 318 391
#
# _framework density 19.232074999999998
#
# number of rings (size 3 to 8) (size 9 to 14) (size 15 to 20)
#    0.000    0.750    5.000    4.125    0.000    1.000 
#    0.000    0.625    0.000    0.000    0.000    0.000 
#    0.000    0.000    0.000    0.000    0.000    0.000 
#
# Total GULP energy -178518.452901 kJ/mol
# GULP energy per Si atom -5578.701653 kJ/mol
# Density = 1.918830 g / cm^3
# Si number density = 19.232075 Si / 1000 Ang^3
#
#
#
# Elastic Constant Matrix: (Units=GPa)
#
#
# Indices 1 2 3 4 5 6 
#
# 1 67.0129 30.7816 24.0531 0.0000 15.8242 0.0000
# 2 30.7816 95.6788 24.8067 0.0000 2.6180 0.0000
# 3 24.0531 24.8067 87.7956 0.0000 4.3704 0.0000
# 4 0.0000 0.0000 0.0000 30.3977 0.0000 1.1593
# 5 15.8242 2.6180 4.3704 0.0000 31.9546 0.0000
# 6 0.0000 0.0000 0.0000 1.1593 0.0000 27.4598
#
#
#
# Elastic Compliance Matrix: (Units=1/GPa)
#
#
# Indices 1 2 3 4 5 6 
#
# 1 0.021039 -0.005544 -0.003727 0.000000 -0.009455 0.000000
# 2 -0.005544 0.012746 -0.002182 0.000000 0.002000 0.000000
# 3 -0.003727 -0.002182 0.013016 0.000000 0.000244 0.000000
# 4 0.000000 0.000000 0.000000 0.032950 0.000000 -0.001391
# 5 -0.009455 0.002000 0.000244 0.000000 0.035779 0.000000
# 6 0.000000 0.000000 0.000000 -0.001391 0.000000 0.036476
#
#
# Mechanical properties :
#
#
# Convention : Reuss Voigt Hill
#
# Bulk Modulus (GPa) = 41.84929 45.53002 43.68965
# Shear Modulus (GPa) = 27.34072 29.35215 28.34643
#
# Velocity S-wave (km/s) = 3.77453 3.91091 3.84332
# Velocity P-wave (km/s) = 6.38776 6.64221 6.51623
#
# Compressibility (1/GPa) = 0.02389527
#
# Stress axis : x y z
#
# Youngs Moduli (GPa) = 47.52993 78.45466 76.83095
#
# Poissons Ratio (x) = 0.43493 0.28635
# Poissons Ratio (y) = 0.26349 0.16766
# Poissons Ratio (z) = 0.17715 0.17120
#
# Static dielectric constant tensor:
#      x y z
#    x 1.687760 0.000000 -0.002480 
#    y 0.000000 1.696470 0.000000 
#    z -0.002480 0.000000 1.685840 
# 
# From -- ./inp_files/50681.got.cif
#   From: 2010.05.17/outbox.cif.g08.bks.cpg/sg11_26_cif.got.tgz:50681.got - 2010.06.03 12:22:45.
