data_PCOD9164172
_publ_section_title
;
Structure prediction by ZEFSAII (Michael W. Deem and Ramdas Pophale) SiO2 
 PCOD9164172
Probable space group: P 21/M
;
_chemical_formula_sum "Si O2"
_cell_formula_units_Z 28
_cell_length_a 8.847458
_cell_length_b 20.730278
_cell_length_c 14.841027
_cell_angle_alpha 90.000000
_cell_angle_beta 28.738173
_cell_angle_gamma 90.000000
_cell_volume 1308.757193
_symmetry_space_group_name_H-M "P 21/M"
_symmetry_group_IT_number 11
_symmetry_cell_setting 'monoclinic'
loop_
_space_group_symop_operation_xyz
x,y,z
-x,1/2+y,-z
-x,-y,-z
x,1/2-y,z
loop_
_atom_site_type_symbol
_atom_site_label
_atom_site_fract_x
_atom_site_fract_y
_atom_site_fract_z
Si Si1 0.799249 0.428505 0.464371
Si Si2 0.185216 0.821696 0.875191
Si Si3 0.451415 0.821316 0.537906
Si Si4 0.291544 0.178544 0.256378
Si Si5 0.796551 0.320568 0.828243
Si Si6 0.878375 0.943172 0.126299
Si Si7 0.823843 0.460852 0.827627
O O1 0.653646 0.380913 0.465898
O O2 0.497383 0.447058 0.679311
O O3 0.066246 0.382733 0.366978
O O4 0.939048 0.493079 0.349109
O O5 0.051807 0.750000 0.960588
O O6 0.267524 0.829310 0.727913
O O7 0.520277 0.824674 0.749433
O O8 0.976919 0.875826 0.029775
O O9 0.364585 0.750000 0.548259
O O10 0.829687 0.820354 0.347257
O O11 0.140851 0.250000 0.330363
O O12 0.559802 0.177527 0.037842
O O13 0.731961 0.250000 0.817221
O O14 0.757516 0.392921 0.811340
O O15 0.031919 0.948769 0.146844
O O16 0.000000 0.000000 0.000000
O O17 0.500000 0.500000 0.000000
#
# Coordination Sequence:
#
# PCOD9164172 Si02
#       7
#     4   4   4   4   4   4   4
#     4  12  23  40  62  93 125 160 204 262 301 365
#     4  10  21  41  63  87 123 163 204 248 303 372
#     4  10  21  38  66  95 122 161 206 254 307 361
#     4  10  20  39  65  93 122 156 202 251 306 365
#     4  10  20  39  64  90 119 162 207 247 301 375
#     4  12  26  42  60  91 126 165 201 252 316 360
#     4  12  23  42  65  90 119 163 210 252 304 367
#
# _framework density 21.394342999999999
#
# number of rings (size 3 to 8) (size 9 to 14) (size 15 to 20)
#    0.000    1.143    4.286    1.714    2.000    1.143 
#    2.571    1.429    0.000    0.000    0.000    0.000 
#    0.000    0.000    0.000    0.000    0.000    0.000 
#
# Total GULP energy -156279.095174 kJ/mol
# GULP energy per Si atom -5581.396256 kJ/mol
# Density = 2.134565 g / cm^3
# Si number density = 21.394343 Si / 1000 Ang^3
#
#
#
# Elastic Constant Matrix: (Units=GPa)
#
#
# Indices 1 2 3 4 5 6 
#
# 1 -18.3659 1.0114 14.8947 0.0000 2.0609 0.0000
# 2 1.0114 186.9757 66.3509 0.0000 9.2722 0.0000
# 3 14.8947 66.3509 102.1472 0.0000 -6.1599 0.0000
# 4 0.0000 0.0000 0.0000 -15.2857 0.0000 19.9302
# 5 2.0609 9.2722 -6.1599 0.0000 13.8370 0.0000
# 6 0.0000 0.0000 0.0000 19.9302 0.0000 7.9205
#
#
#
# Elastic Compliance Matrix: (Units=1/GPa)
#
#
# Indices 1 2 3 4 5 6 
#
# 1 -0.045018 -0.003986 0.009987 0.000000 0.013822 0.000000
# 2 -0.003986 0.007293 -0.004537 0.000000 -0.006313 0.000000
# 3 0.009987 -0.004537 0.011688 0.000000 0.006756 0.000000
# 4 0.000000 0.000000 0.000000 -0.015282 0.000000 0.038454
# 5 0.013822 -0.006313 0.006756 0.000000 0.077449 0.000000
# 6 0.000000 0.000000 0.000000 0.038454 0.000000 0.029493
#
#
# Mechanical properties :
#
#
# Convention : Reuss Voigt Hill
#
# Bulk Modulus (GPa) = -43.27421 48.36342 2.54461
# Shear Modulus (GPa) = 90.92436 13.86104 52.39270
#
# Velocity S-wave (km/s) = 6.52622 2.54812 4.95401
# Velocity P-wave (km/s) = 6.04300 5.59571 5.82365
#
# Compressibility (1/GPa) = -0.02310845
#
# Stress axis : x y z
#
# Youngs Moduli (GPa) = -22.21344 137.12209 85.55983
#
# Poissons Ratio (x) = 0.54656 -0.85448
# Poissons Ratio (y) = -0.08854 0.38815
# Poissons Ratio (z) = 0.22184 0.62207
#
# Static dielectric constant tensor:
#      x y z
#    x 1.789300 0.000000 -0.000180 
#    y 0.000000 1.806350 0.000000 
#    z -0.000180 0.000000 1.790880 
# 
# From -- ./inp_files/23181.got.cif
#   From: 2010.05.17/outbox.cif.g08.bks.cpg/sg11_12_cif.got.tgz:23181.got - 2010.06.03 12:22:45.
