data_PCOD9164103
_publ_section_title
;
Structure prediction by ZEFSAII (Michael W. Deem and Ramdas Pophale) SiO2 
 PCOD9164103
Probable space group: P 21/M
;
_chemical_formula_sum "Si O2"
_cell_formula_units_Z 32
_cell_length_a 27.228002
_cell_length_b 12.278268
_cell_length_c 9.115568
_cell_angle_alpha 90.000000
_cell_angle_beta 26.914536
_cell_angle_gamma 90.000000
_cell_volume 1379.461687
_symmetry_space_group_name_H-M "P 21/M"
_symmetry_group_IT_number 11
_symmetry_cell_setting 'monoclinic'
loop_
_space_group_symop_operation_xyz
x,y,z
-x,1/2+y,-z
-x,-y,-z
x,1/2-y,z
loop_
_atom_site_type_symbol
_atom_site_label
_atom_site_fract_x
_atom_site_fract_y
_atom_site_fract_z
Si Si1 0.090837 0.875923 0.145635
Si Si2 0.357492 0.418801 0.206723
Si Si3 0.429005 0.629454 0.861084
Si Si4 0.577158 0.369089 0.467277
Si Si5 0.868318 0.967880 0.199510
Si Si6 0.649099 0.577813 0.429041
Si Si7 0.137784 0.469559 0.277315
Si Si8 0.103564 0.877694 0.607120
O O1 0.121835 0.750000 0.053201
O O2 0.097240 0.926534 0.289837
O O3 0.158711 0.966411 0.876575
O O4 0.967252 0.894213 0.419123
O O5 0.234361 0.393084 0.491463
O O6 0.370803 0.400618 0.346004
O O7 0.370859 0.544952 0.122704
O O8 0.453559 0.366499 0.856485
O O9 0.382903 0.750000 0.998804
O O10 0.423685 0.599512 0.702649
O O11 0.553514 0.629291 0.585561
O O12 0.626717 0.250000 0.345223
O O13 0.635707 0.450662 0.421728
O O14 0.888288 0.069024 0.254964
O O15 0.977823 0.898219 0.896963
O O16 0.768833 0.600268 0.049138
O O17 0.173662 0.535095 0.326447
O O18 0.130816 0.750000 0.525126
#
# Coordination Sequence:
#
# PCOD9164103 Si02
#       8
#     4   4   4   4   4   4   4   4
#     4  10  20  39  59  83 121 156 192 238 291 349
#     4  11  22  39  62  87 120 156 189 246 298 344
#     4  10  23  41  62  88 116 152 197 242 294 356
#     4  10  23  41  62  88 116 152 197 242 295 355
#     4  10  22  39  60  87 119 153 197 246 291 349
#     4  11  22  39  61  87 122 154 192 245 294 345
#     4  10  22  37  58  89 117 155 197 239 290 347
#     4  10  22  39  59  85 119 158 198 242 291 346
#
# _framework density 23.197455000000001
#
# number of rings (size 3 to 8) (size 9 to 14) (size 15 to 20)
#    0.000    1.750    1.250    3.750    3.500    5.000 
#    0.000    0.000    0.000    0.000    0.000    0.000 
#    0.000    0.000    0.000    0.000    0.000    0.000 
#
# Total GULP energy -178578.456485 kJ/mol
# GULP energy per Si atom -5580.576765 kJ/mol
# Density = 2.314466 g / cm^3
# Si number density = 23.197455 Si / 1000 Ang^3
#
#
#
# Elastic Constant Matrix: (Units=GPa)
#
#
# Indices 1 2 3 4 5 6 
#
# 1 75.5637 -2.8602 19.4175 0.0000 10.9489 0.0000
# 2 -2.8602 68.5061 -20.0628 0.0000 0.0529 0.0000
# 3 19.4175 -20.0628 96.4752 0.0000 -2.9256 0.0000
# 4 0.0000 0.0000 0.0000 -17.0905 0.0000 18.1204
# 5 10.9489 0.0529 -2.9256 0.0000 36.5893 0.0000
# 6 0.0000 0.0000 0.0000 18.1204 0.0000 0.5143
#
#
#
# Elastic Compliance Matrix: (Units=1/GPa)
#
#
# Indices 1 2 3 4 5 6 
#
# 1 0.014710 -0.000309 -0.003166 0.000000 -0.004655 0.000000
# 2 -0.000309 0.015552 0.003307 0.000000 0.000335 0.000000
# 3 -0.003166 0.003307 0.011747 0.000000 0.001882 0.000000
# 4 0.000000 0.000000 0.000000 -0.001526 0.000000 0.053748
# 5 -0.004655 0.000335 0.001882 0.000000 0.028873 0.000000
# 6 0.000000 0.000000 0.000000 0.053748 0.000000 0.050693
#
#
# Mechanical properties :
#
#
# Convention : Reuss Voigt Hill
#
# Bulk Modulus (GPa) = 23.99697 25.94824 24.97260
# Shear Modulus (GPa) = 37.23581 20.27266 28.75424
#
# Velocity S-wave (km/s) = 4.01080 2.95942 3.52453
# Velocity P-wave (km/s) = 5.64055 4.78410 5.22989
#
# Compressibility (1/GPa) = 0.04167193
#
# Stress axis : x y z
#
# Youngs Moduli (GPa) = 67.98002 64.29852 85.12561
#
# Poissons Ratio (x) = 0.01990 0.26953
# Poissons Ratio (y) = 0.02104 -0.28148
# Poissons Ratio (z) = 0.21524 -0.21262
#
# Static dielectric constant tensor:
#      x y z
#    x 1.876760 0.000000 -0.020380 
#    y 0.000000 1.861750 0.000000 
#    z -0.020380 0.000000 1.940480 
# 
# From -- ./inp_files/28848.got.cif
#   From: 2010.05.17/outbox.cif.g08.bks.cpg/sg11_15_cif.got.tgz:28848.got - 2010.06.03 12:22:45.
