data_PCOD9164970
_publ_section_title
;
Structure prediction by ZEFSAII (Michael W. Deem and Ramdas Pophale) SiO2 
 PCOD9164970
Probable space group: P 21/M
;
_chemical_formula_sum "Si O2"
_cell_formula_units_Z 32
_cell_length_a 14.583155
_cell_length_b 23.340995
_cell_length_c 14.624125
_cell_angle_alpha 90.000000
_cell_angle_beta 160.288323
_cell_angle_gamma 90.000000
_cell_volume 1678.960627
_symmetry_space_group_name_H-M "P 21/M"
_symmetry_group_IT_number 11
_symmetry_cell_setting 'monoclinic'
loop_
_space_group_symop_operation_xyz
x,y,z
-x,1/2+y,-z
-x,-y,-z
x,1/2-y,z
loop_
_atom_site_type_symbol
_atom_site_label
_atom_site_fract_x
_atom_site_fract_y
_atom_site_fract_z
Si Si1 0.654823 0.542494 0.758920
Si Si2 0.944526 0.654529 0.687038
Si Si3 0.904992 0.036068 0.251191
Si Si4 0.276454 0.883194 0.763518
Si Si5 0.378361 0.815167 0.237276
Si Si6 0.767515 0.816064 0.315179
Si Si7 0.209935 0.923965 0.192578
Si Si8 0.425285 0.959869 0.740575
O O1 0.737366 0.475042 0.831312
O O2 0.411352 0.558055 0.462679
O O3 0.557839 0.557509 0.769063
O O4 0.913698 0.573539 0.958609
O O5 0.691059 0.669116 0.512932
O O6 0.860869 0.677757 0.508710
O O7 0.995758 0.587053 0.721572
O O8 0.212603 0.679753 0.986037
O O9 0.871248 0.065744 0.318474
O O10 0.122139 0.985298 0.447888
O O11 0.611340 0.011786 0.951108
O O12 0.417196 0.909819 0.807298
O O13 0.034167 0.839364 0.513053
O O14 0.504352 0.853850 0.042028
O O15 0.354296 0.750000 0.247506
O O16 0.263638 0.863174 0.197178
O O17 0.708442 0.750000 0.240174
#
# Coordination Sequence:
#
# PCOD9164970 Si02
#       8
#     4   4   4   4   4   4   4   4
#     4  10  21  37  60  81 109 146 187 238 277 330
#     4  11  22  36  56  87 116 150 190 222 273 349
#     4  11  21  35  56  85 122 153 180 226 282 339
#     4  11  23  37  56  86 117 151 191 232 282 337
#     4  12  23  37  59  86 119 151 184 232 290 355
#     4  11  22  39  58  79 115 156 196 237 275 323
#     4  10  21  38  57  85 111 141 186 231 288 340
#     4  12  22  37  59  85 116 152 190 231 287 339
#
# _framework density 19.05941
#
# number of rings (size 3 to 8) (size 9 to 14) (size 15 to 20)
#    0.000    1.000    0.000    9.750    0.000    2.000 
#    0.000    0.000    0.000    4.500    0.000    0.000 
#    0.000    0.000    0.000    0.000    0.000    0.000 
#
# Total GULP energy -178865.296077 kJ/mol
# GULP energy per Si atom -5589.540502 kJ/mol
# Density = 1.901603 g / cm^3
# Si number density = 19.059410 Si / 1000 Ang^3
#
#
#
# Elastic Constant Matrix: (Units=GPa)
#
#
# Indices 1 2 3 4 5 6 
#
# 1 121.5574 60.6715 22.3102 0.0000 15.3908 0.0000
# 2 60.6715 102.7386 5.4978 0.0000 6.8863 0.0000
# 3 22.3102 5.4978 70.2510 0.0000 21.2221 0.0000
# 4 0.0000 0.0000 0.0000 13.0583 0.0000 -0.5515
# 5 15.3908 6.8863 21.2221 0.0000 20.2357 0.0000
# 6 0.0000 0.0000 0.0000 -0.5515 0.0000 19.9325
#
#
#
# Elastic Compliance Matrix: (Units=1/GPa)
#
#
# Indices 1 2 3 4 5 6 
#
# 1 0.012790 -0.007095 -0.001899 0.000000 -0.005322 0.000000
# 2 -0.007095 0.013902 0.001411 0.000000 -0.000815 0.000000
# 3 -0.001899 0.001411 0.021131 0.000000 -0.021197 0.000000
# 4 0.000000 0.000000 0.000000 0.076670 0.000000 0.002121
# 5 -0.005322 -0.000815 -0.021197 0.000000 0.075973 0.000000
# 6 0.000000 0.000000 0.000000 0.002121 0.000000 0.050228
#
#
# Mechanical properties :
#
#
# Convention : Reuss Voigt Hill
#
# Bulk Modulus (GPa) = 30.61996 52.38957 41.50477
# Shear Modulus (GPa) = 18.06725 24.38312 21.22518
#
# Velocity S-wave (km/s) = 3.08221 3.58064 3.34073
# Velocity P-wave (km/s) = 5.36350 6.68145 6.05842
#
# Compressibility (1/GPa) = 0.03265843
#
# Stress axis : x y z
#
# Youngs Moduli (GPa) = 78.18587 71.93059 47.32479
#
# Poissons Ratio (x) = 0.51033 0.08986
# Poissons Ratio (y) = 0.55471 -0.06679
# Poissons Ratio (z) = 0.14847 -0.10152
#
# Static dielectric constant tensor:
#      x y z
#    x 1.658090 0.000000 -0.014490 
#    y 0.000000 1.660660 0.000000 
#    z -0.014490 0.000000 1.643590 
# 
# From -- ./inp_files/52720.got.cif
#   From: 2010.05.17/outbox.cif.g08.bks.cpg/sg11_27_cif.got.tgz:52720.got - 2010.06.03 12:22:45.
