data_PCOD9164316
_publ_section_title
;
Structure prediction by ZEFSAII (Michael W. Deem and Ramdas Pophale) SiO2 
 PCOD9164316
Probable space group: P 21/M
;
_chemical_formula_sum "Si O2"
_cell_formula_units_Z 24
_cell_length_a 11.909338
_cell_length_b 19.396259
_cell_length_c 5.871088
_cell_angle_alpha 90.000000
_cell_angle_beta 126.230153
_cell_angle_gamma 90.000000
_cell_volume 1093.979016
_symmetry_space_group_name_H-M "P 21/M"
_symmetry_group_IT_number 11
_symmetry_cell_setting 'monoclinic'
loop_
_space_group_symop_operation_xyz
x,y,z
-x,1/2+y,-z
-x,-y,-z
x,1/2-y,z
loop_
_atom_site_type_symbol
_atom_site_label
_atom_site_fract_x
_atom_site_fract_y
_atom_site_fract_z
Si Si1 0.591385 0.078162 0.869265
Si Si2 0.391984 0.422918 0.003506
Si Si3 0.139789 0.467865 0.392066
Si Si4 0.994999 0.750000 0.371767
Si Si5 0.303601 0.381323 0.317250
Si Si6 0.156404 0.250000 0.311284
Si Si7 0.891526 0.103483 0.367605
O O1 0.535829 0.095248 0.058016
O O2 0.748885 0.102901 0.050400
O O3 0.467712 0.106701 0.566240
O O4 0.589284 0.995337 0.843173
O O5 0.314864 0.367053 0.062171
O O6 0.284897 0.444443 0.679904
O O7 0.184987 0.442246 0.196147
O O8 0.120768 0.546589 0.443905
O O9 0.014271 0.424756 0.350449
O O10 0.911199 0.750000 0.517291
O O11 0.078153 0.678217 0.495735
O O12 0.931326 0.750000 0.036022
O O13 0.248606 0.318138 0.395455
#
# Coordination Sequence:
#
# PCOD9164316 Si02
#       7
#     4   4   4   2   4   2   4
#     4   9  20  36  61  96 132 164 214 273 337 388
#     4   9  18  37  61  93 129 168 213 274 325 394
#     4   9  19  38  64  95 124 171 226 266 327 397
#     4  12  26  51  65  98 136 177 220 286 339 401
#     4  11  21  39  65  95 127 176 225 277 327 398
#     4  12  28  45  73  94 130 183 232 272 337 407
#     4  10  20  41  64  93 134 170 217 274 339 395
#
# _framework density 21.938265999999999
#
# number of rings (size 3 to 8) (size 9 to 14) (size 15 to 20)
#    0.000    2.000    1.667    2.500    2.333    0.667 
#    9.000    5.833    0.000    0.000    0.000    0.000 
#    0.000    0.000    0.000    0.000    0.000    0.000 
#
# Total GULP energy -133664.387198 kJ/mol
# GULP energy per Si atom -5569.349467 kJ/mol
# Density = 2.188833 g / cm^3
# Si number density = 21.938266 Si / 1000 Ang^3
#
#
#
# Elastic Constant Matrix: (Units=GPa)
#
#
# Indices 1 2 3 4 5 6 
#
# 1 111.0646 21.3276 10.3626 0.0000 7.8600 0.0000
# 2 21.3276 97.1018 9.1782 0.0000 6.8633 0.0000
# 3 10.3626 9.1782 58.5915 0.0000 17.9508 0.0000
# 4 0.0000 0.0000 0.0000 17.9008 0.0000 7.4529
# 5 7.8600 6.8633 17.9508 0.0000 35.7696 0.0000
# 6 0.0000 0.0000 0.0000 7.4529 0.0000 18.4155
#
#
#
# Elastic Compliance Matrix: (Units=1/GPa)
#
#
# Indices 1 2 3 4 5 6 
#
# 1 0.009553 -0.001916 -0.001015 0.000000 -0.001222 0.000000
# 2 -0.001916 0.010897 -0.001012 0.000000 -0.001162 0.000000
# 3 -0.001015 -0.001012 0.020417 0.000000 -0.009829 0.000000
# 4 0.000000 0.000000 0.000000 0.067184 0.000000 -0.027190
# 5 -0.001222 -0.001162 -0.009829 0.000000 0.033381 0.000000
# 6 0.000000 0.000000 0.000000 -0.027190 0.000000 0.065306
#
#
# Mechanical properties :
#
#
# Convention : Reuss Voigt Hill
#
# Bulk Modulus (GPa) = 30.32091 38.72163 34.52127
# Shear Modulus (GPa) = 22.16151 29.47648 25.81900
#
# Velocity S-wave (km/s) = 3.18177 3.66951 3.43431
# Velocity P-wave (km/s) = 5.22965 5.97012 5.61211
#
# Compressibility (1/GPa) = 0.03298054
#
# Stress axis : x y z
#
# Youngs Moduli (GPa) = 104.68057 91.76770 48.97961
#
# Poissons Ratio (x) = 0.17582 0.04971
# Poissons Ratio (y) = 0.20056 0.04958
# Poissons Ratio (z) = 0.10625 0.09288
#
# Static dielectric constant tensor:
#      x y z
#    x 1.851520 0.000000 -0.130900 
#    y 0.000000 1.844990 0.000000 
#    z -0.130900 0.000000 1.998390 
# 
# From -- ./inp_files/4965.got.cif
#   From: 2010.05.17/outbox.cif.g08.bks.cpg/sg11_3_cif.got.tgz:4965.got - 2010.06.03 12:22:45.
