data_PCOD9164898
_publ_section_title
;
Structure prediction by ZEFSAII (Michael W. Deem and Ramdas Pophale) SiO2 
 PCOD9164898
Probable space group: P 21/M
;
_chemical_formula_sum "Si O2"
_cell_formula_units_Z 20
_cell_length_a 14.094152
_cell_length_b 11.980299
_cell_length_c 4.903208
_cell_angle_alpha 90.000000
_cell_angle_beta 97.127946
_cell_angle_gamma 90.000000
_cell_volume 821.518707
_symmetry_space_group_name_H-M "P 21/M"
_symmetry_group_IT_number 11
_symmetry_cell_setting 'monoclinic'
loop_
_space_group_symop_operation_xyz
x,y,z
-x,1/2+y,-z
-x,-y,-z
x,1/2-y,z
loop_
_atom_site_type_symbol
_atom_site_label
_atom_site_fract_x
_atom_site_fract_y
_atom_site_fract_z
Si Si1 0.303644 0.378465 0.705305
Si Si2 0.286526 0.968821 0.174710
Si Si3 0.487795 0.880358 0.330822
Si Si4 0.898005 0.407203 0.652040
Si Si5 0.978010 0.635620 0.791263
O O1 0.271305 0.250000 0.706307
O O2 0.301476 0.433621 0.405670
O O3 0.417381 0.378841 0.822193
O O4 0.254218 0.465262 0.892923
O O5 0.384063 0.900612 0.161838
O O6 0.205864 0.886606 0.266843
O O7 0.487504 0.750000 0.450403
O O8 0.500000 0.000000 0.500000
O O9 0.928496 0.368028 0.367654
O O10 0.910014 0.539609 0.668156
O O11 0.981938 0.372790 0.890760
O O12 0.924948 0.750000 0.736895
#
# Coordination Sequence:
#
# PCOD9164898 Si02
#       5
#     4   4   4   4   4
#     4  10  21  37  58  85 120 158 197 242 298 358
#     4  11  21  38  59  87 118 151 197 250 297 351
#     4   9  20  38  60  88 123 165 205 248 301 357
#     4  10  22  38  58  88 115 146 198 245 292 360
#     4  10  21  39  59  80 115 154 187 238 304 360
#
# _framework density 24.345154000000001
#
# number of rings (size 3 to 8) (size 9 to 14) (size 15 to 20)
#    0.000    2.000    0.000    3.000    0.000    4.000 
#    0.000    8.000    0.000    0.000    0.000    0.000 
#    0.000    0.000    0.000    0.000    0.000    0.000 
#
# Total GULP energy -111513.768473 kJ/mol
# GULP energy per Si atom -5575.688424 kJ/mol
# Density = 2.428974 g / cm^3
# Si number density = 24.345154 Si / 1000 Ang^3
#
#
#
# Elastic Constant Matrix: (Units=GPa)
#
#
# Indices 1 2 3 4 5 6 
#
# 1 76.8138 -5.1268 -16.6306 0.0000 3.4942 0.0000
# 2 -5.1268 172.0080 8.8841 0.0000 5.2878 0.0000
# 3 -16.6306 8.8841 73.2785 0.0000 -6.5087 0.0000
# 4 0.0000 0.0000 0.0000 54.4526 0.0000 -37.1771
# 5 3.4942 5.2878 -6.5087 0.0000 21.0356 0.0000
# 6 0.0000 0.0000 0.0000 -37.1771 0.0000 -18.6058
#
#
#
# Elastic Compliance Matrix: (Units=1/GPa)
#
#
# Indices 1 2 3 4 5 6 
#
# 1 0.013744 0.000301 0.002954 0.000000 -0.001445 0.000000
# 2 0.000301 0.005919 -0.000808 0.000000 -0.001788 0.000000
# 3 0.002954 -0.000808 0.014796 0.000000 0.004291 0.000000
# 4 0.000000 0.000000 0.000000 0.007768 0.000000 -0.015521
# 5 -0.001445 -0.001788 0.004291 0.000000 0.049555 0.000000
# 6 0.000000 0.000000 0.000000 -0.015521 0.000000 -0.022733
#
#
# Mechanical properties :
#
#
# Convention : Reuss Voigt Hill
#
# Bulk Modulus (GPa) = 25.40974 32.92815 29.16895
# Shear Modulus (GPa) = 64.70645 33.70805 49.20725
#
# Velocity S-wave (km/s) = 5.16105 3.72504 4.50069
# Velocity P-wave (km/s) = 6.78051 5.66182 6.24626
#
# Compressibility (1/GPa) = 0.03935499
#
# Stress axis : x y z
#
# Youngs Moduli (GPa) = 72.75917 168.93684 67.58531
#
# Poissons Ratio (x) = -0.05093 -0.19967
# Poissons Ratio (y) = -0.02193 0.05461
# Poissons Ratio (z) = -0.21496 0.13651
#
# Static dielectric constant tensor:
#      x y z
#    x 1.978740 0.000000 -0.009040 
#    y 0.000000 1.970330 0.000000 
#    z -0.009040 0.000000 1.896450 
# 
# From -- ./inp_files/6036.got.cif
#   From: 2010.05.17/outbox.cif.g08.bks.cpg/sg11_4_cif.got.tgz:6036.got - 2010.06.03 12:22:45.
