data_PCOD9164885
_publ_section_title
;
Structure prediction by ZEFSAII (Michael W. Deem and Ramdas Pophale) SiO2 
 PCOD9164885
Probable space group: P 21/M
;
_chemical_formula_sum "Si O2"
_cell_formula_units_Z 28
_cell_length_a 22.502695
_cell_length_b 8.409909
_cell_length_c 15.054013
_cell_angle_alpha 90.000000
_cell_angle_beta 30.267151
_cell_angle_gamma 90.000000
_cell_volume 1435.941307
_symmetry_space_group_name_H-M "P 21/M"
_symmetry_group_IT_number 11
_symmetry_cell_setting 'monoclinic'
loop_
_space_group_symop_operation_xyz
x,y,z
-x,1/2+y,-z
-x,-y,-z
x,1/2-y,z
loop_
_atom_site_type_symbol
_atom_site_label
_atom_site_fract_x
_atom_site_fract_y
_atom_site_fract_z
Si Si1 0.139059 0.438592 0.179004
Si Si2 0.895982 0.561903 0.424240
Si Si3 0.482325 0.439830 0.922294
Si Si4 0.773508 0.436227 0.755711
Si Si5 0.641126 0.557758 0.224889
Si Si6 0.619986 0.941557 0.453576
Si Si7 0.709812 0.942583 0.521926
O O1 0.149363 0.250000 0.181626
O O2 0.143913 0.525116 0.267404
O O3 0.018527 0.474791 0.283766
O O4 0.250625 0.492656 0.976217
O O5 0.917761 0.750000 0.388557
O O6 0.814744 0.529901 0.615284
O O7 0.823141 0.505644 0.432206
O O8 0.475629 0.250000 0.929761
O O9 0.592678 0.496792 0.722242
O O10 0.500000 0.500000 0.000000
O O11 0.358619 0.510739 0.049034
O O12 0.776062 0.250000 0.731911
O O13 0.638140 0.750000 0.227869
O O14 0.514203 0.496614 0.357068
O O15 0.655255 0.503789 0.309234
O O16 0.620856 0.750000 0.451162
O O17 0.701093 0.994275 0.430715
O O18 0.708047 0.750000 0.527174
#
# Coordination Sequence:
#
# PCOD9164885 Si02
#       7
#     4   4   4   4   4   4   4
#     4  11  23  39  58  81 112 150 192 236 283 336
#     4  11  23  39  57  79 112 151 193 236 280 337
#     4  12  23  36  56  83 116 149 185 229 278 332
#     4  12  24  39  59  83 112 149 191 236 286 336
#     4   9  19  36  58  85 114 144 181 230 284 335
#     4   9  18  35  60  87 113 143 181 228 283 339
#     4  10  21  37  58  83 114 151 189 232 283 336
#
# _framework density 19.499403999999998
#
# number of rings (size 3 to 8) (size 9 to 14) (size 15 to 20)
#    0.000    1.429    1.429    4.714    0.000    4.571 
#    0.000    0.714    0.000    0.000    0.000    0.000 
#    0.000    0.000    0.000    0.000    0.000    0.000 
#
# Total GULP energy -156521.111876 kJ/mol
# GULP energy per Si atom -5590.039710 kJ/mol
# Density = 1.945502 g / cm^3
# Si number density = 19.499404 Si / 1000 Ang^3
#
#
#
# Elastic Constant Matrix: (Units=GPa)
#
#
# Indices 1 2 3 4 5 6 
#
# 1 138.6322 -0.1015 14.7538 0.0000 -8.1094 0.0000
# 2 -0.1015 20.1768 -6.6433 0.0000 1.3916 0.0000
# 3 14.7538 -6.6433 26.0166 0.0000 -10.6144 0.0000
# 4 0.0000 0.0000 0.0000 24.6201 0.0000 -6.2004
# 5 -8.1094 1.3916 -10.6144 0.0000 20.7383 0.0000
# 6 0.0000 0.0000 0.0000 -6.2004 0.0000 23.5504
#
#
#
# Elastic Compliance Matrix: (Units=1/GPa)
#
#
# Indices 1 2 3 4 5 6 
#
# 1 0.007732 -0.001472 -0.004407 0.000000 0.000867 0.000000
# 2 -0.001472 0.054704 0.016521 0.000000 0.004210 0.000000
# 3 -0.004407 0.016521 0.055612 0.000000 0.025632 0.000000
# 4 0.000000 0.000000 0.000000 0.043502 0.000000 0.011453
# 5 0.000867 0.004210 0.025632 0.000000 0.061395 0.000000
# 6 0.000000 0.000000 0.000000 0.011453 0.000000 0.045478
#
#
# Mechanical properties :
#
#
# Convention : Reuss Voigt Hill
#
# Bulk Modulus (GPa) = 7.17713 22.31595 14.74654
# Shear Modulus (GPa) = 17.03097 25.56954 21.30025
#
# Velocity S-wave (km/s) = 2.95856 3.62511 3.30866
# Velocity P-wave (km/s) = 3.91911 5.38435 4.70907
#
# Compressibility (1/GPa) = 0.13933152
#
# Stress axis : x y z
#
# Youngs Moduli (GPa) = 129.33327 18.28030 17.98163
#
# Poissons Ratio (x) = 0.02691 0.07925
# Poissons Ratio (y) = 0.19037 -0.29707
# Poissons Ratio (z) = 0.56998 -0.30200
#
# Static dielectric constant tensor:
#      x y z
#    x 1.697670 0.000000 0.001020 
#    y 0.000000 1.655330 0.000000 
#    z 0.001020 0.000000 1.656270 
# 
# From -- ./inp_files/37940.got.cif
#   From: 2010.05.17/outbox.cif.g08.bks.cpg/sg11_19_cif.got.tgz:37940.got - 2010.06.03 12:22:45.
