data_PCOD9164314
_publ_section_title
;
Structure prediction by ZEFSAII (Michael W. Deem and Ramdas Pophale) SiO2 
 PCOD9164314
Probable space group: P 21/M
;
_chemical_formula_sum "Si O2"
_cell_formula_units_Z 30
_cell_length_a 5.087066
_cell_length_b 20.188508
_cell_length_c 17.157419
_cell_angle_alpha 90.000000
_cell_angle_beta 125.868973
_cell_angle_gamma 90.000000
_cell_volume 1427.910686
_symmetry_space_group_name_H-M "P 21/M"
_symmetry_group_IT_number 11
_symmetry_cell_setting 'monoclinic'
loop_
_space_group_symop_operation_xyz
x,y,z
-x,1/2+y,-z
-x,-y,-z
x,1/2-y,z
loop_
_atom_site_type_symbol
_atom_site_label
_atom_site_fract_x
_atom_site_fract_y
_atom_site_fract_z
Si Si1 0.800089 0.873961 0.925977
Si Si2 0.432676 0.250000 0.836065
Si Si3 0.481655 0.618438 0.248650
Si Si4 0.854726 0.987575 0.390128
Si Si5 0.474611 0.488845 0.882247
Si Si6 0.217009 0.131049 0.903527
Si Si7 0.073362 0.673223 0.811099
Si Si8 0.168847 0.048862 0.295160
O O1 0.448371 0.840039 0.856755
O O2 0.003918 0.851341 0.887407
O O3 0.737656 0.953228 0.919487
O O4 0.911245 0.853207 0.031962
O O5 0.443089 0.190700 0.771194
O O6 0.398807 0.192403 0.898387
O O7 0.737253 0.587937 0.353982
O O8 0.486417 0.562934 0.181625
O O9 0.101439 0.619941 0.205946
O O10 0.517876 0.027953 0.325484
O O11 0.094886 0.015156 0.365387
O O12 0.000000 0.000000 0.500000
O O13 0.433268 0.435847 0.944958
O O14 0.125989 0.523518 0.810480
O O15 0.996649 0.750000 0.792401
O O16 0.866871 0.627620 0.716712
#
# Coordination Sequence:
#
# PCOD9164314 Si02
#       8
#     4   2   4   4   4   4   4   4
#     4  11  25  35  59  88 124 158 225 259 294 341
#     4  10  24  38  56  84 120 178 202 244 306 380
#     4  10  21  39  61  84 123 162 202 248 317 380
#     4  11  22  40  72  98 117 147 198 262 314 373
#     4   9  20  37  56  87 115 162 201 260 306 351
#     4  11  22  36  57  82 123 169 208 253 302 361
#     4  11  24  41  60  86 123 175 204 256 298 358
#     4  10  20  41  64  92 124 150 201 244 315 369
#
# _framework density 21.009717999999999
#
# number of rings (size 3 to 8) (size 9 to 14) (size 15 to 20)
#    0.000    1.600    1.333    4.000    7.467    0.533 
#    0.000    0.000    2.933    0.000    0.000    0.000 
#    0.000    0.000    0.000    0.000    0.000    0.000 
#
# Total GULP energy -167115.200976 kJ/mol
# GULP energy per Si atom -5570.506699 kJ/mol
# Density = 2.096190 g / cm^3
# Si number density = 21.009718 Si / 1000 Ang^3
#
#
#
# Elastic Constant Matrix: (Units=GPa)
#
#
# Indices 1 2 3 4 5 6 
#
# 1 60.9803 25.5405 -2.9645 0.0000 -5.6183 0.0000
# 2 25.5405 192.9739 26.5721 0.0000 -3.3142 0.0000
# 3 -2.9645 26.5721 51.4758 0.0000 -6.7896 0.0000
# 4 0.0000 0.0000 0.0000 18.1840 0.0000 -16.7617
# 5 -5.6183 -3.3142 -6.7896 0.0000 24.4881 0.0000
# 6 0.0000 0.0000 0.0000 -16.7617 0.0000 26.8902
#
#
#
# Elastic Compliance Matrix: (Units=1/GPa)
#
#
# Indices 1 2 3 4 5 6 
#
# 1 0.018124 -0.002742 0.003071 0.000000 0.004639 0.000000
# 2 -0.002742 0.005993 -0.003350 0.000000 -0.000747 0.000000
# 3 0.003071 -0.003350 0.022177 0.000000 0.006400 0.000000
# 4 0.000000 0.000000 0.000000 0.129270 0.000000 0.080579
# 5 0.004639 -0.000747 0.006400 0.000000 0.043574 0.000000
# 6 0.000000 0.000000 0.000000 0.080579 0.000000 0.087416
#
#
# Mechanical properties :
#
#
# Convention : Reuss Voigt Hill
#
# Bulk Modulus (GPa) = 24.84359 44.85846 34.85103
# Shear Modulus (GPa) = 15.33681 30.99793 23.16737
#
# Velocity S-wave (km/s) = 2.70476 3.84527 3.32429
# Velocity P-wave (km/s) = 4.64809 6.41190 5.59988
#
# Compressibility (1/GPa) = 0.04025183
#
# Stress axis : x y z
#
# Youngs Moduli (GPa) = 55.17609 166.84897 45.09171
#
# Poissons Ratio (x) = 0.45749 -0.13848
# Poissons Ratio (y) = 0.15129 0.15107
# Poissons Ratio (z) = -0.16944 0.55899
#
# Static dielectric constant tensor:
#      x y z
#    x 1.837790 0.000000 0.006210 
#    y 0.000000 1.793660 0.000000 
#    z 0.006210 0.000000 1.799050 
# 
# From -- ./inp_files/57184.got.cif
#   From: 2010.05.17/outbox.cif.g08.bks.cpg/sg11_29_cif.got.tgz:57184.got - 2010.06.03 12:22:45.
