data_PCOD9164085
_publ_section_title
;
Structure prediction by ZEFSAII (Michael W. Deem and Ramdas Pophale) SiO2 
 PCOD9164085
Probable space group: P 21/M
;
_chemical_formula_sum "Si O2"
_cell_formula_units_Z 20
_cell_length_a 5.223891
_cell_length_b 8.276857
_cell_length_c 21.118337
_cell_angle_alpha 90.000000
_cell_angle_beta 61.867937
_cell_angle_gamma 90.000000
_cell_volume 805.230967
_symmetry_space_group_name_H-M "P 21/M"
_symmetry_group_IT_number 11
_symmetry_cell_setting 'monoclinic'
loop_
_space_group_symop_operation_xyz
x,y,z
-x,1/2+y,-z
-x,-y,-z
x,1/2-y,z
loop_
_atom_site_type_symbol
_atom_site_label
_atom_site_fract_x
_atom_site_fract_y
_atom_site_fract_z
Si Si1 0.888312 0.564141 0.445508
Si Si2 0.316736 0.926252 0.276793
Si Si3 0.422552 0.250000 0.302367
Si Si4 0.837371 0.056591 0.081690
Si Si5 0.155339 0.446671 0.170584
Si Si6 0.728057 0.250000 0.399185
O O1 0.785520 0.750000 0.462490
O O2 0.693703 0.420418 0.439030
O O3 0.000000 0.500000 0.500000
O O4 0.150983 0.574931 0.363497
O O5 0.448833 0.750000 0.252396
O O6 0.515565 0.085766 0.257589
O O7 0.097838 0.964114 0.244275
O O8 0.533803 0.250000 0.360130
O O9 0.072321 0.250000 0.341833
O O10 0.859443 0.250000 0.081686
O O11 0.994437 0.994351 0.126661
O O12 0.497572 0.016449 0.119984
O O13 0.000000 0.000000 0.000000
O O14 0.126030 0.250000 0.182059
#
# Coordination Sequence:
#
# PCOD9164085 Si02
#       6
#     4   4   2   4   4   2
#     4  10  20  38  67  96 132 171 226 273 331 394
#     4  10  22  40  65  96 130 173 223 271 327 393
#     4  10  22  42  64  90 130 164 207 266 327 378
#     4  10  22  39  63  92 128 168 211 259 318 383
#     4  10  21  39  61  91 127 170 212 263 321 382
#     4  10  22  40  64  90 122 170 205 266 333 376
#
# _framework density 24.837592000000001
#
# number of rings (size 3 to 8) (size 9 to 14) (size 15 to 20)
#    0.000    2.000    2.000    0.600    0.000    5.600 
#    0.000    8.000    0.000    0.000    0.000    0.000 
#    0.000    0.000    0.000    0.000    0.000    0.000 
#
# Total GULP energy -111954.748783 kJ/mol
# GULP energy per Si atom -5597.737439 kJ/mol
# Density = 2.478106 g / cm^3
# Si number density = 24.837592 Si / 1000 Ang^3
#
#
#
# Elastic Constant Matrix: (Units=GPa)
#
#
# Indices 1 2 3 4 5 6 
#
# 1 105.9789 40.1972 65.4723 0.0000 22.7251 0.0000
# 2 40.1972 195.9727 40.1926 0.0000 17.1657 0.0000
# 3 65.4723 40.1926 179.8145 0.0000 26.5544 0.0000
# 4 0.0000 0.0000 0.0000 48.2419 0.0000 -0.7790
# 5 22.7251 17.1657 26.5544 0.0000 45.4094 0.0000
# 6 0.0000 0.0000 0.0000 -0.7790 0.0000 24.3614
#
#
#
# Elastic Compliance Matrix: (Units=1/GPa)
#
#
# Indices 1 2 3 4 5 6 
#
# 1 0.013264 -0.001588 -0.003922 0.000000 -0.003744 0.000000
# 2 -0.001588 0.005627 -0.000528 0.000000 -0.001023 0.000000
# 3 -0.003922 -0.000528 0.007430 0.000000 -0.002182 0.000000
# 4 0.000000 0.000000 0.000000 0.020740 0.000000 0.000663
# 5 -0.003744 -0.001023 -0.002182 0.000000 0.025559 0.000000
# 6 0.000000 0.000000 0.000000 0.000663 0.000000 0.041070
#
#
# Mechanical properties :
#
#
# Convention : Reuss Voigt Hill
#
# Bulk Modulus (GPa) = 70.20689 85.94335 78.07512
# Shear Modulus (GPa) = 38.31067 45.99615 42.15341
#
# Velocity S-wave (km/s) = 3.93166 4.30801 4.12413
# Velocity P-wave (km/s) = 6.99560 7.70860 7.36074
#
# Compressibility (1/GPa) = 0.01424362
#
# Stress axis : x y z
#
# Youngs Moduli (GPa) = 75.39295 177.73017 134.59822
#
# Poissons Ratio (x) = 0.28230 0.52783
# Poissons Ratio (y) = 0.11975 0.07110
# Poissons Ratio (z) = 0.29566 0.09388
#
# Static dielectric constant tensor:
#      x y z
#    x 2.039850 0.000000 -0.078920 
#    y 0.000000 2.004490 0.000000 
#    z -0.078920 0.000000 1.989530 
# 
# From -- ./inp_files/56652.got.cif
#   From: 2010.05.17/outbox.cif.g08.bks.cpg/sg11_29_cif.got.tgz:56652.got - 2010.06.03 12:22:45.
