data_PCOD9164552
_publ_section_title
;
Structure prediction by ZEFSAII (Michael W. Deem and Ramdas Pophale) SiO2 
 PCOD9164552
Probable space group: P 21/M
;
_chemical_formula_sum "Si O2"
_cell_formula_units_Z 32
_cell_length_a 13.016200
_cell_length_b 7.685018
_cell_length_c 24.479952
_cell_angle_alpha 90.000000
_cell_angle_beta 46.567138
_cell_angle_gamma 90.000000
_cell_volume 1778.214840
_symmetry_space_group_name_H-M "P 21/M"
_symmetry_group_IT_number 11
_symmetry_cell_setting 'monoclinic'
loop_
_space_group_symop_operation_xyz
x,y,z
-x,1/2+y,-z
-x,-y,-z
x,1/2-y,z
loop_
_atom_site_type_symbol
_atom_site_label
_atom_site_fract_x
_atom_site_fract_y
_atom_site_fract_z
Si Si1 0.250869 0.036130 0.669202
Si Si2 0.112720 0.959057 0.006568
Si Si3 0.607582 0.954783 0.684477
Si Si4 0.848568 0.548129 0.410373
Si Si5 0.568823 0.048756 0.573993
Si Si6 0.928981 0.458209 0.584099
Si Si7 0.878487 0.538735 0.169065
Si Si8 0.655526 0.044116 0.155199
O O1 0.253685 0.250000 0.667964
O O2 0.180290 0.973769 0.639012
O O3 0.414650 0.980069 0.613564
O O4 0.167237 0.981981 0.754098
O O5 0.125516 0.750000 0.006191
O O6 0.261008 0.028027 0.928274
O O7 0.032048 0.020448 0.090536
O O8 0.000000 0.000000 0.000000
O O9 0.578463 0.750000 0.687377
O O10 0.495333 0.025498 0.769662
O O11 0.583887 0.038518 0.633879
O O12 0.769095 0.975863 0.643246
O O13 0.886332 0.750000 0.388022
O O14 0.701490 0.542146 0.497367
O O15 0.970514 0.471475 0.404378
O O16 0.576774 0.250000 0.554259
O O17 0.923975 0.250000 0.589954
O O18 0.000000 0.500000 0.500000
O O19 0.877102 0.750000 0.168790
O O20 0.760788 0.479534 0.168333
O O21 0.637903 0.250000 0.151798
#
# Coordination Sequence:
#
# PCOD9164552 Si02
#       8
#     4   4   4   4   4   4   4   4
#     4   9  18  31  47  70  96 122 153 188 227 277
#     4   8  14  24  40  63  91 121 150 179 218 269
#     4  11  21  32  48  68  94 126 157 192 233 273
#     4  10  21  36  50  65  90 122 155 193 237 278
#     4  11  20  31  49  70  94 121 154 191 227 276
#     4  11  22  35  52  69  89 118 157 200 239 279
#     4   9  15  26  45  67  93 123 150 181 223 273
#     4   9  17  28  42  65  95 123 152 186 224 271
#
# _framework density 17.995577000000001
#
# number of rings (size 3 to 8) (size 9 to 14) (size 15 to 20)
#    0.000    2.250    2.500    1.500    0.000    1.000 
#    0.000    1.250    0.000    0.000    0.000    0.875 
#    0.000    0.000    0.000    0.000    0.000    0.000 
#
# Total GULP energy -178405.048313 kJ/mol
# GULP energy per Si atom -5575.157760 kJ/mol
# Density = 1.795462 g / cm^3
# Si number density = 17.995577 Si / 1000 Ang^3
#
#
#
# Elastic Constant Matrix: (Units=GPa)
#
#
# Indices 1 2 3 4 5 6 
#
# 1 102.5324 -9.5382 48.2867 0.0000 -4.0062 0.0000
# 2 -9.5382 32.1471 -14.1868 0.0000 -0.6208 0.0000
# 3 48.2867 -14.1868 115.2785 0.0000 -26.7160 0.0000
# 4 0.0000 0.0000 0.0000 1.2364 0.0000 0.1867
# 5 -4.0062 -0.6208 -26.7160 0.0000 15.2444 0.0000
# 6 0.0000 0.0000 0.0000 0.1867 0.0000 8.4347
#
#
#
# Elastic Compliance Matrix: (Units=1/GPa)
#
#
# Indices 1 2 3 4 5 6 
#
# 1 0.013055 0.000225 -0.007820 0.000000 -0.010264 0.000000
# 2 0.000225 0.034831 0.007636 0.000000 0.014860 0.000000
# 3 -0.007820 0.007636 0.021025 0.000000 0.035102 0.000000
# 4 0.000000 0.000000 0.000000 0.811518 0.000000 -0.017965
# 5 -0.010264 0.014860 0.035102 0.000000 0.125022 0.000000
# 6 0.000000 0.000000 0.000000 -0.017965 0.000000 0.118955
#
#
# Mechanical properties :
#
#
# Convention : Reuss Voigt Hill
#
# Bulk Modulus (GPa) = 14.49418 33.23125 23.86272
# Shear Modulus (GPa) = 4.35798 20.00954 12.18376
#
# Velocity S-wave (km/s) = 1.55787 3.33816 2.60483
# Velocity P-wave (km/s) = 3.36270 5.77617 4.72609
#
# Compressibility (1/GPa) = 0.06899320
#
# Stress axis : x y z
#
# Youngs Moduli (GPa) = 76.59664 28.71046 47.56307
#
# Poissons Ratio (x) = -0.00645 0.37192
# Poissons Ratio (y) = -0.01720 -0.36320
# Poissons Ratio (z) = 0.59895 -0.21924
#
# Static dielectric constant tensor:
#      x y z
#    x 1.584890 0.000000 -0.004530 
#    y 0.000000 1.673490 0.000000 
#    z -0.004530 0.000000 1.655550 
# 
# From -- ./inp_files/43765.got.cif
#   From: 2010.05.17/outbox.cif.g08.bks.cpg/sg11_22_cif.got.tgz:43765.got - 2010.06.03 12:22:45.
