data_PCOD9164213
_publ_section_title
;
Structure prediction by ZEFSAII (Michael W. Deem and Ramdas Pophale) SiO2 
 PCOD9164213
Probable space group: P 21/M
;
_chemical_formula_sum "Si O2"
_cell_formula_units_Z 24
_cell_length_a 16.109242
_cell_length_b 13.880525
_cell_length_c 12.151984
_cell_angle_alpha 90.000000
_cell_angle_beta 152.684992
_cell_angle_gamma 90.000000
_cell_volume 1246.893888
_symmetry_space_group_name_H-M "P 21/M"
_symmetry_group_IT_number 11
_symmetry_cell_setting 'monoclinic'
loop_
_space_group_symop_operation_xyz
x,y,z
-x,1/2+y,-z
-x,-y,-z
x,1/2-y,z
loop_
_atom_site_type_symbol
_atom_site_label
_atom_site_fract_x
_atom_site_fract_y
_atom_site_fract_z
Si Si1 0.638447 0.634131 0.373593
Si Si2 0.578421 0.133488 0.102928
Si Si3 0.954002 0.133313 0.450667
Si Si4 0.670006 0.865809 0.990312
Si Si5 0.950491 0.365836 0.187942
Si Si6 0.398636 0.520497 0.267678
O O1 0.621004 0.750000 0.365802
O O2 0.553328 0.610545 0.153970
O O3 0.525555 0.582099 0.335031
O O4 0.850561 0.609913 0.622425
O O5 0.587503 0.250000 0.116767
O O6 0.489673 0.105613 0.113449
O O7 0.778321 0.097355 0.309354
O O8 0.949019 0.250000 0.446820
O O9 0.943947 0.108375 0.310212
O O10 0.141729 0.106880 0.728739
O O11 0.667802 0.750000 0.973758
O O12 0.647369 0.922200 0.850859
O O13 0.927195 0.250000 0.152726
O O14 0.787397 0.420561 0.937301
O O15 0.500000 0.500000 0.500000
#
# Coordination Sequence:
#
# PCOD9164213 Si02
#       6
#     4   4   4   4   4   4
#     4  10  20  39  66  92 119 152 196 253 308 357
#     4   9  16  32  60  91 120 146 185 244 310 369
#     4   9  16  32  60  91 120 146 185 244 310 369
#     4  10  22  39  58  87 125 159 192 248 312 357
#     4  10  20  39  66  92 119 152 196 253 308 357
#     4  12  27  41  58  85 123 169 213 248 277 353
#
# _framework density 19.247827999999998
#
# number of rings (size 3 to 8) (size 9 to 14) (size 15 to 20)
#    0.000    2.000    3.333    0.500    0.000    4.667 
#    0.000    0.000    0.000    4.000    0.000    0.000 
#    0.000    0.000    0.000    0.000    0.000    0.000 
#
# Total GULP energy -134167.237583 kJ/mol
# GULP energy per Si atom -5590.301566 kJ/mol
# Density = 1.920402 g / cm^3
# Si number density = 19.247828 Si / 1000 Ang^3
#
#
#
# Elastic Constant Matrix: (Units=GPa)
#
#
# Indices 1 2 3 4 5 6 
#
# 1 13.8846 1.0259 11.1671 0.0000 5.3683 0.0000
# 2 1.0259 74.6443 18.3159 0.0000 5.4603 0.0000
# 3 11.1671 18.3159 88.1163 0.0000 1.9361 0.0000
# 4 0.0000 0.0000 0.0000 75.2247 0.0000 111.3856
# 5 5.3683 5.4603 1.9361 0.0000 42.9134 0.0000
# 6 0.0000 0.0000 0.0000 111.3856 0.0000 284.9739
#
#
#
# Elastic Compliance Matrix: (Units=1/GPa)
#
#
# Indices 1 2 3 4 5 6 
#
# 1 0.084704 0.002291 -0.010983 0.000000 -0.010392 0.000000
# 2 0.002291 0.014299 -0.003219 0.000000 -0.001961 0.000000
# 3 -0.010983 -0.003219 0.013384 0.000000 0.001180 0.000000
# 4 0.000000 0.000000 0.000000 0.031557 0.000000 -0.012335
# 5 -0.010392 -0.001961 0.001180 0.000000 0.024799 0.000000
# 6 0.000000 0.000000 0.000000 -0.012335 0.000000 0.008330
#
#
# Mechanical properties :
#
#
# Convention : Reuss Voigt Hill
#
# Bulk Modulus (GPa) = 11.29120 26.40700 18.84910
# Shear Modulus (GPa) = 21.69978 90.36481 56.03229
#
# Velocity S-wave (km/s) = 3.36130 6.85930 5.40131
# Velocity P-wave (km/s) = 4.57640 8.74543 6.97947
#
# Compressibility (1/GPa) = 0.08856456
#
# Stress axis : x y z
#
# Youngs Moduli (GPa) = 11.80579 69.93611 74.71763
#
# Poissons Ratio (x) = -0.16021 0.82059
# Poissons Ratio (y) = -0.02705 0.24054
# Poissons Ratio (z) = 0.12966 0.22515
#
# Static dielectric constant tensor:
#      x y z
#    x 1.634490 0.000000 0.034100 
#    y 0.000000 1.720970 0.000000 
#    z 0.034100 0.000000 1.642270 
# 
# From -- ./inp_files/39724.got.cif
#   From: 2010.05.17/outbox.cif.g08.bks.cpg/sg11_20_cif.got.tgz:39724.got - 2010.06.03 12:22:45.
