data_PCOD9164378
_publ_section_title
;
Structure prediction by ZEFSAII (Michael W. Deem and Ramdas Pophale) SiO2 
 PCOD9164378
Probable space group: P 21/M
;
_chemical_formula_sum "Si O2"
_cell_formula_units_Z 28
_cell_length_a 5.328433
_cell_length_b 13.325358
_cell_length_c 18.615634
_cell_angle_alpha 90.000000
_cell_angle_beta 107.896777
_cell_angle_gamma 90.000000
_cell_volume 1257.812759
_symmetry_space_group_name_H-M "P 21/M"
_symmetry_group_IT_number 11
_symmetry_cell_setting 'monoclinic'
loop_
_space_group_symop_operation_xyz
x,y,z
-x,1/2+y,-z
-x,-y,-z
x,1/2-y,z
loop_
_atom_site_type_symbol
_atom_site_label
_atom_site_fract_x
_atom_site_fract_y
_atom_site_fract_z
Si Si1 0.820800 0.473427 0.805608
Si Si2 0.597404 0.358401 0.243444
Si Si3 0.950129 0.989885 0.665885
Si Si4 0.926884 0.633345 0.452002
Si Si5 0.531096 0.632969 0.549459
Si Si6 0.245584 0.568785 0.049191
Si Si7 0.300599 0.596006 0.903968
O O1 0.567853 0.539563 0.763569
O O2 0.931837 0.444655 0.737653
O O3 0.793987 0.398377 0.871269
O O4 0.015272 0.556600 0.856249
O O5 0.507182 0.250000 0.264595
O O6 0.609057 0.347105 0.158341
O O7 0.876476 0.391230 0.300927
O O8 0.671655 0.944639 0.615006
O O9 0.074054 0.057747 0.614594
O O10 0.915746 0.750000 0.427460
O O11 0.217191 0.619077 0.513449
O O12 0.692076 0.618799 0.488622
O O13 0.572990 0.750000 0.573018
O O14 0.503219 0.499022 0.076136
O O15 0.291620 0.638632 0.983796
O O16 0.000000 0.500000 0.000000
#
# Coordination Sequence:
#
# PCOD9164378 Si02
#       7
#     4   4   4   4   4   4   4
#     4   9  19  30  48  79 109 146 186 230 285 342
#     4  10  21  33  48  79 119 156 195 237 293 355
#     4  11  22  35  57  82 116 153 193 240 302 360
#     4  10  23  41  62  85 113 151 203 254 301 357
#     4  10  22  39  60  87 115 154 198 247 300 361
#     4   8  13  27  50  74 100 135 180 223 264 324
#     4   8  15  29  48  72 104 143 185 225 269 329
#
# _framework density 22.260866
#
# number of rings (size 3 to 8) (size 9 to 14) (size 15 to 20)
#    0.000    2.571    0.000    1.286    4.000    2.857 
#    0.000    0.000    0.000    0.857    0.000   84.000 
#    0.000    0.000    0.000    0.000    0.000    0.000 
#
# Total GULP energy -155913.805949 kJ/mol
# GULP energy per Si atom -5568.350212 kJ/mol
# Density = 2.221020 g / cm^3
# Si number density = 22.260866 Si / 1000 Ang^3
#
#
#
# Elastic Constant Matrix: (Units=GPa)
#
#
# Indices 1 2 3 4 5 6 
#
# 1 61.3261 -9.0058 21.0139 0.0000 -0.4570 0.0000
# 2 -9.0058 55.8856 31.2518 0.0000 -6.9807 0.0000
# 3 21.0139 31.2518 149.3220 0.0000 -38.2630 0.0000
# 4 0.0000 0.0000 0.0000 -12.0502 0.0000 -11.9205
# 5 -0.4570 -6.9807 -38.2630 0.0000 50.9720 0.0000
# 6 0.0000 0.0000 0.0000 -11.9205 0.0000 -4.4352
#
#
#
# Elastic Compliance Matrix: (Units=1/GPa)
#
#
# Indices 1 2 3 4 5 6 
#
# 1 0.018495 0.005073 -0.004264 0.000000 -0.002340 0.000000
# 2 0.005073 0.021667 -0.005543 0.000000 -0.001148 0.000000
# 3 -0.004264 -0.005543 0.010218 0.000000 0.006873 0.000000
# 4 0.000000 0.000000 0.000000 0.050028 0.000000 -0.134461
# 5 -0.002340 -0.001148 0.006873 0.000000 0.024600 0.000000
# 6 0.000000 0.000000 0.000000 -0.134461 0.000000 0.135924
#
#
# Mechanical properties :
#
#
# Convention : Reuss Voigt Hill
#
# Bulk Modulus (GPa) = 24.44281 39.22817 31.83549
# Shear Modulus (GPa) = 17.60330 21.78225 19.69277
#
# Velocity S-wave (km/s) = 2.81512 3.13149 2.97751
# Velocity P-wave (km/s) = 4.64441 5.54394 5.11399
#
# Compressibility (1/GPa) = 0.04091183
#
# Stress axis : x y z
#
# Youngs Moduli (GPa) = 54.06898 46.15249 97.86364
#
# Poissons Ratio (x) = -0.23411 0.41730
# Poissons Ratio (y) = -0.27427 0.54244
# Poissons Ratio (z) = 0.23056 0.25581
#
# Static dielectric constant tensor:
#      x y z
#    x 5.881810 0.000000 3.824920 
#    y 0.000000 1.817980 0.000000 
#    z 3.824920 0.000000 5.707210 
# 
# From -- ./inp_files/7890.got.cif
#   From: 2010.05.17/outbox.cif.g08.bks.cpg/sg11_4_cif.got.tgz:7890.got - 2010.06.03 12:22:45.
