data_PCOD9164431
_publ_section_title
;
Structure prediction by ZEFSAII (Michael W. Deem and Ramdas Pophale) SiO2 
 PCOD9164431
Probable space group: P 21/M
;
_chemical_formula_sum "Si O2"
_cell_formula_units_Z 26
_cell_length_a 16.414590
_cell_length_b 15.663867
_cell_length_c 8.808448
_cell_angle_alpha 90.000000
_cell_angle_beta 34.945530
_cell_angle_gamma 90.000000
_cell_volume 1297.267322
_symmetry_space_group_name_H-M "P 21/M"
_symmetry_group_IT_number 11
_symmetry_cell_setting 'monoclinic'
loop_
_space_group_symop_operation_xyz
x,y,z
-x,1/2+y,-z
-x,-y,-z
x,1/2-y,z
loop_
_atom_site_type_symbol
_atom_site_label
_atom_site_fract_x
_atom_site_fract_y
_atom_site_fract_z
Si Si1 0.467515 0.250000 0.384233
Si Si2 0.632659 0.250000 0.806710
Si Si3 0.836737 0.844684 0.850690
Si Si4 0.124502 0.609703 0.588080
Si Si5 0.176401 0.914482 0.836141
Si Si6 0.623962 0.250000 0.471868
Si Si7 0.056792 0.054290 0.557039
Si Si8 0.626041 0.560691 0.376889
O O1 0.538597 0.250000 0.444619
O O2 0.404489 0.151377 0.491080
O O3 0.546144 0.250000 0.097943
O O4 0.740406 0.169385 0.642565
O O5 0.563271 0.250000 0.740257
O O6 0.783089 0.750000 0.958215
O O7 0.868579 0.864129 0.627306
O O8 0.986240 0.855463 0.711599
O O9 0.723089 0.910956 0.086502
O O10 0.086528 0.601864 0.822383
O O11 0.156378 0.513721 0.486652
O O12 0.279642 0.833971 0.688635
O O13 0.274358 0.998298 0.676434
O O14 0.073235 0.922790 0.136412
O O15 0.000000 0.000000 0.500000
O O16 0.500000 0.500000 0.500000
#
# Coordination Sequence:
#
# PCOD9164431 Si02
#       8
#     2   2   4   4   4   2   4   4
#     4  12  26  43  72  85 136 186 222 267 329 389
#     4  10  24  41  67 101 123 168 226 276 331 397
#     4  11  23  40  62  96 134 161 213 273 329 388
#     4  10  21  39  67  94 130 160 208 283 334 388
#     4  11  22  41  65  96 131 165 215 269 337 387
#     4  10  24  42  65  96 129 166 226 269 316 398
#     4  10  21  34  62  96 125 159 205 262 330 402
#     4  12  25  42  65  93 126 182 224 259 319 398
#
# _framework density 20.042131000000001
#
# number of rings (size 3 to 8) (size 9 to 14) (size 15 to 20)
#    0.000    1.231    6.154    0.462    7.538    0.000 
#    0.000    4.615    1.692    0.000    0.000    0.000 
#    0.000    0.000    0.000    0.000    0.000    0.000 
#
# Total GULP energy -144737.423077 kJ/mol
# GULP energy per Si atom -5566.823964 kJ/mol
# Density = 1.999651 g / cm^3
# Si number density = 20.042131 Si / 1000 Ang^3
#
#
#
# Elastic Constant Matrix: (Units=GPa)
#
#
# Indices 1 2 3 4 5 6 
#
# 1 49.9526 26.7667 38.2935 0.0000 24.3457 0.0000
# 2 26.7667 140.5270 48.8834 0.0000 4.0544 0.0000
# 3 38.2935 48.8834 102.4767 0.0000 34.6348 0.0000
# 4 0.0000 0.0000 0.0000 55.1866 0.0000 47.4774
# 5 24.3457 4.0544 34.6348 0.0000 24.8168 0.0000
# 6 0.0000 0.0000 0.0000 47.4774 0.0000 166.8285
#
#
#
# Elastic Compliance Matrix: (Units=1/GPa)
#
#
# Indices 1 2 3 4 5 6 
#
# 1 0.045099 -0.008280 0.003016 0.000000 -0.047098 0.000000
# 2 -0.008280 0.011012 -0.008132 0.000000 0.017673 0.000000
# 3 0.003016 -0.008132 0.024723 0.000000 -0.036134 0.000000
# 4 0.000000 0.000000 0.000000 0.023995 0.000000 -0.006829
# 5 -0.047098 0.017673 -0.036134 0.000000 0.134041 0.000000
# 6 0.000000 0.000000 0.000000 -0.006829 0.000000 0.007938
#
#
# Mechanical properties :
#
#
# Convention : Reuss Voigt Hill
#
# Bulk Modulus (GPa) = 18.50467 57.87152 38.18809
# Shear Modulus (GPa) = 17.14594 61.30055 39.22324
#
# Velocity S-wave (km/s) = 2.92806 5.53645 4.42864
# Velocity P-wave (km/s) = 4.54800 8.35507 6.72650
#
# Compressibility (1/GPa) = 0.05404041
#
# Stress axis : x y z
#
# Youngs Moduli (GPa) = 22.17356 90.80911 40.44832
#
# Poissons Ratio (x) = 0.75192 -0.12197
# Poissons Ratio (y) = 0.18360 0.32892
# Poissons Ratio (z) = -0.06686 0.73845
#
# Static dielectric constant tensor:
#      x y z
#    x 1.752700 0.000000 0.011650 
#    y 0.000000 1.915410 0.000000 
#    z 0.011650 0.000000 1.707720 
# 
# From -- ./inp_files/25190.got.cif
#   From: 2010.05.17/outbox.cif.g08.bks.cpg/sg11_13_cif.got.tgz:25190.got - 2010.06.03 12:22:45.
