data_PCOD9164129
_publ_section_title
;
Structure prediction by ZEFSAII (Michael W. Deem and Ramdas Pophale) SiO2 
 PCOD9164129
Probable space group: P 21/M
;
_chemical_formula_sum "Si O2"
_cell_formula_units_Z 32
_cell_length_a 9.072875
_cell_length_b 13.896419
_cell_length_c 14.074834
_cell_angle_alpha 90.000000
_cell_angle_beta 114.037419
_cell_angle_gamma 90.000000
_cell_volume 1620.671071
_symmetry_space_group_name_H-M "P 21/M"
_symmetry_group_IT_number 11
_symmetry_cell_setting 'monoclinic'
loop_
_space_group_symop_operation_xyz
x,y,z
-x,1/2+y,-z
-x,-y,-z
x,1/2-y,z
loop_
_atom_site_type_symbol
_atom_site_label
_atom_site_fract_x
_atom_site_fract_y
_atom_site_fract_z
Si Si1 0.878552 0.044789 0.108720
Si Si2 0.699386 0.453286 0.453639
Si Si3 0.702632 0.986224 0.249871
Si Si4 0.996480 0.140110 0.621650
Si Si5 0.914323 0.142027 0.819258
Si Si6 0.384565 0.138773 0.450754
Si Si7 0.220419 0.360490 0.202239
Si Si8 0.656689 0.454316 0.870616
O O1 0.029668 0.116709 0.148959
O O2 0.789408 0.040593 0.186298
O O3 0.751927 0.064196 0.992696
O O4 0.960891 0.939570 0.113359
O O5 0.667873 0.450151 0.333392
O O6 0.671210 0.560666 0.486874
O O7 0.569646 0.386117 0.472967
O O8 0.879073 0.419302 0.523474
O O9 0.829309 0.906705 0.319102
O O10 0.533799 0.942474 0.171355
O O11 0.007341 0.250000 0.593104
O O12 0.917399 0.136991 0.706172
O O13 0.959818 0.250000 0.860147
O O14 0.740397 0.113661 0.814267
O O15 0.367477 0.250000 0.475073
O O16 0.283649 0.123131 0.326644
O O17 0.253364 0.250000 0.185880
O O18 0.304966 0.437483 0.155682
#
# Coordination Sequence:
#
# PCOD9164129 Si02
#       8
#     4   4   4   4   4   4   4   4
#     4  10  22  38  59  83 118 157 197 238 293 351
#     4  11  21  38  62  84 121 157 197 237 297 354
#     4  11  23  39  57  84 122 158 193 239 296 346
#     4  10  22  39  60  88 120 158 194 239 295 357
#     4   9  19  36  61  87 114 148 195 245 293 342
#     4  10  21  36  61  93 119 147 192 248 298 351
#     4  10  20  39  62  89 117 150 197 245 291 348
#     4  11  21  37  60  87 115 154 199 245 293 345
#
# _framework density 19.744907999999999
#
# number of rings (size 3 to 8) (size 9 to 14) (size 15 to 20)
#    0.000    1.750    1.250    4.875    1.750    3.000 
#    0.000    3.125    0.000    3.750    0.000    0.000 
#    0.000    0.000    0.000    0.000    0.000    0.000 
#
# Total GULP energy -178795.097918 kJ/mol
# GULP energy per Si atom -5587.346810 kJ/mol
# Density = 1.969997 g / cm^3
# Si number density = 19.744908 Si / 1000 Ang^3
#
#
#
# Elastic Constant Matrix: (Units=GPa)
#
#
# Indices 1 2 3 4 5 6 
#
# 1 71.7705 2.1780 31.6323 0.0000 14.9163 0.0000
# 2 2.1780 31.6811 8.9136 0.0000 -1.0559 0.0000
# 3 31.6323 8.9136 70.2871 0.0000 25.9378 0.0000
# 4 0.0000 0.0000 0.0000 13.5000 0.0000 -2.2910
# 5 14.9163 -1.0559 25.9378 0.0000 36.3995 0.0000
# 6 0.0000 0.0000 0.0000 -2.2910 0.0000 6.9636
#
#
#
# Elastic Compliance Matrix: (Units=1/GPa)
#
#
# Indices 1 2 3 4 5 6 
#
# 1 0.017518 0.000768 -0.007246 0.000000 -0.001993 0.000000
# 2 0.000768 0.033538 -0.006569 0.000000 0.005339 0.000000
# 3 -0.007246 -0.006569 0.023467 0.000000 -0.013944 0.000000
# 4 0.000000 0.000000 0.000000 0.078454 0.000000 0.025811
# 5 -0.001993 0.005339 -0.013944 0.000000 0.038381 0.000000
# 6 0.000000 0.000000 0.000000 0.025811 0.000000 0.152095
#
#
# Mechanical properties :
#
#
# Convention : Reuss Voigt Hill
#
# Bulk Modulus (GPa) = 20.64881 28.79849 24.72365
# Shear Modulus (GPa) = 12.96382 20.10694 16.53538
#
# Velocity S-wave (km/s) = 2.56513 3.19460 2.89701
# Velocity P-wave (km/s) = 4.38790 5.31265 4.87226
#
# Compressibility (1/GPa) = 0.04842893
#
# Stress axis : x y z
#
# Youngs Moduli (GPa) = 57.08511 29.81693 42.61343
#
# Poissons Ratio (x) = -0.02289 0.30876
# Poissons Ratio (y) = -0.04383 0.27993
# Poissons Ratio (z) = 0.41361 0.19587
#
# Static dielectric constant tensor:
#      x y z
#    x 1.692840 0.000000 -0.003290 
#    y 0.000000 1.684690 0.000000 
#    z -0.003290 0.000000 1.684900 
# 
# From -- ./inp_files/47638.got.cif
#   From: 2010.05.17/outbox.cif.g08.bks.cpg/sg11_24_cif.got.tgz:47638.got - 2010.06.03 12:22:45.
