data_PCOD9164825
_publ_section_title
;
Structure prediction by ZEFSAII (Michael W. Deem and Ramdas Pophale) SiO2 
 PCOD9164825
Probable space group: P 21/M
;
_chemical_formula_sum "Si O2"
_cell_formula_units_Z 32
_cell_length_a 8.250253
_cell_length_b 13.937246
_cell_length_c 12.848576
_cell_angle_alpha 90.000000
_cell_angle_beta 87.144811
_cell_angle_gamma 90.000000
_cell_volume 1475.569844
_symmetry_space_group_name_H-M "P 21/M"
_symmetry_group_IT_number 11
_symmetry_cell_setting 'monoclinic'
loop_
_space_group_symop_operation_xyz
x,y,z
-x,1/2+y,-z
-x,-y,-z
x,1/2-y,z
loop_
_atom_site_type_symbol
_atom_site_label
_atom_site_fract_x
_atom_site_fract_y
_atom_site_fract_z
Si Si1 0.117578 0.956619 0.798106
Si Si2 0.128141 0.635381 0.176638
Si Si3 0.313354 0.528067 0.990000
Si Si4 0.803842 0.136239 0.592000
Si Si5 0.171713 0.361689 0.523143
Si Si6 0.669550 0.034884 0.400725
Si Si7 0.364154 0.137273 0.316748
Si Si8 0.186918 0.358196 0.111440
O O1 0.184313 0.938636 0.681497
O O2 0.988708 0.876852 0.835498
O O3 0.266228 0.947771 0.874042
O O4 0.022533 0.059406 0.812774
O O5 0.086108 0.750000 0.173196
O O6 0.241647 0.604674 0.075662
O O7 0.219190 0.618561 0.284465
O O8 0.212809 0.432163 0.019297
O O9 0.500000 0.500000 0.000000
O O10 0.788255 0.250000 0.575157
O O11 0.693224 0.082977 0.512320
O O12 0.990166 0.108549 0.558910
O O13 0.186908 0.250000 0.547114
O O14 0.304054 0.422321 0.581708
O O15 0.212543 0.375507 0.400144
O O16 0.506952 0.070853 0.352861
O O17 0.411733 0.250000 0.322868
O O18 0.310719 0.118314 0.201004
O O19 0.209938 0.250000 0.077270
#
# Coordination Sequence:
#
# PCOD9164825 Si02
#       8
#     4   4   4   4   4   4   4   4
#     4  11  24  40  66  96 122 164 219 263 308 382
#     4  10  22  43  67  92 127 167 211 266 317 372
#     4  11  25  44  65  95 130 159 210 263 317 388
#     4  10  21  38  62  94 126 165 218 267 314 385
#     4  10  21  37  56  85 125 169 214 256 310 383
#     4  12  22  36  62  91 131 174 209 263 328 370
#     4  10  22  38  57  89 128 165 210 265 320 382
#     4  10  22  42  67  91 123 165 211 264 322 373
#
# _framework density 21.686539
#
# number of rings (size 3 to 8) (size 9 to 14) (size 15 to 20)
#    0.000    1.500    1.250    4.125    3.500    4.500 
#    2.250    0.000    0.000    0.000    0.000    0.000 
#    0.000    0.000    0.000    0.000    0.000    0.000 
#
# Total GULP energy -178874.968727 kJ/mol
# GULP energy per Si atom -5589.842773 kJ/mol
# Density = 2.163718 g / cm^3
# Si number density = 21.686539 Si / 1000 Ang^3
#
#
#
# Elastic Constant Matrix: (Units=GPa)
#
#
# Indices 1 2 3 4 5 6 
#
# 1 61.1488 -1.6406 3.6291 0.0000 8.9986 0.0000
# 2 -1.6406 53.2484 12.3724 0.0000 11.0414 0.0000
# 3 3.6291 12.3724 76.5576 0.0000 8.9148 0.0000
# 4 0.0000 0.0000 0.0000 21.8193 0.0000 1.6485
# 5 8.9986 11.0414 8.9148 0.0000 38.9171 0.0000
# 6 0.0000 0.0000 0.0000 1.6485 0.0000 20.5755
#
#
#
# Elastic Compliance Matrix: (Units=1/GPa)
#
#
# Indices 1 2 3 4 5 6 
#
# 1 0.017054 0.001537 -0.000562 0.000000 -0.004251 0.000000
# 2 0.001537 0.020624 -0.002757 0.000000 -0.005575 0.000000
# 3 -0.000562 -0.002757 0.013796 0.000000 -0.002248 0.000000
# 4 0.000000 0.000000 0.000000 0.046110 0.000000 -0.003694
# 5 -0.004251 -0.005575 -0.002248 0.000000 0.028775 0.000000
# 6 0.000000 0.000000 0.000000 -0.003694 0.000000 0.048897
#
#
# Mechanical properties :
#
#
# Convention : Reuss Voigt Hill
#
# Bulk Modulus (GPa) = 20.87191 24.40848 22.64020
# Shear Modulus (GPa) = 25.66879 28.03532 26.85206
#
# Velocity S-wave (km/s) = 3.44412 3.59939 3.52261
# Velocity P-wave (km/s) = 5.04591 5.34356 5.19687
#
# Compressibility (1/GPa) = 0.04791129
#
# Stress axis : x y z
#
# Youngs Moduli (GPa) = 58.63840 48.48751 72.48479
#
# Poissons Ratio (x) = -0.07454 0.04073
# Poissons Ratio (y) = -0.09015 0.19981
# Poissons Ratio (z) = 0.03295 0.13366
#
# Static dielectric constant tensor:
#      x y z
#    x 1.789930 0.000000 -0.012580 
#    y 0.000000 1.788910 0.000000 
#    z -0.012580 0.000000 1.797690 
# 
# From -- ./inp_files/31886.got.cif
#   From: 2010.05.17/outbox.cif.g08.bks.cpg/sg11_16_cif.got.tgz:31886.got - 2010.06.03 12:22:45.
