data_PCOD9164734
_publ_section_title
;
Structure prediction by ZEFSAII (Michael W. Deem and Ramdas Pophale) SiO2 
 PCOD9164734
Probable space group: P 21/M
;
_chemical_formula_sum "Si O2"
_cell_formula_units_Z 32
_cell_length_a 17.527743
_cell_length_b 13.594843
_cell_length_c 20.196180
_cell_angle_alpha 90.000000
_cell_angle_beta 19.007043
_cell_angle_gamma 90.000000
_cell_volume 1567.351320
_symmetry_space_group_name_H-M "P 21/M"
_symmetry_group_IT_number 11
_symmetry_cell_setting 'monoclinic'
loop_
_space_group_symop_operation_xyz
x,y,z
-x,1/2+y,-z
-x,-y,-z
x,1/2-y,z
loop_
_atom_site_type_symbol
_atom_site_label
_atom_site_fract_x
_atom_site_fract_y
_atom_site_fract_z
Si Si1 0.633126 0.867713 0.660765
Si Si2 0.248116 0.368467 0.288656
Si Si3 0.126478 0.959482 0.594720
Si Si4 0.747464 0.469823 0.364181
Si Si5 0.752945 0.367201 0.632999
Si Si6 0.233171 0.935976 0.794964
Si Si7 0.126230 0.638846 0.021888
Si Si8 0.650510 0.631387 0.933594
O O1 0.665322 0.750000 0.628360
O O2 0.694479 0.902144 0.684959
O O3 0.360421 0.888668 0.870265
O O4 0.801936 0.926428 0.472189
O O5 0.245838 0.250000 0.296818
O O6 0.412967 0.391173 0.090747
O O7 0.996406 0.399256 0.466902
O O8 0.288724 0.908789 0.405866
O O9 0.871107 0.929455 0.779117
O O10 0.166718 0.926751 0.636664
O O11 0.770061 0.403249 0.279447
O O12 0.477874 0.503422 0.596553
O O13 0.915405 0.563491 0.209712
O O14 0.768769 0.250000 0.612765
O O15 0.556672 0.389255 0.846930
O O16 0.215166 0.864346 0.872373
O O17 0.000000 0.000000 0.000000
O O18 0.054995 0.750000 0.096813
O O19 0.704429 0.750000 0.891837
#
# Coordination Sequence:
#
# PCOD9164734 Si02
#       8
#     4   4   4   4   4   4   4   4
#     4  10  21  37  55  81 120 157 196 241 281 334
#     4   8  16  35  54  75 111 152 195 245 292 337
#     4  11  21  34  59  84 116 151 189 236 290 345
#     4  10  21  36  60  87 112 147 187 228 283 350
#     4   9  19  36  58  80 109 150 196 247 302 347
#     4   9  19  39  62  83 107 143 182 225 275 340
#     4  10  21  38  59  85 118 154 190 233 280 334
#     4   9  19  36  57  81 109 149 197 247 300 349
#
# _framework density 20.416609999999999
#
# number of rings (size 3 to 8) (size 9 to 14) (size 15 to 20)
#    0.000    2.500    1.250    1.125    1.750    3.000 
#    2.250    2.500    0.000    9.000    0.000    0.000 
#    0.000    0.000    0.000    0.000    0.000    0.000 
#
# Total GULP energy -178368.186058 kJ/mol
# GULP energy per Si atom -5574.005814 kJ/mol
# Density = 2.037014 g / cm^3
# Si number density = 20.416610 Si / 1000 Ang^3
#
#
#
# Elastic Constant Matrix: (Units=GPa)
#
#
# Indices 1 2 3 4 5 6 
#
# 1 144.7562 -0.3098 32.4242 0.0000 10.1412 0.0000
# 2 -0.3098 40.8210 15.6454 0.0000 -6.1470 0.0000
# 3 32.4242 15.6454 89.8540 0.0000 17.7919 0.0000
# 4 0.0000 0.0000 0.0000 26.0036 0.0000 0.7032
# 5 10.1412 -6.1470 17.7919 0.0000 26.1416 0.0000
# 6 0.0000 0.0000 0.0000 0.7032 0.0000 14.1331
#
#
#
# Elastic Compliance Matrix: (Units=1/GPa)
#
#
# Indices 1 2 3 4 5 6 
#
# 1 0.007583 0.000980 -0.002739 0.000000 -0.000847 0.000000
# 2 0.000980 0.029266 -0.007786 0.000000 0.011801 0.000000
# 3 -0.002739 -0.007786 0.015748 0.000000 -0.011486 0.000000
# 4 0.000000 0.000000 0.000000 0.038508 0.000000 -0.001916
# 5 -0.000847 0.011801 -0.011486 0.000000 0.049174 0.000000
# 6 0.000000 0.000000 0.000000 -0.001916 0.000000 0.070851
#
#
# Mechanical properties :
#
#
# Convention : Reuss Voigt Hill
#
# Bulk Modulus (GPa) = 29.84557 41.21674 35.53116
# Shear Modulus (GPa) = 20.71343 28.43374 24.57358
#
# Velocity S-wave (km/s) = 3.18864 3.73591 3.47307
# Velocity P-wave (km/s) = 5.31098 6.23226 5.78997
#
# Compressibility (1/GPa) = 0.03350581
#
# Stress axis : x y z
#
# Youngs Moduli (GPa) = 131.87055 34.16964 63.50141
#
# Poissons Ratio (x) = -0.03348 0.17395
# Poissons Ratio (y) = -0.12922 0.49442
# Poissons Ratio (z) = 0.36124 0.26604
#
# Static dielectric constant tensor:
#      x y z
#    x 1.751110 0.000000 0.022450 
#    y 0.000000 1.780790 0.000000 
#    z 0.022450 0.000000 1.730440 
# 
# From -- ./inp_files/66279.got.cif
#   From: 2010.05.17/outbox.cif.g08.bks.cpg/sg11_34_cif.got.tgz:66279.got - 2010.06.03 12:22:45.
