data_PCOD9164281
_publ_section_title
;
Structure prediction by ZEFSAII (Michael W. Deem and Ramdas Pophale) SiO2 
 PCOD9164281
Probable space group: P 21/M
;
_chemical_formula_sum "Si O2"
_cell_formula_units_Z 26
_cell_length_a 19.303925
_cell_length_b 9.455530
_cell_length_c 7.964646
_cell_angle_alpha 90.000000
_cell_angle_beta 122.357784
_cell_angle_gamma 90.000000
_cell_volume 1228.038655
_symmetry_space_group_name_H-M "P 21/M"
_symmetry_group_IT_number 11
_symmetry_cell_setting 'monoclinic'
loop_
_space_group_symop_operation_xyz
x,y,z
-x,1/2+y,-z
-x,-y,-z
x,1/2-y,z
loop_
_atom_site_type_symbol
_atom_site_label
_atom_site_fract_x
_atom_site_fract_y
_atom_site_fract_z
Si Si1 0.112104 0.511234 0.221376
Si Si2 0.748033 0.079925 0.070276
Si Si3 0.281332 0.419384 0.314203
Si Si4 0.016466 0.750000 0.946313
Si Si5 0.457392 0.409350 0.698277
Si Si6 0.078026 0.909421 0.553055
Si Si7 0.400409 0.409993 0.010271
O O1 0.207026 0.468193 0.337702
O O2 0.090078 0.586221 0.368881
O O3 0.055211 0.373534 0.136407
O O4 0.087134 0.624027 0.046984
O O5 0.741831 0.250000 0.057168
O O6 0.837799 0.040763 0.255061
O O7 0.732958 0.005497 0.873816
O O8 0.677689 0.011972 0.094310
O O9 0.274565 0.250000 0.281632
O O10 0.372397 0.448804 0.499763
O O11 0.482013 0.250000 0.677166
O O12 0.531189 0.520245 0.780458
O O13 0.436228 0.402165 0.869204
O O14 0.061754 0.750000 0.591876
O O15 0.000000 0.000000 0.500000
O O16 0.379293 0.250000 0.036175
#
# Coordination Sequence:
#
# PCOD9164281 Si02
#       7
#     4   4   4   2   4   4   4
#     4  11  23  43  64  93 123 164 206 258 307 370
#     4  11  26  42  61  89 125 165 206 255 304 361
#     4  11  24  41  63  91 124 163 206 252 306 366
#     4  10  24  38  70  90 122 162 210 258 308 362
#     4   9  20  39  66  93 122 161 201 249 305 368
#     4  11  27  43  63  90 124 164 208 255 308 365
#     4  10  20  40  66  95 124 157 201 250 307 369
#
# _framework density 21.171973000000001
#
# number of rings (size 3 to 8) (size 9 to 14) (size 15 to 20)
#    0.000    1.538    1.538    1.846    6.462    3.077 
#    0.000    0.000    0.000    0.000    0.000    0.000 
#    0.000    0.000    0.000    0.000    0.000    0.000 
#
# Total GULP energy -144841.285691 kJ/mol
# GULP energy per Si atom -5570.818680 kJ/mol
# Density = 2.112378 g / cm^3
# Si number density = 21.171973 Si / 1000 Ang^3
#
#
#
# Elastic Constant Matrix: (Units=GPa)
#
#
# Indices 1 2 3 4 5 6 
#
# 1 55.2413 30.6858 18.7153 0.0000 23.5501 0.0000
# 2 30.6858 118.6995 63.1960 0.0000 39.6073 0.0000
# 3 18.7153 63.1960 68.7362 0.0000 37.6422 0.0000
# 4 0.0000 0.0000 0.0000 24.0895 0.0000 7.2341
# 5 23.5501 39.6073 37.6422 0.0000 37.2579 0.0000
# 6 0.0000 0.0000 0.0000 7.2341 0.0000 35.4980
#
#
#
# Elastic Compliance Matrix: (Units=1/GPa)
#
#
# Indices 1 2 3 4 5 6 
#
# 1 0.026320 -0.004224 0.007541 0.000000 -0.019765 0.000000
# 2 -0.004224 0.017600 -0.013985 0.000000 -0.001911 0.000000
# 3 0.007541 -0.013985 0.044371 0.000000 -0.034729 0.000000
# 4 0.000000 0.000000 0.000000 0.044218 0.000000 -0.009011
# 5 -0.019765 -0.001911 -0.034729 0.000000 0.076452 0.000000
# 6 0.000000 0.000000 0.000000 -0.009011 0.000000 0.030007
#
#
# Mechanical properties :
#
#
# Convention : Reuss Voigt Hill
#
# Bulk Modulus (GPa) = 14.93516 51.98568 33.46042
# Shear Modulus (GPa) = 17.69154 28.04108 22.86631
#
# Velocity S-wave (km/s) = 2.89383 3.64324 3.28994
# Velocity P-wave (km/s) = 4.27027 6.50422 5.50182
#
# Compressibility (1/GPa) = 0.06695609
#
# Stress axis : x y z
#
# Youngs Moduli (GPa) = 37.99396 56.81950 22.53705
#
# Poissons Ratio (x) = 0.24000 -0.16996
# Poissons Ratio (y) = 0.16048 0.31517
# Poissons Ratio (z) = -0.28652 0.79460
#
# Static dielectric constant tensor:
#      x y z
#    x 1.794060 0.000000 -0.045430 
#    y 0.000000 1.731540 0.000000 
#    z -0.045430 0.000000 1.780280 
# 
# From -- ./inp_files/26189.got.cif
#   From: 2010.05.17/outbox.cif.g08.bks.cpg/sg11_14_cif.got.tgz:26189.got - 2010.06.03 12:22:45.
