data_PCOD9164003
_publ_section_title
;
Structure prediction by ZEFSAII (Michael W. Deem and Ramdas Pophale) SiO2 
 PCOD9164003
Probable space group: P 21/M
;
_chemical_formula_sum "Si O2"
_cell_formula_units_Z 28
_cell_length_a 23.596546
_cell_length_b 7.820166
_cell_length_c 20.272169
_cell_angle_alpha 90.000000
_cell_angle_beta 159.854690
_cell_angle_gamma 90.000000
_cell_volume 1288.340273
_symmetry_space_group_name_H-M "P 21/M"
_symmetry_group_IT_number 11
_symmetry_cell_setting 'monoclinic'
loop_
_space_group_symop_operation_xyz
x,y,z
-x,1/2+y,-z
-x,-y,-z
x,1/2-y,z
loop_
_atom_site_type_symbol
_atom_site_label
_atom_site_fract_x
_atom_site_fract_y
_atom_site_fract_z
Si Si1 0.463542 0.456059 0.384886
Si Si2 0.755666 0.447700 0.611396
Si Si3 0.203470 0.050741 0.916310
Si Si4 0.389666 0.455528 0.816713
Si Si5 0.440118 0.052863 0.725008
Si Si6 0.025163 0.045504 0.451513
Si Si7 0.100103 0.458872 0.943648
O O1 0.500000 0.500000 0.500000
O O2 0.459833 0.250000 0.372240
O O3 0.613572 0.523589 0.503220
O O4 0.279827 0.516032 0.164934
O O5 0.774032 0.250000 0.651901
O O6 0.680975 0.455252 0.456145
O O7 0.939730 0.522907 0.807709
O O8 0.243584 0.250000 0.970074
O O9 0.109309 0.027860 0.744992
O O10 0.094816 0.995180 0.860210
O O11 0.376439 0.955789 0.103068
O O12 0.388144 0.250000 0.812571
O O13 0.447635 0.515655 0.808091
O O14 0.204797 0.517344 0.626515
O O15 0.500000 0.500000 0.000000
O O16 0.384754 0.250000 0.666119
O O17 0.018953 0.250000 0.438163
O O18 0.000000 0.000000 0.500000
O O19 0.094734 0.250000 0.941759
#
# Coordination Sequence:
#
# PCOD9164003 Si02
#       7
#     4   4   4   4   4   4   4
#     4  10  21  39  60  88 123 158 198 243 294 356
#     4  10  20  38  63  87 116 157 200 242 293 354
#     4  11  21  37  60  86 115 153 196 242 297 354
#     4  10  23  39  55  78 112 150 192 242 296 352
#     4  11  22  37  58  86 118 151 192 245 297 350
#     4  11  23  39  56  81 114 151 195 246 299 354
#     4   9  19  37  61  88 118 154 199 246 292 351
#
# _framework density 21.733391000000001
#
# number of rings (size 3 to 8) (size 9 to 14) (size 15 to 20)
#    0.000    1.714    1.429    3.000    0.000    5.714 
#    0.000    1.429    0.000    0.000    0.000    0.000 
#    0.000    0.000    0.000    0.000    0.000    0.000 
#
# Total GULP energy -156426.156191 kJ/mol
# GULP energy per Si atom -5586.648435 kJ/mol
# Density = 2.168392 g / cm^3
# Si number density = 21.733391 Si / 1000 Ang^3
#
#
#
# Elastic Constant Matrix: (Units=GPa)
#
#
# Indices 1 2 3 4 5 6 
#
# 1 139.1861 -0.1020 71.1066 0.0000 12.5906 0.0000
# 2 -0.1020 31.9628 -3.5471 0.0000 6.0757 0.0000
# 3 71.1066 -3.5471 126.1219 0.0000 22.2848 0.0000
# 4 0.0000 0.0000 0.0000 19.8385 0.0000 -8.0934
# 5 12.5906 6.0757 22.2848 0.0000 42.6432 0.0000
# 6 0.0000 0.0000 0.0000 -8.0934 0.0000 20.5709
#
#
#
# Elastic Compliance Matrix: (Units=1/GPa)
#
#
# Indices 1 2 3 4 5 6 
#
# 1 0.010103 -0.000623 -0.005731 0.000000 0.000101 0.000000
# 2 -0.000623 0.032609 0.002266 0.000000 -0.005646 0.000000
# 3 -0.005731 0.002266 0.012099 0.000000 -0.004953 0.000000
# 4 0.000000 0.000000 0.000000 0.060045 0.000000 0.023624
# 5 0.000101 -0.005646 -0.004953 0.000000 0.026814 0.000000
# 6 0.000000 0.000000 0.000000 0.023624 0.000000 0.057907
#
#
# Mechanical properties :
#
#
# Convention : Reuss Voigt Hill
#
# Bulk Modulus (GPa) = 21.44333 48.02065 34.73199
# Shear Modulus (GPa) = 22.39158 31.93142 27.16150
#
# Velocity S-wave (km/s) = 3.21329 3.83722 3.53903
# Velocity P-wave (km/s) = 4.86363 6.46341 5.71973
#
# Compressibility (1/GPa) = 0.04663455
#
# Stress axis : x y z
#
# Youngs Moduli (GPa) = 98.97998 30.66627 82.65063
#
# Poissons Ratio (x) = 0.01910 0.47370
# Poissons Ratio (y) = 0.06166 -0.18729
# Poissons Ratio (z) = 0.56729 -0.06949
#
# Static dielectric constant tensor:
#      x y z
#    x 1.798020 0.000000 0.028190 
#    y 0.000000 1.801540 0.000000 
#    z 0.028190 0.000000 1.762660 
# 
# From -- ./inp_files/66738.got.cif
#   From: 2010.05.17/outbox.cif.g08.bks.cpg/sg11_34_cif.got.tgz:66738.got - 2010.06.03 12:22:45.
