data_PCOD9164671
_publ_section_title
;
Structure prediction by ZEFSAII (Michael W. Deem and Ramdas Pophale) SiO2 
 PCOD9164671
Probable space group: P 21/M
;
_chemical_formula_sum "Si O2"
_cell_formula_units_Z 28
_cell_length_a 13.376725
_cell_length_b 16.913795
_cell_length_c 6.711654
_cell_angle_alpha 90.000000
_cell_angle_beta 63.325524
_cell_angle_gamma 90.000000
_cell_volume 1356.905838
_symmetry_space_group_name_H-M "P 21/M"
_symmetry_group_IT_number 11
_symmetry_cell_setting 'monoclinic'
loop_
_space_group_symop_operation_xyz
x,y,z
-x,1/2+y,-z
-x,-y,-z
x,1/2-y,z
loop_
_atom_site_type_symbol
_atom_site_label
_atom_site_fract_x
_atom_site_fract_y
_atom_site_fract_z
Si Si1 0.139051 0.555284 0.945360
Si Si2 0.968777 0.657810 0.364004
Si Si3 0.718197 0.656937 0.471132
Si Si4 0.988752 0.558234 0.700424
Si Si5 0.532181 0.841125 0.976685
Si Si6 0.461420 0.083647 0.621577
Si Si7 0.646110 0.160187 0.203053
O O1 0.116509 0.471394 0.074382
O O2 0.057065 0.612103 0.147820
O O3 0.260105 0.593924 0.852230
O O4 0.091356 0.553886 0.763394
O O5 0.981773 0.750000 0.316368
O O6 0.843562 0.633616 0.412922
O O7 0.981101 0.639947 0.588854
O O8 0.717243 0.750000 0.416881
O O9 0.660112 0.605719 0.353049
O O10 0.636734 0.648417 0.734570
O O11 0.000000 0.500000 0.500000
O O12 0.537711 0.750000 0.047769
O O13 0.535329 0.905228 0.146597
O O14 0.419615 0.848413 0.946676
O O15 0.549428 0.146675 0.452420
O O16 0.500000 0.000000 0.500000
O O17 0.690672 0.250000 0.176952
#
# Coordination Sequence:
#
# PCOD9164671 Si02
#       7
#     4   4   4   4   4   4   4
#     4  10  21  38  60  85 117 156 192 241 300 349
#     4  10  21  36  57  86 116 151 195 240 291 353
#     4   9  20  38  57  79 109 144 189 238 280 336
#     4   9  21  39  57  81 116 154 194 238 287 345
#     4   9  19  38  59  78 108 150 190 235 289 338
#     4  11  23  35  56  86 114 149 190 236 291 347
#     4  10  22  39  59  86 117 150 194 241 287 350
#
# _framework density 20.635182
#
# number of rings (size 3 to 8) (size 9 to 14) (size 15 to 20)
#    0.000    2.286    0.000    2.571    0.000   12.571 
#    0.000    2.857    0.000    0.000    0.000    0.000 
#    0.000    0.000    0.000    0.000    0.000    0.000 
#
# Total GULP energy -156323.104169 kJ/mol
# GULP energy per Si atom -5582.968006 kJ/mol
# Density = 2.058822 g / cm^3
# Si number density = 20.635182 Si / 1000 Ang^3
#
#
#
# Elastic Constant Matrix: (Units=GPa)
#
#
# Indices 1 2 3 4 5 6 
#
# 1 55.9781 4.8162 35.8770 0.0000 -3.1855 0.0000
# 2 4.8162 47.0079 20.6495 0.0000 5.0360 0.0000
# 3 35.8770 20.6495 68.7055 0.0000 15.2538 0.0000
# 4 0.0000 0.0000 0.0000 29.5171 0.0000 1.2089
# 5 -3.1855 5.0360 15.2538 0.0000 23.4435 0.0000
# 6 0.0000 0.0000 0.0000 1.2089 0.0000 34.2823
#
#
#
# Elastic Compliance Matrix: (Units=1/GPa)
#
#
# Indices 1 2 3 4 5 6 
#
# 1 0.033065 0.004633 -0.022717 0.000000 0.018279 0.000000
# 2 0.004633 0.025164 -0.010429 0.000000 0.002009 0.000000
# 3 -0.022717 -0.010429 0.034761 0.000000 -0.023464 0.000000
# 4 0.000000 0.000000 0.000000 0.033928 0.000000 -0.001196
# 5 0.018279 0.002009 -0.023464 0.000000 0.059975 0.000000
# 6 0.000000 0.000000 0.000000 -0.001196 0.000000 0.029212
#
#
# Mechanical properties :
#
#
# Convention : Reuss Voigt Hill
#
# Bulk Modulus (GPa) = 27.80420 32.70853 30.25636
# Shear Modulus (GPa) = 17.53660 24.80515 21.17088
#
# Velocity S-wave (km/s) = 2.91836 3.47086 3.20654
# Velocity P-wave (km/s) = 4.98590 5.65224 5.32949
#
# Compressibility (1/GPa) = 0.03596579
#
# Stress axis : x y z
#
# Youngs Moduli (GPa) = 30.24339 39.73911 28.76786
#
# Poissons Ratio (x) = -0.18412 0.65351
# Poissons Ratio (y) = -0.14012 0.30001
# Poissons Ratio (z) = 0.68703 0.41442
#
# Static dielectric constant tensor:
#      x y z
#    x 1.717810 0.000000 0.010110 
#    y 0.000000 1.810370 0.000000 
#    z 0.010110 0.000000 1.718410 
# 
# From -- ./inp_files/6650.got.cif
#   From: 2010.05.17/outbox.cif.g08.bks.cpg/sg11_4_cif.got.tgz:6650.got - 2010.06.03 12:22:45.
