data_PCOD9164188
_publ_section_title
;
Structure prediction by ZEFSAII (Michael W. Deem and Ramdas Pophale) SiO2 
 PCOD9164188
Probable space group: P 21/M
;
_chemical_formula_sum "Si O2"
_cell_formula_units_Z 32
_cell_length_a 17.715983
_cell_length_b 16.664474
_cell_length_c 9.372455
_cell_angle_alpha 90.000000
_cell_angle_beta 35.487384
_cell_angle_gamma 90.000000
_cell_volume 1606.312982
_symmetry_space_group_name_H-M "P 21/M"
_symmetry_group_IT_number 11
_symmetry_cell_setting 'monoclinic'
loop_
_space_group_symop_operation_xyz
x,y,z
-x,1/2+y,-z
-x,-y,-z
x,1/2-y,z
loop_
_atom_site_type_symbol
_atom_site_label
_atom_site_fract_x
_atom_site_fract_y
_atom_site_fract_z
Si Si1 0.953136 0.347542 0.189819
Si Si2 0.443363 0.412973 0.129063
Si Si3 0.336769 0.657098 0.385858
Si Si4 0.793389 0.653126 0.685900
Si Si5 0.179241 0.158181 0.037422
Si Si6 0.939033 0.346189 0.883948
Si Si7 0.411597 0.099498 0.515707
Si Si8 0.341606 0.581810 0.685132
O O1 0.961110 0.250000 0.182938
O O2 0.804704 0.371504 0.449596
O O3 0.977752 0.369375 0.986883
O O4 0.058782 0.380241 0.137671
O O5 0.311098 0.392399 0.249819
O O6 0.422224 0.404166 0.329693
O O7 0.500000 0.500000 0.000000
O O8 0.553443 0.353576 0.900028
O O9 0.322487 0.750000 0.446925
O O10 0.370820 0.611733 0.479337
O O11 0.768109 0.750000 0.714373
O O12 0.783676 0.624892 0.864908
O O13 0.939281 0.638589 0.405277
O O14 0.140919 0.250000 0.129094
O O15 0.301667 0.158140 0.743875
O O16 0.913951 0.250000 0.922075
O O17 0.804594 0.390587 0.055117
O O18 0.551017 0.115941 0.372221
O O19 0.360704 0.013441 0.651529
#
# Coordination Sequence:
#
# PCOD9164188 Si02
#       8
#     4   4   4   4   4   4   4   4
#     4   8  16  33  58  87 115 144 190 245 291 343
#     4  12  24  40  57  87 122 158 198 247 296 356
#     4  10  20  39  65  88 116 158 202 245 296 353
#     4  10  22  40  63  88 119 157 199 249 301 353
#     4  10  21  38  61  89 120 156 198 244 295 352
#     4   9  18  37  64  90 117 150 198 252 297 350
#     4  11  24  38  58  83 125 159 195 247 294 356
#     4  10  21  40  59  88 120 157 197 242 303 356
#
# _framework density 19.921398
#
# number of rings (size 3 to 8) (size 9 to 14) (size 15 to 20)
#    0.000    2.000    1.250    3.000    1.750    5.000 
#    2.250    3.750    0.000    0.000    0.000    0.000 
#    0.000    0.000    0.000    0.000    0.000    0.000 
#
# Total GULP energy -178620.762034 kJ/mol
# GULP energy per Si atom -5581.898814 kJ/mol
# Density = 1.987606 g / cm^3
# Si number density = 19.921398 Si / 1000 Ang^3
#
#
#
# Elastic Constant Matrix: (Units=GPa)
#
#
# Indices 1 2 3 4 5 6 
#
# 1 180.3141 18.4207 72.5740 0.0000 -17.0695 0.0000
# 2 18.4207 29.5368 12.3300 0.0000 -11.2497 0.0000
# 3 72.5740 12.3300 124.9588 0.0000 2.9092 0.0000
# 4 0.0000 0.0000 0.0000 14.1531 0.0000 -4.1999
# 5 -17.0695 -11.2497 2.9092 0.0000 21.7606 0.0000
# 6 0.0000 0.0000 0.0000 -4.1999 0.0000 22.0972
#
#
#
# Elastic Compliance Matrix: (Units=1/GPa)
#
#
# Indices 1 2 3 4 5 6 
#
# 1 0.008206 -0.000475 -0.004878 0.000000 0.006843 0.000000
# 2 -0.000475 0.045104 -0.004724 0.000000 0.023577 0.000000
# 3 -0.004878 -0.004724 0.011484 0.000000 -0.007804 0.000000
# 4 0.000000 0.000000 0.000000 0.074879 0.000000 0.014232
# 5 0.006843 0.023577 -0.007804 0.000000 0.064555 0.000000
# 6 0.000000 0.000000 0.000000 0.014232 0.000000 0.047960
#
#
# Mechanical properties :
#
#
# Convention : Reuss Voigt Hill
#
# Bulk Modulus (GPa) = 22.40153 60.16212 41.28183
# Shear Modulus (GPa) = 17.40832 27.03451 22.22141
#
# Velocity S-wave (km/s) = 2.95930 3.68782 3.34347
# Velocity P-wave (km/s) = 4.79020 6.95692 5.97263
#
# Compressibility (1/GPa) = 0.04463981
#
# Stress axis : x y z
#
# Youngs Moduli (GPa) = 121.86811 22.17114 87.08089
#
# Poissons Ratio (x) = 0.01052 0.42479
# Poissons Ratio (y) = 0.05784 0.41135
# Poissons Ratio (z) = 0.59449 0.10473
#
# Static dielectric constant tensor:
#      x y z
#    x 1.691730 0.000000 -0.010860 
#    y 0.000000 1.764470 0.000000 
#    z -0.010860 0.000000 1.688350 
# 
# From -- ./inp_files/23083.got.cif
#   From: 2010.05.17/outbox.cif.g08.bks.cpg/sg11_12_cif.got.tgz:23083.got - 2010.06.03 12:22:45.
