data_PCOD9164163
_publ_section_title
;
Structure prediction by ZEFSAII (Michael W. Deem and Ramdas Pophale) SiO2 
 PCOD9164163
Probable space group: P 21/M
;
_chemical_formula_sum "Si O2"
_cell_formula_units_Z 24
_cell_length_a 22.712909
_cell_length_b 8.574427
_cell_length_c 9.963453
_cell_angle_alpha 90.000000
_cell_angle_beta 43.714436
_cell_angle_gamma 90.000000
_cell_volume 1340.930770
_symmetry_space_group_name_H-M "P 21/M"
_symmetry_group_IT_number 11
_symmetry_cell_setting 'monoclinic'
loop_
_space_group_symop_operation_xyz
x,y,z
-x,1/2+y,-z
-x,-y,-z
x,1/2-y,z
loop_
_atom_site_type_symbol
_atom_site_label
_atom_site_fract_x
_atom_site_fract_y
_atom_site_fract_z
Si Si1 0.781463 0.935486 0.121397
Si Si2 0.533945 0.562390 0.301667
Si Si3 0.240179 0.939461 0.417655
Si Si4 0.277200 0.562793 0.058322
Si Si5 0.363737 0.561829 0.444541
Si Si6 0.905540 0.437112 0.136031
O O1 0.783552 0.750000 0.120464
O O2 0.697063 0.993687 0.339419
O O3 0.860772 0.002386 0.074416
O O4 0.775023 0.995348 0.980536
O O5 0.500000 0.500000 0.500000
O O6 0.541285 0.750000 0.295622
O O7 0.461088 0.519682 0.313300
O O8 0.625062 0.489942 0.119526
O O9 0.240122 0.750000 0.414935
O O10 0.244739 0.992680 0.257285
O O11 0.322172 0.987015 0.371740
O O12 0.157176 0.987837 0.638962
O O13 0.273330 0.750000 0.059396
O O14 0.357370 0.750000 0.463912
O O15 0.906259 0.250000 0.132338
O O16 0.000000 0.500000 0.000000
#
# Coordination Sequence:
#
# PCOD9164163 Si02
#       6
#     4   4   4   4   4   4
#     4  11  21  34  55  82 110 143 185 225 269 324
#     4  11  21  32  51  78 110 146 191 234 272 319
#     4   8  18  36  57  79 108 144 180 222 276 329
#     4  11  21  35  54  78 111 149 184 226 276 320
#     4   9  18  35  55  75 104 146 190 231 273 320
#     4  10  20  39  64  88 111 138 177 221 270 329
#
# _framework density 17.898014
#
# number of rings (size 3 to 8) (size 9 to 14) (size 15 to 20)
#    0.000    2.000    1.667    4.000    0.000    1.333 
#    0.000    9.167    0.000    0.000    0.000    0.000 
#    0.000    0.000    0.000    0.000    0.000    0.000 
#
# Total GULP energy -133969.096160 kJ/mol
# GULP energy per Si atom -5582.045673 kJ/mol
# Density = 1.785728 g / cm^3
# Si number density = 17.898014 Si / 1000 Ang^3
#
#
#
# Elastic Constant Matrix: (Units=GPa)
#
#
# Indices 1 2 3 4 5 6 
#
# 1 173.8802 45.6698 95.6690 0.0000 6.5616 0.0000
# 2 45.6698 51.3440 21.5647 0.0000 0.6113 0.0000
# 3 95.6690 21.5647 99.5052 0.0000 17.7480 0.0000
# 4 0.0000 0.0000 0.0000 14.4988 0.0000 -7.9722
# 5 6.5616 0.6113 17.7480 0.0000 36.1526 0.0000
# 6 0.0000 0.0000 0.0000 -7.9722 0.0000 29.3238
#
#
#
# Elastic Compliance Matrix: (Units=1/GPa)
#
#
# Indices 1 2 3 4 5 6 
#
# 1 0.015100 -0.007788 -0.013551 0.000000 0.004044 0.000000
# 2 -0.007788 0.025590 0.001936 0.000000 0.000030 0.000000
# 3 -0.013551 0.001936 0.024359 0.000000 -0.009531 0.000000
# 4 0.000000 0.000000 0.000000 0.081094 0.000000 0.022047
# 5 0.004044 0.000030 -0.009531 0.000000 0.031605 0.000000
# 6 0.000000 0.000000 0.000000 0.022047 0.000000 0.040096
#
#
# Mechanical properties :
#
#
# Convention : Reuss Voigt Hill
#
# Bulk Modulus (GPa) = 38.10490 72.28181 55.19335
# Shear Modulus (GPa) = 18.83976 26.78345 22.81160
#
# Velocity S-wave (km/s) = 3.24793 3.87259 3.57393
# Velocity P-wave (km/s) = 5.94992 7.77618 6.92353
#
# Compressibility (1/GPa) = 0.02624335
#
# Stress axis : x y z
#
# Youngs Moduli (GPa) = 66.22631 39.07792 41.05286
#
# Poissons Ratio (x) = 0.30432 0.55631
# Poissons Ratio (y) = 0.51575 -0.07948
# Poissons Ratio (z) = 0.89744 -0.07566
#
# Static dielectric constant tensor:
#      x y z
#    x 1.619050 0.000000 0.015680 
#    y 0.000000 1.680070 0.000000 
#    z 0.015680 0.000000 1.590040 
# 
# From -- ./inp_files/23762.got.cif
#   From: 2010.05.17/outbox.cif.g08.bks.cpg/sg11_12_cif.got.tgz:23762.got - 2010.06.03 12:22:45.
