data_PCOD9164507
_publ_section_title
;
Structure prediction by ZEFSAII (Michael W. Deem and Ramdas Pophale) SiO2 
 PCOD9164507
Probable space group: P 21/M
;
_chemical_formula_sum "Si O2"
_cell_formula_units_Z 32
_cell_length_a 13.192465
_cell_length_b 8.184603
_cell_length_c 21.920440
_cell_angle_alpha 90.000000
_cell_angle_beta 42.561182
_cell_angle_gamma 90.000000
_cell_volume 1600.890902
_symmetry_space_group_name_H-M "P 21/M"
_symmetry_group_IT_number 11
_symmetry_cell_setting 'monoclinic'
loop_
_space_group_symop_operation_xyz
x,y,z
-x,1/2+y,-z
-x,-y,-z
x,1/2-y,z
loop_
_atom_site_type_symbol
_atom_site_label
_atom_site_fract_x
_atom_site_fract_y
_atom_site_fract_z
Si Si1 0.747400 0.553807 0.860124
Si Si2 0.789830 0.555495 0.216762
Si Si3 0.934469 0.553305 0.593225
Si Si4 0.380974 0.449727 0.208636
Si Si5 0.301600 0.552215 0.877466
Si Si6 0.353970 0.944620 0.600481
Si Si7 0.871760 0.053703 0.927038
Si Si8 0.936333 0.448750 0.340090
O O1 0.736892 0.750000 0.867407
O O2 0.636588 0.498032 0.854799
O O3 0.753729 0.491230 0.926294
O O4 0.911541 0.506310 0.761809
O O5 0.795491 0.750000 0.218237
O O6 0.745467 0.507413 0.168071
O O7 0.668951 0.495316 0.319467
O O8 0.957979 0.490838 0.158175
O O9 0.929478 0.750000 0.596046
O O10 0.767239 0.498943 0.687678
O O11 0.000000 0.500000 0.500000
O O12 0.044596 0.498512 0.598727
O O13 0.380247 0.250000 0.207764
O O14 0.533115 0.501960 0.173938
O O15 0.301716 0.750000 0.876270
O O16 0.187120 0.497780 0.981038
O O17 0.349581 0.750000 0.600355
O O18 0.209142 0.012560 0.628968
O O19 0.500000 0.000000 0.500000
O O20 0.878628 0.250000 0.925023
O O21 0.931348 0.250000 0.341786
#
# Coordination Sequence:
#
# PCOD9164507 Si02
#       8
#     4   4   4   4   4   4   4   4
#     4   9  16  32  58  81 103 141 185 224 271 335
#     4  11  23  39  56  80 113 149 191 239 278 326
#     4   9  17  32  53  77 102 134 176 219 263 322
#     4   8  17  34  55  78 108 142 182 227 277 335
#     4  10  21  38  57  80 113 153 187 228 286 341
#     4  11  22  38  59  84 110 144 184 230 284 336
#     4  10  21  35  55  83 114 145 186 236 284 330
#     4   8  16  32  53  74 101 137 176 216 263 321
#
# _framework density 19.988872000000001
#
# number of rings (size 3 to 8) (size 9 to 14) (size 15 to 20)
#    0.000    2.500    1.250    2.625    0.000    2.500 
#    0.000    7.500    0.000    0.000    0.000    0.000 
#    0.000    0.000    0.000    0.000    0.000    0.000 
#
# Total GULP energy -178481.349862 kJ/mol
# GULP energy per Si atom -5577.542183 kJ/mol
# Density = 1.994338 g / cm^3
# Si number density = 19.988872 Si / 1000 Ang^3
#
#
#
# Elastic Constant Matrix: (Units=GPa)
#
#
# Indices 1 2 3 4 5 6 
#
# 1 94.7714 7.6223 42.9498 0.0000 15.8885 0.0000
# 2 7.6223 16.8991 14.6095 0.0000 0.3177 0.0000
# 3 42.9498 14.6095 111.6401 0.0000 24.1691 0.0000
# 4 0.0000 0.0000 0.0000 22.1220 0.0000 10.2865
# 5 15.8885 0.3177 24.1691 0.0000 36.4054 0.0000
# 6 0.0000 0.0000 0.0000 10.2865 0.0000 22.0984
#
#
#
# Elastic Compliance Matrix: (Units=1/GPa)
#
#
# Indices 1 2 3 4 5 6 
#
# 1 0.013090 -0.002314 -0.004088 0.000000 -0.002979 0.000000
# 2 -0.002314 0.068309 -0.009505 0.000000 0.006724 0.000000
# 3 -0.004088 -0.009505 0.013278 0.000000 -0.006948 0.000000
# 4 0.000000 0.000000 0.000000 0.057691 0.000000 -0.026854
# 5 -0.002979 0.006724 -0.006948 0.000000 0.033322 0.000000
# 6 0.000000 0.000000 0.000000 -0.026854 0.000000 0.057752
#
#
# Mechanical properties :
#
#
# Convention : Reuss Voigt Hill
#
# Bulk Modulus (GPa) = 15.90747 39.29710 27.60228
# Shear Modulus (GPa) = 16.87991 26.66708 21.77349
#
# Velocity S-wave (km/s) = 2.90912 3.65649 3.30401
# Velocity P-wave (km/s) = 4.38856 6.12607 5.32861
#
# Compressibility (1/GPa) = 0.06286354
#
# Stress axis : x y z
#
# Youngs Moduli (GPa) = 76.39451 14.63942 75.31167
#
# Poissons Ratio (x) = 0.03387 0.30790
# Poissons Ratio (y) = 0.17676 0.71580
# Poissons Ratio (z) = 0.31232 0.13914
#
# Static dielectric constant tensor:
#      x y z
#    x 1.738010 0.000000 -0.020690 
#    y 0.000000 1.702060 0.000000 
#    z -0.020690 0.000000 1.725470 
# 
# From -- ./inp_files/64401.got.cif
#   From: 2010.05.17/outbox.cif.g08.bks.cpg/sg11_33_cif.got.tgz:64401.got - 2010.06.03 12:22:45.
