data_PCOD9164112
_publ_section_title
;
Structure prediction by ZEFSAII (Michael W. Deem and Ramdas Pophale) SiO2 
 PCOD9164112
Probable space group: P 21/M
;
_chemical_formula_sum "Si O2"
_cell_formula_units_Z 32
_cell_length_a 11.941978
_cell_length_b 18.656637
_cell_length_c 9.706040
_cell_angle_alpha 90.000000
_cell_angle_beta 49.517224
_cell_angle_gamma 90.000000
_cell_volume 1644.783315
_symmetry_space_group_name_H-M "P 21/M"
_symmetry_group_IT_number 11
_symmetry_cell_setting 'monoclinic'
loop_
_space_group_symop_operation_xyz
x,y,z
-x,1/2+y,-z
-x,-y,-z
x,1/2-y,z
loop_
_atom_site_type_symbol
_atom_site_label
_atom_site_fract_x
_atom_site_fract_y
_atom_site_fract_z
Si Si1 0.285959 0.332596 0.538599
Si Si2 0.630945 0.927738 0.296042
Si Si3 0.495861 0.065304 0.896740
Si Si4 0.807396 0.332937 0.987937
Si Si5 0.027053 0.096661 0.612136
Si Si6 0.483120 0.331495 0.143905
Si Si7 0.830501 0.061782 0.517467
Si Si8 0.697474 0.411529 0.345021
O O1 0.315014 0.250000 0.547134
O O2 0.265855 0.374794 0.697784
O O3 0.416346 0.364837 0.337562
O O4 0.148449 0.343574 0.547036
O O5 0.613574 0.937011 0.145931
O O6 0.468852 0.897223 0.468959
O O7 0.676191 0.006184 0.313524
O O8 0.664070 0.066801 0.708659
O O9 0.446090 0.130395 0.032549
O O10 0.500000 0.000000 0.000000
O O11 0.862637 0.250000 0.949248
O O12 0.658165 0.332250 0.018186
O O13 0.755954 0.361252 0.177413
O O14 0.913911 0.389251 0.827578
O O15 0.938649 0.100229 0.539313
O O16 0.110301 0.019968 0.544511
O O17 0.430850 0.250000 0.184260
O O18 0.812060 0.092307 0.379284
#
# Coordination Sequence:
#
# PCOD9164112 Si02
#       8
#     4   4   4   4   4   4   4   4
#     4  11  22  41  63  88 125 168 207 250 311 377
#     4  10  21  35  62  92 121 156 200 257 316 357
#     4  11  21  36  62  94 122 155 205 262 306 360
#     4  11  22  39  62  87 120 161 204 250 303 366
#     4  11  22  40  60  89 124 161 203 244 307 373
#     4  10  21  38  60  87 120 160 205 249 304 366
#     4  10  22  38  61  88 123 160 200 251 308 366
#     4  10  20  39  60  91 121 152 204 257 302 364
#
# _framework density 19.455449999999999
#
# number of rings (size 3 to 8) (size 9 to 14) (size 15 to 20)
#    0.000    1.500    3.750    1.875    1.750    1.000 
#    0.000    3.125    0.000    1.500    0.000    0.000 
#    0.000    0.000    0.000    0.000    0.000    0.000 
#
# Total GULP energy -178260.615193 kJ/mol
# GULP energy per Si atom -5570.644225 kJ/mol
# Density = 1.941117 g / cm^3
# Si number density = 19.455450 Si / 1000 Ang^3
#
#
#
# Elastic Constant Matrix: (Units=GPa)
#
#
# Indices 1 2 3 4 5 6 
#
# 1 103.1918 17.4864 23.3525 0.0000 30.9961 0.0000
# 2 17.4864 40.9813 17.3141 0.0000 16.0481 0.0000
# 3 23.3525 17.3141 59.0428 0.0000 25.7489 0.0000
# 4 0.0000 0.0000 0.0000 26.6633 0.0000 2.5023
# 5 30.9961 16.0481 25.7489 0.0000 34.4033 0.0000
# 6 0.0000 0.0000 0.0000 2.5023 0.0000 20.4463
#
#
#
# Elastic Compliance Matrix: (Units=1/GPa)
#
#
# Indices 1 2 3 4 5 6 
#
# 1 0.013335 -0.001223 0.000112 0.000000 -0.011528 0.000000
# 2 -0.001223 0.030611 -0.004077 0.000000 -0.010126 0.000000
# 3 0.000112 -0.004077 0.025687 0.000000 -0.017424 0.000000
# 4 0.000000 0.000000 0.000000 0.037941 0.000000 -0.004643
# 5 -0.011528 -0.010126 -0.017424 0.000000 0.057217 0.000000
# 6 0.000000 0.000000 0.000000 -0.004643 0.000000 0.049477
#
#
# Mechanical properties :
#
#
# Convention : Reuss Voigt Hill
#
# Bulk Modulus (GPa) = 16.87578 35.50242 26.18910
# Shear Modulus (GPa) = 20.45854 25.97344 23.21599
#
# Velocity S-wave (km/s) = 3.24629 3.65776 3.45815
# Velocity P-wave (km/s) = 4.76908 6.01054 5.42544
#
# Compressibility (1/GPa) = 0.05925652
#
# Stress axis : x y z
#
# Youngs Moduli (GPa) = 74.98915 32.66806 38.93016
#
# Poissons Ratio (x) = 0.03996 -0.00434
# Poissons Ratio (y) = 0.09172 0.15871
# Poissons Ratio (z) = -0.00837 0.13318
#
# Static dielectric constant tensor:
#      x y z
#    x 1.758130 0.000000 0.008610 
#    y 0.000000 1.651960 0.000000 
#    z 0.008610 0.000000 1.766950 
# 
# From -- ./inp_files/19387.got.cif
#   From: 2010.05.17/outbox.cif.g08.bks.cpg/sg11_10_cif.got.tgz:19387.got - 2010.06.03 12:22:45.
