data_PCOD9164709
_publ_section_title
;
Structure prediction by ZEFSAII (Michael W. Deem and Ramdas Pophale) SiO2 
 PCOD9164709
Probable space group: P 21/M
;
_chemical_formula_sum "Si O2"
_cell_formula_units_Z 32
_cell_length_a 13.879217
_cell_length_b 8.292401
_cell_length_c 13.476202
_cell_angle_alpha 90.000000
_cell_angle_beta 112.918284
_cell_angle_gamma 90.000000
_cell_volume 1428.569104
_symmetry_space_group_name_H-M "P 21/M"
_symmetry_group_IT_number 11
_symmetry_cell_setting 'monoclinic'
loop_
_space_group_symop_operation_xyz
x,y,z
-x,1/2+y,-z
-x,-y,-z
x,1/2-y,z
loop_
_atom_site_type_symbol
_atom_site_label
_atom_site_fract_x
_atom_site_fract_y
_atom_site_fract_z
Si Si1 0.134463 0.568977 0.476569
Si Si2 0.777264 0.562434 0.284101
Si Si3 0.540967 0.441207 0.662960
Si Si4 0.665411 0.562317 0.525239
Si Si5 0.382292 0.444637 0.934608
Si Si6 0.914222 0.555444 0.886256
Si Si7 0.975017 0.437492 0.271084
Si Si8 0.307219 0.445020 0.115650
O O1 0.093982 0.750000 0.458656
O O2 0.181900 0.526158 0.602113
O O3 0.233239 0.545760 0.443696
O O4 0.043854 0.455833 0.398260
O O5 0.762524 0.750000 0.303585
O O6 0.673386 0.498122 0.188502
O O7 0.871053 0.541426 0.242660
O O8 0.552281 0.250000 0.650726
O O9 0.605950 0.534010 0.604396
O O10 0.419196 0.477078 0.594381
O O11 0.591412 0.488718 0.786758
O O12 0.696164 0.750000 0.529537
O O13 0.381110 0.250000 0.929779
O O14 0.500000 0.500000 0.000000
O O15 0.314814 0.493707 0.003977
O O16 0.909587 0.750000 0.884277
O O17 0.798916 0.498083 0.872772
O O18 0.954549 0.507012 0.793515
O O19 0.000000 0.500000 0.000000
O O20 0.947068 0.250000 0.245850
O O21 0.309743 0.250000 0.121593
#
# Coordination Sequence:
#
# PCOD9164709 Si02
#       8
#     4   4   4   4   4   4   4   4
#     4  12  25  40  63  93 125 165 213 262 316 378
#     4  11  24  44  66  90 125 168 212 264 320 378
#     4  10  21  36  58  88 120 158 204 253 307 367
#     4  10  21  38  58  85 123 162 204 254 308 368
#     4  10  24  43  65  91 123 165 213 263 318 375
#     4  10  22  39  63  92 125 162 204 253 312 373
#     4  11  23  41  65  96 130 167 210 261 317 377
#     4  10  21  39  61  88 121 159 201 250 311 371
#
# _framework density 22.400034999999999
#
# number of rings (size 3 to 8) (size 9 to 14) (size 15 to 20)
#    0.000    1.500    0.000    4.500    1.750    6.500 
#    0.000    0.000    0.000    0.000    0.000    0.000 
#    0.000    0.000    0.000    0.000    0.000    0.000 
#
# Total GULP energy -179010.291436 kJ/mol
# GULP energy per Si atom -5594.071607 kJ/mol
# Density = 2.234905 g / cm^3
# Si number density = 22.400035 Si / 1000 Ang^3
#
#
#
# Elastic Constant Matrix: (Units=GPa)
#
#
# Indices 1 2 3 4 5 6 
#
# 1 56.9576 -1.8172 5.6725 0.0000 5.1715 0.0000
# 2 -1.8172 19.3903 -3.1556 0.0000 -1.5515 0.0000
# 3 5.6725 -3.1556 113.1563 0.0000 9.7968 0.0000
# 4 0.0000 0.0000 0.0000 30.8386 0.0000 2.1959
# 5 5.1715 -1.5515 9.7968 0.0000 32.4479 0.0000
# 6 0.0000 0.0000 0.0000 2.1959 0.0000 29.0181
#
#
#
# Elastic Compliance Matrix: (Units=1/GPa)
#
#
# Indices 1 2 3 4 5 6 
#
# 1 0.017899 0.001367 -0.000634 0.000000 -0.002596 0.000000
# 2 0.001367 0.052051 0.001218 0.000000 0.001903 0.000000
# 3 -0.000634 0.001218 0.009128 0.000000 -0.002597 0.000000
# 4 0.000000 0.000000 0.000000 0.032603 0.000000 -0.002467
# 5 -0.002596 0.001903 -0.002597 0.000000 0.032107 0.000000
# 6 0.000000 0.000000 0.000000 -0.002467 0.000000 0.034648
#
#
# Mechanical properties :
#
#
# Convention : Reuss Voigt Hill
#
# Bulk Modulus (GPa) = 12.05127 21.21151 16.63139
# Shear Modulus (GPa) = 24.72864 31.04790 27.88827
#
# Velocity S-wave (km/s) = 3.32619 3.72703 3.53230
# Velocity P-wave (km/s) = 4.48810 5.29254 4.90683
#
# Compressibility (1/GPa) = 0.08297884
#
# Stress axis : x y z
#
# Youngs Moduli (GPa) = 55.86779 19.21201 109.55409
#
# Poissons Ratio (x) = -0.02625 0.06951
# Poissons Ratio (y) = -0.07635 -0.13347
# Poissons Ratio (z) = 0.03544 -0.02341
#
# Static dielectric constant tensor:
#      x y z
#    x 1.840480 0.000000 -0.023010 
#    y 0.000000 1.755600 0.000000 
#    z -0.023010 0.000000 1.825330 
# 
# From -- ./inp_files/51729.got.cif
#   From: 2010.05.17/outbox.cif.g08.bks.cpg/sg11_26_cif.got.tgz:51729.got - 2010.06.03 12:22:45.
