data_PCOD9164086
_publ_section_title
;
Structure prediction by ZEFSAII (Michael W. Deem and Ramdas Pophale) SiO2 
 PCOD9164086
Probable space group: P 21/M
;
_chemical_formula_sum "Si O2"
_cell_formula_units_Z 24
_cell_length_a 14.838772
_cell_length_b 14.804326
_cell_length_c 9.981511
_cell_angle_alpha 90.000000
_cell_angle_beta 152.486589
_cell_angle_gamma 90.000000
_cell_volume 1012.939974
_symmetry_space_group_name_H-M "P 21/M"
_symmetry_group_IT_number 11
_symmetry_cell_setting 'monoclinic'
loop_
_space_group_symop_operation_xyz
x,y,z
-x,1/2+y,-z
-x,-y,-z
x,1/2-y,z
loop_
_atom_site_type_symbol
_atom_site_label
_atom_site_fract_x
_atom_site_fract_y
_atom_site_fract_z
Si Si1 0.561907 0.607875 0.898121
Si Si2 0.809713 0.439517 0.253939
Si Si3 0.849511 0.057683 0.600525
Si Si4 0.725096 0.651530 0.401769
Si Si5 0.743534 0.855654 0.855899
Si Si6 0.417953 0.651270 0.240531
O O1 0.332804 0.602397 0.562960
O O2 0.689136 0.641000 0.940953
O O3 0.624494 0.504831 0.005587
O O4 0.627962 0.650894 0.125546
O O5 0.820685 0.397239 0.414201
O O6 0.000000 0.500000 0.500000
O O7 0.783888 0.384215 0.084903
O O8 0.824766 0.948098 0.554918
O O9 0.064605 0.087233 0.926561
O O10 0.831505 0.750000 0.554347
O O11 0.556634 0.656687 0.292306
O O12 0.774018 0.750000 0.858038
O O13 0.555757 0.895281 0.530629
O O14 0.380409 0.750000 0.247619
#
# Coordination Sequence:
#
# PCOD9164086 Si02
#       6
#     4   4   4   4   4   4
#     4  11  21  42  66  99 133 176 233 288 342 407
#     4  11  20  41  66  98 129 174 229 284 333 410
#     4  11  22  42  70 101 135 180 235 282 344 415
#     4  10  20  38  67  97 134 179 227 286 342 406
#     4  11  26  43  66 101 142 183 231 285 349 414
#     4  10  22  43  66  99 141 179 226 289 348 405
#
# _framework density 23.693408000000002
#
# number of rings (size 3 to 8) (size 9 to 14) (size 15 to 20)
#    0.000    1.333    5.000    1.500    0.000    3.333 
#    0.000    2.500    0.000    9.000    0.000    1.167 
#    0.000    0.000    0.000    0.000    0.000    0.000 
#
# Total GULP energy -133805.430383 kJ/mol
# GULP energy per Si atom -5575.226266 kJ/mol
# Density = 2.363948 g / cm^3
# Si number density = 23.693408 Si / 1000 Ang^3
#
#
#
# Elastic Constant Matrix: (Units=GPa)
#
#
# Indices 1 2 3 4 5 6 
#
# 1 56.9522 -6.4584 -1.4958 0.0000 8.4706 0.0000
# 2 -6.4584 116.1215 43.8053 0.0000 7.8033 0.0000
# 3 -1.4958 43.8053 111.7159 0.0000 8.4895 0.0000
# 4 0.0000 0.0000 0.0000 31.3333 0.0000 1.0253
# 5 8.4706 7.8033 8.4895 0.0000 38.2022 0.0000
# 6 0.0000 0.0000 0.0000 1.0253 0.0000 12.4224
#
#
#
# Elastic Compliance Matrix: (Units=1/GPa)
#
#
# Indices 1 2 3 4 5 6 
#
# 1 0.018353 0.001286 0.000072 0.000000 -0.004348 0.000000
# 2 0.001286 0.010251 -0.003887 0.000000 -0.001515 0.000000
# 3 0.000072 -0.003887 0.010596 0.000000 -0.001577 0.000000
# 4 0.000000 0.000000 0.000000 0.032001 0.000000 -0.002641
# 5 -0.004348 -0.001515 -0.001577 0.000000 0.027800 0.000000
# 6 0.000000 0.000000 0.000000 -0.002641 0.000000 0.080718
#
#
# Mechanical properties :
#
#
# Convention : Reuss Voigt Hill
#
# Bulk Modulus (GPa) = 29.28981 39.61019 34.45000
# Shear Modulus (GPa) = 25.48941 32.98749 29.23845
#
# Velocity S-wave (km/s) = 3.28350 3.73535 3.51669
# Velocity P-wave (km/s) = 5.17339 5.94625 5.57324
#
# Compressibility (1/GPa) = 0.03414157
#
# Stress axis : x y z
#
# Youngs Moduli (GPa) = 54.48705 97.54704 94.37208
#
# Poissons Ratio (x) = -0.12542 -0.00679
# Poissons Ratio (y) = -0.07006 0.36686
# Poissons Ratio (z) = -0.00392 0.37920
#
# Static dielectric constant tensor:
#      x y z
#    x 1.951010 0.000000 -0.026060 
#    y 0.000000 2.004070 0.000000 
#    z -0.026060 0.000000 1.991450 
# 
# From -- ./inp_files/41917.got.cif
#   From: 2010.05.17/outbox.cif.g08.bks.cpg/sg11_21_cif.got.tgz:41917.got - 2010.06.03 12:22:45.
