data_PCOD9164477
_publ_section_title
;
Structure prediction by ZEFSAII (Michael W. Deem and Ramdas Pophale) SiO2 
 PCOD9164477
Probable space group: P 21/M
;
_chemical_formula_sum "Si O2"
_cell_formula_units_Z 32
_cell_length_a 16.214694
_cell_length_b 9.416376
_cell_length_c 11.544725
_cell_angle_alpha 90.000000
_cell_angle_beta 90.528203
_cell_angle_gamma 90.000000
_cell_volume 1762.615911
_symmetry_space_group_name_H-M "P 21/M"
_symmetry_group_IT_number 11
_symmetry_cell_setting 'monoclinic'
loop_
_space_group_symop_operation_xyz
x,y,z
-x,1/2+y,-z
-x,-y,-z
x,1/2-y,z
loop_
_atom_site_type_symbol
_atom_site_label
_atom_site_fract_x
_atom_site_fract_y
_atom_site_fract_z
Si Si1 0.757035 0.085640 0.060776
Si Si2 0.151265 0.083510 0.269567
Si Si3 0.610718 0.918397 0.421908
Si Si4 0.323390 0.419040 0.142359
Si Si5 0.458137 0.079780 0.327249
Si Si6 0.915088 0.919007 0.480765
Si Si7 0.931778 0.413994 0.928439
Si Si8 0.219221 0.080139 0.701172
O O1 0.734346 0.250000 0.077557
O O2 0.765912 0.003496 0.180976
O O3 0.846217 0.081394 0.998959
O O4 0.694165 0.006845 0.973529
O O5 0.132594 0.250000 0.247479
O O6 0.243866 0.058746 0.224890
O O7 0.140190 0.057457 0.405214
O O8 0.089384 0.988033 0.193687
O O9 0.595492 0.750000 0.409138
O O10 0.592918 0.954549 0.555815
O O11 0.703353 0.945804 0.382618
O O12 0.545180 0.002956 0.343423
O O13 0.326902 0.250000 0.117557
O O14 0.404401 0.460977 0.215118
O O15 0.469081 0.250000 0.324632
O O16 0.929969 0.750000 0.472857
O O17 0.863865 0.963112 0.366933
O O18 0.000000 0.000000 0.500000
O O19 0.956392 0.250000 0.913547
O O20 0.000000 0.500000 0.000000
O O21 0.215383 0.250000 0.723063
#
# Coordination Sequence:
#
# PCOD9164477 Si02
#       8
#     4   4   4   4   4   4   4   4
#     4  10  22  37  53  77 106 138 178 226 271 312
#     4   9  18  34  54  76 103 134 172 216 263 313
#     4   9  18  33  54  82 112 143 177 215 262 316
#     4   9  17  33  57  80 104 139 178 217 264 320
#     4   9  17  31  55  85 113 138 174 220 265 315
#     4  10  22  37  54  78 106 138 176 219 265 316
#     4  10  21  35  53  76 102 133 173 221 269 314
#     4  10  21  38  57  76 106 147 183 214 260 325
#
# _framework density 18.154836
#
# number of rings (size 3 to 8) (size 9 to 14) (size 15 to 20)
#    0.000    2.500    0.000    1.500    1.750    6.500 
#    0.000    0.625    0.000    4.500    0.000    0.000 
#    0.000    0.000    0.000    0.000    0.000    0.000 
#
# Total GULP energy -178575.115695 kJ/mol
# GULP energy per Si atom -5580.472365 kJ/mol
# Density = 1.811351 g / cm^3
# Si number density = 18.154836 Si / 1000 Ang^3
#
#
#
# Elastic Constant Matrix: (Units=GPa)
#
#
# Indices 1 2 3 4 5 6 
#
# 1 75.1318 40.7194 42.8417 0.0000 34.9711 0.0000
# 2 40.7194 50.5020 44.9406 0.0000 20.6029 0.0000
# 3 42.8417 44.9406 94.3947 0.0000 31.8387 0.0000
# 4 0.0000 0.0000 0.0000 27.1324 0.0000 3.8235
# 5 34.9711 20.6029 31.8387 0.0000 35.4722 0.0000
# 6 0.0000 0.0000 0.0000 3.8235 0.0000 29.9567
#
#
#
# Elastic Compliance Matrix: (Units=1/GPa)
#
#
# Indices 1 2 3 4 5 6 
#
# 1 0.033658 -0.019062 0.001803 0.000000 -0.023729 0.000000
# 2 -0.019062 0.046628 -0.015420 0.000000 0.005551 0.000000
# 3 0.001803 -0.015420 0.021076 0.000000 -0.011739 0.000000
# 4 0.000000 0.000000 0.000000 0.037531 0.000000 -0.004790
# 5 -0.023729 0.005551 -0.011739 0.000000 0.058897 0.000000
# 6 0.000000 0.000000 0.000000 -0.004790 0.000000 0.033993
#
#
# Mechanical properties :
#
#
# Convention : Reuss Voigt Hill
#
# Bulk Modulus (GPa) = 27.77446 53.00354 40.38900
# Shear Modulus (GPa) = 16.17372 24.61406 20.39389
#
# Velocity S-wave (km/s) = 2.98799 3.68609 3.35525
# Velocity P-wave (km/s) = 5.21881 6.88295 6.10782
#
# Compressibility (1/GPa) = 0.03600430
#
# Stress axis : x y z
#
# Youngs Moduli (GPa) = 29.71062 21.44624 47.44684
#
# Poissons Ratio (x) = 0.40881 -0.08555
# Poissons Ratio (y) = 0.56634 0.73164
# Poissons Ratio (z) = -0.05357 0.33070
#
# Static dielectric constant tensor:
#      x y z
#    x 1.608850 0.000000 -0.011840 
#    y 0.000000 1.604480 0.000000 
#    z -0.011840 0.000000 1.613900 
# 
# From -- ./inp_files/38079.got.cif
#   From: 2010.05.17/outbox.cif.g08.bks.cpg/sg11_20_cif.got.tgz:38079.got - 2010.06.03 12:22:45.
