data_PCOD9164299
_publ_section_title
;
Structure prediction by ZEFSAII (Michael W. Deem and Ramdas Pophale) SiO2 
 PCOD9164299
Probable space group: P 21/M
;
_chemical_formula_sum "Si O2"
_cell_formula_units_Z 26
_cell_length_a 7.639664
_cell_length_b 20.614119
_cell_length_c 13.230801
_cell_angle_alpha 90.000000
_cell_angle_beta 143.319604
_cell_angle_gamma 90.000000
_cell_volume 1244.671113
_symmetry_space_group_name_H-M "P 21/M"
_symmetry_group_IT_number 11
_symmetry_cell_setting 'monoclinic'
loop_
_space_group_symop_operation_xyz
x,y,z
-x,1/2+y,-z
-x,-y,-z
x,1/2-y,z
loop_
_atom_site_type_symbol
_atom_site_label
_atom_site_fract_x
_atom_site_fract_y
_atom_site_fract_z
Si Si1 0.193090 0.063675 0.064854
Si Si2 0.036778 0.629216 0.349567
Si Si3 0.666770 0.386751 0.702975
Si Si4 0.731608 0.250000 0.215682
Si Si5 0.376693 0.250000 0.618474
Si Si6 0.508801 0.677622 0.719867
Si Si7 0.340830 0.250000 0.848733
Si Si8 0.295098 0.473527 0.684144
O O1 0.265980 0.118259 0.183010
O O2 0.503498 0.031587 0.182066
O O3 0.995701 0.102009 0.894840
O O4 0.000000 0.000000 0.000000
O O5 0.292410 0.601544 0.396621
O O6 0.210987 0.658563 0.525523
O O7 0.856648 0.687790 0.217478
O O8 0.802905 0.576436 0.275806
O O9 0.547251 0.314876 0.665941
O O10 0.465309 0.435039 0.674282
O O11 0.576968 0.189662 0.202535
O O12 0.066262 0.250000 0.412845
O O13 0.634447 0.250000 0.053767
O O14 0.370506 0.250000 0.739312
O O15 0.605199 0.750000 0.728773
O O16 0.000000 0.500000 0.500000
#
# Coordination Sequence:
#
# PCOD9164299 Si02
#       8
#     4   4   4   2   2   4   2   4
#     4  10  23  44  66 100 142 188 241 296 357 425
#     4  12  22  43  73 103 139 190 234 296 367 432
#     4  11  26  43  68 104 141 181 238 300 355 430
#     4  10  22  39  72 105 137 182 239 287 364 439
#     4  12  23  46  68 107 148 174 239 304 354 427
#     4  10  20  40  70 100 142 181 235 300 357 422
#     4  12  21  43  72 106 139 190 230 287 376 424
#     4  11  23  44  71  94 143 192 239 303 357 428
#
# _framework density 20.889052
#
# number of rings (size 3 to 8) (size 9 to 14) (size 15 to 20)
#    0.462    0.615    5.385    1.385    1.077    1.231 
#    2.769    0.000    0.000    0.000    0.000    0.000 
#    0.000    0.000    0.000    0.000    0.000    0.000 
#
# Total GULP energy -144871.863102 kJ/mol
# GULP energy per Si atom -5571.994735 kJ/mol
# Density = 2.084151 g / cm^3
# Si number density = 20.889052 Si / 1000 Ang^3
#
#
#
# Elastic Constant Matrix: (Units=GPa)
#
#
# Indices 1 2 3 4 5 6 
#
# 1 91.1312 23.9165 16.3283 0.0000 7.1301 0.0000
# 2 23.9165 108.6657 55.2790 0.0000 25.9718 0.0000
# 3 16.3283 55.2790 129.8261 0.0000 1.9785 0.0000
# 4 0.0000 0.0000 0.0000 38.3354 0.0000 30.8167
# 5 7.1301 25.9718 1.9785 0.0000 19.8128 0.0000
# 6 0.0000 0.0000 0.0000 30.8167 0.0000 -14.8866
#
#
#
# Elastic Compliance Matrix: (Units=1/GPa)
#
#
# Indices 1 2 3 4 5 6 
#
# 1 0.011708 -0.001809 -0.000675 0.000000 -0.001774 0.000000
# 2 -0.001809 0.019074 -0.007534 0.000000 -0.023600 0.000000
# 3 -0.000675 -0.007534 0.010858 0.000000 0.009035 0.000000
# 4 0.000000 0.000000 0.000000 0.009792 0.000000 0.020269
# 5 -0.001774 -0.023600 0.009035 0.000000 0.081145 0.000000
# 6 0.000000 0.000000 0.000000 0.020269 0.000000 -0.025215
#
#
# Mechanical properties :
#
#
# Convention : Reuss Voigt Hill
#
# Bulk Modulus (GPa) = 46.29163 57.85227 52.07195
# Shear Modulus (GPa) = 37.14730 24.25895 30.70313
#
# Velocity S-wave (km/s) = 4.22158 3.41152 3.83798
# Velocity P-wave (km/s) = 6.78020 6.57823 6.67998
#
# Compressibility (1/GPa) = 0.02160218
#
# Stress axis : x y z
#
# Youngs Moduli (GPa) = 85.41311 52.42721 92.09893
#
# Poissons Ratio (x) = 0.09486 0.06217
# Poissons Ratio (y) = 0.15455 0.69391
# Poissons Ratio (z) = 0.05766 0.39501
#
# Static dielectric constant tensor:
#      x y z
#    x 1.822360 0.000000 -0.050760 
#    y 0.000000 1.819780 0.000000 
#    z -0.050760 0.000000 1.795640 
# 
# From -- ./inp_files/48298.got.cif
#   From: 2010.05.17/outbox.cif.g08.bks.cpg/sg11_25_cif.got.tgz:48298.got - 2010.06.03 12:22:45.
