data_PCOD9164694
_publ_section_title
;
Structure prediction by ZEFSAII (Michael W. Deem and Ramdas Pophale) SiO2 
 PCOD9164694
Probable space group: P 21/M
;
_chemical_formula_sum "Si O2"
_cell_formula_units_Z 32
_cell_length_a 6.723604
_cell_length_b 23.610794
_cell_length_c 10.945904
_cell_angle_alpha 90.000000
_cell_angle_beta 73.844238
_cell_angle_gamma 90.000000
_cell_volume 1669.036005
_symmetry_space_group_name_H-M "P 21/M"
_symmetry_group_IT_number 11
_symmetry_cell_setting 'monoclinic'
loop_
_space_group_symop_operation_xyz
x,y,z
-x,1/2+y,-z
-x,-y,-z
x,1/2-y,z
loop_
_atom_site_type_symbol
_atom_site_label
_atom_site_fract_x
_atom_site_fract_y
_atom_site_fract_z
Si Si1 0.394008 0.185127 0.902275
Si Si2 0.253346 0.414117 0.766926
Si Si3 0.989816 0.810542 0.853203
Si Si4 0.987566 0.561881 0.436700
Si Si5 0.797682 0.891471 0.700434
Si Si6 0.139346 0.550591 0.025566
Si Si7 0.642075 0.480346 0.771485
Si Si8 0.607439 0.353063 0.115758
O O1 0.452156 0.250000 0.861892
O O2 0.371908 0.142951 0.790795
O O3 0.171783 0.186731 0.008040
O O4 0.537458 0.161107 0.988532
O O5 0.183291 0.428933 0.640824
O O6 0.406975 0.464354 0.783244
O O7 0.035994 0.412496 0.876363
O O8 0.949379 0.750000 0.795664
O O9 0.948359 0.864928 0.776054
O O10 0.219830 0.811448 0.864853
O O11 0.922041 0.606030 0.552501
O O12 0.000000 0.500000 0.500000
O O13 0.211292 0.562168 0.332891
O O14 0.589415 0.855534 0.761343
O O15 0.717266 0.955745 0.733389
O O16 0.300281 0.529492 0.098570
O O17 0.271851 0.587184 0.909762
O O18 0.000000 0.500000 0.000000
#
# Coordination Sequence:
#
# PCOD9164694 Si02
#       8
#     4   4   4   4   4   4   4   4
#     4  10  21  37  57  85 117 151 196 240 293 360
#     4  11  21  37  59  85 117 157 192 244 294 352
#     4  10  21  38  58  82 117 155 194 241 295 351
#     4   9  22  41  58  82 115 155 199 235 287 350
#     4  10  22  37  58  85 113 155 197 239 286 348
#     4  11  21  31  53  87 123 149 183 231 296 360
#     4  10  21  36  58  85 120 153 192 238 293 348
#     4  11  20  34  57  86 116 151 187 236 301 347
#
# _framework density 19.172743000000001
#
# number of rings (size 3 to 8) (size 9 to 14) (size 15 to 20)
#    0.000    1.750    2.500    1.875    1.750    6.500 
#    0.000    0.625    0.000    2.250    0.000    0.000 
#    0.000    0.000    0.000    0.000    0.000    0.000 
#
# Total GULP energy -178173.073256 kJ/mol
# GULP energy per Si atom -5567.908539 kJ/mol
# Density = 1.912910 g / cm^3
# Si number density = 19.172743 Si / 1000 Ang^3
#
#
#
# Elastic Constant Matrix: (Units=GPa)
#
#
# Indices 1 2 3 4 5 6 
#
# 1 108.7666 25.1053 33.1115 0.0000 10.2580 0.0000
# 2 25.1053 88.3569 28.9916 0.0000 16.0016 0.0000
# 3 33.1115 28.9916 62.7881 0.0000 8.0434 0.0000
# 4 0.0000 0.0000 0.0000 16.1424 0.0000 6.9028
# 5 10.2580 16.0016 8.0434 0.0000 23.3018 0.0000
# 6 0.0000 0.0000 0.0000 6.9028 0.0000 12.4271
#
#
#
# Elastic Compliance Matrix: (Units=1/GPa)
#
#
# Indices 1 2 3 4 5 6 
#
# 1 0.011228 -0.001070 -0.005114 0.000000 -0.002443 0.000000
# 2 -0.001070 0.014767 -0.005247 0.000000 -0.007858 0.000000
# 3 -0.005114 -0.005247 0.021236 0.000000 -0.001475 0.000000
# 4 0.000000 0.000000 0.000000 0.081247 0.000000 -0.045129
# 5 -0.002443 -0.007858 -0.001475 0.000000 0.049896 0.000000
# 6 0.000000 0.000000 0.000000 -0.045129 0.000000 0.105537
#
#
# Mechanical properties :
#
#
# Convention : Reuss Voigt Hill
#
# Bulk Modulus (GPa) = 41.03877 48.25872 44.64875
# Shear Modulus (GPa) = 15.87829 21.88781 18.88305
#
# Velocity S-wave (km/s) = 2.88092 3.38244 3.14170
# Velocity P-wave (km/s) = 5.70241 6.36236 6.04140
#
# Compressibility (1/GPa) = 0.02436720
#
# Stress axis : x y z
#
# Youngs Moduli (GPa) = 89.06084 67.72027 47.09074
#
# Poissons Ratio (x) = 0.07245 0.24084
# Poissons Ratio (y) = 0.09528 0.24711
# Poissons Ratio (z) = 0.45549 0.35536
#
# Static dielectric constant tensor:
#      x y z
#    x 1.681640 0.000000 -0.013220 
#    y 0.000000 1.744730 0.000000 
#    z -0.013220 0.000000 1.688680 
# 
# From -- ./inp_files/5385.got.cif
#   From: 2010.05.17/outbox.cif.g08.bks.cpg/sg11_3_cif.got.tgz:5385.got - 2010.06.03 12:22:45.
