data_PCOD9164182
_publ_section_title
;
Structure prediction by ZEFSAII (Michael W. Deem and Ramdas Pophale) SiO2 
 PCOD9164182
Probable space group: P 21/M
;
_chemical_formula_sum "Si O2"
_cell_formula_units_Z 32
_cell_length_a 12.537438
_cell_length_b 12.487114
_cell_length_c 12.111351
_cell_angle_alpha 90.000000
_cell_angle_beta 119.708174
_cell_angle_gamma 90.000000
_cell_volume 1646.886621
_symmetry_space_group_name_H-M "P 21/M"
_symmetry_group_IT_number 11
_symmetry_cell_setting 'monoclinic'
loop_
_space_group_symop_operation_xyz
x,y,z
-x,1/2+y,-z
-x,-y,-z
x,1/2-y,z
loop_
_atom_site_type_symbol
_atom_site_label
_atom_site_fract_x
_atom_site_fract_y
_atom_site_fract_z
Si Si1 0.228368 0.870409 0.971079
Si Si2 0.980822 0.513294 0.857610
Si Si3 0.592666 0.874215 0.412274
Si Si4 0.808611 0.520480 0.405291
Si Si5 0.378418 0.872789 0.822082
Si Si6 0.592899 0.522799 0.818360
Si Si7 0.012150 0.621132 0.351209
Si Si8 0.279287 0.372474 0.303413
O O1 0.226127 0.750000 0.014750
O O2 0.291515 0.953813 0.084458
O O3 0.090311 0.907562 0.874930
O O4 0.317620 0.872211 0.911103
O O5 0.993344 0.411663 0.781238
O O6 0.846145 0.561485 0.767882
O O7 0.000000 0.500000 0.000000
O O8 0.555089 0.750000 0.392054
O O9 0.721583 0.891115 0.415456
O O10 0.492756 0.946923 0.300675
O O11 0.627471 0.909842 0.553445
O O12 0.718805 0.435283 0.302461
O O13 0.884267 0.452328 0.535140
O O14 0.892879 0.578662 0.357215
O O15 0.392531 0.750000 0.793599
O O16 0.508171 0.932195 0.873090
O O17 0.647117 0.617148 0.772380
O O18 0.028051 0.750000 0.372170
O O19 0.247543 0.250000 0.312214
#
# Coordination Sequence:
#
# PCOD9164182 Si02
#       8
#     4   4   4   4   4   4   4   4
#     4  11  23  41  63  89 123 164 207 254 316 374
#     4  12  24  45  63  88 127 165 214 266 309 378
#     4  10  21  38  63  92 122 161 204 252 312 370
#     4  10  20  39  64  93 132 158 204 262 314 378
#     4  10  21  38  63  92 122 161 204 252 312 370
#     4  11  22  40  62  88 126 159 210 258 304 369
#     4  11  23  39  63  95 128 168 211 263 322 374
#     4  11  23  41  63  89 123 164 207 254 316 374
#
# _framework density 19.430603999999999
#
# number of rings (size 3 to 8) (size 9 to 14) (size 15 to 20)
#    0.000    1.250    3.750    2.625    0.000    1.000 
#    0.000    0.000    0.000    0.000    0.000    0.000 
#    0.000    0.000    0.000    0.000    0.000    0.000 
#
# Total GULP energy -178493.593541 kJ/mol
# GULP energy per Si atom -5577.924798 kJ/mol
# Density = 1.938638 g / cm^3
# Si number density = 19.430604 Si / 1000 Ang^3
#
#
#
# Elastic Constant Matrix: (Units=GPa)
#
#
# Indices 1 2 3 4 5 6 
#
# 1 77.3023 17.0287 0.8572 0.0000 -2.0249 0.0000
# 2 17.0287 71.7621 19.6423 0.0000 0.4808 0.0000
# 3 0.8572 19.6423 48.4772 0.0000 -10.7219 0.0000
# 4 0.0000 0.0000 0.0000 -239.4320 0.0000 -96.7861
# 5 -2.0249 0.4808 -10.7219 0.0000 27.8646 0.0000
# 6 0.0000 0.0000 0.0000 -96.7861 0.0000 -11.0216
#
#
#
# Elastic Compliance Matrix: (Units=1/GPa)
#
#
# Indices 1 2 3 4 5 6 
#
# 1 0.013785 -0.003732 0.001644 0.000000 0.001699 0.000000
# 2 -0.003732 0.016911 -0.007554 0.000000 -0.003470 0.000000
# 3 0.001644 -0.007554 0.025921 0.000000 0.010224 0.000000
# 4 0.000000 0.000000 0.000000 0.001638 0.000000 -0.014384
# 5 0.001699 -0.003470 0.010224 0.000000 0.040005 0.000000
# 6 0.000000 0.000000 0.000000 -0.014384 0.000000 0.035584
#
#
# Mechanical properties :
#
#
# Convention : Reuss Voigt Hill
#
# Bulk Modulus (GPa) = 26.78551 30.28866 28.53709
# Shear Modulus (GPa) = 30.19821 -33.85026 -1.82602
#
# Velocity S-wave (km/s) = 3.94656 -4.17839 -0.97047
# Velocity P-wave (km/s) = 5.88067 2.76706 3.66917
#
# Compressibility (1/GPa) = 0.03733362
#
# Stress axis : x y z
#
# Youngs Moduli (GPa) = 72.54415 59.13164 38.57863
#
# Poissons Ratio (x) = 0.22071 -0.06344
# Poissons Ratio (y) = 0.27077 0.29141
# Poissons Ratio (z) = -0.11929 0.44666
#
# Static dielectric constant tensor:
#      x y z
#    x 1.670690 0.000000 -0.024630 
#    y 0.000000 1.644940 0.000000 
#    z -0.024630 0.000000 1.690100 
# 
# From -- ./inp_files/35060.got.cif
#   From: 2010.05.17/outbox.cif.g08.bks.cpg/sg11_18_cif.got.tgz:35060.got - 2010.06.03 12:22:45.
