data_PCOD9164115
_publ_section_title
;
Structure prediction by ZEFSAII (Michael W. Deem and Ramdas Pophale) SiO2 
 PCOD9164115
Probable space group: P 21/M
;
_chemical_formula_sum "Si O2"
_cell_formula_units_Z 32
_cell_length_a 29.848278
_cell_length_b 8.719067
_cell_length_c 12.435746
_cell_angle_alpha 90.000000
_cell_angle_beta 148.454101
_cell_angle_gamma 90.000000
_cell_volume 1693.220296
_symmetry_space_group_name_H-M "P 21/M"
_symmetry_group_IT_number 11
_symmetry_cell_setting 'monoclinic'
loop_
_space_group_symop_operation_xyz
x,y,z
-x,1/2+y,-z
-x,-y,-z
x,1/2-y,z
loop_
_atom_site_type_symbol
_atom_site_label
_atom_site_fract_x
_atom_site_fract_y
_atom_site_fract_z
Si Si1 0.689957 0.564332 0.459667
Si Si2 0.168878 0.930961 0.650169
Si Si3 0.002767 0.568400 0.629165
Si Si4 0.168797 0.074942 0.076086
Si Si5 0.746060 0.924302 0.980825
Si Si6 0.430268 0.567495 0.435492
Si Si7 0.319780 0.564656 0.793752
Si Si8 0.518744 0.935403 0.231168
O O1 0.690905 0.750000 0.459352
O O2 0.765022 0.517164 0.697139
O O3 0.706704 0.496551 0.376924
O O4 0.593089 0.518098 0.298297
O O5 0.157165 0.750000 0.609433
O O6 0.247814 0.982709 0.734562
O O7 0.077517 0.013950 0.462116
O O8 0.196908 0.968812 0.828686
O O9 0.999499 0.750000 0.608284
O O10 0.000000 0.500000 0.500000
O O11 0.086356 0.519306 0.868423
O O12 0.142566 0.250000 0.051241
O O13 0.222739 0.083615 0.076997
O O14 0.744942 0.750000 0.021582
O O15 0.655632 0.003299 0.790609
O O16 0.500000 0.500000 0.500000
O O17 0.430834 0.750000 0.440237
O O18 0.446637 0.499413 0.586127
O O19 0.321130 0.750000 0.797671
O O20 0.419390 0.513970 0.014712
O O21 0.518031 0.750000 0.232138
#
# Coordination Sequence:
#
# PCOD9164115 Si02
#       8
#     4   4   4   4   4   4   4   4
#     4  10  21  39  64  89 122 162 202 250 302 360
#     4  11  23  40  61  90 126 163 204 252 306 362
#     4  12  24  39  63  93 123 159 201 251 306 370
#     4  10  21  39  62  91 122 155 196 247 303 358
#     4  11  21  37  61  87 122 159 197 245 304 365
#     4  12  24  36  54  83 121 163 206 251 303 365
#     4  10  23  40  61  88 122 161 204 255 302 355
#     4  10  20  39  61  87 122 160 204 254 304 356
#
# _framework density 18.898899
#
# number of rings (size 3 to 8) (size 9 to 14) (size 15 to 20)
#    0.000    1.250    2.500    4.125    0.000    4.000 
#    0.000    0.625    0.000    0.000    0.000    0.000 
#    0.000    0.000    0.000    0.000    0.000    0.000 
#
# Total GULP energy -178488.101981 kJ/mol
# GULP energy per Si atom -5577.753187 kJ/mol
# Density = 1.885588 g / cm^3
# Si number density = 18.898899 Si / 1000 Ang^3
#
#
#
# Elastic Constant Matrix: (Units=GPa)
#
#
# Indices 1 2 3 4 5 6 
#
# 1 -313.7501 -46.2619 -284.1156 0.0000 77.1241 0.0000
# 2 -46.2619 28.4366 -28.4339 0.0000 26.2310 0.0000
# 3 -284.1156 -28.4339 -159.7479 0.0000 83.7784 0.0000
# 4 0.0000 0.0000 0.0000 17.9429 0.0000 6.2137
# 5 77.1241 26.2310 83.7784 0.0000 21.4699 0.0000
# 6 0.0000 0.0000 0.0000 6.2137 0.0000 -9.9823
#
#
#
# Elastic Compliance Matrix: (Units=1/GPa)
#
#
# Indices 1 2 3 4 5 6 
#
# 1 0.009646 -0.005122 -0.010219 0.000000 0.011486 0.000000
# 2 -0.005122 0.034427 -0.003095 0.000000 -0.011586 0.000000
# 3 -0.010219 -0.003095 0.011063 0.000000 -0.002677 0.000000
# 4 0.000000 0.000000 0.000000 0.045849 0.000000 0.028540
# 5 0.011486 -0.011586 -0.002677 0.000000 0.029917 0.000000
# 6 0.000000 0.000000 0.000000 0.028540 0.000000 -0.082412
#
#
# Mechanical properties :
#
#
# Convention : Reuss Voigt Hill
#
# Bulk Modulus (GPa) = 54.75536 -129.18712 -37.21588
# Shear Modulus (GPa) = 54.67572 0.13609 27.40591
#
# Velocity S-wave (km/s) = 5.38456 0.26864 3.81219
# Velocity P-wave (km/s) = 8.22761 8.27098 0.59813
#
# Compressibility (1/GPa) = 0.01826305
#
# Stress axis : x y z
#
# Youngs Moduli (GPa) = 103.67436 29.04715 90.39460
#
# Poissons Ratio (x) = 0.14878 0.92378
# Poissons Ratio (y) = 0.53101 0.27974
# Poissons Ratio (z) = 1.05949 0.08989
#
# Static dielectric constant tensor:
#      x y z
#    x 1.658810 0.000000 0.034990 
#    y 0.000000 1.660640 0.000000 
#    z 0.034990 0.000000 1.643970 
# 
# From -- ./inp_files/38211.got.cif
#   From: 2010.05.17/outbox.cif.g08.bks.cpg/sg11_20_cif.got.tgz:38211.got - 2010.06.03 12:22:45.
