data_PCOD9164682
_publ_section_title
;
Structure prediction by ZEFSAII (Michael W. Deem and Ramdas Pophale) SiO2 
 PCOD9164682
Probable space group: P 21/M
;
_chemical_formula_sum "Si O2"
_cell_formula_units_Z 30
_cell_length_a 11.654600
_cell_length_b 9.727157
_cell_length_c 14.900252
_cell_angle_alpha 90.000000
_cell_angle_beta 70.271001
_cell_angle_gamma 90.000000
_cell_volume 1590.028406
_symmetry_space_group_name_H-M "P 21/M"
_symmetry_group_IT_number 11
_symmetry_cell_setting 'monoclinic'
loop_
_space_group_symop_operation_xyz
x,y,z
-x,1/2+y,-z
-x,-y,-z
x,1/2-y,z
loop_
_atom_site_type_symbol
_atom_site_label
_atom_site_fract_x
_atom_site_fract_y
_atom_site_fract_z
Si Si1 0.326193 0.024273 0.558425
Si Si2 0.321238 0.091714 0.084289
Si Si3 0.053528 0.088046 0.566823
Si Si4 0.875559 0.094280 0.782847
Si Si5 0.521630 0.250000 0.470798
Si Si6 0.590798 0.091121 0.098389
Si Si7 0.949346 0.906370 0.091446
Si Si8 0.675917 0.910598 0.229342
O O1 0.188262 0.040980 0.560904
O O2 0.416300 0.129513 0.485043
O O3 0.332448 0.066935 0.662277
O O4 0.376765 0.871311 0.537515
O O5 0.288852 0.250000 0.072283
O O6 0.454911 0.091382 0.093759
O O7 0.227811 0.018721 0.175898
O O8 0.329436 0.999084 0.992266
O O9 0.059412 0.250000 0.542716
O O10 0.960918 0.073418 0.674745
O O11 0.000000 0.000000 0.500000
O O12 0.823284 0.250000 0.792954
O O13 0.961965 0.086485 0.846892
O O14 0.632333 0.250000 0.093502
O O15 0.594588 0.014384 0.192700
O O16 0.946577 0.750000 0.059148
O O17 0.813813 0.939866 0.161032
O O18 0.000000 0.000000 0.000000
O O19 0.647217 0.750000 0.217925
#
# Coordination Sequence:
#
# PCOD9164682 Si02
#       8
#     4   4   4   4   2   4   4   4
#     4  11  22  47  67  98 130 166 215 273 337 399
#     4  10  21  40  59  85 124 164 210 257 308 369
#     4  11  24  45  68  93 131 175 219 275 333 396
#     4  10  21  40  62  86 120 166 206 250 311 375
#     4  10  24  42  74  96 124 168 208 268 334 394
#     4  10  22  38  59  87 124 166 207 258 310 369
#     4  10  21  36  57  88 122 160 199 245 302 364
#     4  11  21  38  63  89 124 163 203 252 317 380
#
# _framework density 18.867585999999999
#
# number of rings (size 3 to 8) (size 9 to 14) (size 15 to 20)
#    0.000    1.600    2.667    1.600    1.867    5.333 
#    4.800    0.000    0.000    0.000    0.000    0.000 
#    0.000    0.000    0.000    0.000    0.000    0.000 
#
# Total GULP energy -167041.614398 kJ/mol
# GULP energy per Si atom -5568.053813 kJ/mol
# Density = 1.882464 g / cm^3
# Si number density = 18.867586 Si / 1000 Ang^3
#
#
#
# Elastic Constant Matrix: (Units=GPa)
#
#
# Indices 1 2 3 4 5 6 
#
# 1 61.9329 56.2869 30.0121 0.0000 -2.4852 0.0000
# 2 56.2869 156.6160 40.5025 0.0000 -5.2557 0.0000
# 3 30.0121 40.5025 48.1039 0.0000 9.7761 0.0000
# 4 0.0000 0.0000 0.0000 26.3198 0.0000 -9.7304
# 5 -2.4852 -5.2557 9.7761 0.0000 27.0129 0.0000
# 6 0.0000 0.0000 0.0000 -9.7304 0.0000 28.1244
#
#
#
# Elastic Compliance Matrix: (Units=1/GPa)
#
#
# Indices 1 2 3 4 5 6 
#
# 1 0.029223 -0.006692 -0.013902 0.000000 0.006418 0.000000
# 2 -0.006692 0.010210 -0.005073 0.000000 0.003207 0.000000
# 3 -0.013902 -0.005073 0.036908 0.000000 -0.015623 0.000000
# 4 0.000000 0.000000 0.000000 0.043567 0.000000 0.015073
# 5 0.006418 0.003207 -0.015623 0.000000 0.043888 0.000000
# 6 0.000000 0.000000 0.000000 0.015073 0.000000 0.040771
#
#
# Mechanical properties :
#
#
# Convention : Reuss Voigt Hill
#
# Bulk Modulus (GPa) = 39.98878 57.80621 48.89750
# Shear Modulus (GPa) = 18.92257 25.61483 22.26870
#
# Velocity S-wave (km/s) = 3.17032 3.68857 3.43922
# Velocity P-wave (km/s) = 5.88572 6.98893 6.46091
#
# Compressibility (1/GPa) = 0.02500702
#
# Stress axis : x y z
#
# Youngs Moduli (GPa) = 34.22013 97.94729 27.09438
#
# Poissons Ratio (x) = 0.65545 0.37666
# Poissons Ratio (y) = 0.22900 0.13745
# Poissons Ratio (z) = 0.47572 0.49687
#
# Static dielectric constant tensor:
#      x y z
#    x 1.718030 0.000000 -0.130590 
#    y 0.000000 1.645170 0.000000 
#    z -0.130590 0.000000 1.900610 
# 
# From -- ./inp_files/49270.got.cif
#   From: 2010.05.17/outbox.cif.g08.bks.cpg/sg11_25_cif.got.tgz:49270.got - 2010.06.03 12:22:45.
