data_PCOD9164235
_publ_section_title
;
Structure prediction by ZEFSAII (Michael W. Deem and Ramdas Pophale) SiO2 
 PCOD9164235
Probable space group: P 21/M
;
_chemical_formula_sum "Si O2"
_cell_formula_units_Z 28
_cell_length_a 18.287840
_cell_length_b 15.162137
_cell_length_c 5.853173
_cell_angle_alpha 90.000000
_cell_angle_beta 131.190038
_cell_angle_gamma 90.000000
_cell_volume 1221.343079
_symmetry_space_group_name_H-M "P 21/M"
_symmetry_group_IT_number 11
_symmetry_cell_setting 'monoclinic'
loop_
_space_group_symop_operation_xyz
x,y,z
-x,1/2+y,-z
-x,-y,-z
x,1/2-y,z
loop_
_atom_site_type_symbol
_atom_site_label
_atom_site_fract_x
_atom_site_fract_y
_atom_site_fract_z
Si Si1 0.753148 0.436551 0.935933
Si Si2 0.142452 0.750000 0.329478
Si Si3 0.594522 0.516196 0.923875
Si Si4 0.675642 0.655157 0.430945
Si Si5 0.140455 0.443000 0.164416
Si Si6 0.749454 0.250000 0.945520
Si Si7 0.494574 0.351987 0.588680
Si Si8 0.066488 0.573580 0.370611
O O1 0.698380 0.343781 0.808167
O O2 0.855820 0.415622 0.269442
O O3 0.686563 0.499674 0.948039
O O4 0.786383 0.481768 0.774295
O O5 0.213004 0.750000 0.706912
O O6 0.082712 0.659441 0.243112
O O7 0.183429 0.750000 0.152558
O O8 0.553462 0.417541 0.881186
O O9 0.515719 0.582487 0.648729
O O10 0.634498 0.571868 0.213327
O O11 0.654305 0.750000 0.272941
O O12 0.790927 0.641339 0.683815
O O13 0.615362 0.655617 0.540612
O O14 0.095854 0.482895 0.303493
O O15 0.047515 0.429937 0.809721
O O16 0.527513 0.250000 0.636059
#
# Coordination Sequence:
#
# PCOD9164235 Si02
#       8
#     4   2   4   4   4   2   4   4
#     4  11  21  39  61  91 126 169 215 270 331 393
#     4  10  20  40  58  90 129 175 220 278 330 388
#     4  11  22  40  66  91 127 164 208 267 339 396
#     4  11  23  41  64  91 126 166 215 270 327 400
#     4  11  21  38  62  88 122 171 214 262 327 386
#     4  10  22  36  64  90 129 175 218 278 332 394
#     4  10  23  42  65  91 123 162 211 270 326 407
#     4  10  22  37  60  87 128 168 217 266 318 393
#
# _framework density 22.925583
#
# number of rings (size 3 to 8) (size 9 to 14) (size 15 to 20)
#    0.000    1.429    4.286    1.286    2.000    0.000 
#    0.000    0.000    1.571    0.000    0.000    0.000 
#    0.000    0.000    0.000    0.000    0.000    0.000 
#
# Total GULP energy -155980.187562 kJ/mol
# GULP energy per Si atom -5570.720984 kJ/mol
# Density = 2.287340 g / cm^3
# Si number density = 22.925583 Si / 1000 Ang^3
#
#
#
# Elastic Constant Matrix: (Units=GPa)
#
#
# Indices 1 2 3 4 5 6 
#
# 1 71.9228 23.2756 14.8899 0.0000 6.2915 0.0000
# 2 23.2756 168.7256 34.8237 0.0000 6.4957 0.0000
# 3 14.8899 34.8237 61.8057 0.0000 14.3911 0.0000
# 4 0.0000 0.0000 0.0000 24.9260 0.0000 3.9917
# 5 6.2915 6.4957 14.3911 0.0000 25.7870 0.0000
# 6 0.0000 0.0000 0.0000 3.9917 0.0000 43.8355
#
#
#
# Elastic Compliance Matrix: (Units=1/GPa)
#
#
# Indices 1 2 3 4 5 6 
#
# 1 0.015048 -0.001524 -0.002300 0.000000 -0.002004 0.000000
# 2 -0.001524 0.006866 -0.003661 0.000000 0.000685 0.000000
# 3 -0.002300 -0.003661 0.021207 0.000000 -0.010352 0.000000
# 4 0.000000 0.000000 0.000000 0.040712 0.000000 -0.003707
# 5 -0.002004 0.000685 -0.010352 0.000000 0.044872 0.000000
# 6 0.000000 0.000000 0.000000 -0.003707 0.000000 0.023150
#
#
# Mechanical properties :
#
#
# Convention : Reuss Voigt Hill
#
# Bulk Modulus (GPa) = 35.52242 49.82584 42.67413
# Shear Modulus (GPa) = 28.37504 34.20737 31.29120
#
# Velocity S-wave (km/s) = 3.52192 3.86697 3.69847
# Velocity P-wave (km/s) = 5.66276 6.45901 6.07395
#
# Compressibility (1/GPa) = 0.02815124
#
# Stress axis : x y z
#
# Youngs Moduli (GPa) = 66.45187 145.63935 47.15414
#
# Poissons Ratio (x) = 0.22196 0.10846
# Poissons Ratio (y) = 0.10128 0.17264
# Poissons Ratio (z) = 0.15284 0.53321
#
# Static dielectric constant tensor:
#      x y z
#    x 1.909150 0.000000 0.008280 
#    y 0.000000 1.900940 0.000000 
#    z 0.008280 0.000000 1.921940 
# 
# From -- ./inp_files/8161.got.cif
#   From: 2010.05.17/outbox.cif.g08.bks.cpg/sg11_5_cif.got.tgz:8161.got - 2010.06.03 12:22:45.
