data_PCOD9164294
_publ_section_title
;
Structure prediction by ZEFSAII (Michael W. Deem and Ramdas Pophale) SiO2 
 PCOD9164294
Probable space group: P 21/M
;
_chemical_formula_sum "Si O2"
_cell_formula_units_Z 16
_cell_length_a 5.352008
_cell_length_b 14.541753
_cell_length_c 8.784999
_cell_angle_alpha 90.000000
_cell_angle_beta 122.320546
_cell_angle_gamma 90.000000
_cell_volume 577.787314
_symmetry_space_group_name_H-M "P 21/M"
_symmetry_group_IT_number 11
_symmetry_cell_setting 'monoclinic'
loop_
_space_group_symop_operation_xyz
x,y,z
-x,1/2+y,-z
-x,-y,-z
x,1/2-y,z
loop_
_atom_site_type_symbol
_atom_site_label
_atom_site_fract_x
_atom_site_fract_y
_atom_site_fract_z
Si Si1 0.320817 0.153275 0.159670
Si Si2 0.897484 0.987241 0.708392
Si Si3 0.341953 0.608760 0.031508
Si Si4 0.097522 0.140974 0.584107
O O1 0.390017 0.250000 0.265139
O O2 0.352909 0.060399 0.269810
O O3 0.507988 0.152614 0.067997
O O4 0.967507 0.153851 0.017386
O O5 0.938063 0.913036 0.586250
O O6 0.882570 0.087392 0.632184
O O7 0.191381 0.983954 0.910891
O O8 0.578929 0.619095 0.241124
O O9 0.058165 0.250000 0.559899
#
# Coordination Sequence:
#
# PCOD9164294 Si02
#       4
#     4   4   4   4
#     4  10  20  40  68  95 134 175 213 267 326 385
#     4   9  24  42  64  99 133 172 220 272 328 387
#     4  10  23  43  66  97 134 172 218 270 324 386
#     4  11  21  42  68  97 132 175 222 271 328 392
#
# _framework density 27.691852000000001
#
# number of rings (size 3 to 8) (size 9 to 14) (size 15 to 20)
#    1.500    0.500    0.000    3.750    0.000    1.000 
#    4.500    2.500    0.000    0.000    0.000    0.000 
#    0.000    0.000    0.000    0.000    0.000    0.000 
#
# Total GULP energy -89442.656713 kJ/mol
# GULP energy per Si atom -5590.166045 kJ/mol
# Density = 2.762882 g / cm^3
# Si number density = 27.691852 Si / 1000 Ang^3
#
#
#
# Elastic Constant Matrix: (Units=GPa)
#
#
# Indices 1 2 3 4 5 6 
#
# 1 172.4764 31.7825 64.8411 0.0000 -2.9749 0.0000
# 2 31.7825 235.8414 44.6416 0.0000 -31.2846 0.0000
# 3 64.8411 44.6416 132.4385 0.0000 7.7268 0.0000
# 4 0.0000 0.0000 0.0000 29.8023 0.0000 -6.2194
# 5 -2.9749 -31.2846 7.7268 0.0000 82.1171 0.0000
# 6 0.0000 0.0000 0.0000 -6.2194 0.0000 -13.9248
#
#
#
# Elastic Compliance Matrix: (Units=1/GPa)
#
#
# Indices 1 2 3 4 5 6 
#
# 1 0.007147 -0.000246 -0.003445 0.000000 0.000489 0.000000
# 2 -0.000246 0.004846 -0.001629 0.000000 0.001990 0.000000
# 3 -0.003445 -0.001629 0.009884 0.000000 -0.001675 0.000000
# 4 0.000000 0.000000 0.000000 0.030694 0.000000 -0.013709
# 5 0.000489 0.001990 -0.001675 0.000000 0.013111 0.000000
# 6 0.000000 0.000000 0.000000 -0.013709 0.000000 -0.065691
#
#
# Mechanical properties :
#
#
# Convention : Reuss Voigt Hill
#
# Bulk Modulus (GPa) = 88.99231 91.47631 90.23431
# Shear Modulus (GPa) = 347.82921 46.23164 197.03042
#
# Velocity S-wave (km/s) = 11.21961 4.09039 8.44426
# Velocity P-wave (km/s) = 14.14376 7.44404 11.30177
#
# Compressibility (1/GPa) = 0.01123693
#
# Stress axis : x y z
#
# Youngs Moduli (GPa) = 139.92602 206.36896 101.17453
#
# Poissons Ratio (x) = 0.05081 0.34850
# Poissons Ratio (y) = 0.03445 0.16481
# Poissons Ratio (z) = 0.48198 0.33616
#
# Static dielectric constant tensor:
#      x y z
#    x 2.141680 0.000000 0.002830 
#    y 0.000000 2.192410 0.000000 
#    z 0.002830 0.000000 2.133090 
# 
# From -- ./inp_files/9957.got.cif
#   From: 2010.05.17/outbox.cif.g08.bks.cpg/sg11_5_cif.got.tgz:9957.got - 2010.06.03 12:22:45.
