data_PCOD9164038
_publ_section_title
;
Structure prediction by ZEFSAII (Michael W. Deem and Ramdas Pophale) SiO2 
 PCOD9164038
Probable space group: P 21/M
;
_chemical_formula_sum "Si O2"
_cell_formula_units_Z 32
_cell_length_a 12.380025
_cell_length_b 8.535287
_cell_length_c 15.915818
_cell_angle_alpha 90.000000
_cell_angle_beta 90.124362
_cell_angle_gamma 90.000000
_cell_volume 1681.773837
_symmetry_space_group_name_H-M "P 21/M"
_symmetry_group_IT_number 11
_symmetry_cell_setting 'monoclinic'
loop_
_space_group_symop_operation_xyz
x,y,z
-x,1/2+y,-z
-x,-y,-z
x,1/2-y,z
loop_
_atom_site_type_symbol
_atom_site_label
_atom_site_fract_x
_atom_site_fract_y
_atom_site_fract_z
Si Si1 0.734460 0.061924 0.655331
Si Si2 0.623207 0.437006 0.996837
Si Si3 0.877481 0.938432 0.500787
Si Si4 0.232123 0.062176 0.848564
Si Si5 0.766668 0.935176 0.842049
Si Si6 0.269735 0.058792 0.658173
Si Si7 0.501086 0.438713 0.593633
Si Si8 0.010359 0.936386 0.093209
O O1 0.741246 0.250000 0.650505
O O2 0.612588 0.009317 0.634669
O O3 0.814424 0.994647 0.584252
O O4 0.754019 0.008792 0.750154
O O5 0.619852 0.250000 0.993748
O O6 0.691614 0.488940 0.079494
O O7 0.500000 0.500000 0.000000
O O8 0.687007 0.497220 0.913963
O O9 0.878893 0.750000 0.500714
O O10 0.811948 0.990881 0.416476
O O11 0.000000 0.000000 0.500000
O O12 0.251305 0.250000 0.852040
O O13 0.249131 0.006563 0.753224
O O14 0.106077 0.035280 0.866502
O O15 0.749420 0.750000 0.838425
O O16 0.889302 0.974542 0.867046
O O17 0.265281 0.250000 0.658506
O O18 0.390845 0.008313 0.636207
O O19 0.500000 0.500000 0.500000
O O20 0.500278 0.250000 0.594082
O O21 0.031989 0.750000 0.094921
O O22 0.000000 0.000000 0.000000
#
# Coordination Sequence:
#
# PCOD9164038 Si02
#       8
#     4   4   4   4   4   4   4   4
#     4  11  24  41  64  95 128 168 214 264 321 385
#     4  12  26  45  67  94 130 170 213 265 322 386
#     4  11  23  41  64  91 128 171 213 264 318 380
#     4  10  22  41  66  94 126 168 214 262 317 378
#     4  12  26  44  66  95 129 169 217 268 322 384
#     4   9  20  39  63  91 123 164 208 256 314 371
#     4  10  20  38  64  91 122 161 207 261 315 373
#     4  11  22  39  66  95 128 166 211 266 322 379
#
# _framework density 19.027529999999999
#
# number of rings (size 3 to 8) (size 9 to 14) (size 15 to 20)
#    0.000    1.250    2.500    3.375    3.500    1.000 
#    0.000    1.875    0.000    0.000    0.000    0.000 
#    0.000    0.000    0.000    0.000    0.000    0.000 
#
# Total GULP energy -178752.554119 kJ/mol
# GULP energy per Si atom -5586.017316 kJ/mol
# Density = 1.898422 g / cm^3
# Si number density = 19.027530 Si / 1000 Ang^3
#
#
#
# Elastic Constant Matrix: (Units=GPa)
#
#
# Indices 1 2 3 4 5 6 
#
# 1 141.7839 49.0473 86.6902 0.0000 2.1260 0.0000
# 2 49.0473 60.4409 38.0426 0.0000 -8.4629 0.0000
# 3 86.6902 38.0426 185.5460 0.0000 -3.2989 0.0000
# 4 0.0000 0.0000 0.0000 26.2677 0.0000 1.9687
# 5 2.1260 -8.4629 -3.2989 0.0000 40.4781 0.0000
# 6 0.0000 0.0000 0.0000 1.9687 0.0000 31.6597
#
#
#
# Elastic Compliance Matrix: (Units=1/GPa)
#
#
# Indices 1 2 3 4 5 6 
#
# 1 0.012353 -0.007725 -0.004234 0.000000 -0.002609 0.000000
# 2 -0.007725 0.024384 -0.001294 0.000000 0.005398 0.000000
# 3 -0.004234 -0.001294 0.007643 0.000000 0.000575 0.000000
# 4 0.000000 0.000000 0.000000 0.038248 0.000000 -0.002378
# 5 -0.002609 0.005398 0.000575 0.000000 0.026017 0.000000
# 6 0.000000 0.000000 0.000000 -0.002378 0.000000 0.031734
#
#
# Mechanical properties :
#
#
# Convention : Reuss Voigt Hill
#
# Bulk Modulus (GPa) = 55.94670 81.70346 68.82508
# Shear Modulus (GPa) = 28.92771 33.94713 31.43742
#
# Velocity S-wave (km/s) = 3.90334 4.22845 4.06914
# Velocity P-wave (km/s) = 7.05561 8.17756 7.63722
#
# Compressibility (1/GPa) = 0.01787415
#
# Stress axis : x y z
#
# Youngs Moduli (GPa) = 80.95048 41.01004 130.83170
#
# Poissons Ratio (x) = 0.31679 0.55397
# Poissons Ratio (y) = 0.62532 0.16935
# Poissons Ratio (z) = 0.34276 0.05308
#
# Static dielectric constant tensor:
#      x y z
#    x 1.627510 0.000000 -0.008570 
#    y 0.000000 1.653430 0.000000 
#    z -0.008570 0.000000 1.679050 
# 
# From -- ./inp_files/49370.got.cif
#   From: 2010.05.17/outbox.cif.g08.bks.cpg/sg11_25_cif.got.tgz:49370.got - 2010.06.03 12:22:45.
