data_PCOD9164118
_publ_section_title
;
Structure prediction by ZEFSAII (Michael W. Deem and Ramdas Pophale) SiO2 
 PCOD9164118
Probable space group: P 21/M
;
_chemical_formula_sum "Si O2"
_cell_formula_units_Z 20
_cell_length_a 13.923813
_cell_length_b 15.338847
_cell_length_c 7.960700
_cell_angle_alpha 90.000000
_cell_angle_beta 35.351788
_cell_angle_gamma 90.000000
_cell_volume 983.732196
_symmetry_space_group_name_H-M "P 21/M"
_symmetry_group_IT_number 11
_symmetry_cell_setting 'monoclinic'
loop_
_space_group_symop_operation_xyz
x,y,z
-x,1/2+y,-z
-x,-y,-z
x,1/2-y,z
loop_
_atom_site_type_symbol
_atom_site_label
_atom_site_fract_x
_atom_site_fract_y
_atom_site_fract_z
Si Si1 0.577247 0.998888 0.573815
Si Si2 0.828621 0.156448 0.275005
Si Si3 0.884508 0.929498 0.263266
Si Si4 0.776244 0.988257 0.787905
Si Si5 0.016572 0.851881 0.571249
O O1 0.691825 0.083221 0.439982
O O2 0.500000 0.000000 0.500000
O O3 0.709410 0.921521 0.417532
O O4 0.419518 0.001042 0.920094
O O5 0.747075 0.250000 0.373548
O O6 0.908268 0.150390 0.347936
O O7 0.986616 0.148993 0.925496
O O8 0.835416 0.960670 0.517914
O O9 0.000000 0.000000 0.000000
O O10 0.848504 0.910351 0.801633
O O11 0.859077 0.082708 0.707321
O O12 0.999818 0.750000 0.542202
#
# Coordination Sequence:
#
# PCOD9164118 Si02
#       5
#     4   4   4   4   4
#     4  11  23  38  62  92 122 162 208 254 311 371
#     4  10  22  42  63  87 124 164 208 261 312 372
#     4  10  20  39  61  89 119 161 206 244 312 370
#     4  11  22  39  66  91 125 166 207 261 312 368
#     4  10  22  39  63  91 123 163 209 256 312 374
#
# _framework density 20.330736000000002
#
# number of rings (size 3 to 8) (size 9 to 14) (size 15 to 20)
#    0.000    1.600    4.000    1.800    8.400    1.600 
#    0.000    2.000    0.000    0.000    0.000    0.000 
#    0.000    0.000    0.000    0.000    0.000    0.000 
#
# Total GULP energy -111423.790879 kJ/mol
# GULP energy per Si atom -5571.189544 kJ/mol
# Density = 2.028446 g / cm^3
# Si number density = 20.330736 Si / 1000 Ang^3
#
#
#
# Elastic Constant Matrix: (Units=GPa)
#
#
# Indices 1 2 3 4 5 6 
#
# 1 92.4540 10.3196 31.2166 0.0000 -7.6147 0.0000
# 2 10.3196 113.3673 23.3180 0.0000 -8.0277 0.0000
# 3 31.2166 23.3180 137.5755 0.0000 -20.6672 0.0000
# 4 0.0000 0.0000 0.0000 13.7216 0.0000 -4.1801
# 5 -7.6147 -8.0277 -20.6672 0.0000 38.4233 0.0000
# 6 0.0000 0.0000 0.0000 -4.1801 0.0000 26.9065
#
#
#
# Elastic Compliance Matrix: (Units=1/GPa)
#
#
# Indices 1 2 3 4 5 6 
#
# 1 0.011774 -0.000503 -0.002450 0.000000 0.000911 0.000000
# 2 -0.000503 0.009210 -0.001276 0.000000 0.001138 0.000000
# 3 -0.002450 -0.001276 0.008625 0.000000 0.003887 0.000000
# 4 0.000000 0.000000 0.000000 0.076498 0.000000 0.011884
# 5 0.000911 0.001138 0.003887 0.000000 0.028535 0.000000
# 6 0.000000 0.000000 0.000000 0.011884 0.000000 0.039012
#
#
# Mechanical properties :
#
#
# Convention : Reuss Voigt Hill
#
# Bulk Modulus (GPa) = 47.27832 52.56726 49.92279
# Shear Modulus (GPa) = 26.43240 34.37980 30.40610
#
# Velocity S-wave (km/s) = 3.60963 4.11667 3.87146
# Velocity P-wave (km/s) = 6.37790 6.96478 6.67779
#
# Compressibility (1/GPa) = 0.02115134
#
# Stress axis : x y z
#
# Youngs Moduli (GPa) = 84.92953 108.58096 115.94589
#
# Poissons Ratio (x) = 0.05467 0.28401
# Poissons Ratio (y) = 0.04276 0.14792
# Poissons Ratio (z) = 0.20804 0.13852
#
# Static dielectric constant tensor:
#      x y z
#    x 1.791220 0.000000 0.030770 
#    y 0.000000 1.864100 0.000000 
#    z 0.030770 0.000000 1.748030 
# 
# From -- ./inp_files/13408.got.cif
#   From: 2010.05.17/outbox.cif.g08.bks.cpg/sg11_7_cif.got.tgz:13408.got - 2010.06.03 12:22:45.
