data_PCOD9164054
_publ_section_title
;
Structure prediction by ZEFSAII (Michael W. Deem and Ramdas Pophale) SiO2 
 PCOD9164054
Probable space group: P 21/M
;
_chemical_formula_sum "Si O2"
_cell_formula_units_Z 26
_cell_length_a 13.734220
_cell_length_b 10.888873
_cell_length_c 8.462594
_cell_angle_alpha 90.000000
_cell_angle_beta 62.594812
_cell_angle_gamma 90.000000
_cell_volume 1123.550814
_symmetry_space_group_name_H-M "P 21/M"
_symmetry_group_IT_number 11
_symmetry_cell_setting 'monoclinic'
loop_
_space_group_symop_operation_xyz
x,y,z
-x,1/2+y,-z
-x,-y,-z
x,1/2-y,z
loop_
_atom_site_type_symbol
_atom_site_label
_atom_site_fract_x
_atom_site_fract_y
_atom_site_fract_z
Si Si1 0.442744 0.892018 0.732391
Si Si2 0.079346 0.975922 0.132764
Si Si3 0.667935 0.988675 0.616146
Si Si4 0.787756 0.391893 0.272566
Si Si5 0.894828 0.750000 0.915995
Si Si6 0.244609 0.250000 0.300041
Si Si7 0.913411 0.750000 0.273348
Si Si8 0.705964 0.110041 0.880402
O O1 0.476165 0.750000 0.724345
O O2 0.553395 0.964601 0.615671
O O3 0.337528 0.890962 0.698122
O O4 0.388635 0.940182 0.935284
O O5 0.178074 0.957301 0.183993
O O6 0.990060 0.871109 0.224016
O O7 0.045143 0.118924 0.156993
O O8 0.137518 0.945035 0.922130
O O9 0.686679 0.872688 0.716745
O O10 0.772557 0.014892 0.428068
O O11 0.664342 0.104137 0.734371
O O12 0.816326 0.250000 0.287167
O O13 0.804488 0.750000 0.841221
O O14 0.862672 0.750000 0.129350
O O15 0.159848 0.250000 0.513269
O O16 0.726430 0.250000 0.918282
#
# Coordination Sequence:
#
# PCOD9164054 Si02
#       8
#     4   4   4   4   2   2   2   4
#     4   9  19  36  61  90 132 179 221 268 342 404
#     4  11  22  47  70  94 133 174 222 281 350 407
#     4  12  21  39  61  94 140 170 219 291 334 398
#     4  10  21  39  67  97 127 177 234 274 337 412
#     4  12  26  46  70 106 134 172 230 288 342 424
#     4  12  28  44  67 103 137 180 227 278 355 410
#     4  12  26  50  73  93 137 186 225 286 359 410
#     4  10  20  38  65  92 127 176 223 271 333 410
#
# _framework density 23.140920999999999
#
# number of rings (size 3 to 8) (size 9 to 14) (size 15 to 20)
#    0.000    1.231    3.846    3.692    0.000    0.615 
#    2.769    0.000    6.769    0.000    0.000    0.000 
#    0.000    0.000    0.000    0.000    0.000    0.000 
#
# Total GULP energy -145130.422330 kJ/mol
# GULP energy per Si atom -5581.939320 kJ/mol
# Density = 2.308825 g / cm^3
# Si number density = 23.140921 Si / 1000 Ang^3
#
#
#
# Elastic Constant Matrix: (Units=GPa)
#
#
# Indices 1 2 3 4 5 6 
#
# 1 73.8530 54.6173 7.8427 0.0000 1.9236 0.0000
# 2 54.6173 126.0981 13.6778 0.0000 -11.6384 0.0000
# 3 7.8427 13.6778 47.2457 0.0000 -13.0679 0.0000
# 4 0.0000 0.0000 0.0000 26.6688 0.0000 -3.0921
# 5 1.9236 -11.6384 -13.0679 0.0000 31.2535 0.0000
# 6 0.0000 0.0000 0.0000 -3.0921 0.0000 38.8449
#
#
#
# Elastic Compliance Matrix: (Units=1/GPa)
#
#
# Indices 1 2 3 4 5 6 
#
# 1 0.020805 -0.009285 -0.002348 0.000000 -0.005720 0.000000
# 2 -0.009285 0.012483 -0.000711 0.000000 0.004923 0.000000
# 3 -0.002348 -0.000711 0.024570 0.000000 0.010153 0.000000
# 4 0.000000 0.000000 0.000000 0.037846 0.000000 0.003013
# 5 -0.005720 0.004923 0.010153 0.000000 0.038427 0.000000
# 6 0.000000 0.000000 0.000000 0.003013 0.000000 0.025983
#
#
# Mechanical properties :
#
#
# Convention : Reuss Voigt Hill
#
# Bulk Modulus (GPa) = 30.14656 44.38580 37.26618
# Shear Modulus (GPa) = 25.52866 30.75738 28.14302
#
# Velocity S-wave (km/s) = 3.32502 3.64968 3.49113
# Velocity P-wave (km/s) = 5.27226 6.08133 5.69119
#
# Compressibility (1/GPa) = 0.03317128
#
# Stress axis : x y z
#
# Youngs Moduli (GPa) = 48.06531 80.10718 40.70040
#
# Poissons Ratio (x) = 0.74376 0.09555
# Poissons Ratio (y) = 0.44627 0.02894
# Poissons Ratio (z) = 0.11284 0.05697
#
# Static dielectric constant tensor:
#      x y z
#    x 1.907790 0.000000 0.029350 
#    y 0.000000 1.861040 0.000000 
#    z 0.029350 0.000000 1.892870 
# 
# From -- ./inp_files/21134.got.cif
#   From: 2010.05.17/outbox.cif.g08.bks.cpg/sg11_11_cif.got.tgz:21134.got - 2010.06.03 12:22:45.
