data_PCOD9164625
_publ_section_title
;
Structure prediction by ZEFSAII (Michael W. Deem and Ramdas Pophale) SiO2 
 PCOD9164625
Probable space group: P 21/M
;
_chemical_formula_sum "Si O2"
_cell_formula_units_Z 32
_cell_length_a 25.333922
_cell_length_b 8.852285
_cell_length_c 15.721606
_cell_angle_alpha 90.000000
_cell_angle_beta 148.988039
_cell_angle_gamma 90.000000
_cell_volume 1816.539783
_symmetry_space_group_name_H-M "P 21/M"
_symmetry_group_IT_number 11
_symmetry_cell_setting 'monoclinic'
loop_
_space_group_symop_operation_xyz
x,y,z
-x,1/2+y,-z
-x,-y,-z
x,1/2-y,z
loop_
_atom_site_type_symbol
_atom_site_label
_atom_site_fract_x
_atom_site_fract_y
_atom_site_fract_z
Si Si1 0.321421 0.570653 0.474966
Si Si2 0.182632 0.430567 0.037204
Si Si3 0.438589 0.070473 0.793485
Si Si4 0.353641 0.430199 0.862566
Si Si5 0.898748 0.068581 0.901192
Si Si6 0.068211 0.570258 0.719120
Si Si7 0.859387 0.429798 0.372469
Si Si8 0.606238 0.069308 0.616038
O O1 0.329932 0.750000 0.503390
O O2 0.373421 0.481455 0.622894
O O3 0.201721 0.534654 0.294685
O O4 0.375552 0.539581 0.459162
O O5 0.184155 0.250000 0.043458
O O6 0.123451 0.497695 0.037255
O O7 0.297733 0.495429 0.202898
O O8 0.127714 0.487206 0.876323
O O9 0.455215 0.250000 0.815009
O O10 0.379323 0.033168 0.799450
O O11 0.548198 0.988370 0.949391
O O12 0.344459 0.250000 0.858077
O O13 0.249752 0.508320 0.748973
O O14 0.905857 0.250000 0.918804
O O15 0.000000 0.000000 0.000000
O O16 0.068289 0.750000 0.733917
O O17 0.121373 0.540521 0.701195
O O18 0.952327 0.510245 0.550215
O O19 0.865619 0.250000 0.394266
O O20 0.608280 0.250000 0.630975
O O21 0.500000 0.000000 0.500000
#
# Coordination Sequence:
#
# PCOD9164625 Si02
#       8
#     4   4   4   4   4   4   4   4
#     4   9  20  37  56  79 109 143 178 221 271 323
#     4  11  22  37  58  83 111 146 186 228 276 326
#     4  10  21  36  56  81 107 140 182 225 269 319
#     4  10  21  37  56  79 110 145 180 222 271 322
#     4  10  21  38  58  82 113 147 185 228 275 329
#     4  10  21  38  58  81 111 145 182 226 274 325
#     4  10  21  37  58  83 110 142 182 226 272 325
#     4  10  21  38  58  82 111 144 183 226 275 329
#
# _framework density 17.61591
#
# number of rings (size 3 to 8) (size 9 to 14) (size 15 to 20)
#    0.000    2.000    0.000    4.125    0.000    8.000 
#    0.000    2.500    0.000    0.000    0.000    0.000 
#    0.000    0.000    0.000    0.000    0.000    0.000 
#
# Total GULP energy -178745.846191 kJ/mol
# GULP energy per Si atom -5585.807693 kJ/mol
# Density = 1.757582 g / cm^3
# Si number density = 17.615910 Si / 1000 Ang^3
#
#
#
# Elastic Constant Matrix: (Units=GPa)
#
#
# Indices 1 2 3 4 5 6 
#
# 1 87.4431 63.0205 92.3590 0.0000 25.1128 0.0000
# 2 63.0205 96.0778 81.3761 0.0000 2.5198 0.0000
# 3 92.3590 81.3761 146.2060 0.0000 3.1802 0.0000
# 4 0.0000 0.0000 0.0000 39.2907 0.0000 1.5581
# 5 25.1128 2.5198 3.1802 0.0000 37.8735 0.0000
# 6 0.0000 0.0000 0.0000 1.5581 0.0000 33.0099
#
#
#
# Elastic Compliance Matrix: (Units=1/GPa)
#
#
# Indices 1 2 3 4 5 6 
#
# 1 0.079820 -0.017540 -0.039607 0.000000 -0.048434 0.000000
# 2 -0.017540 0.023551 -0.002251 0.000000 0.010253 0.000000
# 3 -0.039607 -0.002251 0.032597 0.000000 0.023675 0.000000
# 4 0.000000 0.000000 0.000000 0.025499 0.000000 -0.001204
# 5 -0.048434 0.010253 0.023675 0.000000 0.055849 0.000000
# 6 0.000000 0.000000 0.000000 -0.001204 0.000000 0.030351
#
#
# Mechanical properties :
#
#
# Convention : Reuss Voigt Hill
#
# Bulk Modulus (GPa) = 58.23136 89.24867 73.74001
# Shear Modulus (GPa) = 13.43409 28.23290 20.83350
#
# Velocity S-wave (km/s) = 2.76454 4.00771 3.44270
# Velocity P-wave (km/s) = 6.58165 8.49643 7.59959
#
# Compressibility (1/GPa) = 0.01717288
#
# Stress axis : x y z
#
# Youngs Moduli (GPa) = 12.52812 42.46088 30.67745
#
# Poissons Ratio (x) = 0.74478 1.21503
# Poissons Ratio (y) = 0.21975 0.06905
# Poissons Ratio (z) = 0.49620 0.09557
#
# Static dielectric constant tensor:
#      x y z
#    x 1.579050 0.000000 -0.002260 
#    y 0.000000 1.543460 0.000000 
#    z -0.002260 0.000000 1.567010 
# 
# From -- ./inp_files/55711.got.cif
#   From: 2010.05.17/outbox.cif.g08.bks.cpg/sg11_28_cif.got.tgz:55711.got - 2010.06.03 12:22:45.
