data_PCOD9164652
_publ_section_title
;
Structure prediction by ZEFSAII (Michael W. Deem and Ramdas Pophale) SiO2 
 PCOD9164652
Probable space group: P 21/M
;
_chemical_formula_sum "Si O2"
_cell_formula_units_Z 24
_cell_length_a 10.189289
_cell_length_b 8.603095
_cell_length_c 14.424627
_cell_angle_alpha 90.000000
_cell_angle_beta 79.430800
_cell_angle_gamma 90.000000
_cell_volume 1243.001837
_symmetry_space_group_name_H-M "P 21/M"
_symmetry_group_IT_number 11
_symmetry_cell_setting 'monoclinic'
loop_
_space_group_symop_operation_xyz
x,y,z
-x,1/2+y,-z
-x,-y,-z
x,1/2-y,z
loop_
_atom_site_type_symbol
_atom_site_label
_atom_site_fract_x
_atom_site_fract_y
_atom_site_fract_z
Si Si1 0.121033 0.563383 0.921233
Si Si2 0.755370 0.939205 0.769331
Si Si3 0.056275 0.562468 0.718668
Si Si4 0.649933 0.563178 0.984208
Si Si5 0.565972 0.937832 0.629839
Si Si6 0.303106 0.064629 0.581716
O O1 0.118064 0.750000 0.925230
O O2 0.098894 0.515704 0.817430
O O3 0.260246 0.502978 0.944553
O O4 0.000000 0.500000 0.000000
O O5 0.755346 0.750000 0.767407
O O6 0.721035 0.984182 0.878540
O O7 0.643447 0.991140 0.711231
O O8 0.904048 0.989854 0.723029
O O9 0.058742 0.750000 0.715016
O O10 0.161292 0.499074 0.631677
O O11 0.648339 0.750000 0.989528
O O12 0.500000 0.500000 0.000000
O O13 0.557399 0.750000 0.632410
O O14 0.650401 0.983940 0.527447
O O15 0.418222 0.003566 0.635651
O O16 0.301192 0.250000 0.584066
#
# Coordination Sequence:
#
# PCOD9164652 Si02
#       6
#     4   4   4   4   4   4
#     4  11  22  39  61  85 115 155 194 236 288 343
#     4   9  19  38  60  81 109 150 192 227 276 342
#     4  10  21  38  59  82 111 152 191 225 281 348
#     4  11  23  40  59  86 119 153 195 239 284 342
#     4   9  19  38  61  81 111 151 188 230 282 340
#     4  10  21  36  56  87 116 143 186 237 283 331
#
# _framework density 19.308095999999999
#
# number of rings (size 3 to 8) (size 9 to 14) (size 15 to 20)
#    0.000    2.000    1.667    1.500    2.333    2.667 
#    0.000    1.667    0.000    0.000    0.000    0.000 
#    0.000    0.000    0.000    0.000    0.000    0.000 
#
# Total GULP energy -134059.894626 kJ/mol
# GULP energy per Si atom -5585.828943 kJ/mol
# Density = 1.926415 g / cm^3
# Si number density = 19.308096 Si / 1000 Ang^3
#
#
#
# Elastic Constant Matrix: (Units=GPa)
#
#
# Indices 1 2 3 4 5 6 
#
# 1 67.6956 5.0750 -13.7488 0.0000 -6.3471 0.0000
# 2 5.0750 19.7869 1.6274 0.0000 -0.2884 0.0000
# 3 -13.7488 1.6274 9.4409 0.0000 -0.5699 0.0000
# 4 0.0000 0.0000 0.0000 25.4102 0.0000 -5.5281
# 5 -6.3471 -0.2884 -0.5699 0.0000 42.8682 0.0000
# 6 0.0000 0.0000 0.0000 -5.5281 0.0000 34.1592
#
#
#
# Elastic Compliance Matrix: (Units=1/GPa)
#
#
# Indices 1 2 3 4 5 6 
#
# 1 0.022908 -0.008706 0.035091 0.000000 0.003800 0.000000
# 2 -0.008706 0.054576 -0.022159 0.000000 -0.001216 0.000000
# 3 0.035091 -0.022159 0.161279 0.000000 0.007190 0.000000
# 4 0.000000 0.000000 0.000000 0.040790 0.000000 0.006601
# 5 0.003800 -0.001216 0.007190 0.000000 0.023977 0.000000
# 6 0.000000 0.000000 0.000000 0.006601 0.000000 0.030343
#
#
# Mechanical properties :
#
#
# Convention : Reuss Voigt Hill
#
# Bulk Modulus (GPa) = 4.04510 9.20339 6.62424
# Shear Modulus (GPa) = 12.26009 27.41885 19.83947
#
# Velocity S-wave (km/s) = 2.52260 3.77247 3.20897
# Velocity P-wave (km/s) = 3.25334 4.87363 4.14346
#
# Compressibility (1/GPa) = 0.24721269
#
# Stress axis : x y z
#
# Youngs Moduli (GPa) = 43.65347 18.32300 6.20045
#
# Poissons Ratio (x) = 0.15952 -0.21758
# Poissons Ratio (y) = 0.38005 0.13740
# Poissons Ratio (z) = -1.53182 0.40603
#
# Static dielectric constant tensor:
#      x y z
#    x 1.649930 0.000000 0.003560 
#    y 0.000000 1.658060 0.000000 
#    z 0.003560 0.000000 1.664740 
# 
# From -- ./inp_files/20381.got.cif
#   From: 2010.05.17/outbox.cif.g08.bks.cpg/sg11_11_cif.got.tgz:20381.got - 2010.06.03 12:22:45.
