data_PCOD9164154
_publ_section_title
;
Structure prediction by ZEFSAII (Michael W. Deem and Ramdas Pophale) SiO2 
 PCOD9164154
Probable space group: P 21/M
;
_chemical_formula_sum "Si O2"
_cell_formula_units_Z 28
_cell_length_a 11.382482
_cell_length_b 14.895154
_cell_length_c 8.637784
_cell_angle_alpha 90.000000
_cell_angle_beta 72.969041
_cell_angle_gamma 90.000000
_cell_volume 1400.260415
_symmetry_space_group_name_H-M "P 21/M"
_symmetry_group_IT_number 11
_symmetry_cell_setting 'monoclinic'
loop_
_space_group_symop_operation_xyz
x,y,z
-x,1/2+y,-z
-x,-y,-z
x,1/2-y,z
loop_
_atom_site_type_symbol
_atom_site_label
_atom_site_fract_x
_atom_site_fract_y
_atom_site_fract_z
Si Si1 0.167411 0.849803 0.770720
Si Si2 0.441092 0.853178 0.165674
Si Si3 0.033929 0.400471 0.929942
Si Si4 0.328761 0.464996 0.306699
Si Si5 0.095966 0.019569 0.597139
Si Si6 0.284106 0.355308 0.011080
Si Si7 0.433310 0.645771 0.796697
O O1 0.171111 0.750000 0.699934
O O2 0.303295 0.876732 0.772169
O O3 0.117407 0.925548 0.676985
O O4 0.078343 0.845961 0.954530
O O5 0.414319 0.750000 0.220810
O O6 0.359557 0.929778 0.274513
O O7 0.587576 0.870726 0.129485
O O8 0.423205 0.862081 0.986842
O O9 0.047848 0.408569 0.740840
O O10 0.163099 0.372111 0.956599
O O11 0.000000 0.500000 0.000000
O O12 0.223247 0.450677 0.471672
O O13 0.286775 0.420358 0.159287
O O14 0.455606 0.416000 0.299576
O O15 0.000000 0.000000 0.500000
O O16 0.286831 0.250000 0.059292
O O17 0.460976 0.750000 0.752414
#
# Coordination Sequence:
#
# PCOD9164154 Si02
#       7
#     4   4   4   4   4   4   4
#     4  10  22  42  65  86 119 162 210 262 306 362
#     4   9  20  34  59  95 125 158 209 253 302 371
#     4  10  22  38  63  83 117 156 213 249 300 365
#     4  11  21  36  66  90 130 167 192 255 326 365
#     4  11  26  41  58  91 126 161 208 254 314 382
#     4  10  20  39  63  91 121 162 213 258 302 366
#     4   9  19  36  61  94 119 157 214 255 300 371
#
# _framework density 19.996279999999999
#
# number of rings (size 3 to 8) (size 9 to 14) (size 15 to 20)
#    0.000    2.000    0.000    5.143   10.000    1.143 
#    0.000    5.000    0.000    0.000    0.000    0.000 
#    0.000    0.000    0.000    0.000    0.000    0.000 
#
# Total GULP energy -156363.497595 kJ/mol
# GULP energy per Si atom -5584.410628 kJ/mol
# Density = 1.995077 g / cm^3
# Si number density = 19.996280 Si / 1000 Ang^3
#
#
#
# Elastic Constant Matrix: (Units=GPa)
#
#
# Indices 1 2 3 4 5 6 
#
# 1 121.0262 38.3001 43.6792 0.0000 12.6072 0.0000
# 2 38.3001 63.5823 24.1814 0.0000 0.0707 0.0000
# 3 43.6792 24.1814 73.9037 0.0000 -6.4207 0.0000
# 4 0.0000 0.0000 0.0000 10.5880 0.0000 6.1790
# 5 12.6072 0.0707 -6.4207 0.0000 16.2396 0.0000
# 6 0.0000 0.0000 0.0000 6.1790 0.0000 31.3763
#
#
#
# Elastic Compliance Matrix: (Units=1/GPa)
#
#
# Indices 1 2 3 4 5 6 
#
# 1 0.014384 -0.005647 -0.007893 0.000000 -0.014263 0.000000
# 2 -0.005647 0.020277 -0.003028 0.000000 0.003098 0.000000
# 3 -0.007893 -0.003028 0.020422 0.000000 0.014215 0.000000
# 4 0.000000 0.000000 0.000000 0.106711 0.000000 -0.021015
# 5 -0.014263 0.003098 0.014215 0.000000 0.078257 0.000000
# 6 0.000000 0.000000 0.000000 -0.021015 0.000000 0.036010
#
#
# Mechanical properties :
#
#
# Convention : Reuss Voigt Hill
#
# Bulk Modulus (GPa) = 45.56334 52.31484 48.93909
# Shear Modulus (GPa) = 15.79717 21.79753 18.79735
#
# Velocity S-wave (km/s) = 2.81375 3.30522 3.06934
# Velocity P-wave (km/s) = 5.77855 6.38632 6.09002
#
# Compressibility (1/GPa) = 0.02194747
#
# Stress axis : x y z
#
# Youngs Moduli (GPa) = 69.52183 49.31608 48.96730
#
# Poissons Ratio (x) = 0.27848 0.38649
# Poissons Ratio (y) = 0.39258 0.14828
# Poissons Ratio (z) = 0.54872 0.14934
#
# Static dielectric constant tensor:
#      x y z
#    x 1.698940 0.000000 -0.006470 
#    y 0.000000 1.709240 0.000000 
#    z -0.006470 0.000000 1.704450 
# 
# From -- ./inp_files/17674.got.cif
#   From: 2010.05.17/outbox.cif.g08.bks.cpg/sg11_9_cif.got.tgz:17674.got - 2010.06.03 12:22:45.
