data_PCOD9164375
_publ_section_title
;
Structure prediction by ZEFSAII (Michael W. Deem and Ramdas Pophale) SiO2 
 PCOD9164375
Probable space group: P 21/M
;
_chemical_formula_sum "Si O2"
_cell_formula_units_Z 28
_cell_length_a 13.260756
_cell_length_b 21.595800
_cell_length_c 5.351502
_cell_angle_alpha 90.000000
_cell_angle_beta 84.823893
_cell_angle_gamma 90.000000
_cell_volume 1526.295577
_symmetry_space_group_name_H-M "P 21/M"
_symmetry_group_IT_number 11
_symmetry_cell_setting 'monoclinic'
loop_
_space_group_symop_operation_xyz
x,y,z
-x,1/2+y,-z
-x,-y,-z
x,1/2-y,z
loop_
_atom_site_type_symbol
_atom_site_label
_atom_site_fract_x
_atom_site_fract_y
_atom_site_fract_z
Si Si1 0.558291 0.427553 0.704885
Si Si2 0.029069 0.627035 0.303772
Si Si3 0.227565 0.076011 0.151020
Si Si4 0.061363 0.321505 0.195127
Si Si5 0.790021 0.057872 0.585820
Si Si6 0.092700 0.015335 0.791981
Si Si7 0.457854 0.423567 0.227519
O O1 0.674709 0.421468 0.595625
O O2 0.488884 0.401362 0.496953
O O3 0.538548 0.501510 0.741083
O O4 0.532825 0.403339 0.987723
O O5 0.144350 0.604346 0.263661
O O6 0.009571 0.670241 0.546030
O O7 0.964251 0.564102 0.372951
O O8 0.989739 0.654723 0.051414
O O9 0.158263 0.134812 0.224980
O O10 0.344903 0.091414 0.160322
O O11 0.210828 0.012559 0.310022
O O12 0.186206 0.053091 0.891973
O O13 0.089145 0.250000 0.159122
O O14 0.856732 0.046783 0.323036
O O15 0.000000 0.000000 0.000000
#
# Coordination Sequence:
#
# PCOD9164375 Si02
#       7
#     4   4   4   4   4   4   4
#     4   9  20  30  48  72 113 138 176 207 262 330
#     4  11  22  36  56  79 111 143 181 226 269 327
#     4  10  21  32  56  76 113 148 182 219 276 332
#     4  11  24  40  55  79 108 146 188 230 272 325
#     4  11  20  32  54  83 112 148 178 215 284 335
#     4  11  20  31  48  81 115 144 183 219 264 338
#     4   9  19  32  45  74 106 148 170 213 258 316
#
# _framework density 18.345071999999998
#
# number of rings (size 3 to 8) (size 9 to 14) (size 15 to 20)
#    0.000    1.714    2.857    2.571   10.000    0.000 
#    0.000    0.000    0.000    0.000    0.000    6.000 
#    0.000    0.000    0.000    0.000    0.000    0.000 
#
# Total GULP energy -155953.931328 kJ/mol
# GULP energy per Si atom -5569.783262 kJ/mol
# Density = 1.830332 g / cm^3
# Si number density = 18.345072 Si / 1000 Ang^3
#
#
#
# Elastic Constant Matrix: (Units=GPa)
#
#
# Indices 1 2 3 4 5 6 
#
# 1 117.9564 19.7616 46.8237 0.0000 8.7296 0.0000
# 2 19.7616 58.2559 11.4464 0.0000 0.9539 0.0000
# 3 46.8237 11.4464 92.4242 0.0000 -1.2808 0.0000
# 4 0.0000 0.0000 0.0000 15.3906 0.0000 0.8057
# 5 8.7296 0.9539 -1.2808 0.0000 21.3263 0.0000
# 6 0.0000 0.0000 0.0000 0.8057 0.0000 9.4407
#
#
#
# Elastic Compliance Matrix: (Units=1/GPa)
#
#
# Indices 1 2 3 4 5 6 
#
# 1 0.011506 -0.002730 -0.005559 0.000000 -0.004922 0.000000
# 2 -0.002730 0.018260 -0.000875 0.000000 0.000248 0.000000
# 3 -0.005559 -0.000875 0.013788 0.000000 0.003143 0.000000
# 4 0.000000 0.000000 0.000000 0.065266 0.000000 -0.005570
# 5 -0.004922 0.000248 0.003143 0.000000 0.049083 0.000000
# 6 0.000000 0.000000 0.000000 -0.005570 0.000000 0.106400
#
#
# Mechanical properties :
#
#
# Convention : Reuss Voigt Hill
#
# Bulk Modulus (GPa) = 39.64290 47.18887 43.41588
# Shear Modulus (GPa) = 17.17979 21.93851 19.55915
#
# Velocity S-wave (km/s) = 3.06352 3.46190 3.26878
# Velocity P-wave (km/s) = 5.84551 6.46208 6.16151
#
# Compressibility (1/GPa) = 0.02522520
#
# Stress axis : x y z
#
# Youngs Moduli (GPa) = 86.91002 54.76572 72.52680
#
# Poissons Ratio (x) = 0.14952 0.40320
# Poissons Ratio (y) = 0.23728 0.06344
# Poissons Ratio (z) = 0.48316 0.04791
#
# Static dielectric constant tensor:
#      x y z
#    x 1.639080 0.000000 -0.006080 
#    y 0.000000 1.622860 0.000000 
#    z -0.006080 0.000000 1.778970 
# 
# From -- ./inp_files/5228.got.cif
#   From: 2010.05.17/outbox.cif.g08.bks.cpg/sg11_3_cif.got.tgz:5228.got - 2010.06.03 12:22:45.
