data_PCOD9164035
_publ_section_title
;
Structure prediction by ZEFSAII (Michael W. Deem and Ramdas Pophale) SiO2 
 PCOD9164035
Probable space group: P 21/M
;
_chemical_formula_sum "Si O2"
_cell_formula_units_Z 20
_cell_length_a 15.265166
_cell_length_b 13.778609
_cell_length_c 10.320258
_cell_angle_alpha 90.000000
_cell_angle_beta 24.875689
_cell_angle_gamma 90.000000
_cell_volume 913.102002
_symmetry_space_group_name_H-M "P 21/M"
_symmetry_group_IT_number 11
_symmetry_cell_setting 'monoclinic'
loop_
_space_group_symop_operation_xyz
x,y,z
-x,1/2+y,-z
-x,-y,-z
x,1/2-y,z
loop_
_atom_site_type_symbol
_atom_site_label
_atom_site_fract_x
_atom_site_fract_y
_atom_site_fract_z
Si Si1 0.577756 0.250000 0.730968
Si Si2 0.992389 0.918884 0.180771
Si Si3 0.196331 0.967653 0.150586
Si Si4 0.737369 0.750000 0.631905
Si Si5 0.601033 0.460993 0.728172
Si Si6 0.636599 0.250000 0.076334
Si Si7 0.720404 0.250000 0.268560
O O1 0.676973 0.351008 0.643860
O O2 0.561916 0.250000 0.598477
O O3 0.363604 0.250000 0.094090
O O4 0.878548 0.843268 0.429426
O O5 0.138620 0.980512 0.077535
O O6 0.793156 0.980599 0.405718
O O7 0.132535 0.845317 0.910352
O O8 0.254478 0.853821 0.098835
O O9 0.000000 0.000000 0.500000
O O10 0.400998 0.029611 0.905888
O O11 0.571118 0.750000 0.735563
O O12 0.500000 0.500000 0.000000
O O13 0.626253 0.250000 0.249224
#
# Coordination Sequence:
#
# PCOD9164035 Si02
#       7
#     2   4   4   2   4   2   2
#     4  12  24  40  66 100 134 168 220 288 326 388
#     4  10  21  40  65  93 128 178 216 263 331 398
#     4  11  20  34  61  97 127 162 221 272 320 382
#     4  11  18  38  73  94 124 172 226 273 314 389
#     4  12  22  39  66  98 131 171 224 279 329 385
#     4  10  20  38  64  90 126 182 218 256 330 400
#     4   9  24  42  63  96 140 174 216 267 338 399
#
# _framework density 21.903358000000001
#
# number of rings (size 3 to 8) (size 9 to 14) (size 15 to 20)
#    0.000    1.200    6.000    0.600    0.000    1.600 
#    0.000    5.000    8.800    0.000    0.000    0.000 
#    0.000    0.000    0.000    0.000    0.000    0.000 
#
# Total GULP energy -111477.085275 kJ/mol
# GULP energy per Si atom -5573.854264 kJ/mol
# Density = 2.185350 g / cm^3
# Si number density = 21.903358 Si / 1000 Ang^3
#
#
#
# Elastic Constant Matrix: (Units=GPa)
#
#
# Indices 1 2 3 4 5 6 
#
# 1 87.8214 11.3425 52.3567 0.0000 -6.7770 0.0000
# 2 11.3425 94.1292 9.9385 0.0000 8.2219 0.0000
# 3 52.3567 9.9385 55.6438 0.0000 -3.8790 0.0000
# 4 0.0000 0.0000 0.0000 -69.6366 0.0000 -63.7855
# 5 -6.7770 8.2219 -3.8790 0.0000 46.4837 0.0000
# 6 0.0000 0.0000 0.0000 -63.7855 0.0000 -16.9509
#
#
#
# Elastic Compliance Matrix: (Units=1/GPa)
#
#
# Indices 1 2 3 4 5 6 
#
# 1 0.026129 -0.000748 -0.024318 0.000000 0.001912 0.000000
# 2 -0.000748 0.011055 -0.001423 0.000000 -0.002183 0.000000
# 3 -0.024318 -0.001423 0.041117 0.000000 0.000137 0.000000
# 4 0.000000 0.000000 0.000000 0.005869 0.000000 -0.022085
# 5 0.001912 -0.002183 0.000137 0.000000 0.022189 0.000000
# 6 0.000000 0.000000 0.000000 -0.022085 0.000000 0.024111
#
#
# Mechanical properties :
#
#
# Convention : Reuss Voigt Hill
#
# Bulk Modulus (GPa) = 39.49121 42.76328 41.12725
# Shear Modulus (GPa) = 26.05672 2.90970 14.48321
#
# Velocity S-wave (km/s) = 3.45283 1.15382 2.57423
# Velocity P-wave (km/s) = 5.82795 4.61964 5.25861
#
# Compressibility (1/GPa) = 0.02532209
#
# Stress axis : x y z
#
# Youngs Moduli (GPa) = 38.27183 90.45883 24.32083
#
# Poissons Ratio (x) = 0.06766 0.59144
# Poissons Ratio (y) = 0.02862 0.03461
# Poissons Ratio (z) = 0.93071 0.12872
#
# Static dielectric constant tensor:
#      x y z
#    x 1.888610 0.000000 0.004610 
#    y 0.000000 1.883020 0.000000 
#    z 0.004610 0.000000 1.794080 
# 
# From -- ./inp_files/41536.got.cif
#   From: 2010.05.17/outbox.cif.g08.bks.cpg/sg11_21_cif.got.tgz:41536.got - 2010.06.03 12:22:45.
