data_PCOD9164730
_publ_section_title
;
Structure prediction by ZEFSAII (Michael W. Deem and Ramdas Pophale) SiO2 
 PCOD9164730
Probable space group: P 21/M
;
_chemical_formula_sum "Si O2"
_cell_formula_units_Z 28
_cell_length_a 5.434054
_cell_length_b 22.910552
_cell_length_c 11.476375
_cell_angle_alpha 90.000000
_cell_angle_beta 90.788839
_cell_angle_gamma 90.000000
_cell_volume 1428.640874
_symmetry_space_group_name_H-M "P 21/M"
_symmetry_group_IT_number 11
_symmetry_cell_setting 'monoclinic'
loop_
_space_group_symop_operation_xyz
x,y,z
-x,1/2+y,-z
-x,-y,-z
x,1/2-y,z
loop_
_atom_site_type_symbol
_atom_site_label
_atom_site_fract_x
_atom_site_fract_y
_atom_site_fract_z
Si Si1 0.368375 0.410730 0.248801
Si Si2 0.122014 0.534056 0.650645
Si Si3 0.295170 0.419066 0.744245
Si Si4 0.747257 0.538535 0.999467
Si Si5 0.608039 0.816379 0.583072
Si Si6 0.306971 0.909083 0.425283
Si Si7 0.072443 0.184189 0.630663
O O1 0.642199 0.438181 0.275414
O O2 0.372085 0.342961 0.288516
O O3 0.141442 0.437029 0.323419
O O4 0.282125 0.423298 0.117021
O O5 0.107218 0.466597 0.689113
O O6 0.189799 0.546300 0.516792
O O7 0.269619 0.425479 0.880950
O O8 0.536942 0.439281 0.674898
O O9 0.272653 0.351825 0.705150
O O10 0.500000 0.500000 0.000000
O O11 0.000000 0.500000 0.000000
O O12 0.507896 0.750000 0.578295
O O13 0.460787 0.866736 0.513899
O O14 0.854196 0.814571 0.505686
O O15 0.147876 0.860221 0.360463
O O16 0.034541 0.250000 0.668816
#
# Coordination Sequence:
#
# PCOD9164730 Si02
#       7
#     4   4   4   4   4   4   4
#     4  11  21  40  61  93 121 157 206 252 300 364
#     4  11  22  38  62  93 128 153 197 260 316 363
#     4  11  24  37  60  91 124 164 206 254 311 374
#     4  12  24  42  64  88 125 166 205 249 306 374
#     4   9  19  37  60  88 121 162 203 251 307 364
#     4  10  21  36  59  94 125 161 199 257 313 375
#     4  10  21  38  60  87 123 164 206 249 307 373
#
# _framework density 19.599048
#
# number of rings (size 3 to 8) (size 9 to 14) (size 15 to 20)
#    0.000    1.429    4.286    0.857    4.000    1.143 
#    0.000    0.714    0.000    0.000    0.000    0.000 
#    0.000    0.000    0.000    0.000    0.000    0.000 
#
# Total GULP energy -155948.373679 kJ/mol
# GULP energy per Si atom -5569.584774 kJ/mol
# Density = 1.955444 g / cm^3
# Si number density = 19.599048 Si / 1000 Ang^3
#
#
#
# Elastic Constant Matrix: (Units=GPa)
#
#
# Indices 1 2 3 4 5 6 
#
# 1 74.3780 10.1127 13.0697 0.0000 2.4673 0.0000
# 2 10.1127 99.2482 23.7321 0.0000 -1.9595 0.0000
# 3 13.0697 23.7321 136.1715 0.0000 -7.1737 0.0000
# 4 0.0000 0.0000 0.0000 24.1698 0.0000 -3.3428
# 5 2.4673 -1.9595 -7.1737 0.0000 22.6326 0.0000
# 6 0.0000 0.0000 0.0000 -3.3428 0.0000 16.3978
#
#
#
# Elastic Compliance Matrix: (Units=1/GPa)
#
#
# Indices 1 2 3 4 5 6 
#
# 1 0.013886 -0.001159 -0.001237 0.000000 -0.002006 0.000000
# 2 -0.001159 0.010613 -0.001712 0.000000 0.000503 0.000000
# 3 -0.001237 -0.001712 0.007892 0.000000 0.002488 0.000000
# 4 0.000000 0.000000 0.000000 0.042574 0.000000 0.008679
# 5 -0.002006 0.000503 0.002488 0.000000 0.045235 0.000000
# 6 0.000000 0.000000 0.000000 0.008679 0.000000 0.062753
#
#
# Mechanical properties :
#
#
# Convention : Reuss Voigt Hill
#
# Bulk Modulus (GPa) = 41.36250 44.84741 43.10495
# Shear Modulus (GPa) = 25.09703 30.16559 27.63131
#
# Velocity S-wave (km/s) = 3.58232 3.92744 3.75884
# Velocity P-wave (km/s) = 6.18554 6.59534 6.39372
#
# Compressibility (1/GPa) = 0.02417649
#
# Stress axis : x y z
#
# Youngs Moduli (GPa) = 72.01380 94.22305 126.71390
#
# Poissons Ratio (x) = 0.10919 0.15668
# Poissons Ratio (y) = 0.08345 0.21693
# Poissons Ratio (z) = 0.08905 0.16131
#
# Static dielectric constant tensor:
#      x y z
#    x 1.896650 0.000000 0.050970 
#    y 0.000000 1.739890 0.000000 
#    z 0.050970 0.000000 1.719830 
# 
# From -- ./inp_files/5242.got.cif
#   From: 2010.05.17/outbox.cif.g08.bks.cpg/sg11_3_cif.got.tgz:5242.got - 2010.06.03 12:22:45.
