data_PCOD9164245
_publ_section_title
;
Structure prediction by ZEFSAII (Michael W. Deem and Ramdas Pophale) SiO2 
 PCOD9164245
Probable space group: P 21/M
;
_chemical_formula_sum "Si O2"
_cell_formula_units_Z 28
_cell_length_a 14.924866
_cell_length_b 19.223192
_cell_length_c 9.607648
_cell_angle_alpha 90.000000
_cell_angle_beta 150.152354
_cell_angle_gamma 90.000000
_cell_volume 1371.881687
_symmetry_space_group_name_H-M "P 21/M"
_symmetry_group_IT_number 11
_symmetry_cell_setting 'monoclinic'
loop_
_space_group_symop_operation_xyz
x,y,z
-x,1/2+y,-z
-x,-y,-z
x,1/2-y,z
loop_
_atom_site_type_symbol
_atom_site_label
_atom_site_fract_x
_atom_site_fract_y
_atom_site_fract_z
Si Si1 0.351408 0.829853 0.835195
Si Si2 0.230264 0.633029 0.097493
Si Si3 0.014928 0.169772 0.480216
Si Si4 0.824783 0.517946 0.852314
Si Si5 0.730812 0.569014 0.014001
Si Si6 0.412956 0.674208 0.600696
Si Si7 0.481070 0.572910 0.225101
O O1 0.414933 0.750000 0.943098
O O2 0.336430 0.840938 0.650246
O O3 0.158577 0.835670 0.651291
O O4 0.480385 0.887966 0.076795
O O5 0.227600 0.555419 0.152049
O O6 0.264047 0.676345 0.280571
O O7 0.398438 0.631210 0.217928
O O8 0.060572 0.653712 0.775637
O O9 0.079852 0.250000 0.574042
O O10 0.153323 0.111193 0.717199
O O11 0.836464 0.563857 0.008961
O O12 0.668294 0.546900 0.541051
O O13 0.000000 0.500000 0.000000
O O14 0.554750 0.615511 0.751961
O O15 0.657323 0.493105 0.963300
O O16 0.502515 0.750000 0.727313
#
# Coordination Sequence:
#
# PCOD9164245 Si02
#       7
#     4   4   4   4   4   4   4
#     4   9  22  39  62  92 127 163 207 263 320 376
#     4  10  20  40  62  87 126 164 206 253 316 377
#     4  10  22  40  61  93 129 165 213 260 310 377
#     4  11  23  39  62  93 125 159 212 271 315 369
#     4  11  22  39  64  91 127 165 209 260 311 375
#     4  11  21  38  64  91 122 167 210 254 315 377
#     4  10  20  42  63  89 128 162 212 260 314 386
#
# _framework density 20.409925000000001
#
# number of rings (size 3 to 8) (size 9 to 14) (size 15 to 20)
#    0.000    1.714    2.857    1.714    2.000    7.429 
#    0.000    0.000    0.000    0.857    0.000    0.000 
#    0.000    0.000    0.000    0.000    0.000    0.000 
#
# Total GULP energy -156143.056928 kJ/mol
# GULP energy per Si atom -5576.537747 kJ/mol
# Density = 2.036347 g / cm^3
# Si number density = 20.409925 Si / 1000 Ang^3
#
#
#
# Elastic Constant Matrix: (Units=GPa)
#
#
# Indices 1 2 3 4 5 6 
#
# 1 75.7306 26.4017 56.6941 0.0000 -30.6064 0.0000
# 2 26.4017 86.9823 58.5956 0.0000 -26.3045 0.0000
# 3 56.6941 58.5956 150.1451 0.0000 -33.3569 0.0000
# 4 0.0000 0.0000 0.0000 14.5570 0.0000 -3.1719
# 5 -30.6064 -26.3045 -33.3569 0.0000 29.5235 0.0000
# 6 0.0000 0.0000 0.0000 -3.1719 0.0000 10.9868
#
#
#
# Elastic Compliance Matrix: (Units=1/GPa)
#
#
# Indices 1 2 3 4 5 6 
#
# 1 0.025714 0.002999 -0.005826 0.000000 0.022746 0.000000
# 2 0.002999 0.018165 -0.005254 0.000000 0.013357 0.000000
# 3 -0.005826 -0.005254 0.011387 0.000000 0.002144 0.000000
# 4 0.000000 0.000000 0.000000 0.073307 0.000000 0.021163
# 5 0.022746 0.013357 0.002144 0.000000 0.071775 0.000000
# 6 0.000000 0.000000 0.000000 0.021163 0.000000 0.097128
#
#
# Mechanical properties :
#
#
# Convention : Reuss Voigt Hill
#
# Bulk Modulus (GPa) = 25.57387 66.24899 45.91143
# Shear Modulus (GPa) = 15.30585 22.42457 18.86521
#
# Velocity S-wave (km/s) = 2.74144 3.31827 3.04355
# Velocity P-wave (km/s) = 4.75163 6.87102 5.90715
#
# Compressibility (1/GPa) = 0.03910242
#
# Stress axis : x y z
#
# Youngs Moduli (GPa) = 38.88988 55.05087 87.81932
#
# Poissons Ratio (x) = -0.16507 0.51166
# Poissons Ratio (y) = -0.11661 0.46139
# Poissons Ratio (z) = 0.22658 0.28923
#
# Static dielectric constant tensor:
#      x y z
#    x 1.936660 0.000000 -0.026920 
#    y 0.000000 1.749300 0.000000 
#    z -0.026920 0.000000 1.745460 
# 
# From -- ./inp_files/23231.got.cif
#   From: 2010.05.17/outbox.cif.g08.bks.cpg/sg11_12_cif.got.tgz:23231.got - 2010.06.03 12:22:45.
