data_PCOD9164821
_publ_section_title
;
Structure prediction by ZEFSAII (Michael W. Deem and Ramdas Pophale) SiO2 
 PCOD9164821
Probable space group: P 21/M
;
_chemical_formula_sum "Si O2"
_cell_formula_units_Z 32
_cell_length_a 14.618787
_cell_length_b 17.002101
_cell_length_c 7.158049
_cell_angle_alpha 90.000000
_cell_angle_beta 77.993470
_cell_angle_gamma 90.000000
_cell_volume 1740.213235
_symmetry_space_group_name_H-M "P 21/M"
_symmetry_group_IT_number 11
_symmetry_cell_setting 'monoclinic'
loop_
_space_group_symop_operation_xyz
x,y,z
-x,1/2+y,-z
-x,-y,-z
x,1/2-y,z
loop_
_atom_site_type_symbol
_atom_site_label
_atom_site_fract_x
_atom_site_fract_y
_atom_site_fract_z
Si Si1 0.756443 0.076335 0.684478
Si Si2 0.695705 0.158276 0.351424
Si Si3 0.068242 0.159391 0.854741
Si Si4 0.903792 0.954238 0.502002
Si Si5 0.855778 0.342598 0.988149
Si Si6 0.460115 0.534966 0.710203
Si Si7 0.807318 0.658834 0.836019
Si Si8 0.625522 0.946950 0.915813
O O1 0.715791 0.139918 0.559548
O O2 0.820225 0.110950 0.822211
O O3 0.820174 0.017189 0.536628
O O4 0.675008 0.025907 0.815755
O O5 0.672350 0.250000 0.335565
O O6 0.615534 0.100779 0.310539
O O7 0.788966 0.140832 0.191206
O O8 0.066297 0.250000 0.783925
O O9 0.087718 0.096379 0.687868
O O10 0.964767 0.142243 0.979795
O O11 0.146114 0.155117 0.980328
O O12 0.874075 0.892835 0.675376
O O13 0.000000 0.000000 0.500000
O O14 0.846412 0.250000 0.950758
O O15 0.500000 0.500000 0.500000
O O16 0.541913 0.570106 0.806952
O O17 0.413518 0.468100 0.862459
O O18 0.803577 0.750000 0.778625
O O19 0.705284 0.619182 0.882396
#
# Coordination Sequence:
#
# PCOD9164821 Si02
#       8
#     4   4   4   4   4   4   4   4
#     4  11  21  38  58  89 122 157 200 246 299 357
#     4  11  24  39  62  91 120 158 200 248 307 367
#     4  10  22  39  59  87 124 167 207 251 299 349
#     4  11  23  36  59  90 121 165 210 251 294 353
#     4  10  21  37  56  83 125 163 197 246 297 350
#     4  11  22  42  66  91 120 152 196 253 309 371
#     4  10  24  43  62  88 124 165 209 254 302 363
#     4  10  23  40  65  90 118 158 197 250 313 364
#
# _framework density 18.388552000000001
#
# number of rings (size 3 to 8) (size 9 to 14) (size 15 to 20)
#    0.000    1.500    3.750    0.750    3.500    1.000 
#    0.000    0.625    0.000    0.000    0.000    0.000 
#    0.000    0.000    0.000    0.000    0.000    0.000 
#
# Total GULP energy -178687.543594 kJ/mol
# GULP energy per Si atom -5583.985737 kJ/mol
# Density = 1.834670 g / cm^3
# Si number density = 18.388552 Si / 1000 Ang^3
#
#
#
# Elastic Constant Matrix: (Units=GPa)
#
#
# Indices 1 2 3 4 5 6 
#
# 1 72.0523 27.5911 28.4693 0.0000 -7.0913 0.0000
# 2 27.5911 77.2116 47.3768 0.0000 -6.9558 0.0000
# 3 28.4693 47.3768 77.6601 0.0000 -12.6019 0.0000
# 4 0.0000 0.0000 0.0000 17.4276 0.0000 -15.3409
# 5 -7.0913 -6.9558 -12.6019 0.0000 31.9149 0.0000
# 6 0.0000 0.0000 0.0000 -15.3409 0.0000 17.6801
#
#
#
# Elastic Compliance Matrix: (Units=1/GPa)
#
#
# Indices 1 2 3 4 5 6 
#
# 1 0.016886 -0.003596 -0.003755 0.000000 0.001485 0.000000
# 2 -0.003596 0.021473 -0.011915 0.000000 -0.000824 0.000000
# 3 -0.003755 -0.011915 0.022401 0.000000 0.005414 0.000000
# 4 0.000000 0.000000 0.000000 0.242933 0.000000 0.210793
# 5 0.001485 -0.000824 0.005414 0.000000 0.033622 0.000000
# 6 0.000000 0.000000 0.000000 0.210793 0.000000 0.239465
#
#
# Mechanical properties :
#
#
# Convention : Reuss Voigt Hill
#
# Bulk Modulus (GPa) = 44.99106 48.19982 46.59544
# Shear Modulus (GPa) = 8.02926 21.63696 14.83311
#
# Velocity S-wave (km/s) = 2.09187 3.43396 2.84324
# Velocity P-wave (km/s) = 5.50950 6.48009 6.01440
#
# Compressibility (1/GPa) = 0.02222664
#
# Stress axis : x y z
#
# Youngs Moduli (GPa) = 59.22130 46.56910 44.64110
#
# Poissons Ratio (x) = 0.16746 0.16765
# Poissons Ratio (y) = 0.21295 0.53192
# Poissons Ratio (z) = 0.22240 0.55489
#
# Static dielectric constant tensor:
#      x y z
#    x 1.627890 0.000000 -0.009440 
#    y 0.000000 1.629010 0.000000 
#    z -0.009440 0.000000 1.622670 
# 
# From -- ./inp_files/6844.got.cif
#   From: 2010.05.17/outbox.cif.g08.bks.cpg/sg11_4_cif.got.tgz:6844.got - 2010.06.03 12:22:45.
