data_PCOD9164509
_publ_section_title
;
Structure prediction by ZEFSAII (Michael W. Deem and Ramdas Pophale) SiO2 
 PCOD9164509
Probable space group: P 21/M
;
_chemical_formula_sum "Si O2"
_cell_formula_units_Z 28
_cell_length_a 25.849071
_cell_length_b 9.099857
_cell_length_c 9.634194
_cell_angle_alpha 90.000000
_cell_angle_beta 139.662576
_cell_angle_gamma 90.000000
_cell_volume 1466.872317
_symmetry_space_group_name_H-M "P 21/M"
_symmetry_group_IT_number 11
_symmetry_cell_setting 'monoclinic'
loop_
_space_group_symop_operation_xyz
x,y,z
-x,1/2+y,-z
-x,-y,-z
x,1/2-y,z
loop_
_atom_site_type_symbol
_atom_site_label
_atom_site_fract_x
_atom_site_fract_y
_atom_site_fract_z
Si Si1 0.430886 0.574032 0.449718
Si Si2 0.750767 0.073069 0.914468
Si Si3 0.765130 0.576571 0.646686
Si Si4 0.499234 0.076415 0.849426
Si Si5 0.321110 0.580937 0.765700
Si Si6 0.167137 0.576031 0.643813
Si Si7 0.921665 0.924562 0.778877
O O1 0.500000 0.500000 0.500000
O O2 0.440133 0.750000 0.465348
O O3 0.339818 0.537779 0.222365
O O4 0.443703 0.510331 0.630072
O O5 0.754874 0.250000 0.912196
O O6 0.764354 0.003662 0.792154
O O7 0.814441 0.026643 0.161843
O O8 0.757582 0.750000 0.652286
O O9 0.696024 0.520853 0.401382
O O10 0.847299 0.546122 0.730885
O O11 0.479749 0.250000 0.815993
O O12 0.591788 0.062315 0.990689
O O13 0.500000 0.000000 0.000000
O O14 0.316288 0.750000 0.706537
O O15 0.251111 0.558663 0.733435
O O16 0.147967 0.750000 0.604607
O O17 0.102976 0.489543 0.421219
O O18 0.932243 0.750000 0.791102
O O19 0.000000 0.000000 0.000000
#
# Coordination Sequence:
#
# PCOD9164509 Si02
#       7
#     4   4   4   4   4   4   4
#     4  11  23  38  55  78 109 148 192 237 283 332
#     4  10  21  37  56  79 110 147 186 223 270 331
#     4  10  21  35  55  84 113 140 178 226 271 317
#     4  11  22  35  51  75 106 142 186 235 283 331
#     4   9  18  34  54  73 100 140 183 224 271 326
#     4   9  18  35  58  80 103 137 178 219 262 314
#     4  10  21  38  60  87 114 140 173 214 261 319
#
# _framework density 19.088232999999999
#
# number of rings (size 3 to 8) (size 9 to 14) (size 15 to 20)
#    0.000    2.000    0.000    3.429    0.000   10.286 
#    0.000    3.571    0.000    0.000    0.000    0.000 
#    0.000    0.000    0.000    0.000    0.000    0.000 
#
# Total GULP energy -156385.336608 kJ/mol
# GULP energy per Si atom -5585.190593 kJ/mol
# Density = 1.904479 g / cm^3
# Si number density = 19.088233 Si / 1000 Ang^3
#
#
#
# Elastic Constant Matrix: (Units=GPa)
#
#
# Indices 1 2 3 4 5 6 
#
# 1 29.3913 26.2280 25.8446 0.0000 -12.8059 0.0000
# 2 26.2280 51.7291 50.0996 0.0000 -2.1214 0.0000
# 3 25.8446 50.0996 137.1975 0.0000 -10.4036 0.0000
# 4 0.0000 0.0000 0.0000 31.5417 0.0000 -2.7304
# 5 -12.8059 -2.1214 -10.4036 0.0000 30.5076 0.0000
# 6 0.0000 0.0000 0.0000 -2.7304 0.0000 29.8701
#
#
#
# Elastic Compliance Matrix: (Units=1/GPa)
#
#
# Indices 1 2 3 4 5 6 
#
# 1 0.087104 -0.045466 0.002800 0.000000 0.034356 0.000000
# 2 -0.045466 0.053727 -0.012543 0.000000 -0.019626 0.000000
# 3 0.002800 -0.012543 0.011666 0.000000 0.004281 0.000000
# 4 0.000000 0.000000 0.000000 0.031957 0.000000 0.002921
# 5 0.034356 -0.019626 0.004281 0.000000 0.047295 0.000000
# 6 0.000000 0.000000 0.000000 0.002921 0.000000 0.033745
#
#
# Mechanical properties :
#
#
# Convention : Reuss Voigt Hill
#
# Bulk Modulus (GPa) = 23.76542 46.96248 35.36395
# Shear Modulus (GPa) = 12.82254 26.12695 19.47475
#
# Velocity S-wave (km/s) = 2.59463 3.70367 3.19760
# Velocity P-wave (km/s) = 4.63179 6.55331 5.67447
#
# Compressibility (1/GPa) = 0.04207795
#
# Stress axis : x y z
#
# Youngs Moduli (GPa) = 11.48058 18.61269 85.71825
#
# Poissons Ratio (x) = 0.84625 -0.23999
# Poissons Ratio (y) = 0.52198 1.07513
# Poissons Ratio (z) = -0.03214 0.23345
#
# Static dielectric constant tensor:
#      x y z
#    x 1.687080 0.000000 0.000870 
#    y 0.000000 1.642790 0.000000 
#    z 0.000870 0.000000 1.670870 
# 
# From -- ./inp_files/28158.got.cif
#   From: 2010.05.17/outbox.cif.g08.bks.cpg/sg11_15_cif.got.tgz:28158.got - 2010.06.03 12:22:45.
