data_PCOD9164945
_publ_section_title
;
Structure prediction by ZEFSAII (Michael W. Deem and Ramdas Pophale) SiO2 
 PCOD9164945
Probable space group: P 21/M
;
_chemical_formula_sum "Si O2"
_cell_formula_units_Z 16
_cell_length_a 5.378293
_cell_length_b 26.716407
_cell_length_c 5.135185
_cell_angle_alpha 90.000000
_cell_angle_beta 59.638249
_cell_angle_gamma 90.000000
_cell_volume 636.670249
_symmetry_space_group_name_H-M "P 21/M"
_symmetry_group_IT_number 11
_symmetry_cell_setting 'monoclinic'
loop_
_space_group_symop_operation_xyz
x,y,z
-x,1/2+y,-z
-x,-y,-z
x,1/2-y,z
loop_
_atom_site_type_symbol
_atom_site_label
_atom_site_fract_x
_atom_site_fract_y
_atom_site_fract_z
Si Si1 0.190688 0.652901 0.604236
Si Si2 0.526450 0.056860 0.382452
Si Si3 0.153653 0.309980 0.716124
Si Si4 0.054103 0.535167 0.224544
O O1 0.252838 0.593121 0.587940
O O2 0.043897 0.671718 0.419300
O O3 0.507692 0.676289 0.483619
O O4 0.980334 0.667802 0.949228
O O5 0.202166 0.075033 0.609951
O O6 0.500000 0.000000 0.500000
O O7 0.632867 0.056065 0.025269
O O8 0.132634 0.250000 0.738239
O O9 0.000000 0.500000 0.500000
O O10 0.000000 0.500000 0.000000
#
# Coordination Sequence:
#
# PCOD9164945 Si02
#       4
#     4   4   4   4
#     4  12  27  46  76 111 144 191 243 295 370 440
#     4  10  23  42  66 101 144 187 233 289 347 428
#     4  12  26  49  75 106 144 188 244 311 370 432
#     4  10  21  37  59  86 127 182 227 271 330 394
#
# _framework density 25.130749000000002
#
# number of rings (size 3 to 8) (size 9 to 14) (size 15 to 20)
#    0.000    1.000    0.000    6.000    0.000   12.000 
#    0.000    0.000    0.000    0.000    0.000    0.000 
#    0.000    0.000    0.000    0.000    0.000    0.000 
#
# Total GULP energy -89521.686068 kJ/mol
# GULP energy per Si atom -5595.105379 kJ/mol
# Density = 2.507355 g / cm^3
# Si number density = 25.130749 Si / 1000 Ang^3
#
#
#
# Elastic Constant Matrix: (Units=GPa)
#
#
# Indices 1 2 3 4 5 6 
#
# 1 105.1404 14.7394 25.4001 0.0000 -10.1250 0.0000
# 2 14.7394 147.7151 11.7529 0.0000 -1.8272 0.0000
# 3 25.4001 11.7529 201.1257 0.0000 -26.0267 0.0000
# 4 0.0000 0.0000 0.0000 32.1888 0.0000 -9.5807
# 5 -10.1250 -1.8272 -26.0267 0.0000 61.5431 0.0000
# 6 0.0000 0.0000 0.0000 -9.5807 0.0000 41.6205
#
#
#
# Elastic Compliance Matrix: (Units=1/GPa)
#
#
# Indices 1 2 3 4 5 6 
#
# 1 0.010006 -0.000900 -0.001059 0.000000 0.001171 0.000000
# 2 -0.000900 0.006882 -0.000298 0.000000 -0.000070 0.000000
# 3 -0.001059 -0.000298 0.005395 0.000000 0.002098 0.000000
# 4 0.000000 0.000000 0.000000 0.033352 0.000000 0.007677
# 5 0.001171 -0.000070 0.002098 0.000000 0.017327 0.000000
# 6 0.000000 0.000000 0.000000 0.007677 0.000000 0.025794
#
#
# Mechanical properties :
#
#
# Convention : Reuss Voigt Hill
#
# Bulk Modulus (GPa) = 56.27555 61.97403 59.12479
# Shear Modulus (GPa) = 45.79082 53.87638 49.83360
#
# Velocity S-wave (km/s) = 4.27324 4.63519 4.45789
# Velocity P-wave (km/s) = 6.84026 7.30485 7.07637
#
# Compressibility (1/GPa) = 0.01776970
#
# Stress axis : x y z
#
# Youngs Moduli (GPa) = 99.94032 145.29874 185.36582
#
# Poissons Ratio (x) = 0.13072 0.19639
# Poissons Ratio (y) = 0.08991 0.05516
# Poissons Ratio (z) = 0.10589 0.04323
#
# Static dielectric constant tensor:
#      x y z
#    x 2.519100 0.000000 -0.041370 
#    y 0.000000 2.041580 0.000000 
#    z -0.041370 0.000000 2.013400 
# 
# From -- ./inp_files/754.got.cif
#   From: 2010.05.17/outbox.cif.g08.bks.cpg/sg11_1_cif.got.tgz:754.got - 2010.06.03 12:22:45.
