data_PCOD9164050
_publ_section_title
;
Structure prediction by ZEFSAII (Michael W. Deem and Ramdas Pophale) SiO2 
 PCOD9164050
Probable space group: P 21/M
;
_chemical_formula_sum "Si O2"
_cell_formula_units_Z 28
_cell_length_a 9.500594
_cell_length_b 16.870315
_cell_length_c 15.552456
_cell_angle_alpha 90.000000
_cell_angle_beta 154.151340
_cell_angle_gamma 90.000000
_cell_volume 1086.813443
_symmetry_space_group_name_H-M "P 21/M"
_symmetry_group_IT_number 11
_symmetry_cell_setting 'monoclinic'
loop_
_space_group_symop_operation_xyz
x,y,z
-x,1/2+y,-z
-x,-y,-z
x,1/2-y,z
loop_
_atom_site_type_symbol
_atom_site_label
_atom_site_fract_x
_atom_site_fract_y
_atom_site_fract_z
Si Si1 0.297972 0.062844 0.801295
Si Si2 0.823759 0.658570 0.755441
Si Si3 0.915876 0.563356 0.530400
Si Si4 0.249663 0.843193 0.166634
Si Si5 0.728995 0.342880 0.153391
Si Si6 0.769120 0.544934 0.943684
Si Si7 0.721318 0.344580 0.431584
O O1 0.099728 0.132706 0.641934
O O2 0.023378 0.997213 0.664924
O O3 0.568693 0.895927 0.040800
O O4 0.000000 0.000000 0.500000
O O5 0.784967 0.750000 0.716326
O O6 0.000648 0.631681 0.767719
O O7 0.462709 0.633628 0.580405
O O8 0.057540 0.654752 0.968677
O O9 0.134468 0.638528 0.677706
O O10 0.414239 0.515543 0.092332
O O11 0.563557 0.600638 0.335069
O O12 0.318723 0.750000 0.221784
O O13 0.014226 0.885082 0.106973
O O14 0.656428 0.250000 0.104468
O O15 0.492399 0.596373 0.744439
O O16 0.000000 0.500000 0.000000
O O17 0.678160 0.250000 0.391757
#
# Coordination Sequence:
#
# PCOD9164050 Si02
#       7
#     4   4   4   4   4   4   4
#     4  12  24  41  66 102 146 191 234 293 369 428
#     4   8  17  36  66  97 130 175 238 303 353 404
#     4  12  25  44  69 102 141 181 231 295 367 434
#     4  10  21  42  70 100 137 194 254 303 355 426
#     4  11  24  45  70 100 138 188 243 295 352 434
#     4  11  21  38  64 100 144 191 247 308 366 423
#     4  10  20  38  65 103 146 194 247 301 359 433
#
# _framework density 25.763392
#
# number of rings (size 3 to 8) (size 9 to 14) (size 15 to 20)
#    0.000    1.429    0.000    8.143    0.000    0.000 
#    0.000   17.857    0.000    0.000    0.000    0.000 
#    0.000    0.000    0.000    0.000    0.000    0.000 
#
# Total GULP energy -155885.398871 kJ/mol
# GULP energy per Si atom -5567.335674 kJ/mol
# Density = 2.570475 g / cm^3
# Si number density = 25.763392 Si / 1000 Ang^3
#
#
#
# Elastic Constant Matrix: (Units=GPa)
#
#
# Indices 1 2 3 4 5 6 
#
# 1 116.4311 69.4133 63.2209 0.0000 26.2575 0.0000
# 2 69.4133 184.2731 69.7798 0.0000 18.6712 0.0000
# 3 63.2209 69.7798 131.3341 0.0000 24.7409 0.0000
# 4 0.0000 0.0000 0.0000 59.1411 0.0000 7.2546
# 5 26.2575 18.6712 24.7409 0.0000 29.5854 0.0000
# 6 0.0000 0.0000 0.0000 7.2546 0.0000 47.5553
#
#
#
# Elastic Compliance Matrix: (Units=1/GPa)
#
#
# Indices 1 2 3 4 5 6 
#
# 1 0.014197 -0.003175 -0.003740 0.000000 -0.007468 0.000000
# 2 -0.003175 0.007560 -0.002517 0.000000 0.000151 0.000000
# 3 -0.003740 -0.002517 0.011665 0.000000 -0.004847 0.000000
# 4 0.000000 0.000000 0.000000 0.017231 0.000000 -0.002629
# 5 -0.007468 0.000151 -0.004847 0.000000 0.044387 0.000000
# 6 0.000000 0.000000 0.000000 -0.002629 0.000000 0.021429
#
#
# Mechanical properties :
#
#
# Convention : Reuss Voigt Hill
#
# Bulk Modulus (GPa) = 68.69120 92.98514 80.83817
# Shear Modulus (GPa) = 35.66686 42.56463 39.11574
#
# Velocity S-wave (km/s) = 3.72479 4.06906 3.90072
# Velocity P-wave (km/s) = 6.72450 7.63195 7.19255
#
# Compressibility (1/GPa) = 0.01455791
#
# Stress axis : x y z
#
# Youngs Moduli (GPa) = 70.43948 132.26668 85.72524
#
# Poissons Ratio (x) = 0.41989 0.32063
# Poissons Ratio (y) = 0.22362 0.21580
# Poissons Ratio (z) = 0.26346 0.33296
#
# Static dielectric constant tensor:
#      x y z
#    x 2.293360 0.000000 -0.037380 
#    y 0.000000 2.097700 0.000000 
#    z -0.037380 0.000000 2.190530 
# 
# From -- ./inp_files/59581.got.cif
#   From: 2010.05.17/outbox.cif.g08.bks.cpg/sg11_30_cif.got.tgz:59581.got - 2010.06.03 12:22:45.
