data_PCOD9164732
_publ_section_title
;
Structure prediction by ZEFSAII (Michael W. Deem and Ramdas Pophale) SiO2 
 PCOD9164732
Probable space group: P 21/M
;
_chemical_formula_sum "Si O2"
_cell_formula_units_Z 32
_cell_length_a 19.052735
_cell_length_b 14.762825
_cell_length_c 8.692651
_cell_angle_alpha 90.000000
_cell_angle_beta 37.592421
_cell_angle_gamma 90.000000
_cell_volume 1491.549283
_symmetry_space_group_name_H-M "P 21/M"
_symmetry_group_IT_number 11
_symmetry_cell_setting 'monoclinic'
loop_
_space_group_symop_operation_xyz
x,y,z
-x,1/2+y,-z
-x,-y,-z
x,1/2-y,z
loop_
_atom_site_type_symbol
_atom_site_label
_atom_site_fract_x
_atom_site_fract_y
_atom_site_fract_z
Si Si1 0.802122 0.649597 0.851792
Si Si2 0.162115 0.508652 0.623088
Si Si3 0.001297 0.935370 0.351464
Si Si4 0.809586 0.142616 0.174781
Si Si5 0.769763 0.645535 0.258756
Si Si6 0.639412 0.989773 0.959645
Si Si7 0.504091 0.644789 0.630586
Si Si8 0.459896 0.644047 0.347207
O O1 0.747650 0.750000 0.931554
O O2 0.917213 0.645291 0.551084
O O3 0.823826 0.635613 0.994748
O O4 0.722551 0.570051 0.924870
O O5 0.061160 0.485268 0.680941
O O6 0.139021 0.598237 0.761042
O O7 0.180258 0.425857 0.709493
O O8 0.280459 0.516769 0.321293
O O9 0.000000 0.000000 0.500000
O O10 0.124793 0.901231 0.082947
O O11 0.822761 0.250000 0.147447
O O12 0.674500 0.120272 0.413851
O O13 0.785392 0.750000 0.281964
O O14 0.632987 0.630119 0.469958
O O15 0.534288 0.920726 0.109214
O O16 0.584210 0.075885 0.138784
O O17 0.472847 0.750000 0.712067
O O18 0.503031 0.631242 0.448137
O O19 0.471005 0.750000 0.286413
#
# Coordination Sequence:
#
# PCOD9164732 Si02
#       8
#     4   4   4   4   4   4   4   4
#     4  10  21  39  66  97 125 162 220 278 323 374
#     4  11  26  42  64  97 129 168 214 270 327 389
#     4  11  25  45  70  93 123 166 222 278 324 385
#     4  11  25  44  66  93 134 178 214 258 324 394
#     4  10  21  39  64  96 133 167 208 270 335 382
#     4  11  22  36  64  94 129 175 214 270 314 375
#     4  10  21  36  59  95 133 173 215 261 319 387
#     4  10  21  37  63  96 131 169 215 262 315 387
#
# _framework density 21.454203
#
# number of rings (size 3 to 8) (size 9 to 14) (size 15 to 20)
#    0.000    1.500    1.250    3.000    5.250    5.500 
#    0.000    5.000    0.000    0.000    0.000    0.000 
#    0.000    0.000    0.000    0.000    0.000    0.000 
#
# Total GULP energy -179043.567321 kJ/mol
# GULP energy per Si atom -5595.111479 kJ/mol
# Density = 2.140537 g / cm^3
# Si number density = 21.454203 Si / 1000 Ang^3
#
#
#
# Elastic Constant Matrix: (Units=GPa)
#
#
# Indices 1 2 3 4 5 6 
#
# 1 70.2592 19.8313 -6.4447 0.0000 1.5062 0.0000
# 2 19.8313 75.9917 27.2192 0.0000 0.4420 0.0000
# 3 -6.4447 27.2192 104.5732 0.0000 -8.4275 0.0000
# 4 0.0000 0.0000 0.0000 31.4155 0.0000 -0.9061
# 5 1.5062 0.4420 -8.4275 0.0000 25.1339 0.0000
# 6 0.0000 0.0000 0.0000 -0.9061 0.0000 10.9290
#
#
#
# Elastic Compliance Matrix: (Units=1/GPa)
#
#
# Indices 1 2 3 4 5 6 
#
# 1 0.015836 -0.004939 0.002253 0.000000 -0.000107 0.000000
# 2 -0.004939 0.016113 -0.004622 0.000000 -0.001537 0.000000
# 3 0.002253 -0.004622 0.011203 0.000000 0.003703 0.000000
# 4 0.000000 0.000000 0.000000 0.031908 0.000000 0.002645
# 5 -0.000107 -0.001537 0.003703 0.000000 0.041062 0.000000
# 6 0.000000 0.000000 0.000000 0.002645 0.000000 0.091719
#
#
# Mechanical properties :
#
#
# Convention : Reuss Voigt Hill
#
# Bulk Modulus (GPa) = 35.04445 36.89286 35.96866
# Shear Modulus (GPa) = 21.55459 27.51022 24.53241
#
# Velocity S-wave (km/s) = 3.17311 3.58477 3.38520
# Velocity P-wave (km/s) = 5.45846 5.86239 5.66403
#
# Compressibility (1/GPa) = 0.02853519
#
# Stress axis : x y z
#
# Youngs Moduli (GPa) = 63.14712 62.06238 89.26140
#
# Poissons Ratio (x) = 0.30653 -0.20110
# Poissons Ratio (y) = 0.31189 0.41259
# Poissons Ratio (z) = -0.14227 0.28687
#
# Static dielectric constant tensor:
#      x y z
#    x 1.782650 0.000000 -0.035740 
#    y 0.000000 1.775250 0.000000 
#    z -0.035740 0.000000 1.795570 
# 
# From -- ./inp_files/26794.got.cif
#   From: 2010.05.17/outbox.cif.g08.bks.cpg/sg11_14_cif.got.tgz:26794.got - 2010.06.03 12:22:45.
