data_PCOD9164131
_publ_section_title
;
Structure prediction by ZEFSAII (Michael W. Deem and Ramdas Pophale) SiO2 
 PCOD9164131
Probable space group: P 21/M
;
_chemical_formula_sum "Si O2"
_cell_formula_units_Z 30
_cell_length_a 11.799891
_cell_length_b 12.284447
_cell_length_c 16.222142
_cell_angle_alpha 90.000000
_cell_angle_beta 140.756563
_cell_angle_gamma 90.000000
_cell_volume 1487.587099
_symmetry_space_group_name_H-M "P 21/M"
_symmetry_group_IT_number 11
_symmetry_cell_setting 'monoclinic'
loop_
_space_group_symop_operation_xyz
x,y,z
-x,1/2+y,-z
-x,-y,-z
x,1/2-y,z
loop_
_atom_site_type_symbol
_atom_site_label
_atom_site_fract_x
_atom_site_fract_y
_atom_site_fract_z
Si Si1 0.268748 0.569223 0.382306
Si Si2 0.432739 0.123933 0.745379
Si Si3 0.032920 0.125858 0.297053
Si Si4 0.946497 0.250000 0.654547
Si Si5 0.911109 0.958831 0.365210
Si Si6 0.155413 0.912294 0.979353
Si Si7 0.549317 0.518883 0.666198
Si Si8 0.858234 0.870488 0.947494
O O1 0.116922 0.655213 0.314744
O O2 0.427004 0.591268 0.537295
O O3 0.343732 0.563963 0.332700
O O4 0.203065 0.446991 0.366567
O O5 0.386443 0.250000 0.703963
O O6 0.294500 0.072158 0.731838
O O7 0.429522 0.049676 0.661922
O O8 0.638596 0.117592 0.891099
O O9 0.073598 0.250000 0.344210
O O10 0.914911 0.127472 0.147407
O O11 0.936452 0.056008 0.313709
O O12 0.998896 0.348484 0.618564
O O13 0.000000 0.000000 0.500000
O O14 0.032050 0.872583 0.986052
O O15 0.130108 0.042261 0.973307
O O16 0.692952 0.588978 0.797633
O O17 0.826755 0.750000 0.960389
#
# Coordination Sequence:
#
# PCOD9164131 Si02
#       8
#     4   4   4   2   4   4   4   4
#     4  10  22  39  60  99 128 168 208 263 328 385
#     4  11  22  40  64  90 126 168 210 267 318 378
#     4  11  23  43  68  91 129 175 217 267 323 388
#     4  10  22  42  62  86 130 162 206 272 312 378
#     4  11  25  44  66  94 122 171 221 268 328 379
#     4  10  22  40  61  95 124 168 224 259 319 390
#     4  10  22  37  60  97 131 162 214 257 322 400
#     4  10  20  39  62  90 133 175 209 265 329 387
#
# _framework density 20.166886000000002
#
# number of rings (size 3 to 8) (size 9 to 14) (size 15 to 20)
#    0.000    1.600    2.000    2.800    2.800    2.133 
#    7.200    0.667    0.000    0.000    0.000    0.000 
#    0.000    0.000    0.000    0.000    0.000    0.000 
#
# Total GULP energy -167050.611561 kJ/mol
# GULP energy per Si atom -5568.353719 kJ/mol
# Density = 2.012098 g / cm^3
# Si number density = 20.166886 Si / 1000 Ang^3
#
#
#
# Elastic Constant Matrix: (Units=GPa)
#
#
# Indices 1 2 3 4 5 6 
#
# 1 78.5939 40.2576 -14.9193 0.0000 -8.6007 0.0000
# 2 40.2576 158.7476 5.3724 0.0000 -4.1873 0.0000
# 3 -14.9193 5.3724 41.6991 0.0000 -3.9224 0.0000
# 4 0.0000 0.0000 0.0000 7.8286 0.0000 12.7789
# 5 -8.6007 -4.1873 -3.9224 0.0000 19.6773 0.0000
# 6 0.0000 0.0000 0.0000 12.7789 0.0000 45.0463
#
#
#
# Elastic Compliance Matrix: (Units=1/GPa)
#
#
# Indices 1 2 3 4 5 6 
#
# 1 0.017311 -0.004431 0.007529 0.000000 0.008124 0.000000
# 2 -0.004431 0.007489 -0.002632 0.000000 -0.000867 0.000000
# 3 0.007529 -0.002632 0.027792 0.000000 0.008271 0.000000
# 4 0.000000 0.000000 0.000000 0.237899 0.000000 -0.067488
# 5 0.008124 -0.000867 0.008271 0.000000 0.055835 0.000000
# 6 0.000000 0.000000 0.000000 -0.067488 0.000000 0.041345
#
#
# Mechanical properties :
#
#
# Convention : Reuss Voigt Hill
#
# Bulk Modulus (GPa) = 18.68266 37.82909 28.25588
# Shear Modulus (GPa) = 12.35850 31.06578 21.71214
#
# Velocity S-wave (km/s) = 2.47819 3.92910 3.28475
# Velocity P-wave (km/s) = 4.18004 6.27555 5.33175
#
# Compressibility (1/GPa) = 0.05352556
#
# Stress axis : x y z
#
# Youngs Moduli (GPa) = 57.76574 133.52831 35.98153
#
# Poissons Ratio (x) = 0.59160 -0.27090
# Poissons Ratio (y) = 0.25593 0.09469
# Poissons Ratio (z) = -0.43490 0.35140
#
# Static dielectric constant tensor:
#      x y z
#    x 1.703640 0.000000 0.014010 
#    y 0.000000 1.711500 0.000000 
#    z 0.014010 0.000000 1.757010 
# 
# From -- ./inp_files/59173.got.cif
#   From: 2010.05.17/outbox.cif.g08.bks.cpg/sg11_30_cif.got.tgz:59173.got - 2010.06.03 12:22:45.
