data_PCOD9164295
_publ_section_title
;
Structure prediction by ZEFSAII (Michael W. Deem and Ramdas Pophale) SiO2 
 PCOD9164295
Probable space group: P 21/M
;
_chemical_formula_sum "Si O2"
_cell_formula_units_Z 20
_cell_length_a 7.731389
_cell_length_b 14.404452
_cell_length_c 7.167562
_cell_angle_alpha 90.000000
_cell_angle_beta 79.065097
_cell_angle_gamma 90.000000
_cell_volume 783.732618
_symmetry_space_group_name_H-M "P 21/M"
_symmetry_group_IT_number 11
_symmetry_cell_setting 'monoclinic'
loop_
_space_group_symop_operation_xyz
x,y,z
-x,1/2+y,-z
-x,-y,-z
x,1/2-y,z
loop_
_atom_site_type_symbol
_atom_site_label
_atom_site_fract_x
_atom_site_fract_y
_atom_site_fract_z
Si Si1 0.674405 0.115392 0.558998
Si Si2 0.237746 0.045834 0.939704
Si Si3 0.297118 0.098945 0.513476
Si Si4 0.025464 0.349414 0.261431
Si Si5 0.402696 0.854679 0.008826
O O1 0.488407 0.142903 0.506013
O O2 0.839603 0.141237 0.401147
O O3 0.683243 0.150115 0.767835
O O4 0.670187 0.003730 0.575345
O O5 0.923404 0.930563 0.891434
O O6 0.215132 0.082975 0.734944
O O7 0.399704 0.107031 0.994075
O O8 0.304130 0.939322 0.925811
O O9 0.167165 0.147662 0.399205
O O10 0.034979 0.250000 0.159597
O O11 0.401754 0.750000 0.930039
#
# Coordination Sequence:
#
# PCOD9164295 Si02
#       5
#     4   4   4   4   4
#     4  10  22  44  69 100 133 177 233 285 340 411
#     4  10  23  42  68  99 141 179 230 286 343 412
#     4  10  23  45  73  96 135 189 230 282 351 408
#     4  12  25  43  69 103 143 184 229 287 345 405
#     4  10  20  40  68  97 138 182 224 285 346 404
#
# _framework density 25.518905
#
# number of rings (size 3 to 8) (size 9 to 14) (size 15 to 20)
#    0.000    1.600    2.000    1.800    2.800    5.600 
#    0.000    2.000    0.000    0.000    0.000    0.000 
#    0.000    0.000    0.000    0.000    0.000    0.000 
#
# Total GULP energy -112166.172259 kJ/mol
# GULP energy per Si atom -5608.308613 kJ/mol
# Density = 2.546082 g / cm^3
# Si number density = 25.518905 Si / 1000 Ang^3
#
#
#
# Elastic Constant Matrix: (Units=GPa)
#
#
# Indices 1 2 3 4 5 6 
#
# 1 103.4258 14.7923 51.4079 0.0000 -20.5090 0.0000
# 2 14.7923 165.2869 25.1419 0.0000 -2.0887 0.0000
# 3 51.4079 25.1419 128.5026 0.0000 -15.9497 0.0000
# 4 0.0000 0.0000 0.0000 19.1494 0.0000 38.1799
# 5 -20.5090 -2.0887 -15.9497 0.0000 41.2087 0.0000
# 6 0.0000 0.0000 0.0000 38.1799 0.0000 69.3904
#
#
#
# Elastic Compliance Matrix: (Units=1/GPa)
#
#
# Indices 1 2 3 4 5 6 
#
# 1 0.012885 -0.000410 -0.004497 0.000000 0.004651 0.000000
# 2 -0.000410 0.006250 -0.001097 0.000000 -0.000312 0.000000
# 3 -0.004497 -0.001097 0.009991 0.000000 0.001573 0.000000
# 4 0.000000 0.000000 0.000000 -0.538223 0.000000 0.296141
# 5 0.004651 -0.000312 0.001573 0.000000 0.027175 0.000000
# 6 0.000000 0.000000 0.000000 0.296141 0.000000 -0.148531
#
#
# Mechanical properties :
#
#
# Convention : Reuss Voigt Hill
#
# Bulk Modulus (GPa) = 58.42404 64.43328 61.42866
# Shear Modulus (GPa) = -8.16009 46.34123 19.09057
#
# Velocity S-wave (km/s) = -1.79014 4.26603 2.73810
# Velocity P-wave (km/s) = 4.32103 7.04055 5.84126
#
# Compressibility (1/GPa) = 0.01711624
#
# Stress axis : x y z
#
# Youngs Moduli (GPa) = 77.60903 160.00543 100.09005
#
# Poissons Ratio (x) = 0.06565 0.45012
# Poissons Ratio (y) = 0.03184 0.10984
# Poissons Ratio (z) = 0.34902 0.17559
#
# Static dielectric constant tensor:
#      x y z
#    x 2.018240 0.000000 0.006630 
#    y 0.000000 1.940340 0.000000 
#    z 0.006630 0.000000 1.965590 
# 
# From -- ./inp_files/12917.got.cif
#   From: 2010.05.17/outbox.cif.g08.bks.cpg/sg11_7_cif.got.tgz:12917.got - 2010.06.03 12:22:45.
