data_PCOD9164964
_publ_section_title
;
Structure prediction by ZEFSAII (Michael W. Deem and Ramdas Pophale) SiO2 
 PCOD9164964
Probable space group: P 21/M
;
_chemical_formula_sum "Si O2"
_cell_formula_units_Z 32
_cell_length_a 18.764016
_cell_length_b 9.177056
_cell_length_c 25.869103
_cell_angle_alpha 90.000000
_cell_angle_beta 20.510981
_cell_angle_gamma 90.000000
_cell_volume 1560.840041
_symmetry_space_group_name_H-M "P 21/M"
_symmetry_group_IT_number 11
_symmetry_cell_setting 'monoclinic'
loop_
_space_group_symop_operation_xyz
x,y,z
-x,1/2+y,-z
-x,-y,-z
x,1/2-y,z
loop_
_atom_site_type_symbol
_atom_site_label
_atom_site_fract_x
_atom_site_fract_y
_atom_site_fract_z
Si Si1 0.694089 0.583615 0.848086
Si Si2 0.854960 0.081166 0.026826
Si Si3 0.673711 0.919639 0.473041
Si Si4 0.691082 0.582616 0.234098
Si Si5 0.065758 0.925766 0.143769
Si Si6 0.491012 0.084504 0.137421
Si Si7 0.822509 0.422503 0.586834
Si Si8 0.103780 0.081489 0.568702
O O1 0.710671 0.750000 0.855415
O O2 0.652576 0.588417 0.814940
O O3 0.888417 0.488636 0.728886
O O4 0.500000 0.500000 0.000000
O O5 0.787036 0.250000 0.070947
O O6 0.082857 0.078362 0.895353
O O7 0.879775 0.024475 0.951390
O O8 0.712055 0.996495 0.164236
O O9 0.633234 0.750000 0.487289
O O10 0.854964 0.977855 0.312658
O O11 0.761283 0.923579 0.471843
O O12 0.465158 0.007722 0.620069
O O13 0.630954 0.750000 0.267309
O O14 0.040543 0.750000 0.158425
O O15 0.273581 0.951377 0.034676
O O16 0.489813 0.250000 0.160432
O O17 0.390895 0.968618 0.243061
O O18 0.854981 0.250000 0.564849
O O19 0.821302 0.487125 0.530236
O O20 0.000000 0.500000 0.500000
O O21 0.081184 0.250000 0.568085
#
# Coordination Sequence:
#
# PCOD9164964 Si02
#       8
#     4   4   4   4   4   4   4   4
#     4  11  22  36  57  81 112 153 196 242 295 352
#     4   9  19  38  63  89 118 158 200 240 294 355
#     4  10  22  40  62  88 118 157 200 243 297 362
#     4  10  21  37  59  90 125 156 194 244 295 354
#     4   9  19  38  63  88 116 153 201 247 290 353
#     4  10  21  38  59  84 114 150 195 246 294 347
#     4  12  24  39  59  85 115 151 196 246 301 356
#     4  11  23  39  59  83 114 152 197 245 298 356
#
# _framework density 20.501781000000001
#
# number of rings (size 3 to 8) (size 9 to 14) (size 15 to 20)
#    0.000    1.750    1.250    3.000    1.750    4.500 
#    0.000    1.250    0.000    0.000    0.000    0.000 
#    0.000    0.000    0.000    0.000    0.000    0.000 
#
# Total GULP energy -178656.190760 kJ/mol
# GULP energy per Si atom -5583.005961 kJ/mol
# Density = 2.045512 g / cm^3
# Si number density = 20.501781 Si / 1000 Ang^3
#
#
#
# Elastic Constant Matrix: (Units=GPa)
#
#
# Indices 1 2 3 4 5 6 
#
# 1 28.3259 6.2853 -11.7064 0.0000 7.9826 0.0000
# 2 6.2853 101.9119 31.2644 0.0000 5.1311 0.0000
# 3 -11.7064 31.2644 94.3984 0.0000 8.0804 0.0000
# 4 0.0000 0.0000 0.0000 34.6050 0.0000 2.3531
# 5 7.9826 5.1311 8.0804 0.0000 22.6065 0.0000
# 6 0.0000 0.0000 0.0000 2.3531 0.0000 12.8287
#
#
#
# Elastic Compliance Matrix: (Units=1/GPa)
#
#
# Indices 1 2 3 4 5 6 
#
# 1 0.044899 -0.004504 0.008592 0.000000 -0.017903 0.000000
# 2 -0.004504 0.011407 -0.004385 0.000000 0.000569 0.000000
# 3 0.008592 -0.004385 0.013705 0.000000 -0.006937 0.000000
# 4 0.000000 0.000000 0.000000 0.029263 0.000000 -0.005367
# 5 -0.017903 0.000569 -0.006937 0.000000 0.052908 0.000000
# 6 0.000000 0.000000 0.000000 -0.005367 0.000000 0.078935
#
#
# Mechanical properties :
#
#
# Convention : Reuss Voigt Hill
#
# Bulk Modulus (GPa) = 14.40556 30.70254 22.55405
# Shear Modulus (GPa) = 19.61955 27.26091 23.44023
#
# Velocity S-wave (km/s) = 3.09685 3.65044 3.38498
# Velocity P-wave (km/s) = 4.45298 5.72500 5.12858
#
# Compressibility (1/GPa) = 0.06941764
#
# Stress axis : x y z
#
# Youngs Moduli (GPa) = 22.27223 87.66738 72.96584
#
# Poissons Ratio (x) = 0.39481 -0.62692
# Poissons Ratio (y) = 0.10030 0.31996
# Poissons Ratio (z) = -0.19136 0.38442
#
# Static dielectric constant tensor:
#      x y z
#    x 1.759000 0.000000 0.013940 
#    y 0.000000 1.701370 0.000000 
#    z 0.013940 0.000000 1.739040 
# 
# From -- ./inp_files/72006.got.cif
#   From: 2010.05.17/outbox.cif.g08.bks.cpg/sg11_37_cif.got.tgz:72006.got - 2010.06.03 12:22:45.
