data_PCOD9164041
_publ_section_title
;
Structure prediction by ZEFSAII (Michael W. Deem and Ramdas Pophale) SiO2 
 PCOD9164041
Probable space group: P 21/M
;
_chemical_formula_sum "Si O2"
_cell_formula_units_Z 32
_cell_length_a 12.004157
_cell_length_b 14.022542
_cell_length_c 18.425630
_cell_angle_alpha 90.000000
_cell_angle_beta 149.495580
_cell_angle_gamma 90.000000
_cell_volume 1574.368924
_symmetry_space_group_name_H-M "P 21/M"
_symmetry_group_IT_number 11
_symmetry_cell_setting 'monoclinic'
loop_
_space_group_symop_operation_xyz
x,y,z
-x,1/2+y,-z
-x,-y,-z
x,1/2-y,z
loop_
_atom_site_type_symbol
_atom_site_label
_atom_site_fract_x
_atom_site_fract_y
_atom_site_fract_z
Si Si1 0.028060 0.030594 0.223929
Si Si2 0.111914 0.462927 0.425506
Si Si3 0.731082 0.861332 0.096431
Si Si4 0.427977 0.635384 0.061957
Si Si5 0.217250 0.010380 0.171203
Si Si6 0.632566 0.360532 0.373835
Si Si7 0.467480 0.137083 0.715909
Si Si8 0.692549 0.359553 0.235771
O O1 0.161908 0.063227 0.369947
O O2 0.153386 0.025859 0.218698
O O3 0.935705 0.927092 0.194369
O O4 0.809088 0.093379 0.090024
O O5 0.196448 0.569629 0.489584
O O6 0.239846 0.397907 0.555109
O O7 0.859972 0.435632 0.297034
O O8 0.788109 0.750000 0.132230
O O9 0.603988 0.888422 0.098885
O O10 0.550229 0.875287 0.931812
O O11 0.411411 0.750000 0.053352
O O12 0.500243 0.603792 0.182870
O O13 0.389553 0.093728 0.246329
O O14 0.350753 0.913704 0.231258
O O15 0.000000 0.000000 0.000000
O O16 0.640298 0.250000 0.401425
O O17 0.690132 0.364469 0.320992
O O18 0.484663 0.250000 0.723970
O O19 0.753873 0.250000 0.248442
#
# Coordination Sequence:
#
# PCOD9164041 Si02
#       8
#     4   4   4   4   4   4   4   4
#     4  12  24  39  65  92 125 166 208 255 311 365
#     4  11  24  39  64  93 126 164 207 253 314 373
#     4  10  22  38  62  95 128 158 204 262 314 370
#     4  10  21  39  63  90 122 159 202 255 313 367
#     4  11  23  41  65  91 120 162 213 256 303 366
#     4  10  24  42  60  89 129 168 208 255 311 371
#     4  10  23  42  64  91 126 163 207 262 311 365
#     4  10  20  38  64  93 124 162 207 258 316 369
#
# _framework density 20.325604999999999
#
# number of rings (size 3 to 8) (size 9 to 14) (size 15 to 20)
#    0.000    1.500    2.500    1.875    1.750    5.500 
#    0.000    3.750    0.000    0.000    0.000    0.000 
#    0.000    0.000    0.000    0.000    0.000    0.000 
#
# Total GULP energy -178877.873065 kJ/mol
# GULP energy per Si atom -5589.933533 kJ/mol
# Density = 2.027934 g / cm^3
# Si number density = 20.325605 Si / 1000 Ang^3
#
#
#
# Elastic Constant Matrix: (Units=GPa)
#
#
# Indices 1 2 3 4 5 6 
#
# 1 93.8318 20.7927 5.8642 0.0000 -20.2124 0.0000
# 2 20.7927 83.0599 20.2953 0.0000 4.5188 0.0000
# 3 5.8642 20.2953 60.8863 0.0000 -23.0212 0.0000
# 4 0.0000 0.0000 0.0000 6.1625 0.0000 -5.7757
# 5 -20.2124 4.5188 -23.0212 0.0000 35.8701 0.0000
# 6 0.0000 0.0000 0.0000 -5.7757 0.0000 21.6018
#
#
#
# Elastic Compliance Matrix: (Units=1/GPa)
#
#
# Indices 1 2 3 4 5 6 
#
# 1 0.014061 -0.005344 0.004855 0.000000 0.011713 0.000000
# 2 -0.005344 0.016150 -0.008948 0.000000 -0.010788 0.000000
# 3 0.004855 -0.008948 0.026936 0.000000 0.021151 0.000000
# 4 0.000000 0.000000 0.000000 0.216532 0.000000 0.057895
# 5 0.011713 -0.010788 0.021151 0.000000 0.049412 0.000000
# 6 0.000000 0.000000 0.000000 0.057895 0.000000 0.061772
#
#
# Mechanical properties :
#
#
# Convention : Reuss Voigt Hill
#
# Bulk Modulus (GPa) = 26.12627 36.85359 31.48993
# Shear Modulus (GPa) = 12.00498 25.44861 18.72680
#
# Velocity S-wave (km/s) = 2.43293 3.54227 3.03865
# Velocity P-wave (km/s) = 4.55785 5.90772 5.27613
#
# Compressibility (1/GPa) = 0.03827564
#
# Stress axis : x y z
#
# Youngs Moduli (GPa) = 71.11836 61.91775 37.12500
#
# Poissons Ratio (x) = 0.33086 -0.18026
# Poissons Ratio (y) = 0.38003 0.33219
# Poissons Ratio (z) = -0.34531 0.55403
#
# Static dielectric constant tensor:
#      x y z
#    x 1.702160 0.000000 -0.013540 
#    y 0.000000 1.736210 0.000000 
#    z -0.013540 0.000000 1.758850 
# 
# From -- ./inp_files/59484.got.cif
#   From: 2010.05.17/outbox.cif.g08.bks.cpg/sg11_30_cif.got.tgz:59484.got - 2010.06.03 12:22:45.
