data_PCOD9164036
_publ_section_title
;
Structure prediction by ZEFSAII (Michael W. Deem and Ramdas Pophale) SiO2 
 PCOD9164036
Probable space group: P 21/M
;
_chemical_formula_sum "Si O2"
_cell_formula_units_Z 32
_cell_length_a 14.166292
_cell_length_b 16.914191
_cell_length_c 11.568530
_cell_angle_alpha 90.000000
_cell_angle_beta 33.249756
_cell_angle_gamma 90.000000
_cell_volume 1519.832262
_symmetry_space_group_name_H-M "P 21/M"
_symmetry_group_IT_number 11
_symmetry_cell_setting 'monoclinic'
loop_
_space_group_symop_operation_xyz
x,y,z
-x,1/2+y,-z
-x,-y,-z
x,1/2-y,z
loop_
_atom_site_type_symbol
_atom_site_label
_atom_site_fract_x
_atom_site_fract_y
_atom_site_fract_z
Si Si1 0.816765 0.044337 0.535532
Si Si2 0.582338 0.955326 0.106437
Si Si3 0.921325 0.630038 0.389436
Si Si4 0.740169 0.389096 0.864267
Si Si5 0.616985 0.665589 0.869142
Si Si6 0.847280 0.409461 0.256665
Si Si7 0.822010 0.902039 0.236471
Si Si8 0.526090 0.843179 0.381612
O O1 0.617103 0.023022 0.713208
O O2 0.815756 0.083807 0.661723
O O3 0.870642 0.098124 0.371529
O O4 0.922110 0.963838 0.420040
O O5 0.586564 0.900249 0.214351
O O6 0.638837 0.904085 0.938386
O O7 0.689417 0.035408 0.994950
O O8 0.774686 0.664613 0.620406
O O9 0.869239 0.636319 0.310235
O O10 0.111690 0.658572 0.223589
O O11 0.561400 0.347200 0.015992
O O12 0.607505 0.750000 0.940854
O O13 0.812616 0.502869 0.266215
O O14 0.676307 0.362504 0.394997
O O15 0.020506 0.387027 0.012769
O O16 0.644821 0.869001 0.367047
O O17 0.547739 0.750000 0.335176
#
# Coordination Sequence:
#
# PCOD9164036 Si02
#       8
#     4   4   4   4   4   4   4   4
#     4   9  17  36  59  92 118 148 194 253 300 347
#     4  10  20  38  64  91 118 154 205 249 301 367
#     4  11  22  36  60  90 117 154 207 246 296 354
#     4  11  21  36  65  91 118 158 204 249 297 365
#     4  11  23  40  58  87 128 159 192 250 312 364
#     4   9  21  39  63  89 120 156 208 256 300 349
#     4  10  23  40  61  89 119 160 211 257 291 354
#     4  11  24  40  62  91 124 159 196 251 317 368
#
# _framework density 21.054956000000001
#
# number of rings (size 3 to 8) (size 9 to 14) (size 15 to 20)
#    0.000    1.750    2.500    1.875    5.250    2.500 
#    0.000    0.000    0.000    3.000    0.000    0.000 
#    0.000    0.000    0.000    0.000    0.000    0.000 
#
# Total GULP energy -178836.964507 kJ/mol
# GULP energy per Si atom -5588.655141 kJ/mol
# Density = 2.100703 g / cm^3
# Si number density = 21.054956 Si / 1000 Ang^3
#
#
#
# Elastic Constant Matrix: (Units=GPa)
#
#
# Indices 1 2 3 4 5 6 
#
# 1 92.4959 6.3250 12.5704 0.0000 -17.5207 0.0000
# 2 6.3250 52.5214 7.0051 0.0000 -7.9637 0.0000
# 3 12.5704 7.0051 66.1992 0.0000 0.7393 0.0000
# 4 0.0000 0.0000 0.0000 -10.1584 0.0000 6.7413
# 5 -17.5207 -7.9637 0.7393 0.0000 19.2247 0.0000
# 6 0.0000 0.0000 0.0000 6.7413 0.0000 -0.3087
#
#
#
# Elastic Compliance Matrix: (Units=1/GPa)
#
#
# Indices 1 2 3 4 5 6 
#
# 1 0.013558 0.000671 -0.002788 0.000000 0.012741 0.000000
# 2 0.000671 0.020688 -0.002420 0.000000 0.009275 0.000000
# 3 -0.002788 -0.002420 0.015938 0.000000 -0.004156 0.000000
# 4 0.000000 0.000000 0.000000 0.007297 0.000000 0.159336
# 5 0.012741 0.009275 -0.004156 0.000000 0.067630 0.000000
# 6 0.000000 0.000000 0.000000 0.159336 0.000000 0.240102
#
#
# Mechanical properties :
#
#
# Convention : Reuss Voigt Hill
#
# Bulk Modulus (GPa) = 24.32507 29.22419 26.77463
# Shear Modulus (GPa) = 12.88694 14.10591 13.49643
#
# Velocity S-wave (km/s) = 2.47667 2.59116 2.53456
# Velocity P-wave (km/s) = 4.44486 4.78145 4.61622
#
# Compressibility (1/GPa) = 0.04110985
#
# Stress axis : x y z
#
# Youngs Moduli (GPa) = 73.75863 48.33692 62.74399
#
# Poissons Ratio (x) = -0.03244 0.17491
# Poissons Ratio (y) = -0.04949 0.15185
# Poissons Ratio (z) = 0.20562 0.11698
#
# Static dielectric constant tensor:
#      x y z
#    x 1.744670 0.000000 0.005210 
#    y 0.000000 1.812410 0.000000 
#    z 0.005210 0.000000 1.741730 
# 
# From -- ./inp_files/39955.got.cif
#   From: 2010.05.17/outbox.cif.g08.bks.cpg/sg11_20_cif.got.tgz:39955.got - 2010.06.03 12:22:45.
