data_PCOD9164404
_publ_section_title
;
Structure prediction by ZEFSAII (Michael W. Deem and Ramdas Pophale) SiO2 
 PCOD9164404
Probable space group: P 21/M
;
_chemical_formula_sum "Si O2"
_cell_formula_units_Z 32
_cell_length_a 22.409704
_cell_length_b 13.367169
_cell_length_c 9.750585
_cell_angle_alpha 90.000000
_cell_angle_beta 147.124696
_cell_angle_gamma 90.000000
_cell_volume 1585.462859
_symmetry_space_group_name_H-M "P 21/M"
_symmetry_group_IT_number 11
_symmetry_cell_setting 'monoclinic'
loop_
_space_group_symop_operation_xyz
x,y,z
-x,1/2+y,-z
-x,-y,-z
x,1/2-y,z
loop_
_atom_site_type_symbol
_atom_site_label
_atom_site_fract_x
_atom_site_fract_y
_atom_site_fract_z
Si Si1 0.671107 0.864496 0.449397
Si Si2 0.726298 0.866086 0.240534
Si Si3 0.866037 0.997252 0.838646
Si Si4 0.328848 0.988611 0.107627
Si Si5 0.930600 0.132670 0.737483
Si Si6 0.983558 0.866255 0.683638
Si Si7 0.891965 0.131809 0.341079
Si Si8 0.461067 0.133993 0.555865
O O1 0.710201 0.750000 0.550228
O O2 0.676229 0.877615 0.295753
O O3 0.559608 0.874660 0.320258
O O4 0.754921 0.946146 0.669082
O O5 0.709120 0.750000 0.165991
O O6 0.858382 0.882856 0.488171
O O7 0.675617 0.943013 0.036491
O O8 0.849917 0.064244 0.671718
O O9 0.928989 0.067088 0.067198
O O10 0.951029 0.905443 0.980384
O O11 0.373825 0.062124 0.311987
O O12 0.419557 0.903105 0.258602
O O13 0.210475 0.937239 0.898950
O O14 0.915473 0.250000 0.732334
O O15 0.921147 0.113710 0.556687
O O16 0.007764 0.750000 0.758390
O O17 0.005891 0.883694 0.565083
O O18 0.862062 0.250000 0.272813
O O19 0.444036 0.250000 0.485698
#
# Coordination Sequence:
#
# PCOD9164404 Si02
#       8
#     4   4   4   4   4   4   4   4
#     4  10  21  37  56  81 112 144 182 227 271 316
#     4  10  21  37  56  80 111 145 181 223 269 320
#     4  11  19  32  54  76 107 147 186 222 265 319
#     4  11  21  38  62  82 106 141 182 226 275 329
#     4  10  21  34  50  77 110 145 184 224 268 320
#     4  10  21  35  53  81 115 149 184 221 265 320
#     4  10  21  36  54  80 114 147 180 222 271 323
#     4  10  23  40  59  84 109 137 179 230 280 326
#
# _framework density 20.18338
#
# number of rings (size 3 to 8) (size 9 to 14) (size 15 to 20)
#    0.000    1.750    0.000    5.250    0.000    4.500 
#    0.000    2.500    0.000    2.250    0.000    0.000 
#    0.000    0.000    0.000    0.000    0.000    0.000 
#
# Total GULP energy -178677.484914 kJ/mol
# GULP energy per Si atom -5583.671404 kJ/mol
# Density = 2.013744 g / cm^3
# Si number density = 20.183380 Si / 1000 Ang^3
#
#
#
# Elastic Constant Matrix: (Units=GPa)
#
#
# Indices 1 2 3 4 5 6 
#
# 1 112.8078 34.8881 21.8904 0.0000 -15.5070 0.0000
# 2 34.8881 83.4643 9.7402 0.0000 -10.1687 0.0000
# 3 21.8904 9.7402 36.0610 0.0000 -14.6850 0.0000
# 4 0.0000 0.0000 0.0000 21.2475 0.0000 -9.8002
# 5 -15.5070 -10.1687 -14.6850 0.0000 20.1197 0.0000
# 6 0.0000 0.0000 0.0000 -9.8002 0.0000 21.8707
#
#
#
# Elastic Compliance Matrix: (Units=1/GPa)
#
#
# Indices 1 2 3 4 5 6 
#
# 1 0.011398 -0.003806 -0.004407 0.000000 0.003645 0.000000
# 2 -0.003806 0.014073 0.000300 0.000000 0.004398 0.000000
# 3 -0.004407 0.000300 0.041270 0.000000 0.026878 0.000000
# 4 0.000000 0.000000 0.000000 0.059326 0.000000 0.026584
# 5 0.003645 0.004398 0.026878 0.000000 0.074352 0.000000
# 6 0.000000 0.000000 0.000000 0.026584 0.000000 0.057635
#
#
# Mechanical properties :
#
#
# Convention : Reuss Voigt Hill
#
# Bulk Modulus (GPa) = 19.64012 40.59672 30.11842
# Shear Modulus (GPa) = 17.19096 23.70187 20.44642
#
# Velocity S-wave (km/s) = 2.92162 3.43056 3.18627
# Velocity P-wave (km/s) = 4.59708 5.98743 5.33772
#
# Compressibility (1/GPa) = 0.05091619
#
# Stress axis : x y z
#
# Youngs Moduli (GPa) = 87.73567 71.05859 24.23069
#
# Poissons Ratio (x) = 0.27045 0.10678
# Poissons Ratio (y) = 0.33392 -0.00728
# Poissons Ratio (z) = 0.38662 -0.02135
#
# Static dielectric constant tensor:
#      x y z
#    x 1.736150 0.000000 -0.033310 
#    y 0.000000 1.725340 0.000000 
#    z -0.033310 0.000000 1.691570 
# 
# From -- ./inp_files/26868.got.cif
#   From: 2010.05.17/outbox.cif.g08.bks.cpg/sg11_14_cif.got.tgz:26868.got - 2010.06.03 12:22:45.
