data_PCOD9164433
_publ_section_title
;
Structure prediction by ZEFSAII (Michael W. Deem and Ramdas Pophale) SiO2 
 PCOD9164433
Probable space group: P 21/M
;
_chemical_formula_sum "Si O2"
_cell_formula_units_Z 32
_cell_length_a 30.192368
_cell_length_b 8.330894
_cell_length_c 20.521264
_cell_angle_alpha 90.000000
_cell_angle_beta 23.319792
_cell_angle_gamma 90.000000
_cell_volume 2043.325345
_symmetry_space_group_name_H-M "P 21/M"
_symmetry_group_IT_number 11
_symmetry_cell_setting 'monoclinic'
loop_
_space_group_symop_operation_xyz
x,y,z
-x,1/2+y,-z
-x,-y,-z
x,1/2-y,z
loop_
_atom_site_type_symbol
_atom_site_label
_atom_site_fract_x
_atom_site_fract_y
_atom_site_fract_z
Si Si1 0.763713 0.056876 0.902444
Si Si2 0.922798 0.055089 0.901411
Si Si3 0.331191 0.062093 0.762988
Si Si4 0.010157 0.945403 0.327452
Si Si5 0.335175 0.559648 0.614957
Si Si6 0.920317 0.442830 0.050434
Si Si7 0.112920 0.442360 0.383499
Si Si8 0.447815 0.561790 0.732379
O O1 0.763236 0.250000 0.907735
O O2 0.870662 0.001914 0.801693
O O3 0.788335 0.009494 0.794719
O O4 0.646589 0.998119 0.090238
O O5 0.913919 0.250000 0.912903
O O6 0.994539 0.005604 0.741548
O O7 0.958713 0.006459 0.925697
O O8 0.799259 0.984746 0.057787
O O9 0.348465 0.250000 0.752059
O O10 0.366273 0.019941 0.642079
O O11 0.393698 0.964033 0.734253
O O12 0.011874 0.750000 0.326465
O O13 0.909933 0.995310 0.511164
O O14 0.330823 0.750000 0.631931
O O15 0.209559 0.504795 0.766491
O O16 0.431350 0.520237 0.433441
O O17 0.920353 0.250000 0.051379
O O18 0.000000 0.500000 0.000000
O O19 0.118289 0.250000 0.374546
O O20 0.000000 0.500000 0.500000
O O21 0.463920 0.750000 0.722607
#
# Coordination Sequence:
#
# PCOD9164433 Si02
#       8
#     4   4   4   4   4   4   4   4
#     4   9  17  28  41  57  82 119 150 178 215 251
#     4   9  16  30  47  64  86 117 150 181 219 260
#     4  11  20  29  42  63  88 116 148 183 218 254
#     4   8  13  25  42  58  81 113 147 180 212 249
#     4  10  21  35  47  63  84 112 146 180 220 261
#     4   9  19  33  51  67  86 112 139 177 222 267
#     4   9  16  25  38  57  81 113 149 184 215 249
#     4  11  20  31  45  61  86 119 151 184 216 254
#
# _framework density 15.660746
#
# number of rings (size 3 to 8) (size 9 to 14) (size 15 to 20)
#    0.000    2.500    1.250    4.125    0.000    3.500 
#    0.000    0.625    0.000    0.000    0.000    0.000 
#    0.000    1.000    0.000    2.250    0.000    3.500 
#
# Total GULP energy -178235.391488 kJ/mol
# GULP energy per Si atom -5569.855984 kJ/mol
# Density = 1.562510 g / cm^3
# Si number density = 15.660746 Si / 1000 Ang^3
#
#
#
# Elastic Constant Matrix: (Units=GPa)
#
#
# Indices 1 2 3 4 5 6 
#
# 1 83.0669 1.0876 58.7071 0.0000 19.2151 0.0000
# 2 1.0876 9.0950 2.7667 0.0000 2.9743 0.0000
# 3 58.7071 2.7667 104.3484 0.0000 32.1381 0.0000
# 4 0.0000 0.0000 0.0000 21.5193 0.0000 2.5396
# 5 19.2151 2.9743 32.1381 0.0000 23.1520 0.0000
# 6 0.0000 0.0000 0.0000 2.5396 0.0000 17.9319
#
#
#
# Elastic Compliance Matrix: (Units=1/GPa)
#
#
# Indices 1 2 3 4 5 6 
#
# 1 0.020043 0.001502 -0.010714 0.000000 -0.001955 0.000000
# 2 0.001502 0.115296 0.001823 0.000000 -0.018589 0.000000
# 3 -0.010714 0.001823 0.022527 0.000000 -0.022613 0.000000
# 4 0.000000 0.000000 0.000000 0.047260 0.000000 -0.006693
# 5 -0.001955 -0.018589 -0.022613 0.000000 0.078594 0.000000
# 6 0.000000 0.000000 0.000000 -0.006693 0.000000 0.056715
#
#
# Mechanical properties :
#
#
# Convention : Reuss Voigt Hill
#
# Bulk Modulus (GPa) = 6.98867 35.73700 21.36283
# Shear Modulus (GPa) = 12.40977 21.45056 16.93017
#
# Velocity S-wave (km/s) = 2.81804 3.70496 3.29151
# Velocity P-wave (km/s) = 3.88081 6.41649 5.30245
#
# Compressibility (1/GPa) = 0.14308876
#
# Stress axis : x y z
#
# Youngs Moduli (GPa) = 49.89219 8.67333 44.39068
#
# Poissons Ratio (x) = -0.01303 0.47560
# Poissons Ratio (y) = -0.07493 -0.08094
# Poissons Ratio (z) = 0.53455 -0.01582
#
# Static dielectric constant tensor:
#      x y z
#    x 1.516980 0.000000 0.044360 
#    y 0.000000 1.515930 0.000000 
#    z 0.044360 0.000000 1.559010 
# 
# From -- ./inp_files/56010.got.cif
#   From: 2010.05.17/outbox.cif.g08.bks.cpg/sg11_29_cif.got.tgz:56010.got - 2010.06.03 12:22:45.
