data_PCOD9164293
_publ_section_title
;
Structure prediction by ZEFSAII (Michael W. Deem and Ramdas Pophale) SiO2 
 PCOD9164293
Probable space group: P 21/M
;
_chemical_formula_sum "Si O2"
_cell_formula_units_Z 26
_cell_length_a 7.526757
_cell_length_b 15.447183
_cell_length_c 14.592281
_cell_angle_alpha 90.000000
_cell_angle_beta 42.606967
_cell_angle_gamma 90.000000
_cell_volume 1148.542022
_symmetry_space_group_name_H-M "P 21/M"
_symmetry_group_IT_number 11
_symmetry_cell_setting 'monoclinic'
loop_
_space_group_symop_operation_xyz
x,y,z
-x,1/2+y,-z
-x,-y,-z
x,1/2-y,z
loop_
_atom_site_type_symbol
_atom_site_label
_atom_site_fract_x
_atom_site_fract_y
_atom_site_fract_z
Si Si1 0.554751 0.050996 0.576187
Si Si2 0.547395 0.250000 0.540489
Si Si3 0.894187 0.750000 0.590110
Si Si4 0.759339 0.081548 0.828878
Si Si5 0.905650 0.015914 0.138519
Si Si6 0.153451 0.073205 0.325715
Si Si7 0.797736 0.649472 0.892546
Si Si8 0.035943 0.250000 0.640529
O O1 0.482232 0.153544 0.604102
O O2 0.866183 0.048202 0.472087
O O3 0.500000 0.000000 0.500000
O O4 0.387280 0.005629 0.718769
O O5 0.862371 0.250000 0.429649
O O6 0.354220 0.250000 0.526126
O O7 0.747118 0.657341 0.655438
O O8 0.034914 0.750000 0.438633
O O9 0.916155 0.165455 0.734421
O O10 0.722076 0.016457 0.757070
O O11 0.475521 0.107011 0.973496
O O12 0.920899 0.037758 0.851710
O O13 0.971844 0.115769 0.130719
O O14 0.000000 0.000000 0.000000
O O15 0.126722 0.117825 0.236192
O O16 0.761440 0.750000 0.909186
#
# Coordination Sequence:
#
# PCOD9164293 Si02
#       8
#     4   2   2   4   4   4   4   2
#     4  11  19  39  69  95 130 181 223 280 360 404
#     4  10  22  40  64  98 140 176 226 292 348 412
#     4  10  24  37  69 102 130 182 245 286 360 426
#     4  11  23  43  67  91 139 185 228 287 363 413
#     4  11  24  42  67 103 133 176 231 283 347 425
#     4  10  20  40  68  93 131 179 226 296 343 417
#     4  11  22  42  69  92 135 186 228 286 357 418
#     4  12  22  43  65 102 136 182 239 286 352 434
#
# _framework density 22.637395000000001
#
# number of rings (size 3 to 8) (size 9 to 14) (size 15 to 20)
#    0.000    1.231    6.154    1.846    0.000    3.077 
#    2.769    4.615    0.000    0.000    0.000    0.000 
#    0.000    0.000    0.000    0.000    0.000    0.000 
#
# Total GULP energy -144980.858137 kJ/mol
# GULP energy per Si atom -5576.186851 kJ/mol
# Density = 2.258587 g / cm^3
# Si number density = 22.637395 Si / 1000 Ang^3
#
#
#
# Elastic Constant Matrix: (Units=GPa)
#
#
# Indices 1 2 3 4 5 6 
#
# 1 58.6574 44.3165 44.6973 0.0000 1.2719 0.0000
# 2 44.3165 119.2204 34.0839 0.0000 4.4927 0.0000
# 3 44.6973 34.0839 153.0701 0.0000 8.4470 0.0000
# 4 0.0000 0.0000 0.0000 43.8437 0.0000 -7.1096
# 5 1.2719 4.4927 8.4470 0.0000 24.2032 0.0000
# 6 0.0000 0.0000 0.0000 -7.1096 0.0000 24.7079
#
#
#
# Elastic Compliance Matrix: (Units=1/GPa)
#
#
# Indices 1 2 3 4 5 6 
#
# 1 0.028687 -0.008888 -0.006532 0.000000 0.002422 0.000000
# 2 -0.008888 0.011735 0.000078 0.000000 -0.001739 0.000000
# 3 -0.006532 0.000078 0.008570 0.000000 -0.002662 0.000000
# 4 0.000000 0.000000 0.000000 0.023925 0.000000 0.006884
# 5 0.002422 -0.001739 -0.002662 0.000000 0.042441 0.000000
# 6 0.000000 0.000000 0.000000 0.006884 0.000000 0.042454
#
#
# Mechanical properties :
#
#
# Convention : Reuss Voigt Hill
#
# Bulk Modulus (GPa) = 54.61516 64.12703 59.37110
# Shear Modulus (GPa) = 25.69414 32.40763 29.05089
#
# Velocity S-wave (km/s) = 3.37268 3.78775 3.58622
# Velocity P-wave (km/s) = 6.27256 6.89339 6.59029
#
# Compressibility (1/GPa) = 0.01830993
#
# Stress axis : x y z
#
# Youngs Moduli (GPa) = 34.85844 85.21749 116.69030
#
# Poissons Ratio (x) = 0.75738 0.76217
# Poissons Ratio (y) = 0.30981 -0.00913
# Poissons Ratio (z) = 0.22768 -0.00667
#
# Static dielectric constant tensor:
#      x y z
#    x 2.015610 0.000000 -0.130530 
#    y 0.000000 1.878010 0.000000 
#    z -0.130530 0.000000 1.897280 
# 
# From -- ./inp_files/47765.got.cif
#   From: 2010.05.17/outbox.cif.g08.bks.cpg/sg11_24_cif.got.tgz:47765.got - 2010.06.03 12:22:45.
