data_PCOD9164034
_publ_section_title
;
Structure prediction by ZEFSAII (Michael W. Deem and Ramdas Pophale) SiO2 
 PCOD9164034
Probable space group: P 21/M
;
_chemical_formula_sum "Si O2"
_cell_formula_units_Z 32
_cell_length_a 12.106409
_cell_length_b 17.476739
_cell_length_c 10.844127
_cell_angle_alpha 90.000000
_cell_angle_beta 142.806630
_cell_angle_gamma 90.000000
_cell_volume 1386.984567
_symmetry_space_group_name_H-M "P 21/M"
_symmetry_group_IT_number 11
_symmetry_cell_setting 'monoclinic'
loop_
_space_group_symop_operation_xyz
x,y,z
-x,1/2+y,-z
-x,-y,-z
x,1/2-y,z
loop_
_atom_site_type_symbol
_atom_site_label
_atom_site_fract_x
_atom_site_fract_y
_atom_site_fract_z
Si Si1 0.596405 0.335973 0.603383
Si Si2 0.952893 0.411415 0.974302
Si Si3 0.387424 0.452704 0.741584
Si Si4 0.891115 0.166252 0.431217
Si Si5 0.784415 0.660516 0.598285
Si Si6 0.217179 0.966326 0.826576
Si Si7 0.875911 0.886505 0.130466
Si Si8 0.448184 0.877115 0.716554
O O1 0.655752 0.250000 0.690586
O O2 0.391783 0.347191 0.468480
O O3 0.595727 0.344578 0.455942
O O4 0.737422 0.396320 0.784260
O O5 0.048029 0.375240 0.177840
O O6 0.031588 0.371733 0.919144
O O7 0.000000 0.500000 0.000000
O O8 0.277780 0.387727 0.574901
O O9 0.292312 0.477579 0.784790
O O10 0.401616 0.532098 0.677632
O O11 0.597573 0.430269 0.954136
O O12 0.922956 0.250000 0.406967
O O13 0.903307 0.098115 0.344233
O O14 0.684781 0.159302 0.300826
O O15 0.019211 0.153150 0.663882
O O16 0.812024 0.750000 0.597831
O O17 0.117881 0.022464 0.832885
O O18 0.661645 0.866447 0.934836
#
# Coordination Sequence:
#
# PCOD9164034 Si02
#       8
#     4   4   4   4   4   4   4   4
#     4  11  23  40  61  93 134 170 207 262 325 384
#     4  12  26  40  67  99 130 173 222 268 312 392
#     4   9  20  41  68  93 122 165 217 263 317 378
#     4  11  23  39  63  95 127 167 215 269 330 381
#     4  11  25  43  67  96 135 176 208 265 338 394
#     4   9  21  42  67  91 126 169 217 271 315 376
#     4  11  23  41  65  96 127 170 216 263 323 380
#     4  10  20  38  64  90 123 167 210 266 310 382
#
# _framework density 23.071635000000001
#
# number of rings (size 3 to 8) (size 9 to 14) (size 15 to 20)
#    0.000    1.500    2.500    2.625    5.250    3.000 
#    0.000    0.625    0.000    0.000    0.000    0.000 
#    0.000    0.000    0.000    0.000    0.000    0.000 
#
# Total GULP energy -179279.197714 kJ/mol
# GULP energy per Si atom -5602.474929 kJ/mol
# Density = 2.301912 g / cm^3
# Si number density = 23.071635 Si / 1000 Ang^3
#
#
#
# Elastic Constant Matrix: (Units=GPa)
#
#
# Indices 1 2 3 4 5 6 
#
# 1 67.7937 -13.7289 3.7815 0.0000 -3.0048 0.0000
# 2 -13.7289 49.2946 32.3423 0.0000 0.7327 0.0000
# 3 3.7815 32.3423 105.7494 0.0000 -6.1181 0.0000
# 4 0.0000 0.0000 0.0000 -44.1700 0.0000 96.8489
# 5 -3.0048 0.7327 -6.1181 0.0000 32.8889 0.0000
# 6 0.0000 0.0000 0.0000 96.8489 0.0000 -114.4272
#
#
#
# Elastic Compliance Matrix: (Units=1/GPa)
#
#
# Indices 1 2 3 4 5 6 
#
# 1 0.016146 0.006040 -0.002373 0.000000 0.000899 0.000000
# 2 0.006040 0.027773 -0.008809 0.000000 -0.001706 0.000000
# 3 -0.002373 -0.008809 0.012367 0.000000 0.002280 0.000000
# 4 0.000000 0.000000 0.000000 0.026454 0.000000 0.022390
# 5 0.000899 -0.001706 0.002280 0.000000 0.030950 0.000000
# 6 0.000000 0.000000 0.000000 0.022390 0.000000 0.010212
#
#
# Mechanical properties :
#
#
# Convention : Reuss Voigt Hill
#
# Bulk Modulus (GPa) = 21.73735 29.73636 25.73686
# Shear Modulus (GPa) = 33.44050 -11.77879 10.83085
#
# Velocity S-wave (km/s) = 3.81126 -2.26194 2.16902
# Velocity P-wave (km/s) = 5.36747 2.46877 4.17759
#
# Compressibility (1/GPa) = 0.04600377
#
# Stress axis : x y z
#
# Youngs Moduli (GPa) = 61.93474 36.00589 80.85938
#
# Poissons Ratio (x) = -0.21748 0.19185
# Poissons Ratio (y) = -0.37409 0.71227
# Poissons Ratio (z) = 0.14695 0.31717
#
# Static dielectric constant tensor:
#      x y z
#    x 1.878930 0.000000 -0.000550 
#    y 0.000000 1.853230 0.000000 
#    z -0.000550 0.000000 1.824710 
# 
# From -- ./inp_files/40040.got.cif
#   From: 2010.05.17/outbox.cif.g08.bks.cpg/sg11_21_cif.got.tgz:40040.got - 2010.06.03 12:22:45.
