data_PCOD9164078
_publ_section_title
;
Structure prediction by ZEFSAII (Michael W. Deem and Ramdas Pophale) SiO2 
 PCOD9164078
Probable space group: P 21/M
;
_chemical_formula_sum "Si O2"
_cell_formula_units_Z 20
_cell_length_a 8.981412
_cell_length_b 11.104763
_cell_length_c 16.827776
_cell_angle_alpha 90.000000
_cell_angle_beta 31.303404
_cell_angle_gamma 90.000000
_cell_volume 872.016290
_symmetry_space_group_name_H-M "P 21/M"
_symmetry_group_IT_number 11
_symmetry_cell_setting 'monoclinic'
loop_
_space_group_symop_operation_xyz
x,y,z
-x,1/2+y,-z
-x,-y,-z
x,1/2-y,z
loop_
_atom_site_type_symbol
_atom_site_label
_atom_site_fract_x
_atom_site_fract_y
_atom_site_fract_z
Si Si1 0.692746 0.627078 0.499406
Si Si2 0.296766 0.395320 0.133379
Si Si3 0.786123 0.960302 0.289595
Si Si4 0.225159 0.970004 0.326216
Si Si5 0.159486 0.119207 0.900286
O O1 0.577432 0.750000 0.585801
O O2 0.492728 0.522309 0.621026
O O3 0.674921 0.617961 0.413030
O O4 0.025126 0.616387 0.365399
O O5 0.349651 0.250000 0.096104
O O6 0.291846 0.423919 0.231107
O O7 0.992810 0.436771 0.232176
O O8 0.500000 0.500000 0.000000
O O9 0.907580 0.882551 0.163267
O O10 0.510429 0.904390 0.225368
O O11 0.000000 0.000000 0.500000
O O12 0.072908 0.250000 0.972544
O O13 0.000000 0.000000 0.000000
#
# Coordination Sequence:
#
# PCOD9164078 Si02
#       5
#     4   4   4   4   4
#     4  10  20  38  66  96 129 171 218 279 347 412
#     4  11  26  46  72 102 143 192 243 294 358 437
#     4  10  22  41  64  96 133 174 230 281 343 413
#     4  11  24  46  70 107 140 183 235 302 362 424
#     4  12  27  46  69 102 144 190 237 293 358 432
#
# _framework density 22.935351000000001
#
# number of rings (size 3 to 8) (size 9 to 14) (size 15 to 20)
#    0.000    1.200    2.000    3.000    0.000   12.000 
#    0.000    0.000    0.000    0.000    0.000    0.000 
#    0.000    0.000    0.000    0.000    0.000    0.000 
#
# Total GULP energy -111357.961610 kJ/mol
# GULP energy per Si atom -5567.898081 kJ/mol
# Density = 2.288315 g / cm^3
# Si number density = 22.935351 Si / 1000 Ang^3
#
#
#
# Elastic Constant Matrix: (Units=GPa)
#
#
# Indices 1 2 3 4 5 6 
#
# 1 65.3823 30.5551 11.0315 0.0000 -3.7594 0.0000
# 2 30.5551 187.3907 51.1392 0.0000 0.7789 0.0000
# 3 11.0315 51.1392 81.8844 0.0000 1.5398 0.0000
# 4 0.0000 0.0000 0.0000 9.7524 0.0000 0.8563
# 5 -3.7594 0.7789 1.5398 0.0000 36.0856 0.0000
# 6 0.0000 0.0000 0.0000 0.8563 0.0000 7.2471
#
#
#
# Elastic Compliance Matrix: (Units=1/GPa)
#
#
# Indices 1 2 3 4 5 6 
#
# 1 0.016705 -0.002541 -0.000698 0.000000 0.001825 0.000000
# 2 -0.002541 0.006819 -0.003912 0.000000 -0.000245 0.000000
# 3 -0.000698 -0.003912 0.014761 0.000000 -0.000618 0.000000
# 4 0.000000 0.000000 0.000000 0.103614 0.000000 -0.012242
# 5 0.001825 -0.000245 -0.000618 0.000000 0.027934 0.000000
# 6 0.000000 0.000000 0.000000 -0.012242 0.000000 0.139433
#
#
# Mechanical properties :
#
#
# Convention : Reuss Voigt Hill
#
# Bulk Modulus (GPa) = 41.69502 57.78988 49.74245
# Shear Modulus (GPa) = 15.08014 26.74579 20.91297
#
# Velocity S-wave (km/s) = 2.56697 3.41858 3.02292
# Velocity P-wave (km/s) = 5.19660 6.39013 5.82402
#
# Compressibility (1/GPa) = 0.02398368
#
# Stress axis : x y z
#
# Youngs Moduli (GPa) = 59.86299 146.64139 67.74552
#
# Poissons Ratio (x) = 0.37261 0.04728
# Poissons Ratio (y) = 0.15211 0.26502
# Poissons Ratio (z) = 0.04178 0.57366
#
# Static dielectric constant tensor:
#      x y z
#    x 1.979750 0.000000 0.056890 
#    y 0.000000 5.501780 0.000000 
#    z 0.056890 0.000000 1.967710 
# 
# From -- ./inp_files/57850.got.cif
#   From: 2010.05.17/outbox.cif.g08.bks.cpg/sg11_29_cif.got.tgz:57850.got - 2010.06.03 12:22:45.
