data_PCOD9164736
_publ_section_title
;
Structure prediction by ZEFSAII (Michael W. Deem and Ramdas Pophale) SiO2 
 PCOD9164736
Probable space group: P 21/M
;
_chemical_formula_sum "Si O2"
_cell_formula_units_Z 28
_cell_length_a 9.243633
_cell_length_b 32.152830
_cell_length_c 5.932087
_cell_angle_alpha 90.000000
_cell_angle_beta 130.550649
_cell_angle_gamma 90.000000
_cell_volume 1339.635784
_symmetry_space_group_name_H-M "P 21/M"
_symmetry_group_IT_number 11
_symmetry_cell_setting 'monoclinic'
loop_
_space_group_symop_operation_xyz
x,y,z
-x,1/2+y,-z
-x,-y,-z
x,1/2-y,z
loop_
_atom_site_type_symbol
_atom_site_label
_atom_site_fract_x
_atom_site_fract_y
_atom_site_fract_z
Si Si1 0.223986 0.250000 0.769760
Si Si2 0.671544 0.328647 0.606088
Si Si3 0.557677 0.750000 0.498372
Si Si4 0.608588 0.619053 0.937981
Si Si5 0.710510 0.391181 0.034883
Si Si6 0.002019 0.334495 0.616338
Si Si7 0.508468 0.533575 0.703605
Si Si8 0.798502 0.478965 0.268648
O O1 0.338832 0.250000 0.643958
O O2 0.096874 0.291876 0.627252
O O3 0.327575 0.250000 0.133470
O O4 0.579574 0.289995 0.638420
O O5 0.513997 0.341385 0.262991
O O6 0.876716 0.321305 0.705331
O O7 0.690001 0.368928 0.778714
O O8 0.496086 0.605609 0.051354
O O9 0.584546 0.580008 0.745443
O O10 0.824091 0.633675 0.170624
O O11 0.796068 0.437447 0.115052
O O12 0.851915 0.360265 0.313396
O O13 0.500000 0.500000 0.500000
O O14 0.298213 0.536154 0.597284
O O15 0.657727 0.513693 0.029320
O O16 0.000000 0.500000 0.500000
#
# Coordination Sequence:
#
# PCOD9164736 Si02
#       8
#     2   4   2   4   4   4   4   4
#     4  12  27  47  74 101 136 180 224 272 343 406
#     4  11  24  41  66  93 129 168 221 271 337 397
#     4  12  27  47  74  99 138 180 218 280 341 400
#     4  10  21  41  60  89 130 167 217 273 336 400
#     4  10  23  39  62  92 128 174 215 282 334 401
#     4  11  24  41  66  95 127 169 223 268 333 402
#     4  10  21  36  60  88 123 170 215 272 330 396
#     4  10  21  38  58  90 128 167 221 272 334 393
#
# _framework density 20.901202000000001
#
# number of rings (size 3 to 8) (size 9 to 14) (size 15 to 20)
#    0.000    1.429    1.429    3.000    4.000    3.429 
#    0.000    0.000    0.000    0.000    0.000    0.000 
#    0.000    0.000    0.000    0.000    0.000    0.000 
#
# Total GULP energy -156076.535281 kJ/mol
# GULP energy per Si atom -5574.161974 kJ/mol
# Density = 2.085363 g / cm^3
# Si number density = 20.901202 Si / 1000 Ang^3
#
#
#
# Elastic Constant Matrix: (Units=GPa)
#
#
# Indices 1 2 3 4 5 6 
#
# 1 121.9111 42.2471 51.6239 0.0000 11.2760 0.0000
# 2 42.2471 136.6070 15.4397 0.0000 7.7895 0.0000
# 3 51.6239 15.4397 52.2736 0.0000 15.2062 0.0000
# 4 0.0000 0.0000 0.0000 16.6432 0.0000 -9.3743
# 5 11.2760 7.7895 15.2062 0.0000 26.2512 0.0000
# 6 0.0000 0.0000 0.0000 -9.3743 0.0000 33.2576
#
#
#
# Elastic Compliance Matrix: (Units=1/GPa)
#
#
# Indices 1 2 3 4 5 6 
#
# 1 0.015501 -0.003248 -0.015265 0.000000 0.003148 0.000000
# 2 -0.003248 0.008282 0.001287 0.000000 -0.001808 0.000000
# 3 -0.015265 0.001287 0.038519 0.000000 -0.016138 0.000000
# 4 0.000000 0.000000 0.000000 0.071424 0.000000 0.020132
# 5 0.003148 -0.001808 -0.016138 0.000000 0.046626 0.000000
# 6 0.000000 0.000000 0.000000 0.020132 0.000000 0.035743
#
#
# Mechanical properties :
#
#
# Convention : Reuss Voigt Hill
#
# Bulk Modulus (GPa) = 35.90414 58.82370 47.36392
# Shear Modulus (GPa) = 19.24332 28.66247 23.95289
#
# Velocity S-wave (km/s) = 3.03756 3.70717 3.38894
# Velocity P-wave (km/s) = 5.43302 6.82121 6.16630
#
# Compressibility (1/GPa) = 0.02785194
#
# Stress axis : x y z
#
# Youngs Moduli (GPa) = 64.51172 120.73835 25.96108
#
# Poissons Ratio (x) = 0.39217 0.39629
# Poissons Ratio (y) = 0.20954 -0.03342
# Poissons Ratio (z) = 0.98475 -0.15544
#
# Static dielectric constant tensor:
#      x y z
#    x 1.765110 0.000000 -0.049190 
#    y 0.000000 1.745690 0.000000 
#    z -0.049190 0.000000 1.814770 
# 
# From -- ./inp_files/3477.got.cif
#   From: 2010.05.17/outbox.cif.g08.bks.cpg/sg11_2_cif.got.tgz:3477.got - 2010.06.03 12:22:45.
