data_PCOD9164557
_publ_section_title
;
Structure prediction by ZEFSAII (Michael W. Deem and Ramdas Pophale) SiO2 
 PCOD9164557
Probable space group: P 21/M
;
_chemical_formula_sum "Si O2"
_cell_formula_units_Z 32
_cell_length_a 14.731822
_cell_length_b 8.146638
_cell_length_c 14.769868
_cell_angle_alpha 90.000000
_cell_angle_beta 92.574641
_cell_angle_gamma 90.000000
_cell_volume 1770.813708
_symmetry_space_group_name_H-M "P 21/M"
_symmetry_group_IT_number 11
_symmetry_cell_setting 'monoclinic'
loop_
_space_group_symop_operation_xyz
x,y,z
-x,1/2+y,-z
-x,-y,-z
x,1/2-y,z
loop_
_atom_site_type_symbol
_atom_site_label
_atom_site_fract_x
_atom_site_fract_y
_atom_site_fract_z
Si Si1 0.043362 0.049979 0.811355
Si Si2 0.189559 0.052248 0.664356
Si Si3 0.520937 0.446645 0.898355
Si Si4 0.142915 0.947611 0.279482
Si Si5 0.277432 0.445480 0.142682
Si Si6 0.898486 0.445227 0.521112
Si Si7 0.188177 0.050040 0.956280
Si Si8 0.665041 0.550177 0.190890
O O1 0.042097 0.250000 0.813971
O O2 0.108063 0.004125 0.729417
O O3 0.094659 0.993948 0.904779
O O4 0.942286 0.991795 0.785072
O O5 0.189923 0.250000 0.663219
O O6 0.282669 0.995497 0.716313
O O7 0.167966 0.993719 0.563247
O O8 0.521186 0.250000 0.896041
O O9 0.618897 0.506901 0.871057
O O10 0.436726 0.507023 0.832970
O O11 0.500000 0.500000 0.000000
O O12 0.137090 0.750000 0.281821
O O13 0.130448 0.009733 0.381397
O O14 0.235491 0.993852 0.234371
O O15 0.271743 0.250000 0.140597
O O16 0.215364 0.510752 0.056480
O O17 0.900374 0.250000 0.527327
O O18 0.000000 0.500000 0.500000
O O19 0.185414 0.250000 0.958741
O O20 0.269643 0.006173 0.890633
O O21 0.663412 0.750000 0.192776
#
# Coordination Sequence:
#
# PCOD9164557 Si02
#       8
#     4   4   4   4   4   4   4   4
#     4   8  14  28  50  72 100 139 174 205 248 310
#     4   9  16  31  55  80 103 133 171 214 263 316
#     4  11  20  34  56  81 107 140 178 218 260 311
#     4  10  21  36  51  72 103 142 178 212 260 314
#     4  11  22  35  51  76 107 141 178 221 263 306
#     4  11  21  34  54  79 107 138 176 220 265 311
#     4   8  14  27  48  73 102 136 173 207 248 305
#     4   8  15  29  53  79 104 134 170 210 261 317
#
# _framework density 18.070789999999999
#
# number of rings (size 3 to 8) (size 9 to 14) (size 15 to 20)
#    0.000    2.500    2.500    2.625    0.000    1.500 
#    0.000    1.250    0.000    1.500    0.000    0.000 
#    0.000    0.000    0.000    0.000    0.000    0.000 
#
# Total GULP energy -178447.177781 kJ/mol
# GULP energy per Si atom -5576.474306 kJ/mol
# Density = 1.802966 g / cm^3
# Si number density = 18.070790 Si / 1000 Ang^3
#
#
#
# Elastic Constant Matrix: (Units=GPa)
#
#
# Indices 1 2 3 4 5 6 
#
# 1 108.5747 5.2699 76.3867 0.0000 1.3665 0.0000
# 2 5.2699 12.8929 11.5737 0.0000 1.0372 0.0000
# 3 76.3867 11.5737 127.1339 0.0000 4.5331 0.0000
# 4 0.0000 0.0000 0.0000 20.5273 0.0000 0.9430
# 5 1.3665 1.0372 4.5331 0.0000 26.3507 0.0000
# 6 0.0000 0.0000 0.0000 0.9430 0.0000 18.7282
#
#
#
# Elastic Compliance Matrix: (Units=1/GPa)
#
#
# Indices 1 2 3 4 5 6 
#
# 1 0.016031 0.002239 -0.009864 0.000000 0.000777 0.000000
# 2 0.002239 0.084884 -0.009005 0.000000 -0.001908 0.000000
# 3 -0.009864 -0.009005 0.014671 0.000000 -0.001658 0.000000
# 4 0.000000 0.000000 0.000000 0.048829 0.000000 -0.002459
# 5 0.000777 -0.001908 -0.001658 0.000000 0.038270 0.000000
# 6 0.000000 0.000000 0.000000 -0.002459 0.000000 0.053519
#
#
# Mechanical properties :
#
#
# Convention : Reuss Voigt Hill
#
# Bulk Modulus (GPa) = 12.14662 48.34024 30.24343
# Shear Modulus (GPa) = 15.77761 23.47932 19.62847
#
# Velocity S-wave (km/s) = 2.95803 3.60849 3.29933
# Velocity P-wave (km/s) = 4.28986 6.64606 5.59343
#
# Compressibility (1/GPa) = 0.08232741
#
# Stress axis : x y z
#
# Youngs Moduli (GPa) = 62.37780 11.78083 68.16114
#
# Poissons Ratio (x) = -0.02638 0.67233
# Poissons Ratio (y) = -0.13968 0.61378
# Poissons Ratio (z) = 0.61528 0.10608
#
# Static dielectric constant tensor:
#      x y z
#    x 1.559720 0.000000 0.004630 
#    y 0.000000 1.645720 0.000000 
#    z 0.004630 0.000000 1.620740 
# 
# From -- ./inp_files/51377.got.cif
#   From: 2010.05.17/outbox.cif.g08.bks.cpg/sg11_26_cif.got.tgz:51377.got - 2010.06.03 12:22:45.
