data_PCOD9164076
_publ_section_title
;
Structure prediction by ZEFSAII (Michael W. Deem and Ramdas Pophale) SiO2 
 PCOD9164076
Probable space group: P 21/M
;
_chemical_formula_sum "Si O2"
_cell_formula_units_Z 32
_cell_length_a 11.480301
_cell_length_b 18.049557
_cell_length_c 14.236668
_cell_angle_alpha 90.000000
_cell_angle_beta 31.766455
_cell_angle_gamma 90.000000
_cell_volume 1553.073489
_symmetry_space_group_name_H-M "P 21/M"
_symmetry_group_IT_number 11
_symmetry_cell_setting 'monoclinic'
loop_
_space_group_symop_operation_xyz
x,y,z
-x,1/2+y,-z
-x,-y,-z
x,1/2-y,z
loop_
_atom_site_type_symbol
_atom_site_label
_atom_site_fract_x
_atom_site_fract_y
_atom_site_fract_z
Si Si1 0.142548 0.665535 0.933940
Si Si2 0.562476 0.837178 0.770768
Si Si3 0.919359 0.385174 0.238106
Si Si4 0.900698 0.543046 0.478297
Si Si5 0.407968 0.337510 0.903790
Si Si6 0.633558 0.077339 0.915691
Si Si7 0.430962 0.925087 0.386608
Si Si8 0.874713 0.533920 0.175982
O O1 0.073268 0.750000 0.992534
O O2 0.390403 0.656767 0.802393
O O3 0.129641 0.645650 0.832528
O O4 0.985283 0.613979 0.105069
O O5 0.598286 0.750000 0.766145
O O6 0.782081 0.882076 0.594046
O O7 0.446894 0.878786 0.937385
O O8 0.729469 0.371876 0.443910
O O9 0.920371 0.474388 0.224615
O O10 0.156064 0.355053 0.106476
O O11 0.715263 0.489765 0.560078
O O12 0.000000 0.500000 0.500000
O O13 0.106457 0.560731 0.269654
O O14 0.439132 0.250000 0.873022
O O15 0.568309 0.373166 0.870606
O O16 0.447361 0.379756 0.778783
O O17 0.500000 0.000000 0.000000
O O18 0.618388 0.958438 0.325962
O O19 0.000000 0.500000 0.000000
#
# Coordination Sequence:
#
# PCOD9164076 Si02
#       8
#     4   4   4   4   4   4   4   4
#     4  10  22  43  67  95 135 178 218 274 336 397
#     4  11  26  46  69  97 136 179 225 282 340 397
#     4  11  24  40  69 100 131 175 220 275 333 404
#     4  12  24  43  70  99 133 176 230 279 328 399
#     4  12  26  43  65 100 140 173 217 278 343 404
#     4  12  25  45  72  98 131 180 228 278 333 403
#     4  12  24  42  67 103 133 177 223 277 337 393
#     4  10  20  38  66  93 130 171 219 270 321 395
#
# _framework density 20.604306000000001
#
# number of rings (size 3 to 8) (size 9 to 14) (size 15 to 20)
#    0.000    0.750    5.000    3.375    3.500    2.000 
#    0.000    0.000    0.000    0.000    0.000    0.000 
#    0.000    0.000    0.000    0.000    0.000    0.000 
#
# Total GULP energy -178974.448748 kJ/mol
# GULP energy per Si atom -5592.951523 kJ/mol
# Density = 2.055741 g / cm^3
# Si number density = 20.604306 Si / 1000 Ang^3
#
#
#
# Elastic Constant Matrix: (Units=GPa)
#
#
# Indices 1 2 3 4 5 6 
#
# 1 46.1122 37.0442 2.4512 0.0000 -7.5552 0.0000
# 2 37.0442 146.3768 39.3435 0.0000 -21.2799 0.0000
# 3 2.4512 39.3435 109.2726 0.0000 -16.9945 0.0000
# 4 0.0000 0.0000 0.0000 24.8337 0.0000 -4.4697
# 5 -7.5552 -21.2799 -16.9945 0.0000 24.7352 0.0000
# 6 0.0000 0.0000 0.0000 -4.4697 0.0000 31.8258
#
#
#
# Elastic Compliance Matrix: (Units=1/GPa)
#
#
# Indices 1 2 3 4 5 6 
#
# 1 0.027998 -0.007180 0.002605 0.000000 0.004164 0.000000
# 2 -0.007180 0.010051 -0.002748 0.000000 0.004566 0.000000
# 3 0.002605 -0.002748 0.011015 0.000000 0.006000 0.000000
# 4 0.000000 0.000000 0.000000 0.041312 0.000000 0.005802
# 5 0.004164 0.004566 0.006000 0.000000 0.049751 0.000000
# 6 0.000000 0.000000 0.000000 0.005802 0.000000 0.032236
#
#
# Mechanical properties :
#
#
# Convention : Reuss Voigt Hill
#
# Bulk Modulus (GPa) = 29.05414 51.04882 40.05148
# Shear Modulus (GPa) = 25.19104 31.14045 28.16574
#
# Velocity S-wave (km/s) = 3.50038 3.89183 3.70128
# Velocity P-wave (km/s) = 5.51983 6.71005 6.14383
#
# Compressibility (1/GPa) = 0.03441851
#
# Stress axis : x y z
#
# Youngs Moduli (GPa) = 35.71629 99.49050 90.78165
#
# Poissons Ratio (x) = 0.71439 -0.23647
# Poissons Ratio (y) = 0.25646 0.24944
# Poissons Ratio (z) = -0.09304 0.27337
#
# Static dielectric constant tensor:
#      x y z
#    x 1.747210 0.000000 0.017160 
#    y 0.000000 1.741490 0.000000 
#    z 0.017160 0.000000 1.742500 
# 
# From -- ./inp_files/50661.got.cif
#   From: 2010.05.17/outbox.cif.g08.bks.cpg/sg11_26_cif.got.tgz:50661.got - 2010.06.03 12:22:45.
