data_PCOD9164848
_publ_section_title
;
Structure prediction by ZEFSAII (Michael W. Deem and Ramdas Pophale) SiO2 
 PCOD9164848
Probable space group: P 21/M
;
_chemical_formula_sum "Si O2"
_cell_formula_units_Z 32
_cell_length_a 13.104796
_cell_length_b 19.355882
_cell_length_c 18.936473
_cell_angle_alpha 90.000000
_cell_angle_beta 159.941072
_cell_angle_gamma 90.000000
_cell_volume 1647.476599
_symmetry_space_group_name_H-M "P 21/M"
_symmetry_group_IT_number 11
_symmetry_cell_setting 'monoclinic'
loop_
_space_group_symop_operation_xyz
x,y,z
-x,1/2+y,-z
-x,-y,-z
x,1/2-y,z
loop_
_atom_site_type_symbol
_atom_site_label
_atom_site_fract_x
_atom_site_fract_y
_atom_site_fract_z
Si Si1 0.698810 0.832135 0.139942
Si Si2 0.759853 0.053071 0.147566
Si Si3 0.268017 0.167178 0.002756
Si Si4 0.934080 0.332599 0.485774
Si Si5 0.864619 0.938628 0.747483
Si Si6 0.161837 0.452179 0.547628
Si Si7 0.218877 0.555223 0.104892
Si Si8 0.699015 0.091375 0.692382
O O1 0.652872 0.750000 0.113008
O O2 0.960671 0.849305 0.365842
O O3 0.403530 0.873645 0.967638
O O4 0.758767 0.851093 0.097560
O O5 0.928761 0.039944 0.184170
O O6 0.984982 0.050198 0.359318
O O7 0.500000 0.000000 0.000000
O O8 0.244651 0.250000 0.993767
O O9 0.593783 0.147970 0.245015
O O10 0.994984 0.131362 0.863835
O O11 0.961237 0.250000 0.493596
O O12 0.146535 0.376133 0.572349
O O13 0.598026 0.891977 0.544377
O O14 0.747364 0.010707 0.704088
O O15 0.042065 0.905970 0.928226
O O16 0.495189 0.476914 0.748112
O O17 0.000000 0.500000 0.500000
O O18 0.342533 0.598744 0.250874
O O19 0.000000 0.500000 0.000000
#
# Coordination Sequence:
#
# PCOD9164848 Si02
#       8
#     4   4   4   4   4   4   4   4
#     4  10  21  39  61  88 121 159 197 245 309 368
#     4  12  22  37  60  91 124 153 200 254 307 361
#     4  10  21  38  61  89 120 161 205 249 300 366
#     4  10  22  40  62  91 127 162 202 258 316 369
#     4  10  21  37  57  82 116 155 196 245 300 355
#     4  12  24  38  62  96 126 160 209 259 311 370
#     4  10  22  39  57  85 122 159 196 246 309 365
#     4  10  21  38  57  80 117 160 197 243 299 361
#
# _framework density 19.423643999999999
#
# number of rings (size 3 to 8) (size 9 to 14) (size 15 to 20)
#    0.000    1.500    2.500    3.000    3.500    1.000 
#    0.000    1.250    0.000    1.500    0.000    0.000 
#    0.000    0.000    0.000    0.000    0.000    0.000 
#
# Total GULP energy -178515.177585 kJ/mol
# GULP energy per Si atom -5578.599300 kJ/mol
# Density = 1.937944 g / cm^3
# Si number density = 19.423644 Si / 1000 Ang^3
#
#
#
# Elastic Constant Matrix: (Units=GPa)
#
#
# Indices 1 2 3 4 5 6 
#
# 1 112.6683 13.5555 72.4891 0.0000 -28.1542 0.0000
# 2 13.5555 22.5843 19.6718 0.0000 -3.5190 0.0000
# 3 72.4891 19.6718 131.5842 0.0000 -17.0669 0.0000
# 4 0.0000 0.0000 0.0000 27.4495 0.0000 5.9947
# 5 -28.1542 -3.5190 -17.0669 0.0000 45.4635 0.0000
# 6 0.0000 0.0000 0.0000 5.9947 0.0000 21.5364
#
#
#
# Elastic Compliance Matrix: (Units=1/GPa)
#
#
# Indices 1 2 3 4 5 6 
#
# 1 0.015544 -0.001821 -0.007422 0.000000 0.006699 0.000000
# 2 -0.001821 0.051177 -0.006602 0.000000 0.000355 0.000000
# 3 -0.007422 -0.006602 0.012628 0.000000 -0.000367 0.000000
# 4 0.000000 0.000000 0.000000 0.038789 0.000000 -0.010797
# 5 0.006699 0.000355 -0.000367 0.000000 0.026034 0.000000
# 6 0.000000 0.000000 0.000000 -0.010797 0.000000 0.049438
#
#
# Mechanical properties :
#
#
# Convention : Reuss Voigt Hill
#
# Bulk Modulus (GPa) = 20.98221 53.14106 37.06163
# Shear Modulus (GPa) = 20.73097 29.63125 25.18111
#
# Velocity S-wave (km/s) = 3.27051 3.91003 3.60448
# Velocity P-wave (km/s) = 5.00874 6.91396 6.03698
#
# Compressibility (1/GPa) = 0.04765942
#
# Stress axis : x y z
#
# Youngs Moduli (GPa) = 64.33458 19.53996 79.19061
#
# Poissons Ratio (x) = 0.03558 0.58774
# Poissons Ratio (y) = 0.11716 0.52279
# Poissons Ratio (z) = 0.47748 0.12900
#
# Static dielectric constant tensor:
#      x y z
#    x 1.688620 0.000000 -0.024750 
#    y 0.000000 1.686820 0.000000 
#    z -0.024750 0.000000 1.772700 
# 
# From -- ./inp_files/59750.got.cif
#   From: 2010.05.17/outbox.cif.g08.bks.cpg/sg11_30_cif.got.tgz:59750.got - 2010.06.03 12:22:45.
