data_PCOD9164236
_publ_section_title
;
Structure prediction by ZEFSAII (Michael W. Deem and Ramdas Pophale) SiO2 
 PCOD9164236
Probable space group: P 21/M
;
_chemical_formula_sum "Si O2"
_cell_formula_units_Z 28
_cell_length_a 15.637866
_cell_length_b 17.701982
_cell_length_c 5.125768
_cell_angle_alpha 90.000000
_cell_angle_beta 59.778608
_cell_angle_gamma 90.000000
_cell_volume 1226.071410
_symmetry_space_group_name_H-M "P 21/M"
_symmetry_group_IT_number 11
_symmetry_cell_setting 'monoclinic'
loop_
_space_group_symop_operation_xyz
x,y,z
-x,1/2+y,-z
-x,-y,-z
x,1/2-y,z
loop_
_atom_site_type_symbol
_atom_site_label
_atom_site_fract_x
_atom_site_fract_y
_atom_site_fract_z
Si Si1 0.784785 0.250000 0.555254
Si Si2 0.254307 0.915809 0.474645
Si Si3 0.808165 0.667294 0.913881
Si Si4 0.044837 0.586573 0.105726
Si Si5 0.079675 0.750000 0.150234
Si Si6 0.325080 0.333540 0.388178
Si Si7 0.125379 0.481805 0.415672
Si Si8 0.567955 0.511318 0.644735
O O1 0.730412 0.331540 0.662255
O O2 0.872656 0.250000 0.634744
O O3 0.828271 0.250000 0.195269
O O4 0.233457 0.985063 0.308160
O O5 0.344569 0.948424 0.500465
O O6 0.145935 0.913796 0.781425
O O7 0.855884 0.750000 0.800919
O O8 0.719506 0.661373 0.835168
O O9 0.870263 0.592777 0.765516
O O10 0.765982 0.665745 0.269135
O O11 0.021388 0.674423 0.176290
O O12 0.077074 0.550251 0.331747
O O13 0.939833 0.543952 0.234285
O O14 0.372964 0.250000 0.339442
O O15 0.388757 0.404462 0.383363
O O16 0.500000 0.500000 0.500000
O O17 0.500000 0.500000 0.000000
#
# Coordination Sequence:
#
# PCOD9164236 Si02
#       8
#     2   4   4   4   2   4   4   4
#     4  10  22  40  68  90 120 185 205 264 326 376
#     4  11  23  44  66  90 138 166 224 270 327 392
#     4  10  21  37  64  95 126 170 209 257 324 385
#     4  10  23  37  64  95 129 180 216 266 319 384
#     4  10  20  40  58  92 136 165 223 260 310 374
#     4  10  21  43  67  91 128 166 207 266 333 380
#     4  11  21  37  65  94 131 174 222 259 324 378
#     4  12  27  44  70 100 126 168 221 273 337 392
#
# _framework density 22.837168999999999
#
# number of rings (size 3 to 8) (size 9 to 14) (size 15 to 20)
#    0.000    1.429    2.857    2.143    3.000    0.000 
#    2.571    0.000    0.000    0.000    0.000    0.000 
#    0.000    0.000    0.000    0.000    0.000    0.000 
#
# Total GULP energy -156229.578394 kJ/mol
# GULP energy per Si atom -5579.627800 kJ/mol
# Density = 2.278519 g / cm^3
# Si number density = 22.837169 Si / 1000 Ang^3
#
#
#
# Elastic Constant Matrix: (Units=GPa)
#
#
# Indices 1 2 3 4 5 6 
#
# 1 80.2466 20.6115 3.6204 0.0000 7.2028 0.0000
# 2 20.6115 166.4858 20.1209 0.0000 -21.5899 0.0000
# 3 3.6204 20.1209 60.2801 0.0000 3.2449 0.0000
# 4 0.0000 0.0000 0.0000 33.7308 0.0000 -7.8094
# 5 7.2028 -21.5899 3.2449 0.0000 21.4541 0.0000
# 6 0.0000 0.0000 0.0000 -7.8094 0.0000 23.2697
#
#
#
# Elastic Compliance Matrix: (Units=1/GPa)
#
#
# Indices 1 2 3 4 5 6 
#
# 1 0.013813 -0.002737 0.000486 0.000000 -0.007465 0.000000
# 2 -0.002737 0.007916 -0.002981 0.000000 0.009336 0.000000
# 3 0.000486 -0.002981 0.017871 0.000000 -0.005865 0.000000
# 4 0.000000 0.000000 0.000000 0.032144 0.000000 0.010788
# 5 -0.007465 0.009336 -0.005865 0.000000 0.059400 0.000000
# 6 0.000000 0.000000 0.000000 0.010788 0.000000 0.046595
#
#
# Mechanical properties :
#
#
# Convention : Reuss Voigt Hill
#
# Bulk Modulus (GPa) = 34.32132 43.96868 39.14500
# Shear Modulus (GPa) = 25.26360 33.20158 29.23259
#
# Velocity S-wave (km/s) = 3.32964 3.81706 3.58165
# Velocity P-wave (km/s) = 5.46291 6.22266 5.85512
#
# Compressibility (1/GPa) = 0.02913641
#
# Stress axis : x y z
#
# Youngs Moduli (GPa) = 72.39724 126.32226 55.95764
#
# Poissons Ratio (x) = 0.34572 -0.02718
# Poissons Ratio (y) = 0.19814 0.16678
# Poissons Ratio (z) = -0.03517 0.37651
#
# Static dielectric constant tensor:
#      x y z
#    x 1.862440 0.000000 -0.002240 
#    y 0.000000 1.918210 0.000000 
#    z -0.002240 0.000000 1.924450 
# 
# From -- ./inp_files/6788.got.cif
#   From: 2010.05.17/outbox.cif.g08.bks.cpg/sg11_4_cif.got.tgz:6788.got - 2010.06.03 12:22:45.
