data_PCOD9164190
_publ_section_title
;
Structure prediction by ZEFSAII (Michael W. Deem and Ramdas Pophale) SiO2 
 PCOD9164190
Probable space group: P 21/M
;
_chemical_formula_sum "Si O2"
_cell_formula_units_Z 16
_cell_length_a 7.023221
_cell_length_b 15.818610
_cell_length_c 9.110529
_cell_angle_alpha 90.000000
_cell_angle_beta 125.083486
_cell_angle_gamma 90.000000
_cell_volume 828.264371
_symmetry_space_group_name_H-M "P 21/M"
_symmetry_group_IT_number 11
_symmetry_cell_setting 'monoclinic'
loop_
_space_group_symop_operation_xyz
x,y,z
-x,1/2+y,-z
-x,-y,-z
x,1/2-y,z
loop_
_atom_site_type_symbol
_atom_site_label
_atom_site_fract_x
_atom_site_fract_y
_atom_site_fract_z
Si Si1 0.449778 0.575547 0.591284
Si Si2 0.036253 0.657733 0.255177
Si Si3 0.256103 0.510781 0.808235
Si Si4 0.967148 0.593370 0.914727
O O1 0.500000 0.500000 0.500000
O O2 0.288085 0.642517 0.437735
O O3 0.310117 0.537313 0.667058
O O4 0.697793 0.608412 0.758691
O O5 0.943573 0.750000 0.255596
O O6 0.880393 0.578193 0.238751
O O7 0.050245 0.651831 0.084185
O O8 0.112618 0.583834 0.829965
O O9 0.500000 0.500000 0.000000
O O10 0.000000 0.500000 0.000000
#
# Coordination Sequence:
#
# PCOD9164190 Si02
#       4
#     4   4   4   4
#     4  12  21  39  69  91 120 166 217 248 298 379
#     4  11  24  41  62  94 130 156 201 270 318 350
#     4  11  20  40  69  90 119 169 214 242 300 383
#     4  10  20  39  65  88 119 163 209 243 305 368
#
# _framework density 19.317504
#
# number of rings (size 3 to 8) (size 9 to 14) (size 15 to 20)
#    0.000    1.000   10.000    0.750    0.000    1.000 
#    0.000    6.250    0.000    0.000    0.000    0.000 
#    0.000    0.000    0.000    0.000    0.000    0.000 
#
# Total GULP energy -89289.594885 kJ/mol
# GULP energy per Si atom -5580.599680 kJ/mol
# Density = 1.927354 g / cm^3
# Si number density = 19.317504 Si / 1000 Ang^3
#
#
#
# Elastic Constant Matrix: (Units=GPa)
#
#
# Indices 1 2 3 4 5 6 
#
# 1 131.3829 28.8398 57.7591 0.0000 -19.0388 0.0000
# 2 28.8398 66.0563 43.9961 0.0000 2.4762 0.0000
# 3 57.7591 43.9961 148.3040 0.0000 6.6524 0.0000
# 4 0.0000 0.0000 0.0000 10.2035 0.0000 2.8987
# 5 -19.0388 2.4762 6.6524 0.0000 54.3296 0.0000
# 6 0.0000 0.0000 0.0000 2.8987 0.0000 8.9089
#
#
#
# Elastic Compliance Matrix: (Units=1/GPa)
#
#
# Indices 1 2 3 4 5 6 
#
# 1 0.010251 -0.002303 -0.003494 0.000000 0.004125 0.000000
# 2 -0.002303 0.019385 -0.004805 0.000000 -0.001102 0.000000
# 3 -0.003494 -0.004805 0.009627 0.000000 -0.002184 0.000000
# 4 0.000000 0.000000 0.000000 0.107987 0.000000 -0.035136
# 5 0.004125 -0.001102 -0.002184 0.000000 0.020169 0.000000
# 6 0.000000 0.000000 0.000000 -0.035136 0.000000 0.123679
#
#
# Mechanical properties :
#
#
# Convention : Reuss Voigt Hill
#
# Bulk Modulus (GPa) = 55.37085 67.43703 61.40394
# Shear Modulus (GPa) = 15.70735 29.03161 22.36948
#
# Velocity S-wave (km/s) = 2.85461 3.88089 3.40662
# Velocity P-wave (km/s) = 6.29213 7.42073 6.87961
#
# Compressibility (1/GPa) = 0.01806005
#
# Stress axis : x y z
#
# Youngs Moduli (GPa) = 97.55432 51.58533 103.87369
#
# Poissons Ratio (x) = 0.11879 0.36295
# Poissons Ratio (y) = 0.22465 0.49907
# Poissons Ratio (z) = 0.34087 0.24785
#
# Static dielectric constant tensor:
#      x y z
#    x 1.705650 0.000000 -0.010470 
#    y 0.000000 1.667170 0.000000 
#    z -0.010470 0.000000 1.706570 
# 
# From -- ./inp_files/1731.got.cif
#   From: 2010.05.17/outbox.cif.g08.bks.cpg/sg11_1_cif.got.tgz:1731.got - 2010.06.03 12:22:45.
