data_PCOD9164407
_publ_section_title
;
Structure prediction by ZEFSAII (Michael W. Deem and Ramdas Pophale) SiO2 
 PCOD9164407
Probable space group: P 21/M
;
_chemical_formula_sum "Si O2"
_cell_formula_units_Z 28
_cell_length_a 16.161358
_cell_length_b 10.493603
_cell_length_c 11.039033
_cell_angle_alpha 90.000000
_cell_angle_beta 127.893136
_cell_angle_gamma 90.000000
_cell_volume 1477.397276
_symmetry_space_group_name_H-M "P 21/M"
_symmetry_group_IT_number 11
_symmetry_cell_setting 'monoclinic'
loop_
_space_group_symop_operation_xyz
x,y,z
-x,1/2+y,-z
-x,-y,-z
x,1/2-y,z
loop_
_atom_site_type_symbol
_atom_site_label
_atom_site_fract_x
_atom_site_fract_y
_atom_site_fract_z
Si Si1 0.272696 0.100805 0.551054
Si Si2 0.714890 0.899480 0.163521
Si Si3 0.463553 0.398803 0.566048
Si Si4 0.062811 0.016720 0.243445
Si Si5 0.857826 0.104188 0.932482
Si Si6 0.340023 0.602218 0.080524
Si Si7 0.963887 0.890835 0.375134
O O1 0.295037 0.250000 0.579820
O O2 0.292348 0.052811 0.704204
O O3 0.354300 0.053178 0.524906
O O4 0.153853 0.084660 0.401019
O O5 0.680811 0.750000 0.122489
O O6 0.839106 0.900682 0.245816
O O7 0.659379 0.999028 0.025420
O O8 0.500000 0.500000 0.500000
O O9 0.453662 0.250000 0.514366
O O10 0.551271 0.398097 0.749597
O O11 0.020011 0.909203 0.296364
O O12 0.114984 0.971814 0.164768
O O13 0.959237 0.093509 0.110986
O O14 0.841628 0.250000 0.882167
O O15 0.754312 0.064102 0.912450
O O16 0.319467 0.750000 0.023061
O O17 0.987132 0.750000 0.445913
O O18 0.000000 0.000000 0.500000
#
# Coordination Sequence:
#
# PCOD9164407 Si02
#       7
#     4   4   4   4   4   4   4
#     4  10  21  38  59  84 114 153 195 237 288 347
#     4  10  21  38  58  85 117 152 193 238 285 345
#     4  10  22  41  64  87 116 152 194 239 289 345
#     4  11  20  35  55  81 114 151 192 238 282 337
#     4  10  21  34  52  79 112 148 187 234 289 338
#     4  10  21  39  59  84 116 151 189 240 292 340
#     4  11  22  36  57  85 119 156 196 238 286 343
#
# _framework density 18.952249999999999
#
# number of rings (size 3 to 8) (size 9 to 14) (size 15 to 20)
#    0.000    1.714    2.857    1.714    0.000    2.286 
#    0.000    2.143    0.000    0.000    0.000    0.000 
#    0.000    0.000    0.000    0.000    0.000    0.000 
#
# Total GULP energy -156146.940406 kJ/mol
# GULP energy per Si atom -5576.676443 kJ/mol
# Density = 1.890911 g / cm^3
# Si number density = 18.952250 Si / 1000 Ang^3
#
#
#
# Elastic Constant Matrix: (Units=GPa)
#
#
# Indices 1 2 3 4 5 6 
#
# 1 68.5799 2.9291 3.5887 0.0000 -5.1243 0.0000
# 2 2.9291 66.8177 28.5242 0.0000 -13.2250 0.0000
# 3 3.5887 28.5242 61.4676 0.0000 -9.2989 0.0000
# 4 0.0000 0.0000 0.0000 24.2193 0.0000 0.6437
# 5 -5.1243 -13.2250 -9.2989 0.0000 25.4493 0.0000
# 6 0.0000 0.0000 0.0000 0.6437 0.0000 22.7990
#
#
#
# Elastic Compliance Matrix: (Units=1/GPa)
#
#
# Indices 1 2 3 4 5 6 
#
# 1 0.014816 0.000128 -0.000490 0.000000 0.002871 0.000000
# 2 0.000128 0.019890 -0.008119 0.000000 0.007395 0.000000
# 3 -0.000490 -0.008119 0.020547 0.000000 0.003190 0.000000
# 4 0.000000 0.000000 0.000000 0.041320 0.000000 -0.001167
# 5 0.002871 0.007395 0.003190 0.000000 0.044881 0.000000
# 6 0.000000 0.000000 0.000000 -0.001167 0.000000 0.043894
#
#
# Mechanical properties :
#
#
# Convention : Reuss Voigt Hill
#
# Bulk Modulus (GPa) = 26.11516 29.66102 27.88809
# Shear Modulus (GPa) = 23.24769 25.28173 24.26471
#
# Velocity S-wave (km/s) = 3.50615 3.65632 3.58202
# Velocity P-wave (km/s) = 5.49547 5.78872 5.64400
#
# Compressibility (1/GPa) = 0.03829194
#
# Stress axis : x y z
#
# Youngs Moduli (GPa) = 67.49364 50.27629 48.66777
#
# Poissons Ratio (x) = -0.00643 0.02385
# Poissons Ratio (y) = -0.00863 0.39512
# Poissons Ratio (z) = 0.03308 0.40818
#
# Static dielectric constant tensor:
#      x y z
#    x 1.692410 0.000000 -0.024890 
#    y 0.000000 1.664210 0.000000 
#    z -0.024890 0.000000 1.641850 
# 
# From -- ./inp_files/21418.got.cif
#   From: 2010.05.17/outbox.cif.g08.bks.cpg/sg11_11_cif.got.tgz:21418.got - 2010.06.03 12:22:45.
