data_PCOD9164939
_publ_section_title
;
Structure prediction by ZEFSAII (Michael W. Deem and Ramdas Pophale) SiO2 
 PCOD9164939
Probable space group: P 21/M
;
_chemical_formula_sum "Si O2"
_cell_formula_units_Z 32
_cell_length_a 30.841360
_cell_length_b 9.001229
_cell_length_c 13.119677
_cell_angle_alpha 90.000000
_cell_angle_beta 27.690537
_cell_angle_gamma 90.000000
_cell_volume 1692.494354
_symmetry_space_group_name_H-M "P 21/M"
_symmetry_group_IT_number 11
_symmetry_cell_setting 'monoclinic'
loop_
_space_group_symop_operation_xyz
x,y,z
-x,1/2+y,-z
-x,-y,-z
x,1/2-y,z
loop_
_atom_site_type_symbol
_atom_site_label
_atom_site_fract_x
_atom_site_fract_y
_atom_site_fract_z
Si Si1 0.211468 0.574800 0.963263
Si Si2 0.886850 0.427125 0.432789
Si Si3 0.226552 0.071641 0.146846
Si Si4 0.556296 0.928541 0.289849
Si Si5 0.403852 0.574817 0.449352
Si Si6 0.107176 0.072707 0.991556
Si Si7 0.595892 0.926810 0.765752
Si Si8 0.205009 0.428945 0.573552
O O1 0.194791 0.750000 0.011881
O O2 0.319389 0.554758 0.704569
O O3 0.150463 0.512523 0.997217
O O4 0.195301 0.489058 0.101999
O O5 0.873404 0.250000 0.463692
O O6 0.834442 0.502166 0.636490
O O7 0.845636 0.492209 0.414119
O O8 0.997354 0.456941 0.209532
O O9 0.220539 0.250000 0.161917
O O10 0.335456 0.028475 0.935436
O O11 0.551440 0.750000 0.310516
O O12 0.500516 0.966697 0.302869
O O13 0.500000 0.000000 0.500000
O O14 0.406923 0.750000 0.415551
O O15 0.385141 0.479399 0.388685
O O16 0.120859 0.250000 0.978010
O O17 0.158030 0.032051 0.779803
O O18 0.587428 0.750000 0.787233
O O19 0.685667 0.968991 0.646451
O O20 0.500000 0.000000 0.000000
O O21 0.197803 0.250000 0.576548
#
# Coordination Sequence:
#
# PCOD9164939 Si02
#       8
#     4   4   4   4   4   4   4   4
#     4  11  22  38  65  95 124 159 205 260 306 358
#     4  11  25  42  64  92 123 159 204 259 312 363
#     4  11  24  41  62  89 127 169 205 248 308 371
#     4  10  21  37  59  86 118 157 197 241 291 350
#     4  10  21  38  59  88 123 157 200 251 300 358
#     4  10  22  43  67  92 121 157 204 256 311 372
#     4  11  24  40  61  90 125 164 201 245 302 361
#     4  10  22  42  66  90 123 162 203 251 306 370
#
# _framework density 18.907005999999999
#
# number of rings (size 3 to 8) (size 9 to 14) (size 15 to 20)
#    0.000    1.500    2.500    1.875    1.750    4.500 
#    0.000    0.000    0.000    0.000    0.000    0.000 
#    0.000    0.000    0.000    0.000    0.000    0.000 
#
# Total GULP energy -178872.736934 kJ/mol
# GULP energy per Si atom -5589.773029 kJ/mol
# Density = 1.886397 g / cm^3
# Si number density = 18.907006 Si / 1000 Ang^3
#
#
#
# Elastic Constant Matrix: (Units=GPa)
#
#
# Indices 1 2 3 4 5 6 
#
# 1 154.3922 65.0753 66.1460 0.0000 -4.9117 0.0000
# 2 65.0753 54.6308 56.8479 0.0000 -8.8765 0.0000
# 3 66.1460 56.8479 116.0375 0.0000 -10.1126 0.0000
# 4 0.0000 0.0000 0.0000 32.6688 0.0000 4.2203
# 5 -4.9117 -8.8765 -10.1126 0.0000 21.1483 0.0000
# 6 0.0000 0.0000 0.0000 4.2203 0.0000 35.7340
#
#
#
# Elastic Compliance Matrix: (Units=1/GPa)
#
#
# Indices 1 2 3 4 5 6 
#
# 1 0.013295 -0.016776 0.000308 0.000000 -0.003806 0.000000
# 2 -0.016776 0.059599 -0.018568 0.000000 0.012240 0.000000
# 3 0.000308 -0.018568 0.017599 0.000000 0.000694 0.000000
# 4 0.000000 0.000000 0.000000 0.031085 0.000000 -0.003671
# 5 -0.003806 0.012240 0.000694 0.000000 0.051870 0.000000
# 6 0.000000 0.000000 0.000000 -0.003671 0.000000 0.028418
#
#
# Mechanical properties :
#
#
# Convention : Reuss Voigt Hill
#
# Bulk Modulus (GPa) = 48.96884 77.91100 63.43992
# Shear Modulus (GPa) = 17.93761 27.04296 22.49028
#
# Velocity S-wave (km/s) = 3.08348 3.78605 3.45269
# Velocity P-wave (km/s) = 6.21556 7.77233 7.03713
#
# Compressibility (1/GPa) = 0.02042115
#
# Stress axis : x y z
#
# Youngs Moduli (GPa) = 75.21806 16.77894 56.82030
#
# Poissons Ratio (x) = 0.28148 -0.01753
# Poissons Ratio (y) = 1.26184 1.05506
# Poissons Ratio (z) = -0.02320 0.31156
#
# Static dielectric constant tensor:
#      x y z
#    x 1.633070 0.000000 -0.013320 
#    y 0.000000 1.626520 0.000000 
#    z -0.013320 0.000000 1.646920 
# 
# From -- ./inp_files/45154.got.cif
#   From: 2010.05.17/outbox.cif.g08.bks.cpg/sg11_23_cif.got.tgz:45154.got - 2010.06.03 12:22:45.
