data_PCOD9164850
_publ_section_title
;
Structure prediction by ZEFSAII (Michael W. Deem and Ramdas Pophale) SiO2 
 PCOD9164850
Probable space group: P 21/M
;
_chemical_formula_sum "Si O2"
_cell_formula_units_Z 32
_cell_length_a 11.774139
_cell_length_b 14.186434
_cell_length_c 9.886202
_cell_angle_alpha 90.000000
_cell_angle_beta 84.146747
_cell_angle_gamma 90.000000
_cell_volume 1642.713020
_symmetry_space_group_name_H-M "P 21/M"
_symmetry_group_IT_number 11
_symmetry_cell_setting 'monoclinic'
loop_
_space_group_symop_operation_xyz
x,y,z
-x,1/2+y,-z
-x,-y,-z
x,1/2-y,z
loop_
_atom_site_type_symbol
_atom_site_label
_atom_site_fract_x
_atom_site_fract_y
_atom_site_fract_z
Si Si1 0.562605 0.136059 0.392337
Si Si2 0.300016 0.854875 0.890774
Si Si3 0.560517 0.426495 0.892451
Si Si4 0.155392 0.362355 0.011109
Si Si5 0.204090 0.004267 0.249964
Si Si6 0.330152 0.035863 0.483931
Si Si7 0.910397 0.363316 0.913738
Si Si8 0.657977 0.638236 0.235536
O O1 0.565527 0.250000 0.411599
O O2 0.627529 0.109086 0.244751
O O3 0.432891 0.098211 0.406843
O O4 0.624588 0.071004 0.496746
O O5 0.266536 0.750000 0.852319
O O6 0.383175 0.853493 0.009802
O O7 0.183385 0.898321 0.963625
O O8 0.666984 0.473722 0.804949
O O9 0.469209 0.385024 0.800293
O O10 0.500000 0.500000 0.000000
O O11 0.160042 0.250000 0.030390
O O12 0.258348 0.388214 0.897809
O O13 0.035753 0.384365 0.953001
O O14 0.167784 0.413530 0.152364
O O15 0.219229 0.033932 0.402837
O O16 0.122810 0.917218 0.219426
O O17 0.311867 0.082774 0.632378
O O18 0.898440 0.250000 0.899762
O O19 0.668305 0.750000 0.258577
#
# Coordination Sequence:
#
# PCOD9164850 Si02
#       8
#     4   4   4   4   4   4   4   4
#     4  10  21  37  57  82 122 163 191 232 292 351
#     4   9  18  32  56  85 108 140 188 244 288 328
#     4  11  18  31  53  83 117 141 186 236 283 343
#     4  10  22  40  62  85 113 153 196 240 292 347
#     4  11  22  36  59  86 114 151 189 243 293 336
#     4  11  23  37  54  87 122 158 195 232 283 352
#     4   9  20  39  63  88 112 143 196 250 293 340
#     4  11  23  38  58  84 122 164 193 232 291 350
#
# _framework density 19.479970000000002
#
# number of rings (size 3 to 8) (size 9 to 14) (size 15 to 20)
#    0.000    1.750    1.250    4.125    1.750    2.000 
#    0.000    0.625    0.000    0.000    0.000    0.000 
#    0.000    0.000    0.000    0.000    0.000    0.000 
#
# Total GULP energy -178570.602874 kJ/mol
# GULP energy per Si atom -5580.331340 kJ/mol
# Density = 1.943563 g / cm^3
# Si number density = 19.479970 Si / 1000 Ang^3
#
#
#
# Elastic Constant Matrix: (Units=GPa)
#
#
# Indices 1 2 3 4 5 6 
#
# 1 72.7141 34.1309 33.1794 0.0000 31.8505 0.0000
# 2 34.1309 82.5271 25.3798 0.0000 16.1216 0.0000
# 3 33.1794 25.3798 84.5294 0.0000 31.8252 0.0000
# 4 0.0000 0.0000 0.0000 18.2473 0.0000 4.4288
# 5 31.8505 16.1216 31.8252 0.0000 30.0513 0.0000
# 6 0.0000 0.0000 0.0000 4.4288 0.0000 18.4856
#
#
#
# Elastic Compliance Matrix: (Units=1/GPa)
#
#
# Indices 1 2 3 4 5 6 
#
# 1 0.028651 -0.006769 0.001417 0.000000 -0.028236 0.000000
# 2 -0.006769 0.015388 -0.002588 0.000000 0.001660 0.000000
# 3 0.001417 -0.002588 0.020113 0.000000 -0.021414 0.000000
# 4 0.000000 0.000000 0.000000 0.058186 0.000000 -0.013940
# 5 -0.028236 0.001660 -0.021414 0.000000 0.084990 0.000000
# 6 0.000000 0.000000 0.000000 -0.013940 0.000000 0.057436
#
#
# Mechanical properties :
#
#
# Convention : Reuss Voigt Hill
#
# Bulk Modulus (GPa) = 20.71603 47.23899 33.97751
# Shear Modulus (GPa) = 16.84996 23.16222 20.00609
#
# Velocity S-wave (km/s) = 2.94426 3.45197 3.20817
# Velocity P-wave (km/s) = 4.71337 6.33962 5.58599
#
# Compressibility (1/GPa) = 0.04827180
#
# Stress axis : x y z
#
# Youngs Moduli (GPa) = 34.90263 64.98360 49.71786
#
# Poissons Ratio (x) = 0.43989 -0.07045
# Poissons Ratio (y) = 0.23627 0.12869
# Poissons Ratio (z) = -0.04946 0.16820
#
# Static dielectric constant tensor:
#      x y z
#    x 1.673850 0.000000 -0.018260 
#    y 0.000000 1.726990 0.000000 
#    z -0.018260 0.000000 1.708440 
# 
# From -- ./inp_files/18084.got.cif
#   From: 2010.05.17/outbox.cif.g08.bks.cpg/sg11_10_cif.got.tgz:18084.got - 2010.06.03 12:22:45.
