data_PCOD9164747
_publ_section_title
;
Structure prediction by ZEFSAII (Michael W. Deem and Ramdas Pophale) SiO2 
 PCOD9164747
Probable space group: P 21/M
;
_chemical_formula_sum "Si O2"
_cell_formula_units_Z 32
_cell_length_a 13.800354
_cell_length_b 20.111974
_cell_length_c 8.793604
_cell_angle_alpha 90.000000
_cell_angle_beta 138.946836
_cell_angle_gamma 90.000000
_cell_volume 1602.942278
_symmetry_space_group_name_H-M "P 21/M"
_symmetry_group_IT_number 11
_symmetry_cell_setting 'monoclinic'
loop_
_space_group_symop_operation_xyz
x,y,z
-x,1/2+y,-z
-x,-y,-z
x,1/2-y,z
loop_
_atom_site_type_symbol
_atom_site_label
_atom_site_fract_x
_atom_site_fract_y
_atom_site_fract_z
Si Si1 0.083868 0.929915 0.580382
Si Si2 0.538440 0.675619 0.749185
Si Si3 0.218926 0.678195 0.264348
Si Si4 0.784168 0.442993 0.945881
Si Si5 0.591276 0.416930 0.176927
Si Si6 0.540825 0.954937 0.300449
Si Si7 0.990504 0.674367 0.236107
Si Si8 0.760884 0.590127 0.817787
O O1 0.241540 0.931057 0.679636
O O2 0.988897 0.875286 0.377356
O O3 0.130390 0.915129 0.807138
O O4 0.000000 0.000000 0.500000
O O5 0.601787 0.750000 0.834034
O O6 0.395359 0.679114 0.472610
O O7 0.469164 0.651485 0.825925
O O8 0.650065 0.622499 0.810493
O O9 0.167578 0.750000 0.138647
O O10 0.179831 0.609529 0.140243
O O11 0.153629 0.676219 0.356703
O O12 0.610004 0.446609 0.782405
O O13 0.821151 0.518494 0.943849
O O14 0.569718 0.468150 0.292493
O O15 0.492043 0.428182 0.908502
O O16 0.672217 0.923188 0.556002
O O17 0.949871 0.750000 0.225501
O O18 0.891902 0.643522 0.983566
#
# Coordination Sequence:
#
# PCOD9164747 Si02
#       8
#     4   4   4   4   4   4   4   4
#     4  11  23  40  60  93 124 161 214 256 305 376
#     4  11  21  38  62  88 124 166 209 253 306 377
#     4  10  22  40  60  89 124 162 209 254 309 376
#     4  11  21  37  65  92 121 157 209 263 304 362
#     4  10  21  38  61  90 123 164 207 254 313 366
#     4  10  21  36  60  93 127 152 198 267 307 359
#     4  11  25  43  62  88 129 170 203 254 319 377
#     4  12  22  38  63  95 126 159 208 257 318 372
#
# _framework density 19.963289
#
# number of rings (size 3 to 8) (size 9 to 14) (size 15 to 20)
#    0.000    1.250    5.000    1.500    0.000    2.000 
#    0.000    3.125    0.000    1.500    0.000    0.000 
#    0.000    0.000    0.000    0.000    0.000    0.000 
#
# Total GULP energy -178239.993095 kJ/mol
# GULP energy per Si atom -5569.999784 kJ/mol
# Density = 1.991785 g / cm^3
# Si number density = 19.963289 Si / 1000 Ang^3
#
#
#
# Elastic Constant Matrix: (Units=GPa)
#
#
# Indices 1 2 3 4 5 6 
#
# 1 55.6887 35.5741 9.0034 0.0000 -3.2286 0.0000
# 2 35.5741 157.8624 38.3852 0.0000 -18.4048 0.0000
# 3 9.0034 38.3852 84.4433 0.0000 -6.4142 0.0000
# 4 0.0000 0.0000 0.0000 17.4936 0.0000 -8.5263
# 5 -3.2286 -18.4048 -6.4142 0.0000 18.8359 0.0000
# 6 0.0000 0.0000 0.0000 -8.5263 0.0000 28.7223
#
#
#
# Elastic Compliance Matrix: (Units=1/GPa)
#
#
# Indices 1 2 3 4 5 6 
#
# 1 0.021000 -0.004838 -0.000129 0.000000 -0.001171 0.000000
# 2 -0.004838 0.008967 -0.003036 0.000000 0.006899 0.000000
# 3 -0.000129 -0.003036 0.013355 0.000000 0.001559 0.000000
# 4 0.000000 0.000000 0.000000 0.066834 0.000000 0.019840
# 5 -0.001171 0.006899 0.001559 0.000000 0.060161 0.000000
# 6 0.000000 0.000000 0.000000 0.019840 0.000000 0.040706
#
#
# Mechanical properties :
#
#
# Convention : Reuss Voigt Hill
#
# Bulk Modulus (GPa) = 36.60833 51.54663 44.07748
# Shear Modulus (GPa) = 21.17437 27.34580 24.26008
#
# Velocity S-wave (km/s) = 3.26032 3.70510 3.48980
# Velocity P-wave (km/s) = 5.70531 6.64684 6.19399
#
# Compressibility (1/GPa) = 0.02731619
#
# Stress axis : x y z
#
# Youngs Moduli (GPa) = 47.61874 111.51455 74.88004
#
# Poissons Ratio (x) = 0.53945 0.00966
# Poissons Ratio (y) = 0.23036 0.22737
# Poissons Ratio (z) = 0.00614 0.33861
#
# Static dielectric constant tensor:
#      x y z
#    x 1.705060 0.000000 0.034180 
#    y 0.000000 1.737370 0.000000 
#    z 0.034180 0.000000 1.754120 
# 
# From -- ./inp_files/23130.got.cif
#   From: 2010.05.17/outbox.cif.g08.bks.cpg/sg11_12_cif.got.tgz:23130.got - 2010.06.03 12:22:45.
