data_PCOD9164232
_publ_section_title
;
Structure prediction by ZEFSAII (Michael W. Deem and Ramdas Pophale) SiO2 
 PCOD9164232
Probable space group: P 21/M
;
_chemical_formula_sum "Si O2"
_cell_formula_units_Z 24
_cell_length_a 5.250259
_cell_length_b 12.498583
_cell_length_c 18.986624
_cell_angle_alpha 90.000000
_cell_angle_beta 111.751217
_cell_angle_gamma 90.000000
_cell_volume 1157.210191
_symmetry_space_group_name_H-M "P 21/M"
_symmetry_group_IT_number 11
_symmetry_cell_setting 'monoclinic'
loop_
_space_group_symop_operation_xyz
x,y,z
-x,1/2+y,-z
-x,-y,-z
x,1/2-y,z
loop_
_atom_site_type_symbol
_atom_site_label
_atom_site_fract_x
_atom_site_fract_y
_atom_site_fract_z
Si Si1 0.334187 0.623203 0.556512
Si Si2 0.734347 0.563011 0.949163
Si Si3 0.898086 0.494565 0.599796
Si Si4 0.324076 0.130992 0.902001
Si Si5 0.023339 0.995291 0.237819
Si Si6 0.521130 0.870504 0.787127
O O1 0.338206 0.750000 0.567164
O O2 0.638971 0.574499 0.581695
O O3 0.183018 0.591242 0.467801
O O4 0.156810 0.562366 0.597931
O O5 0.533548 0.464802 0.910845
O O6 0.715765 0.630772 0.876854
O O7 0.677493 0.630937 0.013170
O O8 0.000000 0.500000 0.000000
O O9 0.953353 0.445443 0.682170
O O10 0.396709 0.250000 0.884933
O O11 0.058567 0.087902 0.832361
O O12 0.776035 0.082226 0.221719
O O13 0.305395 0.053887 0.246606
O O14 0.491089 0.750000 0.757092
#
# Coordination Sequence:
#
# PCOD9164232 Si02
#       6
#     4   4   4   4   4   4
#     4  10  21  39  63  88 114 153 195 231 286 347
#     4  10  20  40  57  81 113 151 203 248 283 346
#     4  10  22  38  60  88 120 151 188 243 283 340
#     4  10  22  38  59  83 114 156 196 242 296 344
#     4  11  23  40  57  88 123 149 194 239 290 351
#     4  11  23  38  59  85 117 157 197 242 292 340
#
# _framework density 20.739533999999999
#
# number of rings (size 3 to 8) (size 9 to 14) (size 15 to 20)
#    0.000    1.667    1.667    2.500    0.000    6.000 
#    0.000    0.000    0.000    6.000    0.000    0.000 
#    0.000    0.000    0.000    0.000    0.000    0.000 
#
# Total GULP energy -133824.900824 kJ/mol
# GULP energy per Si atom -5576.037534 kJ/mol
# Density = 2.069233 g / cm^3
# Si number density = 20.739534 Si / 1000 Ang^3
#
#
#
# Elastic Constant Matrix: (Units=GPa)
#
#
# Indices 1 2 3 4 5 6 
#
# 1 85.0313 10.2139 0.9641 0.0000 0.3300 0.0000
# 2 10.2139 88.9689 20.3179 0.0000 -3.9857 0.0000
# 3 0.9641 20.3179 82.4131 0.0000 -8.6968 0.0000
# 4 0.0000 0.0000 0.0000 2.9974 0.0000 -6.1591
# 5 0.3300 -3.9857 -8.6968 0.0000 32.4082 0.0000
# 6 0.0000 0.0000 0.0000 -6.1591 0.0000 29.5260
#
#
#
# Elastic Compliance Matrix: (Units=1/GPa)
#
#
# Indices 1 2 3 4 5 6 
#
# 1 0.011930 -0.001423 0.000185 0.000000 -0.000247 0.000000
# 2 -0.001423 0.012095 -0.002889 0.000000 0.000727 0.000000
# 3 0.000185 -0.002889 0.013180 0.000000 0.003180 0.000000
# 4 0.000000 0.000000 0.000000 0.583913 0.000000 0.121804
# 5 -0.000247 0.000727 0.003180 0.000000 0.031802 0.000000
# 6 0.000000 0.000000 0.000000 0.121804 0.000000 0.059277
#
#
# Mechanical properties :
#
#
# Convention : Reuss Voigt Hill
#
# Bulk Modulus (GPa) = 34.53949 35.48945 35.01447
# Shear Modulus (GPa) = 6.84838 27.98080 17.41459
#
# Velocity S-wave (km/s) = 1.81914 3.67707 2.90087
# Velocity P-wave (km/s) = 4.59374 5.93101 5.30468
#
# Compressibility (1/GPa) = 0.02895237
#
# Stress axis : x y z
#
# Youngs Moduli (GPa) = 83.82117 82.67543 75.87530
#
# Poissons Ratio (x) = 0.11765 -0.01405
# Poissons Ratio (y) = 0.11928 0.21918
# Poissons Ratio (z) = -0.01552 0.23882
#
# Static dielectric constant tensor:
#      x y z
#    x 1.844900 0.000000 0.043900 
#    y 0.000000 1.697860 0.000000 
#    z 0.043900 0.000000 1.920300 
# 
# From -- ./inp_files/7703.got.cif
#   From: 2010.05.17/outbox.cif.g08.bks.cpg/sg11_4_cif.got.tgz:7703.got - 2010.06.03 12:22:45.
