data_PCOD9164366
_publ_section_title
;
Structure prediction by ZEFSAII (Michael W. Deem and Ramdas Pophale) SiO2 
 PCOD9164366
Probable space group: P 21/M
;
_chemical_formula_sum "Si O2"
_cell_formula_units_Z 28
_cell_length_a 14.733920
_cell_length_b 18.269897
_cell_length_c 5.308068
_cell_angle_alpha 90.000000
_cell_angle_beta 117.607284
_cell_angle_gamma 90.000000
_cell_volume 1266.180193
_symmetry_space_group_name_H-M "P 21/M"
_symmetry_group_IT_number 11
_symmetry_cell_setting 'monoclinic'
loop_
_space_group_symop_operation_xyz
x,y,z
-x,1/2+y,-z
-x,-y,-z
x,1/2-y,z
loop_
_atom_site_type_symbol
_atom_site_label
_atom_site_fract_x
_atom_site_fract_y
_atom_site_fract_z
Si Si1 0.922835 0.461044 0.206978
Si Si2 0.653880 0.518906 0.573514
Si Si3 0.832384 0.604874 0.967052
Si Si4 0.728082 0.250000 0.365771
Si Si5 0.592242 0.250000 0.687099
Si Si6 0.460914 0.904293 0.215341
Si Si7 0.074599 0.166022 0.391951
Si Si8 0.745024 0.408314 0.333312
O O1 0.816741 0.437258 0.203735
O O2 0.000000 0.500000 0.500000
O O3 0.977960 0.386005 0.205354
O O4 0.897195 0.530059 0.999635
O O5 0.715188 0.577726 0.818465
O O6 0.593198 0.460045 0.661058
O O7 0.570431 0.560949 0.294805
O O8 0.735728 0.472442 0.521750
O O9 0.851425 0.656388 0.753097
O O10 0.870950 0.638311 0.280328
O O11 0.644150 0.250000 0.480577
O O12 0.784489 0.328191 0.466831
O O13 0.680185 0.250000 0.020514
O O14 0.529864 0.324337 0.650117
O O15 0.374869 0.896888 0.890773
O O16 0.044046 0.250000 0.384408
#
# Coordination Sequence:
#
# PCOD9164366 Si02
#       8
#     4   4   4   2   2   4   4   4
#     4  10  22  41  68  96 130 172 223 273 336 395
#     4  11  21  38  67  93 127 175 223 268 323 394
#     4  11  23  45  69  98 135 175 221 278 330 397
#     4  10  22  36  62  86 130 166 206 266 342 384
#     4  10  20  44  54  92 126 170 204 278 322 388
#     4  10  22  38  63  93 129 171 222 270 325 395
#     4  11  25  46  69  99 136 175 226 278 332 398
#     4  11  21  40  63  95 134 171 219 278 334 393
#
# _framework density 22.113758000000001
#
# number of rings (size 3 to 8) (size 9 to 14) (size 15 to 20)
#    0.000    1.429    2.857    3.000    1.000    1.143 
#    2.571    0.000    1.571    0.000    0.000    0.000 
#    0.000    0.000    0.000    0.000    0.000    0.000 
#
# Total GULP energy -156246.609697 kJ/mol
# GULP energy per Si atom -5580.236061 kJ/mol
# Density = 2.206343 g / cm^3
# Si number density = 22.113758 Si / 1000 Ang^3
#
#
#
# Elastic Constant Matrix: (Units=GPa)
#
#
# Indices 1 2 3 4 5 6 
#
# 1 49.2799 33.6926 18.9372 0.0000 -8.6316 0.0000
# 2 33.6926 119.7103 18.9686 0.0000 -0.9217 0.0000
# 3 18.9372 18.9686 76.5403 0.0000 -1.1223 0.0000
# 4 0.0000 0.0000 0.0000 18.9677 0.0000 -12.7055
# 5 -8.6316 -0.9217 -1.1223 0.0000 32.7688 0.0000
# 6 0.0000 0.0000 0.0000 -12.7055 0.0000 14.2209
#
#
#
# Elastic Compliance Matrix: (Units=1/GPa)
#
#
# Indices 1 2 3 4 5 6 
#
# 1 0.028382 -0.007117 -0.005154 0.000000 0.007099 0.000000
# 2 -0.007117 0.010480 -0.000860 0.000000 -0.001609 0.000000
# 3 -0.005154 -0.000860 0.014540 0.000000 -0.000884 0.000000
# 4 0.000000 0.000000 0.000000 0.131301 0.000000 0.117309
# 5 0.007099 -0.001609 -0.000884 0.000000 0.032311 0.000000
# 6 0.000000 0.000000 0.000000 0.117309 0.000000 0.175128
#
#
# Mechanical properties :
#
#
# Convention : Reuss Voigt Hill
#
# Bulk Modulus (GPa) = 36.84524 43.19194 40.01859
# Shear Modulus (GPa) = 11.69720 24.78694 18.24207
#
# Velocity S-wave (km/s) = 2.30240 3.35159 2.87526
# Velocity P-wave (km/s) = 4.87503 5.87807 5.39989
#
# Compressibility (1/GPa) = 0.02714054
#
# Stress axis : x y z
#
# Youngs Moduli (GPa) = 35.23336 95.41596 68.77359
#
# Poissons Ratio (x) = 0.67906 0.35448
# Poissons Ratio (y) = 0.25075 0.05915
# Poissons Ratio (z) = 0.18161 0.08207
#
# Static dielectric constant tensor:
#      x y z
#    x 1.789380 0.000000 0.001980 
#    y 0.000000 1.851550 0.000000 
#    z 0.001980 0.000000 1.863900 
# 
# From -- ./inp_files/6914.got.cif
#   From: 2010.05.17/outbox.cif.g08.bks.cpg/sg11_4_cif.got.tgz:6914.got - 2010.06.03 12:22:45.
