data_PCOD9164935
_publ_section_title
;
Structure prediction by ZEFSAII (Michael W. Deem and Ramdas Pophale) SiO2 
 PCOD9164935
Probable space group: P 21/M
;
_chemical_formula_sum "Si O2"
_cell_formula_units_Z 28
_cell_length_a 12.333212
_cell_length_b 8.160748
_cell_length_c 15.357827
_cell_angle_alpha 90.000000
_cell_angle_beta 118.691343
_cell_angle_gamma 90.000000
_cell_volume 1355.950459
_symmetry_space_group_name_H-M "P 21/M"
_symmetry_group_IT_number 11
_symmetry_cell_setting 'monoclinic'
loop_
_space_group_symop_operation_xyz
x,y,z
-x,1/2+y,-z
-x,-y,-z
x,1/2-y,z
loop_
_atom_site_type_symbol
_atom_site_label
_atom_site_fract_x
_atom_site_fract_y
_atom_site_fract_z
Si Si1 0.008475 0.945034 0.279103
Si Si2 0.630396 0.551186 0.312527
Si Si3 0.122030 0.053343 0.492655
Si Si4 0.362110 0.939818 0.198878
Si Si5 0.608147 0.937929 0.978527
Si Si6 0.745906 0.061831 0.180608
Si Si7 0.085083 0.948280 0.114397
O O1 0.988188 0.750000 0.273190
O O2 0.035120 0.996508 0.190305
O O3 0.110861 0.988559 0.389956
O O4 0.885443 0.035288 0.263757
O O5 0.628123 0.750000 0.311375
O O6 0.748741 0.497126 0.414244
O O7 0.492642 0.492494 0.285620
O O8 0.658430 0.493612 0.225188
O O9 0.122944 0.250000 0.492983
O O10 0.000000 0.000000 0.500000
O O11 0.356397 0.750000 0.224051
O O12 0.226662 0.012518 0.164009
O O13 0.377808 0.953002 0.100840
O O14 0.589372 0.750000 0.945536
O O15 0.500000 0.000000 0.000000
O O16 0.726198 0.955086 0.086684
O O17 0.721976 0.250000 0.149536
O O18 0.088974 0.750000 0.113237
O O19 0.000000 0.000000 0.000000
#
# Coordination Sequence:
#
# PCOD9164935 Si02
#       7
#     4   4   4   4   4   4   4
#     4  11  23  40  61  88 123 162 205 253 308 366
#     4  10  21  37  59  85 119 156 195 247 308 363
#     4  11  22  37  60  91 124 161 203 254 311 368
#     4  10  21  40  62  85 117 158 204 254 308 362
#     4  12  23  35  53  83 120 156 195 242 301 367
#     4  12  23  35  56  86 119 156 200 248 304 364
#     4  10  23  42  65  90 119 160 207 255 305 364
#
# _framework density 20.649722000000001
#
# number of rings (size 3 to 8) (size 9 to 14) (size 15 to 20)
#    0.000    1.143    2.857    4.286    0.000    4.571 
#    0.000    0.714    0.000    0.000    0.000    0.000 
#    0.000    0.000    0.000    0.000    0.000    0.000 
#
# Total GULP energy -156366.734713 kJ/mol
# GULP energy per Si atom -5584.526240 kJ/mol
# Density = 2.060272 g / cm^3
# Si number density = 20.649722 Si / 1000 Ang^3
#
#
#
# Elastic Constant Matrix: (Units=GPa)
#
#
# Indices 1 2 3 4 5 6 
#
# 1 117.0114 9.5660 40.1816 0.0000 21.3169 0.0000
# 2 9.5660 39.6999 7.6156 0.0000 3.0186 0.0000
# 3 40.1816 7.6156 124.1446 0.0000 17.7498 0.0000
# 4 0.0000 0.0000 0.0000 29.8293 0.0000 1.4907
# 5 21.3169 3.0186 17.7498 0.0000 37.2885 0.0000
# 6 0.0000 0.0000 0.0000 1.4907 0.0000 13.5286
#
#
#
# Elastic Compliance Matrix: (Units=1/GPa)
#
#
# Indices 1 2 3 4 5 6 
#
# 1 0.010413 -0.001660 -0.002615 0.000000 -0.004574 0.000000
# 2 -0.001660 0.025823 -0.000948 0.000000 -0.000690 0.000000
# 3 -0.002615 -0.000948 0.009373 0.000000 -0.002890 0.000000
# 4 0.000000 0.000000 0.000000 0.033710 0.000000 -0.003714
# 5 -0.004574 -0.000690 -0.002890 0.000000 0.030864 0.000000
# 6 0.000000 0.000000 0.000000 -0.003714 0.000000 0.074327
#
#
# Mechanical properties :
#
#
# Convention : Reuss Voigt Hill
#
# Bulk Modulus (GPa) = 28.43820 43.95357 36.19588
# Shear Modulus (GPa) = 24.19244 31.02880 27.61062
#
# Velocity S-wave (km/s) = 3.42652 3.88058 3.66060
# Velocity P-wave (km/s) = 5.42737 6.43506 5.95258
#
# Compressibility (1/GPa) = 0.03516397
#
# Stress axis : x y z
#
# Youngs Moduli (GPa) = 96.03415 38.72471 106.69219
#
# Poissons Ratio (x) = 0.06427 0.27895
# Poissons Ratio (y) = 0.15939 0.10117
# Poissons Ratio (z) = 0.25109 0.03672
#
# Static dielectric constant tensor:
#      x y z
#    x 1.770620 0.000000 0.071370 
#    y 0.000000 1.763270 0.000000 
#    z 0.071370 0.000000 1.770320 
# 
# From -- ./inp_files/37858.got.cif
#   From: 2010.05.17/outbox.cif.g08.bks.cpg/sg11_19_cif.got.tgz:37858.got - 2010.06.03 12:22:45.
