data_PCOD9164897
_publ_section_title
;
Structure prediction by ZEFSAII (Michael W. Deem and Ramdas Pophale) SiO2 
 PCOD9164897
Probable space group: P 21/M
;
_chemical_formula_sum "Si O2"
_cell_formula_units_Z 32
_cell_length_a 20.609734
_cell_length_b 13.483844
_cell_length_c 15.662672
_cell_angle_alpha 90.000000
_cell_angle_beta 160.024586
_cell_angle_gamma 90.000000
_cell_volume 1486.932608
_symmetry_space_group_name_H-M "P 21/M"
_symmetry_group_IT_number 11
_symmetry_cell_setting 'monoclinic'
loop_
_space_group_symop_operation_xyz
x,y,z
-x,1/2+y,-z
-x,-y,-z
x,1/2-y,z
loop_
_atom_site_type_symbol
_atom_site_label
_atom_site_fract_x
_atom_site_fract_y
_atom_site_fract_z
Si Si1 0.621765 0.862928 0.926597
Si Si2 0.347431 0.979205 0.884391
Si Si3 0.966640 0.561971 0.134695
Si Si4 0.236071 0.637167 0.068933
Si Si5 0.510337 0.138190 0.788525
Si Si6 0.296557 0.981467 0.436984
Si Si7 0.362158 0.362830 0.370358
Si Si8 0.060146 0.637147 0.422463
O O1 0.572577 0.750000 0.886548
O O2 0.467840 0.906260 0.669596
O O3 0.833120 0.866629 0.150119
O O4 0.641312 0.929046 0.036191
O O5 0.154983 0.945775 0.599491
O O6 0.398456 0.887470 0.008903
O O7 0.500000 0.000000 0.000000
O O8 0.093083 0.563802 0.205515
O O9 0.094201 0.610992 0.365881
O O10 0.906590 0.451319 0.088501
O O11 0.770754 0.620249 0.874997
O O12 0.160345 0.750000 0.976390
O O13 0.340294 0.621942 0.105391
O O14 0.409436 0.631707 0.351954
O O15 0.447905 0.250000 0.706450
O O16 0.336352 0.064954 0.558336
O O17 0.311178 0.045707 0.369674
O O18 0.325296 0.250000 0.357558
O O19 0.122560 0.750000 0.519477
#
# Coordination Sequence:
#
# PCOD9164897 Si02
#       8
#     4   4   4   4   4   4   4   4
#     4  10  23  42  62  85 118 156 193 233 285 345
#     4  11  22  37  59  88 118 149 189 240 289 340
#     4  12  22  36  58  87 119 151 191 243 292 340
#     4   9  20  37  59  84 111 145 191 242 290 344
#     4   9  18  37  60  80 110 152 188 231 290 347
#     4  10  21  37  58  85 116 150 188 237 289 341
#     4  10  21  39  59  81 113 156 196 234 287 349
#     4  11  23  39  60  86 116 155 197 238 284 340
#
# _framework density 21.520814999999999
#
# number of rings (size 3 to 8) (size 9 to 14) (size 15 to 20)
#    0.000    1.750    0.000    6.750    0.000    4.000 
#    0.000    3.750    0.000    0.750    0.000    0.000 
#    0.000    0.000    0.000    0.000    0.000    0.000 
#
# Total GULP energy -178584.613079 kJ/mol
# GULP energy per Si atom -5580.769159 kJ/mol
# Density = 2.147183 g / cm^3
# Si number density = 21.520815 Si / 1000 Ang^3
#
#
#
# Elastic Constant Matrix: (Units=GPa)
#
#
# Indices 1 2 3 4 5 6 
#
# 1 40.1584 23.1395 12.2996 0.0000 -5.2237 0.0000
# 2 23.1395 117.8762 30.2126 0.0000 3.5313 0.0000
# 3 12.2996 30.2126 88.2230 0.0000 -13.7129 0.0000
# 4 0.0000 0.0000 0.0000 10.3712 0.0000 -6.5660
# 5 -5.2237 3.5313 -13.7129 0.0000 33.7267 0.0000
# 6 0.0000 0.0000 0.0000 -6.5660 0.0000 13.5011
#
#
#
# Elastic Compliance Matrix: (Units=1/GPa)
#
#
# Indices 1 2 3 4 5 6 
#
# 1 0.029086 -0.005462 -0.001490 0.000000 0.004471 0.000000
# 2 -0.005462 0.010514 -0.003354 0.000000 -0.003310 0.000000
# 3 -0.001490 -0.003354 0.013567 0.000000 0.005637 0.000000
# 4 0.000000 0.000000 0.000000 0.139315 0.000000 0.067753
# 5 0.004471 -0.003310 0.005637 0.000000 0.032981 0.000000
# 6 0.000000 0.000000 0.000000 0.067753 0.000000 0.107019
#
#
# Mechanical properties :
#
#
# Convention : Reuss Voigt Hill
#
# Bulk Modulus (GPa) = 30.71499 41.95122 36.33311
# Shear Modulus (GPa) = 13.73829 23.56020 18.64924
#
# Velocity S-wave (km/s) = 2.52934 3.31231 2.94695
# Velocity P-wave (km/s) = 4.77842 5.84501 5.33842
#
# Compressibility (1/GPa) = 0.03255739
#
# Stress axis : x y z
#
# Youngs Moduli (GPa) = 34.38032 95.10707 73.70675
#
# Poissons Ratio (x) = 0.51947 0.10979
# Poissons Ratio (y) = 0.18778 0.24720
# Poissons Ratio (z) = 0.05121 0.31897
#
# Static dielectric constant tensor:
#      x y z
#    x 1.815320 0.000000 -0.007620 
#    y 0.000000 1.780450 0.000000 
#    z -0.007620 0.000000 1.805630 
# 
# From -- ./inp_files/55025.got.cif
#   From: 2010.05.17/outbox.cif.g08.bks.cpg/sg11_28_cif.got.tgz:55025.got - 2010.06.03 12:22:45.
