data_PCOD9164049
_publ_section_title
;
Structure prediction by ZEFSAII (Michael W. Deem and Ramdas Pophale) SiO2 
 PCOD9164049
Probable space group: P 21/M
;
_chemical_formula_sum "Si O2"
_cell_formula_units_Z 28
_cell_length_a 5.325060
_cell_length_b 12.920544
_cell_length_c 21.574841
_cell_angle_alpha 90.000000
_cell_angle_beta 65.291456
_cell_angle_gamma 90.000000
_cell_volume 1348.503122
_symmetry_space_group_name_H-M "P 21/M"
_symmetry_group_IT_number 11
_symmetry_cell_setting 'monoclinic'
loop_
_space_group_symop_operation_xyz
x,y,z
-x,1/2+y,-z
-x,-y,-z
x,1/2-y,z
loop_
_atom_site_type_symbol
_atom_site_label
_atom_site_fract_x
_atom_site_fract_y
_atom_site_fract_z
Si Si1 0.393316 0.919861 0.426209
Si Si2 0.169709 0.083485 0.946621
Si Si3 0.562838 0.363611 0.720036
Si Si4 0.249574 0.364732 0.492168
Si Si5 0.635306 0.522965 0.815404
Si Si6 0.549472 0.250000 0.135645
Si Si7 0.033924 0.640608 0.156138
Si Si8 0.220446 0.250000 0.040825
O O1 0.463103 0.889040 0.349413
O O2 0.612763 0.878892 0.453979
O O3 0.082042 0.878797 0.471297
O O4 0.373573 0.043377 0.438067
O O5 0.983811 0.142213 0.915897
O O6 0.385827 0.027633 0.879895
O O7 0.285517 0.154704 0.988813
O O8 0.000000 0.000000 0.000000
O O9 0.705453 0.250000 0.711128
O O10 0.684440 0.460755 0.745958
O O11 0.263676 0.351790 0.781460
O O12 0.315064 0.250000 0.462756
O O13 0.566882 0.644486 0.820051
O O14 0.876348 0.474994 0.833125
O O15 0.406649 0.250000 0.082596
O O16 0.887299 0.250000 0.093200
O O17 0.186230 0.750000 0.159225
#
# Coordination Sequence:
#
# PCOD9164049 Si02
#       8
#     4   4   4   4   4   2   4   2
#     4  10  22  38  65  98 131 169 217 256 312 371
#     4  11  22  38  61  89 120 152 207 257 325 376
#     4  10  22  41  63  94 124 166 216 263 316 372
#     4  10  20  38  64  98 135 170 206 263 313 365
#     4  11  25  41  63  89 125 171 206 267 314 386
#     4  12  28  46  64  88 130 164 214 252 323 391
#     4  10  22  38  60  90 122 157 208 264 319 369
#     4  12  26  42  66  94 118 164 202 266 325 387
#
# _framework density 20.763762
#
# number of rings (size 3 to 8) (size 9 to 14) (size 15 to 20)
#    0.000    1.429    2.143    2.571    8.000    1.143 
#    1.286    0.000    0.000    0.000    0.000    0.000 
#    0.000    0.000    0.000    0.000    0.000    0.000 
#
# Total GULP energy -156053.121933 kJ/mol
# GULP energy per Si atom -5573.325783 kJ/mol
# Density = 2.071650 g / cm^3
# Si number density = 20.763762 Si / 1000 Ang^3
#
#
#
# Elastic Constant Matrix: (Units=GPa)
#
#
# Indices 1 2 3 4 5 6 
#
# 1 59.9914 2.6330 -1.0660 0.0000 14.3449 0.0000
# 2 2.6330 159.5362 26.0839 0.0000 6.9190 0.0000
# 3 -1.0660 26.0839 79.6086 0.0000 24.0015 0.0000
# 4 0.0000 0.0000 0.0000 5.8212 0.0000 -0.6096
# 5 14.3449 6.9190 24.0015 0.0000 23.4590 0.0000
# 6 0.0000 0.0000 0.0000 -0.6096 0.0000 13.6592
#
#
#
# Elastic Compliance Matrix: (Units=1/GPa)
#
#
# Indices 1 2 3 4 5 6 
#
# 1 0.021450 -0.000545 0.006322 0.000000 -0.019424 0.000000
# 2 -0.000545 0.006639 -0.002448 0.000000 0.000880 0.000000
# 3 0.006322 -0.002448 0.020817 0.000000 -0.024443 0.000000
# 4 0.000000 0.000000 0.000000 0.172592 0.000000 0.007703
# 5 -0.019424 0.000880 -0.024443 0.000000 0.079253 0.000000
# 6 0.000000 0.000000 0.000000 0.007703 0.000000 0.073554
#
#
# Mechanical properties :
#
#
# Convention : Reuss Voigt Hill
#
# Bulk Modulus (GPa) = 17.99719 39.38200 28.68959
# Shear Modulus (GPa) = 12.94767 26.68691 19.81729
#
# Velocity S-wave (km/s) = 2.49985 3.58895 3.09272
# Velocity P-wave (km/s) = 4.12538 6.01514 5.15755
#
# Compressibility (1/GPa) = 0.05556424
#
# Stress axis : x y z
#
# Youngs Moduli (GPa) = 46.62040 150.61957 48.03653
#
# Poissons Ratio (x) = 0.08213 -0.30369
# Poissons Ratio (y) = 0.02542 0.11759
# Poissons Ratio (z) = -0.29473 0.36870
#
# Static dielectric constant tensor:
#      x y z
#    x 1.806870 0.000000 0.035030 
#    y 0.000000 1.334480 0.000000 
#    z 0.035030 0.000000 1.672450 
# 
# From -- ./inp_files/62692.got.cif
#   From: 2010.05.17/outbox.cif.g08.bks.cpg/sg11_32_cif.got.tgz:62692.got - 2010.06.03 12:22:45.
