data_PCOD9164067
_publ_section_title
;
Structure prediction by ZEFSAII (Michael W. Deem and Ramdas Pophale) SiO2 
 PCOD9164067
Probable space group: P 21/M
;
_chemical_formula_sum "Si O2"
_cell_formula_units_Z 26
_cell_length_a 7.599721
_cell_length_b 11.718907
_cell_length_c 13.544233
_cell_angle_alpha 90.000000
_cell_angle_beta 62.269156
_cell_angle_gamma 90.000000
_cell_volume 1067.708596
_symmetry_space_group_name_H-M "P 21/M"
_symmetry_group_IT_number 11
_symmetry_cell_setting 'monoclinic'
loop_
_space_group_symop_operation_xyz
x,y,z
-x,1/2+y,-z
-x,-y,-z
x,1/2-y,z
loop_
_atom_site_type_symbol
_atom_site_label
_atom_site_fract_x
_atom_site_fract_y
_atom_site_fract_z
Si Si1 0.400521 0.385680 0.744714
Si Si2 0.393181 0.750000 0.766914
Si Si3 0.775060 0.750000 0.811913
Si Si4 0.789545 0.250000 0.390846
Si Si5 0.783977 0.049711 0.065698
Si Si6 0.310784 0.520875 0.479276
Si Si7 0.287291 0.506838 0.109375
Si Si8 0.038799 0.116603 0.679640
O O1 0.441416 0.250000 0.738442
O O2 0.349540 0.442025 0.862806
O O3 0.584041 0.458141 0.652405
O O4 0.209036 0.401023 0.721179
O O5 0.605166 0.750000 0.769063
O O6 0.379569 0.750000 0.651771
O O7 0.271240 0.641884 0.838929
O O8 0.756483 0.869836 0.874920
O O9 0.997204 0.750000 0.714091
O O10 0.771719 0.140677 0.462918
O O11 0.780800 0.099011 0.956189
O O12 0.000000 0.000000 0.000000
O O13 0.500000 0.500000 0.500000
O O14 0.143062 0.429661 0.552014
O O15 0.160996 0.551204 0.235610
O O16 0.500000 0.500000 0.000000
O O17 0.000059 0.250000 0.680636
#
# Coordination Sequence:
#
# PCOD9164067 Si02
#       8
#     4   2   2   2   4   4   4   4
#     4  10  21  39  65 103 135 171 228 293 343 409
#     4  12  26  44  67 101 143 183 230 293 345 421
#     4  12  26  46  67 101 141 191 232 294 349 411
#     4  12  22  44  74 102 134 182 242 277 358 428
#     4  12  25  41  66  99 136 181 233 286 347 422
#     4  10  20  38  66 104 132 173 231 287 347 419
#     4  12  25  42  64  93 135 183 228 281 351 413
#     4  10  21  38  64  95 134 173 223 283 346 417
#
# _framework density 24.351213000000001
#
# number of rings (size 3 to 8) (size 9 to 14) (size 15 to 20)
#    0.000    0.923    5.385    2.769    5.385    0.000 
#    1.385    0.000    0.000   10.154    0.000    0.000 
#    0.000    0.000    0.000    0.000    0.000    0.000 
#
# Total GULP energy -144775.115169 kJ/mol
# GULP energy per Si atom -5568.273660 kJ/mol
# Density = 2.429579 g / cm^3
# Si number density = 24.351213 Si / 1000 Ang^3
#
#
#
# Elastic Constant Matrix: (Units=GPa)
#
#
# Indices 1 2 3 4 5 6 
#
# 1 53.6910 18.7726 55.0132 0.0000 -9.4696 0.0000
# 2 18.7726 143.7846 55.7430 0.0000 -26.9901 0.0000
# 3 55.0132 55.7430 174.0731 0.0000 -41.0580 0.0000
# 4 0.0000 0.0000 0.0000 1.7125 0.0000 0.0218
# 5 -9.4696 -26.9901 -41.0580 0.0000 54.9667 0.0000
# 6 0.0000 0.0000 0.0000 0.0218 0.0000 4.4392
#
#
#
# Elastic Compliance Matrix: (Units=1/GPa)
#
#
# Indices 1 2 3 4 5 6 
#
# 1 0.027783 -0.000509 -0.009162 0.000000 -0.002307 0.000000
# 2 -0.000509 0.008226 -0.001871 0.000000 0.002554 0.000000
# 3 -0.009162 -0.001871 0.010500 0.000000 0.005346 0.000000
# 4 0.000000 0.000000 0.000000 0.583962 0.000000 -0.002869
# 5 -0.002307 0.002554 0.005346 0.000000 0.023043 0.000000
# 6 0.000000 0.000000 0.000000 -0.002869 0.000000 0.225278
#
#
# Mechanical properties :
#
#
# Convention : Reuss Voigt Hill
#
# Bulk Modulus (GPa) = 42.68581 70.06740 56.37660
# Shear Modulus (GPa) = 5.49641 28.35836 16.92739
#
# Velocity S-wave (km/s) = 1.50401 3.41626 2.63940
# Velocity P-wave (km/s) = 4.53689 6.66313 5.70003
#
# Compressibility (1/GPa) = 0.02342699
#
# Stress axis : x y z
#
# Youngs Moduli (GPa) = 35.99266 121.56512 95.23528
#
# Poissons Ratio (x) = 0.06182 0.87252
# Poissons Ratio (y) = 0.01830 0.17819
# Poissons Ratio (z) = 0.32976 0.22746
#
# Static dielectric constant tensor:
#      x y z
#    x 1.937900 0.000000 -0.060820 
#    y 0.000000 1.860650 0.000000 
#    z -0.060820 0.000000 1.858740 
# 
# From -- ./inp_files/46904.got.cif
#   From: 2010.05.17/outbox.cif.g08.bks.cpg/sg11_24_cif.got.tgz:46904.got - 2010.06.03 12:22:45.
