data_PCOD9164272
_publ_section_title
;
Structure prediction by ZEFSAII (Michael W. Deem and Ramdas Pophale) SiO2 
 PCOD9164272
Probable space group: P 21/M
;
_chemical_formula_sum "Si O2"
_cell_formula_units_Z 26
_cell_length_a 7.033638
_cell_length_b 20.850182
_cell_length_c 9.449745
_cell_angle_alpha 90.000000
_cell_angle_beta 127.692922
_cell_angle_gamma 90.000000
_cell_volume 1096.605976
_symmetry_space_group_name_H-M "P 21/M"
_symmetry_group_IT_number 11
_symmetry_cell_setting 'monoclinic'
loop_
_space_group_symop_operation_xyz
x,y,z
-x,1/2+y,-z
-x,-y,-z
x,1/2-y,z
loop_
_atom_site_type_symbol
_atom_site_label
_atom_site_fract_x
_atom_site_fract_y
_atom_site_fract_z
Si Si1 0.984637 0.936232 0.079782
Si Si2 0.935893 0.675533 0.404051
Si Si3 0.705615 0.068122 0.497914
Si Si4 0.373919 0.344116 0.013281
Si Si5 0.108600 0.861658 0.871970
Si Si6 0.230206 0.250000 0.197773
Si Si7 0.239435 0.427493 0.471411
O O1 0.711406 0.915581 0.985418
O O2 0.127321 0.941019 0.288578
O O3 0.110482 0.883539 0.035934
O O4 0.000000 0.000000 0.000000
O O5 0.969683 0.750000 0.461940
O O6 0.823065 0.676696 0.194703
O O7 0.757236 0.631725 0.417322
O O8 0.179213 0.632010 0.517957
O O9 0.442538 0.077435 0.442905
O O10 0.725718 0.997007 0.438323
O O11 0.342832 0.304266 0.141026
O O12 0.633216 0.339746 0.063009
O O13 0.912727 0.805690 0.777236
O O14 0.009985 0.918035 0.726326
#
# Coordination Sequence:
#
# PCOD9164272 Si02
#       7
#     4   4   4   4   4   2   4
#     4  10  20  40  65  96 121 166 219 267 322 382
#     4  11  24  43  65  95 127 172 221 259 328 396
#     4  10  23  46  66  91 135 173 221 267 324 389
#     4  10  22  42  64  92 126 168 213 273 319 384
#     4  11  23  40  66  96 125 165 217 269 331 385
#     4  10  22  40  62  88 128 162 210 266 326 378
#     4  11  24  43  65  95 133 175 212 272 329 390
#
# _framework density 23.709519
#
# number of rings (size 3 to 8) (size 9 to 14) (size 15 to 20)
#    0.000    1.538    2.308    1.846    1.077    3.692 
#    5.538    0.000    0.000    0.000    0.000    0.000 
#    0.000    0.000    0.000    0.000    0.000    0.000 
#
# Total GULP energy -144755.248821 kJ/mol
# GULP energy per Si atom -5567.509570 kJ/mol
# Density = 2.365556 g / cm^3
# Si number density = 23.709519 Si / 1000 Ang^3
#
#
#
# Elastic Constant Matrix: (Units=GPa)
#
#
# Indices 1 2 3 4 5 6 
#
# 1 137.0341 49.6745 10.0843 0.0000 12.9879 0.0000
# 2 49.6745 178.7622 18.7502 0.0000 -3.2254 0.0000
# 3 10.0843 18.7502 30.0323 0.0000 1.0477 0.0000
# 4 0.0000 0.0000 0.0000 5.3434 0.0000 1.5180
# 5 12.9879 -3.2254 1.0477 0.0000 30.8491 0.0000
# 6 0.0000 0.0000 0.0000 1.5180 0.0000 110.1905
#
#
#
# Elastic Compliance Matrix: (Units=1/GPa)
#
#
# Indices 1 2 3 4 5 6 
#
# 1 0.008597 -0.002321 -0.001304 0.000000 -0.003818 0.000000
# 2 -0.002321 0.006630 -0.003422 0.000000 0.001787 0.000000
# 3 -0.001304 -0.003422 0.035908 0.000000 -0.001028 0.000000
# 4 0.000000 0.000000 0.000000 0.187884 0.000000 -0.002588
# 5 -0.003818 0.001787 -0.001028 0.000000 0.034245 0.000000
# 6 0.000000 0.000000 0.000000 -0.002588 0.000000 0.009111
#
#
# Mechanical properties :
#
#
# Convention : Reuss Voigt Hill
#
# Bulk Modulus (GPa) = 26.99825 55.87182 41.43503
# Shear Modulus (GPa) = 16.19086 47.09789 31.64438
#
# Velocity S-wave (km/s) = 2.61604 4.46180 3.65728
# Velocity P-wave (km/s) = 4.53174 7.08236 5.94544
#
# Compressibility (1/GPa) = 0.03703944
#
# Stress axis : x y z
#
# Youngs Moduli (GPa) = 116.32518 150.82576 27.84884
#
# Poissons Ratio (x) = 0.35005 0.03633
# Poissons Ratio (y) = 0.26998 0.09531
# Poissons Ratio (z) = 0.15173 0.51619
#
# Static dielectric constant tensor:
#      x y z
#    x 1.909080 0.000000 -0.017780 
#    y 0.000000 1.976390 0.000000 
#    z -0.017780 0.000000 1.926510 
# 
# From -- ./inp_files/5141.got.cif
#   From: 2010.05.17/outbox.cif.g08.bks.cpg/sg11_3_cif.got.tgz:5141.got - 2010.06.03 12:22:45.
