data_PCOD9164488
_publ_section_title
;
Structure prediction by ZEFSAII (Michael W. Deem and Ramdas Pophale) SiO2 
 PCOD9164488
Probable space group: P 21/M
;
_chemical_formula_sum "Si O2"
_cell_formula_units_Z 32
_cell_length_a 21.132592
_cell_length_b 8.615199
_cell_length_c 25.940970
_cell_angle_alpha 90.000000
_cell_angle_beta 22.553513
_cell_angle_gamma 90.000000
_cell_volume 1811.431515
_symmetry_space_group_name_H-M "P 21/M"
_symmetry_group_IT_number 11
_symmetry_cell_setting 'monoclinic'
loop_
_space_group_symop_operation_xyz
x,y,z
-x,1/2+y,-z
-x,-y,-z
x,1/2-y,z
loop_
_atom_site_type_symbol
_atom_site_label
_atom_site_fract_x
_atom_site_fract_y
_atom_site_fract_z
Si Si1 0.993902 0.438669 0.344490
Si Si2 0.837798 0.437226 0.352733
Si Si3 0.658853 0.437281 0.646011
Si Si4 0.094686 0.936940 0.083098
Si Si5 0.858172 0.064347 0.070074
Si Si6 0.590160 0.435887 0.086002
Si Si7 0.365818 0.436183 0.061521
Si Si8 0.498971 0.063274 0.655713
O O1 0.992533 0.250000 0.345660
O O2 0.938730 0.485600 0.328283
O O3 0.847746 0.486617 0.493059
O O4 0.179562 0.490208 0.215552
O O5 0.842943 0.250000 0.346606
O O6 0.648578 0.483585 0.505419
O O7 0.928785 0.505194 0.235054
O O8 0.654772 0.250000 0.654212
O O9 0.569671 0.513343 0.761405
O O10 0.558568 0.477089 0.669007
O O11 0.095775 0.750000 0.082119
O O12 0.114809 0.990831 0.009246
O O13 0.250313 0.988777 0.000750
O O14 0.864513 0.250000 0.065481
O O15 0.676618 0.010358 0.223473
O O16 0.000000 0.000000 0.000000
O O17 0.595278 0.250000 0.077869
O O18 0.596930 0.508679 0.024441
O O19 0.367458 0.250000 0.061719
O O20 0.500000 0.500000 0.000000
O O21 0.485614 0.250000 0.663806
#
# Coordination Sequence:
#
# PCOD9164488 Si02
#       8
#     4   4   4   4   4   4   4   4
#     4   8  16  32  54  80 109 140 178 224 270 318
#     4   9  17  32  56  84 109 138 181 225 270 325
#     4   9  17  32  56  83 108 139 180 225 272 321
#     4  10  21  35  53  81 114 141 177 228 273 318
#     4  11  23  39  56  79 112 149 186 225 274 329
#     4  11  21  35  54  83 115 143 181 228 274 322
#     4  11  22  38  58  81 112 149 185 225 275 331
#     4   9  18  33  55  83 112 141 178 225 274 326
#
# _framework density 17.665586999999999
#
# number of rings (size 3 to 8) (size 9 to 14) (size 15 to 20)
#    0.000    2.250    2.500    2.625    0.000    2.000 
#    0.000    4.375    0.000    0.000    0.000    0.000 
#    0.000    0.000    0.000    0.000    0.000    0.000 
#
# Total GULP energy -178541.115411 kJ/mol
# GULP energy per Si atom -5579.409857 kJ/mol
# Density = 1.762538 g / cm^3
# Si number density = 17.665587 Si / 1000 Ang^3
#
#
#
# Elastic Constant Matrix: (Units=GPa)
#
#
# Indices 1 2 3 4 5 6 
#
# 1 101.3471 24.6331 75.4633 0.0000 -7.7222 0.0000
# 2 24.6331 21.1168 28.2744 0.0000 -4.7269 0.0000
# 3 75.4633 28.2744 172.9007 0.0000 -6.3471 0.0000
# 4 0.0000 0.0000 0.0000 19.1404 0.0000 -7.0149
# 5 -7.7222 -4.7269 -6.3471 0.0000 27.0019 0.0000
# 6 0.0000 0.0000 0.0000 -7.0149 0.0000 19.0950
#
#
#
# Elastic Compliance Matrix: (Units=1/GPa)
#
#
# Indices 1 2 3 4 5 6 
#
# 1 0.016931 -0.012298 -0.005326 0.000000 0.001437 0.000000
# 2 -0.012298 0.071492 -0.006046 0.000000 0.007577 0.000000
# 3 -0.005326 -0.006046 0.009080 0.000000 -0.000447 0.000000
# 4 0.000000 0.000000 0.000000 0.060374 0.000000 0.022179
# 5 0.001437 0.007577 -0.000447 0.000000 0.038667 0.000000
# 6 0.000000 0.000000 0.000000 0.022179 0.000000 0.060518
#
#
# Mechanical properties :
#
#
# Convention : Reuss Voigt Hill
#
# Bulk Modulus (GPa) = 19.93408 61.34513 40.63961
# Shear Modulus (GPa) = 15.57037 24.18039 19.87538
#
# Velocity S-wave (km/s) = 2.97205 3.70372 3.35788
# Velocity P-wave (km/s) = 4.80480 7.28637 6.17160
#
# Compressibility (1/GPa) = 0.05016534
#
# Stress axis : x y z
#
# Youngs Moduli (GPa) = 59.06194 13.98757 110.12720
#
# Poissons Ratio (x) = 0.17202 0.58653
# Poissons Ratio (y) = 0.72633 0.66577
# Poissons Ratio (z) = 0.31456 0.08456
#
# Static dielectric constant tensor:
#      x y z
#    x 1.574460 0.000000 -0.001330 
#    y 0.000000 1.605070 0.000000 
#    z -0.001330 0.000000 1.611030 
# 
# From -- ./inp_files/72042.got.cif
#   From: 2010.05.17/outbox.cif.g08.bks.cpg/sg11_37_cif.got.tgz:72042.got - 2010.06.03 12:22:45.
