data_PCOD9164425
_publ_section_title
;
Structure prediction by ZEFSAII (Michael W. Deem and Ramdas Pophale) SiO2 
 PCOD9164425
Probable space group: P 21/M
;
_chemical_formula_sum "Si O2"
_cell_formula_units_Z 14
_cell_length_a 15.626774
_cell_length_b 5.442890
_cell_length_c 8.870193
_cell_angle_alpha 90.000000
_cell_angle_beta 133.520574
_cell_angle_gamma 90.000000
_cell_volume 547.074060
_symmetry_space_group_name_H-M "P 21/M"
_symmetry_group_IT_number 11
_symmetry_cell_setting 'monoclinic'
loop_
_space_group_symop_operation_xyz
x,y,z
-x,1/2+y,-z
-x,-y,-z
x,1/2-y,z
loop_
_atom_site_type_symbol
_atom_site_label
_atom_site_fract_x
_atom_site_fract_y
_atom_site_fract_z
Si Si1 0.344719 0.750000 0.307111
Si Si2 0.040294 0.250000 0.217829
Si Si3 0.329053 0.750000 0.792228
Si Si4 0.405598 0.250000 0.847414
Si Si5 0.120329 0.750000 0.249370
Si Si6 0.594073 0.750000 0.784626
Si Si7 0.073133 0.750000 0.629833
O O1 0.231602 0.750000 0.277006
O O2 0.461472 0.750000 0.555744
O O3 0.348838 0.499857 0.213011
O O4 0.110150 0.499991 0.329242
O O5 0.928487 0.250000 0.191066
O O6 0.999062 0.250000 0.995606
O O7 0.457262 0.750000 0.033406
O O8 0.206836 0.750000 0.732517
O O9 0.345382 0.498075 0.721521
O O10 0.396820 0.250000 0.021405
O O11 0.000000 0.500000 0.500000
#
# Coordination Sequence:
#
# PCOD9164425 Si02
#       7
#     2   2   2   2   2   2   2
#     4  10  21  37  55  90 123 151 197 240 304 363
#     4  10  23  39  62  90 118 160 207 251 296 366
#     4  10  23  42  61  92 118 159 213 255 301 370
#     4  10  21  39  64  90 121 159 206 251 310 364
#     4  10  21  41  61  89 121 159 206 246 304 357
#     4  10  21  34  57  90 120 154 190 243 303 365
#     4  12  26  44  64  95 129 168 213 260 322 377
#
# _framework density 25.590684
#
# number of rings (size 3 to 8) (size 9 to 14) (size 15 to 20)
#    0.000    1.714    0.000    3.429    4.000    2.286 
#    0.000    0.000    0.000    0.000    0.000    0.000 
#    0.000    0.000    0.000    0.000    0.000    0.000 
#
# Total GULP energy -78307.879341 kJ/mol
# GULP energy per Si atom -5593.419953 kJ/mol
# Density = 2.553244 g / cm^3
# Si number density = 25.590684 Si / 1000 Ang^3
#
#
#
# Elastic Constant Matrix: (Units=GPa)
#
#
# Indices 1 2 3 4 5 6 
#
# 1 195.3159 92.8814 26.5602 0.0000 30.2391 0.0000
# 2 92.8814 286.5487 21.2788 0.0000 18.3587 0.0000
# 3 26.5602 21.2788 94.1062 0.0000 9.4065 0.0000
# 4 0.0000 0.0000 0.0000 -12.8412 0.0000 -4.1052
# 5 30.2391 18.3587 9.4065 0.0000 52.6733 0.0000
# 6 0.0000 0.0000 0.0000 -4.1052 0.0000 43.1453
#
#
#
# Elastic Compliance Matrix: (Units=1/GPa)
#
#
# Indices 1 2 3 4 5 6 
#
# 1 0.006623 -0.001873 -0.001152 0.000000 -0.002944 0.000000
# 2 -0.001873 0.004144 -0.000378 0.000000 -0.000302 0.000000
# 3 -0.001152 -0.000378 0.011157 0.000000 -0.001199 0.000000
# 4 0.000000 0.000000 0.000000 -0.075576 0.000000 -0.007191
# 5 -0.002944 -0.000302 -0.001199 0.000000 0.020994 0.000000
# 6 0.000000 0.000000 0.000000 -0.007191 0.000000 0.022493
#
#
# Mechanical properties :
#
#
# Convention : Reuss Voigt Hill
#
# Bulk Modulus (GPa) = 66.14309 95.26796 80.70553
# Shear Modulus (GPa) = 2975.60787 45.61217 1510.61002
#
# Velocity S-wave (km/s) = 34.13641 4.22640 24.32238
# Velocity P-wave (km/s) = 39.74454 7.81825 28.64222
#
# Compressibility (1/GPa) = 0.01511874
#
# Stress axis : x y z
#
# Youngs Moduli (GPa) = 150.99470 241.30013 89.63187
#
# Poissons Ratio (x) = 0.45185 0.10321
# Poissons Ratio (y) = 0.28275 0.03392
# Poissons Ratio (z) = 0.17387 0.09131
#
# Static dielectric constant tensor:
#      x y z
#    x 1.934600 0.000000 -0.027250 
#    y 0.000000 2.069460 0.000000 
#    z -0.027250 0.000000 2.004780 
# 
# From -- ./inp_files/20029.got.cif
#   From: 2010.05.17/outbox.cif.g08.bks.cpg/sg11_11_cif.got.tgz:20029.got - 2010.06.03 12:22:45.
