data_PCOD9164669
_publ_section_title
;
Structure prediction by ZEFSAII (Michael W. Deem and Ramdas Pophale) SiO2 
 PCOD9164669
Probable space group: P 21/M
;
_chemical_formula_sum "Si O2"
_cell_formula_units_Z 32
_cell_length_a 15.020648
_cell_length_b 9.070974
_cell_length_c 22.891367
_cell_angle_alpha 90.000000
_cell_angle_beta 31.690155
_cell_angle_gamma 90.000000
_cell_volume 1638.486097
_symmetry_space_group_name_H-M "P 21/M"
_symmetry_group_IT_number 11
_symmetry_cell_setting 'monoclinic'
loop_
_space_group_symop_operation_xyz
x,y,z
-x,1/2+y,-z
-x,-y,-z
x,1/2-y,z
loop_
_atom_site_type_symbol
_atom_site_label
_atom_site_fract_x
_atom_site_fract_y
_atom_site_fract_z
Si Si1 0.609111 0.073655 0.490807
Si Si2 0.715744 0.074567 0.103304
Si Si3 0.877210 0.074125 0.520946
Si Si4 0.400839 0.925047 0.233036
Si Si5 0.011378 0.574670 0.874424
Si Si6 0.005625 0.426317 0.249019
Si Si7 0.893195 0.426056 0.695260
Si Si8 0.385501 0.926007 0.708421
O O1 0.590312 0.250000 0.498561
O O2 0.807199 0.039666 0.371324
O O3 0.500000 0.000000 0.500000
O O4 0.534664 0.013047 0.593207
O O5 0.722891 0.250000 0.097030
O O6 0.657263 0.032357 0.201238
O O7 0.574570 0.012586 0.137851
O O8 0.896007 0.008231 0.985263
O O9 0.902322 0.250000 0.503854
O O10 0.694713 0.047632 0.651600
O O11 0.000000 0.000000 0.500000
O O12 0.939639 0.999967 0.426839
O O13 0.432261 0.750000 0.211045
O O14 0.268194 0.965072 0.255652
O O15 0.988718 0.750000 0.894967
O O16 0.957838 0.535500 0.838510
O O17 0.210620 0.545606 0.771145
O O18 0.027035 0.250000 0.244376
O O19 0.116826 0.512394 0.234044
O O20 0.910029 0.250000 0.684237
O O21 0.420486 0.750000 0.686633
#
# Coordination Sequence:
#
# PCOD9164669 Si02
#       8
#     4   4   4   4   4   4   4   4
#     4  11  22  38  61  90 124 159 196 239 294 354
#     4  11  24  38  60  91 118 149 199 252 293 341
#     4   9  17  31  52  78 111 149 190 234 285 347
#     4   9  20  38  56  79 115 156 196 238 294 351
#     4  10  21  42  64  81 116 159 195 239 297 357
#     4  10  22  39  60  87 119 159 199 238 293 353
#     4  10  21  36  57  85 116 155 198 243 294 351
#     4  10  22  41  61  88 123 156 193 241 296 352
#
# _framework density 19.530224
#
# number of rings (size 3 to 8) (size 9 to 14) (size 15 to 20)
#    0.000    2.000    1.250    2.625    1.750    6.000 
#    0.000    0.625    0.000    0.000    0.000    0.000 
#    0.000    0.000    0.000    0.000    0.000    0.000 
#
# Total GULP energy -178688.053689 kJ/mol
# GULP energy per Si atom -5584.001678 kJ/mol
# Density = 1.948577 g / cm^3
# Si number density = 19.530224 Si / 1000 Ang^3
#
#
#
# Elastic Constant Matrix: (Units=GPa)
#
#
# Indices 1 2 3 4 5 6 
#
# 1 78.4213 15.6522 5.9057 0.0000 12.7233 0.0000
# 2 15.6522 20.7247 24.1381 0.0000 5.8451 0.0000
# 3 5.9057 24.1381 60.4910 0.0000 13.3667 0.0000
# 4 0.0000 0.0000 0.0000 30.2741 0.0000 6.7523
# 5 12.7233 5.8451 13.3667 0.0000 20.3720 0.0000
# 6 0.0000 0.0000 0.0000 6.7523 0.0000 25.5231
#
#
#
# Elastic Compliance Matrix: (Units=1/GPa)
#
#
# Indices 1 2 3 4 5 6 
#
# 1 0.018117 -0.021196 0.009176 0.000000 -0.011254 0.000000
# 2 -0.021196 0.115070 -0.046172 0.000000 0.010517 0.000000
# 3 0.009176 -0.046172 0.037893 0.000000 -0.017346 0.000000
# 4 0.000000 0.000000 0.000000 0.035103 0.000000 -0.009287
# 5 -0.011254 0.010517 -0.017346 0.000000 0.064479 0.000000
# 6 0.000000 0.000000 0.000000 -0.009287 0.000000 0.041637
#
#
# Mechanical properties :
#
#
# Convention : Reuss Voigt Hill
#
# Bulk Modulus (GPa) = 18.28279 27.89211 23.08745
# Shear Modulus (GPa) = 11.18781 22.82991 17.00886
#
# Velocity S-wave (km/s) = 2.39602 3.42270 2.95430
# Velocity P-wave (km/s) = 4.12748 5.47105 4.84606
#
# Compressibility (1/GPa) = 0.05469624
#
# Stress axis : x y z
#
# Youngs Moduli (GPa) = 55.19652 8.69034 26.39032
#
# Poissons Ratio (x) = 0.18420 -0.24216
# Poissons Ratio (y) = 1.16996 1.21849
# Poissons Ratio (z) = -0.50649 0.40125
#
# Static dielectric constant tensor:
#      x y z
#    x 1.698920 0.000000 0.010560 
#    y 0.000000 1.644660 0.000000 
#    z 0.010560 0.000000 1.680710 
# 
# From -- ./inp_files/69056.got.cif
#   From: 2010.05.17/outbox.cif.g08.bks.cpg/sg11_35_cif.got.tgz:69056.got - 2010.06.03 12:22:45.
