data_PCOD9164757
_publ_section_title
;
Structure prediction by ZEFSAII (Michael W. Deem and Ramdas Pophale) SiO2 
 PCOD9164757
Probable space group: P 21/M
;
_chemical_formula_sum "Si O2"
_cell_formula_units_Z 30
_cell_length_a 15.813039
_cell_length_b 9.547507
_cell_length_c 25.305040
_cell_angle_alpha 90.000000
_cell_angle_beta 158.869862
_cell_angle_gamma 90.000000
_cell_volume 1377.217600
_symmetry_space_group_name_H-M "P 21/M"
_symmetry_group_IT_number 11
_symmetry_cell_setting 'monoclinic'
loop_
_space_group_symop_operation_xyz
x,y,z
-x,1/2+y,-z
-x,-y,-z
x,1/2-y,z
loop_
_atom_site_type_symbol
_atom_site_label
_atom_site_fract_x
_atom_site_fract_y
_atom_site_fract_z
Si Si1 0.756206 0.583427 0.353906
Si Si2 0.240181 0.094074 0.912055
Si Si3 0.305100 0.514747 0.150482
Si Si4 0.060222 0.250000 0.035373
Si Si5 0.521271 0.915184 0.567010
Si Si6 0.078362 0.911546 0.377290
Si Si7 0.937910 0.084101 0.096988
Si Si8 0.734061 0.412554 0.240591
O O1 0.787944 0.750000 0.366431
O O2 0.572570 0.555117 0.293952
O O3 0.651142 0.512054 0.239873
O O4 0.000000 0.500000 0.500000
O O5 0.188580 0.250000 0.905177
O O6 0.107419 0.088229 0.779498
O O7 0.521413 0.084208 0.074502
O O8 0.143886 0.975401 0.894720
O O9 0.147734 0.630938 0.086319
O O10 0.263326 0.371143 0.155240
O O11 0.184854 0.502359 0.021986
O O12 0.482626 0.750000 0.533024
O O13 0.782369 0.931368 0.741460
O O14 0.323982 0.955598 0.494464
O O15 0.500000 0.000000 0.500000
O O16 0.092780 0.750000 0.405381
O O17 0.969402 0.018810 0.355271
O O18 0.883720 0.250000 0.057809
O O19 0.766915 0.250000 0.275719
#
# Coordination Sequence:
#
# PCOD9164757 Si02
#       8
#     4   4   4   2   4   4   4   4
#     4  12  26  46  70  97 132 176 219 273 337 403
#     4  10  21  36  63  90 125 167 212 261 310 370
#     4  11  23  46  69 100 133 167 217 271 331 400
#     4  10  24  44  72 100 130 166 210 278 332 386
#     4  10  21  37  58  87 125 166 206 251 312 373
#     4  10  21  40  58  89 133 173 213 263 314 378
#     4  11  21  36  62  94 124 162 207 255 311 381
#     4  11  24  41  63  95 124 167 222 268 321 378
#
# _framework density 21.783048999999998
#
# number of rings (size 3 to 8) (size 9 to 14) (size 15 to 20)
#    0.000    1.333    4.000    1.200    2.800    1.600 
#    4.800    0.000    0.000    0.000    0.000    0.000 
#    0.000    0.000    0.000    0.000    0.000    0.000 
#
# Total GULP energy -167136.899362 kJ/mol
# GULP energy per Si atom -5571.229979 kJ/mol
# Density = 2.173347 g / cm^3
# Si number density = 21.783049 Si / 1000 Ang^3
#
#
#
# Elastic Constant Matrix: (Units=GPa)
#
#
# Indices 1 2 3 4 5 6 
#
# 1 55.3533 35.9169 26.8968 0.0000 30.5410 0.0000
# 2 35.9169 124.6938 34.6561 0.0000 30.1168 0.0000
# 3 26.8968 34.6561 69.7718 0.0000 26.5113 0.0000
# 4 0.0000 0.0000 0.0000 18.1651 0.0000 61.6992
# 5 30.5410 30.1168 26.5113 0.0000 43.4892 0.0000
# 6 0.0000 0.0000 0.0000 61.6992 0.0000 -258.4424
#
#
#
# Elastic Compliance Matrix: (Units=1/GPa)
#
#
# Indices 1 2 3 4 5 6 
#
# 1 0.032145 -0.003982 -0.003753 0.000000 -0.017528 0.000000
# 2 -0.003982 0.010606 -0.002609 0.000000 -0.002958 0.000000
# 3 -0.003753 -0.002609 0.020026 0.000000 -0.007765 0.000000
# 4 0.000000 0.000000 0.000000 0.030400 0.000000 0.007258
# 5 -0.017528 -0.002958 -0.007765 0.000000 0.042086 0.000000
# 6 0.000000 0.000000 0.000000 0.007258 0.000000 -0.002137
#
#
# Mechanical properties :
#
#
# Convention : Reuss Voigt Hill
#
# Bulk Modulus (GPa) = 23.76024 49.41761 36.58892
# Shear Modulus (GPa) = 29.78950 -29.20100 0.29425
#
# Velocity S-wave (km/s) = 3.70206 -3.66531 0.36793
# Velocity P-wave (km/s) = 5.40416 2.19610 4.12480
#
# Compressibility (1/GPa) = 0.04208712
#
# Stress axis : x y z
#
# Youngs Moduli (GPa) = 31.10937 94.28404 49.93533
#
# Poissons Ratio (x) = 0.37546 0.18743
# Poissons Ratio (y) = 0.12389 0.13029
# Poissons Ratio (z) = 0.11677 0.24600
#
# Static dielectric constant tensor:
#      x y z
#    x 1.828750 0.000000 -0.023660 
#    y 0.000000 1.761820 0.000000 
#    z -0.023660 0.000000 1.839760 
# 
# From -- ./inp_files/73536.got.cif
#   From: 2010.05.17/outbox.cif.g08.bks.cpg/sg11_37_cif.got.tgz:73536.got - 2010.06.03 12:22:45.
