data_PCOD9164304
_publ_section_title
;
Structure prediction by ZEFSAII (Michael W. Deem and Ramdas Pophale) SiO2 
 PCOD9164304
Probable space group: P 21/M
;
_chemical_formula_sum "Si O2"
_cell_formula_units_Z 16
_cell_length_a 13.880514
_cell_length_b 8.624898
_cell_length_c 5.554366
_cell_angle_alpha 90.000000
_cell_angle_beta 106.247490
_cell_angle_gamma 90.000000
_cell_volume 638.400680
_symmetry_space_group_name_H-M "P 21/M"
_symmetry_group_IT_number 11
_symmetry_cell_setting 'monoclinic'
loop_
_space_group_symop_operation_xyz
x,y,z
-x,1/2+y,-z
-x,-y,-z
x,1/2-y,z
loop_
_atom_site_type_symbol
_atom_site_label
_atom_site_fract_x
_atom_site_fract_y
_atom_site_fract_z
Si Si1 0.977628 0.250000 0.521105
Si Si2 0.334144 0.079487 0.811563
Si Si3 0.814475 0.427437 0.650380
Si Si4 0.552839 0.081480 0.752910
Si Si5 0.099610 0.250000 0.107252
O O1 0.904056 0.397088 0.517518
O O2 0.024627 0.250000 0.288167
O O3 0.050606 0.250000 0.807083
O O4 0.287180 0.250000 0.779255
O O5 0.453240 0.099903 0.847875
O O6 0.281764 0.972332 0.579321
O O7 0.347720 0.999246 0.077417
O O8 0.808790 0.250000 0.755103
O O9 0.843395 0.583445 0.818440
O O10 0.584609 0.250000 0.699683
O O11 0.500000 0.000000 0.500000
#
# Coordination Sequence:
#
# PCOD9164304 Si02
#       5
#     2   4   4   4   2
#     4  10  26  44  76  95 140 177 230 276 356 394
#     4  10  20  41  61  90 131 167 214 271 323 386
#     4  10  23  40  68  97 129 175 224 277 339 407
#     4  10  21  37  62  89 127 172 216 264 327 389
#     4  12  22  52  66 103 136 179 224 292 334 414
#
# _framework density 25.062631
#
# number of rings (size 3 to 8) (size 9 to 14) (size 15 to 20)
#    0.750    1.000    1.250    3.000    0.000    3.000 
#    9.000    0.000    0.000    0.000    0.000    0.000 
#    0.000    0.000    0.000    0.000    0.000    0.000 
#
# Total GULP energy -89125.359009 kJ/mol
# GULP energy per Si atom -5570.334938 kJ/mol
# Density = 2.500559 g / cm^3
# Si number density = 25.062631 Si / 1000 Ang^3
#
#
#
# Elastic Constant Matrix: (Units=GPa)
#
#
# Indices 1 2 3 4 5 6 
#
# 1 97.5371 35.4608 11.1343 0.0000 9.6078 0.0000
# 2 35.4608 187.1582 40.4603 0.0000 8.1583 0.0000
# 3 11.1343 40.4603 100.7106 0.0000 17.7923 0.0000
# 4 0.0000 0.0000 0.0000 13.5550 0.0000 10.5233
# 5 9.6078 8.1583 17.7923 0.0000 21.6147 0.0000
# 6 0.0000 0.0000 0.0000 10.5233 0.0000 29.9513
#
#
#
# Elastic Compliance Matrix: (Units=1/GPa)
#
#
# Indices 1 2 3 4 5 6 
#
# 1 0.011406 -0.002041 0.000373 0.000000 -0.004606 0.000000
# 2 -0.002041 0.006218 -0.002362 0.000000 0.000504 0.000000
# 3 0.000373 -0.002362 0.012531 0.000000 -0.009589 0.000000
# 4 0.000000 0.000000 0.000000 0.101443 0.000000 -0.035642
# 5 -0.004606 0.000504 -0.009589 0.000000 0.056016 0.000000
# 6 0.000000 0.000000 0.000000 -0.035642 0.000000 0.045910
#
#
# Mechanical properties :
#
#
# Convention : Reuss Voigt Hill
#
# Bulk Modulus (GPa) = 45.25771 62.16851 53.71311
# Shear Modulus (GPa) = 20.08444 32.91424 26.49934
#
# Velocity S-wave (km/s) = 2.83392 3.62785 3.25518
# Velocity P-wave (km/s) = 5.36705 6.51211 5.96711
#
# Compressibility (1/GPa) = 0.02209568
#
# Stress axis : x y z
#
# Youngs Moduli (GPa) = 87.67571 160.81537 79.80113
#
# Poissons Ratio (x) = 0.32819 -0.02974
# Poissons Ratio (y) = 0.17893 0.18846
# Poissons Ratio (z) = -0.03268 0.37979
#
# Static dielectric constant tensor:
#      x y z
#    x 2.266710 0.000000 -0.213900 
#    y 0.000000 1.986730 0.000000 
#    z -0.213900 0.000000 1.974130 
# 
# From -- ./inp_files/7401.got.cif
#   From: 2010.05.17/outbox.cif.g08.bks.cpg/sg11_4_cif.got.tgz:7401.got - 2010.06.03 12:22:45.
