data_PCOD9164545
_publ_section_title
;
Structure prediction by ZEFSAII (Michael W. Deem and Ramdas Pophale) SiO2 
 PCOD9164545
Probable space group: P 21/M
;
_chemical_formula_sum "Si O2"
_cell_formula_units_Z 30
_cell_length_a 11.732250
_cell_length_b 24.223699
_cell_length_c 14.427337
_cell_angle_alpha 90.000000
_cell_angle_beta 18.793393
_cell_angle_gamma 90.000000
_cell_volume 1320.915045
_symmetry_space_group_name_H-M "P 21/M"
_symmetry_group_IT_number 11
_symmetry_cell_setting 'monoclinic'
loop_
_space_group_symop_operation_xyz
x,y,z
-x,1/2+y,-z
-x,-y,-z
x,1/2-y,z
loop_
_atom_site_type_symbol
_atom_site_label
_atom_site_fract_x
_atom_site_fract_y
_atom_site_fract_z
Si Si1 0.321324 0.057876 0.662906
Si Si2 0.310460 0.881756 0.784966
Si Si3 0.008446 0.841747 0.598906
Si Si4 0.188513 0.341323 0.979711
Si Si5 0.109920 0.250000 0.181763
Si Si6 0.038766 0.565449 0.714727
Si Si7 0.655954 0.460204 0.958769
Si Si8 0.182505 0.115514 0.446701
O O1 0.422578 0.098634 0.500939
O O2 0.554063 0.074343 0.573218
O O3 0.500000 0.000000 0.500000
O O4 0.916276 0.065667 0.002637
O O5 0.534315 0.859746 0.699054
O O6 0.015751 0.844333 0.960494
O O7 0.770233 0.798454 0.836038
O O8 0.963250 0.902371 0.677927
O O9 0.946507 0.846005 0.537658
O O10 0.404777 0.821820 0.322746
O O11 0.993964 0.298422 0.196679
O O12 0.163633 0.400884 0.049348
O O13 0.930723 0.501970 0.796376
O O14 0.860448 0.409744 0.753359
O O15 0.500000 0.500000 0.000000
O O16 0.375144 0.436256 0.247196
#
# Coordination Sequence:
#
# PCOD9164545 Si02
#       8
#     4   4   4   4   2   4   4   4
#     4  11  21  37  58  87 129 174 216 249 296 365
#     4  11  23  40  60  93 130 168 205 261 323 376
#     4  11  22  42  66  91 123 162 217 272 328 384
#     4  10  22  42  68  92 126 162 219 277 333 390
#     4  10  24  44  70  98 114 160 222 282 336 396
#     4  10  21  35  61  91 126 172 221 258 305 374
#     4  12  24  40  59  96 140 184 224 254 310 385
#     4  12  26  40  64  96 139 177 214 267 323 384
#
# _framework density 22.71153
#
# number of rings (size 3 to 8) (size 9 to 14) (size 15 to 20)
#    0.000    1.067    2.667    4.400    3.733    1.067 
#    0.000    0.667    0.000    1.600    0.000    0.000 
#    0.000    0.000    0.000    0.000    0.000    0.000 
#
# Total GULP energy -167099.237731 kJ/mol
# GULP energy per Si atom -5569.974591 kJ/mol
# Density = 2.265984 g / cm^3
# Si number density = 22.711530 Si / 1000 Ang^3
#
#
#
# Elastic Constant Matrix: (Units=GPa)
#
#
# Indices 1 2 3 4 5 6 
#
# 1 163.1406 31.7793 17.1928 0.0000 -22.9140 0.0000
# 2 31.7793 59.3418 -10.8524 0.0000 -1.7080 0.0000
# 3 17.1928 -10.8524 56.9539 0.0000 -2.2907 0.0000
# 4 0.0000 0.0000 0.0000 -427.4626 0.0000 -222.4851
# 5 -22.9140 -1.7080 -2.2907 0.0000 31.3781 0.0000
# 6 0.0000 0.0000 0.0000 -222.4851 0.0000 -102.5875
#
#
#
# Elastic Compliance Matrix: (Units=1/GPa)
#
#
# Indices 1 2 3 4 5 6 
#
# 1 0.008164 -0.004792 -0.003158 0.000000 0.005471 0.000000
# 2 -0.004792 0.020318 0.005237 0.000000 -0.002011 0.000000
# 3 -0.003158 0.005237 0.019485 0.000000 -0.000598 0.000000
# 4 0.000000 0.000000 0.000000 0.018166 0.000000 -0.039397
# 5 0.005471 -0.002011 -0.000598 0.000000 0.035711 0.000000
# 6 0.000000 0.000000 0.000000 -0.039397 0.000000 0.075693
#
#
# Mechanical properties :
#
#
# Convention : Reuss Voigt Hill
#
# Bulk Modulus (GPa) = 23.50623 39.51952 31.51287
# Shear Modulus (GPa) = 25.36226 -83.64662 -29.14218
#
# Velocity S-wave (km/s) = 3.34535 -6.07536 -3.58599
# Velocity P-wave (km/s) = 5.02933 5.63692 1.80009
#
# Compressibility (1/GPa) = 0.04254192
#
# Stress axis : x y z
#
# Youngs Moduli (GPa) = 122.48338 49.21781 51.32105
#
# Poissons Ratio (x) = 0.23587 0.16206
# Poissons Ratio (y) = 0.58698 -0.26878
# Poissons Ratio (z) = 0.38677 -0.25777
#
# Static dielectric constant tensor:
#      x y z
#    x 1.944010 0.000000 -0.022750 
#    y 0.000000 1.848570 0.000000 
#    z -0.022750 0.000000 1.939590 
# 
# From -- ./inp_files/5406.got.cif
#   From: 2010.05.17/outbox.cif.g08.bks.cpg/sg11_3_cif.got.tgz:5406.got - 2010.06.03 12:22:45.
