data_PCOD9164567
_publ_section_title
;
Structure prediction by ZEFSAII (Michael W. Deem and Ramdas Pophale) SiO2 
 PCOD9164567
Probable space group: P 21/M
;
_chemical_formula_sum "Si O2"
_cell_formula_units_Z 24
_cell_length_a 20.270057
_cell_length_b 9.746173
_cell_length_c 16.598367
_cell_angle_alpha 90.000000
_cell_angle_beta 18.880517
_cell_angle_gamma 90.000000
_cell_volume 1061.102109
_symmetry_space_group_name_H-M "P 21/M"
_symmetry_group_IT_number 11
_symmetry_cell_setting 'monoclinic'
loop_
_space_group_symop_operation_xyz
x,y,z
-x,1/2+y,-z
-x,-y,-z
x,1/2-y,z
loop_
_atom_site_type_symbol
_atom_site_label
_atom_site_fract_x
_atom_site_fract_y
_atom_site_fract_z
Si Si1 0.596221 0.408068 0.006228
Si Si2 0.810795 0.591742 0.635881
Si Si3 0.928230 0.093366 0.814816
Si Si4 0.669924 0.593117 0.537260
Si Si5 0.749070 0.903621 0.150437
Si Si6 0.729764 0.405028 0.314508
O O1 0.661310 0.250000 0.932246
O O2 0.391718 0.415061 0.186956
O O3 0.518585 0.443766 0.185664
O O4 0.760783 0.499068 0.770046
O O5 0.835433 0.750000 0.631327
O O6 0.995587 0.554921 0.362340
O O7 0.848244 0.250000 0.906967
O O8 0.133119 0.096760 0.632582
O O9 0.789793 0.985955 0.021372
O O10 0.641821 0.750000 0.538652
O O11 0.711759 0.484128 0.419582
O O12 0.836756 0.750000 0.047147
O O13 0.506439 0.889939 0.439523
O O14 0.827188 0.996329 0.134358
O O15 0.815536 0.250000 0.217837
#
# Coordination Sequence:
#
# PCOD9164567 Si02
#       6
#     4   4   4   4   4   4
#     4   8  14  25  42  66  96 127 157 190 230 277
#     4   8  14  25  42  66  96 127 157 190 230 277
#     4   9  18  32  50  74 102 129 159 197 240 284
#     4   9  18  32  50  74 102 129 159 197 240 284
#     4  10  21  36  53  72  94 124 162 200 240 289
#     4  10  21  36  53  72  94 124 162 200 240 289
#
# _framework density 22.617992999999998
#
# number of rings (size 3 to 8) (size 9 to 14) (size 15 to 20)
#    0.000    3.000    0.000    3.000    0.000    4.667 
#    0.000    3.333    0.000    1.000    0.000    0.000 
#    0.000    0.000    0.000    0.000    0.000    0.000 
#
# Total GULP energy -134133.356548 kJ/mol
# GULP energy per Si atom -5588.889856 kJ/mol
# Density = 2.256651 g / cm^3
# Si number density = 22.617993 Si / 1000 Ang^3
#
#
#
# Elastic Constant Matrix: (Units=GPa)
#
#
# Indices 1 2 3 4 5 6 
#
# 1 109.3688 67.5111 22.2183 0.0000 27.1400 0.0000
# 2 67.5111 166.2430 76.8695 0.0000 58.0062 0.0000
# 3 22.2183 76.8695 108.0260 0.0000 31.3688 0.0000
# 4 0.0000 0.0000 0.0000 29.1544 0.0000 9.8407
# 5 27.1400 58.0062 31.3688 0.0000 49.7021 0.0000
# 6 0.0000 0.0000 0.0000 9.8407 0.0000 25.3322
#
#
#
# Elastic Compliance Matrix: (Units=1/GPa)
#
#
# Indices 1 2 3 4 5 6 
#
# 1 0.012462 -0.005209 0.001658 0.000000 -0.001772 0.000000
# 2 -0.005209 0.014650 -0.006385 0.000000 -0.010224 0.000000
# 3 0.001658 -0.006385 0.014152 0.000000 -0.002386 0.000000
# 4 0.000000 0.000000 0.000000 0.039476 0.000000 -0.015335
# 5 -0.001772 -0.010224 -0.002386 0.000000 0.034525 0.000000
# 6 0.000000 0.000000 0.000000 -0.015335 0.000000 0.045433
#
#
# Mechanical properties :
#
#
# Convention : Reuss Voigt Hill
#
# Bulk Modulus (GPa) = 46.74487 79.64841 63.19664
# Shear Modulus (GPa) = 26.63812 35.30699 30.97256
#
# Velocity S-wave (km/s) = 3.43555 3.95525 3.70452
# Velocity P-wave (km/s) = 6.03732 7.49331 6.80438
#
# Compressibility (1/GPa) = 0.02139272
#
# Stress axis : x y z
#
# Youngs Moduli (GPa) = 80.24575 68.25745 70.66112
#
# Poissons Ratio (x) = 0.35557 -0.11717
# Poissons Ratio (y) = 0.41802 0.45115
# Poissons Ratio (z) = -0.13307 0.43580
#
# Static dielectric constant tensor:
#      x y z
#    x 1.885350 0.000000 -0.077320 
#    y 0.000000 1.783600 0.000000 
#    z -0.077320 0.000000 1.870070 
# 
# From -- ./inp_files/20530.got.cif
#   From: 2010.05.17/outbox.cif.g08.bks.cpg/sg11_11_cif.got.tgz:20530.got - 2010.06.03 12:22:45.
