data_PCOD9164708
_publ_section_title
;
Structure prediction by ZEFSAII (Michael W. Deem and Ramdas Pophale) SiO2 
 PCOD9164708
Probable space group: P 21/M
;
_chemical_formula_sum "Si O2"
_cell_formula_units_Z 26
_cell_length_a 23.622678
_cell_length_b 9.835918
_cell_length_c 11.954983
_cell_angle_alpha 90.000000
_cell_angle_beta 151.312895
_cell_angle_gamma 90.000000
_cell_volume 1333.391926
_symmetry_space_group_name_H-M "P 21/M"
_symmetry_group_IT_number 11
_symmetry_cell_setting 'monoclinic'
loop_
_space_group_symop_operation_xyz
x,y,z
-x,1/2+y,-z
-x,-y,-z
x,1/2-y,z
loop_
_atom_site_type_symbol
_atom_site_label
_atom_site_fract_x
_atom_site_fract_y
_atom_site_fract_z
Si Si1 0.895703 0.588402 0.765484
Si Si2 0.947377 0.590987 0.603267
Si Si3 0.781659 0.409389 0.180618
Si Si4 0.674061 0.911735 0.540774
Si Si5 0.771544 0.409702 0.908211
Si Si6 0.578836 0.025248 0.005887
Si Si7 0.496129 0.250000 0.027443
O O1 0.922730 0.750000 0.822240
O O2 0.889528 0.557408 0.623156
O O3 0.775122 0.562365 0.623131
O O4 0.000000 0.500000 0.000000
O O5 0.927464 0.750000 0.544118
O O6 0.891535 0.498241 0.411550
O O7 0.087521 0.571339 0.859326
O O8 0.813102 0.250000 0.235141
O O9 0.742494 0.442529 0.986453
O O10 0.678312 0.437502 0.089311
O O11 0.673196 0.750000 0.560536
O O12 0.547691 0.952650 0.273747
O O13 0.706197 0.996737 0.705964
O O14 0.745716 0.250000 0.842185
O O15 0.585107 0.871005 0.057780
O O16 0.575386 0.130832 0.102169
#
# Coordination Sequence:
#
# PCOD9164708 Si02
#       7
#     4   4   4   4   4   4   2
#     4  10  21  36  58  88 120 156 199 248 306 362
#     4  10  22  39  63  91 124 164 209 261 311 368
#     4  11  24  41  64  92 125 164 211 261 307 369
#     4  11  23  39  62  92 128 164 204 258 309 372
#     4  10  23  43  62  88 126 168 213 259 307 363
#     4  11  24  43  64  98 124 167 201 255 312 374
#     4  10  24  42  66  86 134 158 204 250 310 372
#
# _framework density 19.499143
#
# number of rings (size 3 to 8) (size 9 to 14) (size 15 to 20)
#    0.000    1.538    3.077    0.462    6.462    2.462 
#    0.000    0.000    0.000    0.000    0.000    0.000 
#    0.000    0.000    0.000    0.000    0.000    0.000 
#
# Total GULP energy -144816.894308 kJ/mol
# GULP energy per Si atom -5569.880550 kJ/mol
# Density = 1.945476 g / cm^3
# Si number density = 19.499143 Si / 1000 Ang^3
#
#
#
# Elastic Constant Matrix: (Units=GPa)
#
#
# Indices 1 2 3 4 5 6 
#
# 1 63.0175 13.8279 2.7299 0.0000 -14.7596 0.0000
# 2 13.8279 104.4003 30.3959 0.0000 -15.9341 0.0000
# 3 2.7299 30.3959 56.9256 0.0000 2.0635 0.0000
# 4 0.0000 0.0000 0.0000 -12.0609 0.0000 3.7860
# 5 -14.7596 -15.9341 2.0635 0.0000 17.8509 0.0000
# 6 0.0000 0.0000 0.0000 3.7860 0.0000 28.3703
#
#
#
# Elastic Compliance Matrix: (Units=1/GPa)
#
#
# Indices 1 2 3 4 5 6 
#
# 1 0.019834 0.000516 -0.001846 0.000000 0.017074 0.000000
# 2 0.000516 0.013933 -0.007964 0.000000 0.013784 0.000000
# 3 -0.001846 -0.007964 0.022314 0.000000 -0.011214 0.000000
# 4 0.000000 0.000000 0.000000 -0.079579 0.000000 0.010620
# 5 0.017074 0.013784 -0.011214 0.000000 0.083737 0.000000
# 6 0.000000 0.000000 0.000000 0.010620 0.000000 0.033831
#
#
# Mechanical properties :
#
#
# Convention : Reuss Voigt Hill
#
# Bulk Modulus (GPa) = 26.67077 35.36120 31.01599
# Shear Modulus (GPa) = 39.95056 18.65802 29.30429
#
# Velocity S-wave (km/s) = 4.53132 3.09668 3.88087
# Velocity P-wave (km/s) = 6.40974 5.56417 6.00186
#
# Compressibility (1/GPa) = 0.03749423
#
# Stress axis : x y z
#
# Youngs Moduli (GPa) = 50.41808 71.77425 44.81461
#
# Poissons Ratio (x) = -0.03705 0.08271
# Poissons Ratio (y) = -0.02602 0.35690
# Poissons Ratio (z) = 0.09306 0.57160
#
# Static dielectric constant tensor:
#      x y z
#    x 1.701470 0.000000 0.002970 
#    y 0.000000 1.653200 0.000000 
#    z 0.002970 0.000000 1.673400 
# 
# From -- ./inp_files/44048.got.cif
#   From: 2010.05.17/outbox.cif.g08.bks.cpg/sg11_23_cif.got.tgz:44048.got - 2010.06.03 12:22:45.
