data_PCOD9164859
_publ_section_title
;
Structure prediction by ZEFSAII (Michael W. Deem and Ramdas Pophale) SiO2 
 PCOD9164859
Probable space group: P 21/M
;
_chemical_formula_sum "Si O2"
_cell_formula_units_Z 28
_cell_length_a 29.532119
_cell_length_b 8.395462
_cell_length_c 9.184388
_cell_angle_alpha 90.000000
_cell_angle_beta 39.037031
_cell_angle_gamma 90.000000
_cell_volume 1434.193107
_symmetry_space_group_name_H-M "P 21/M"
_symmetry_group_IT_number 11
_symmetry_cell_setting 'monoclinic'
loop_
_space_group_symop_operation_xyz
x,y,z
-x,1/2+y,-z
-x,-y,-z
x,1/2-y,z
loop_
_atom_site_type_symbol
_atom_site_label
_atom_site_fract_x
_atom_site_fract_y
_atom_site_fract_z
Si Si1 0.356173 0.442520 0.524844
Si Si2 0.929113 0.442582 0.094496
Si Si3 0.071029 0.558988 0.240811
Si Si4 0.357375 0.942596 0.190771
Si Si5 0.212831 0.440938 0.051013
Si Si6 0.785745 0.442689 0.621497
Si Si7 0.499404 0.057422 0.335951
O O1 0.356289 0.250000 0.524739
O O2 0.356774 0.499887 0.357770
O O3 0.427574 0.496681 0.431730
O O4 0.284326 0.496850 0.787677
O O5 0.929103 0.250000 0.094417
O O6 0.857307 0.496226 0.357779
O O7 0.928797 0.496564 0.927515
O O8 0.000000 0.500000 0.000000
O O9 0.070903 0.750000 0.241154
O O10 0.141886 0.500654 0.146538
O O11 0.000000 0.500000 0.500000
O O12 0.357326 0.750000 0.191456
O O13 0.285967 0.996122 0.283692
O O14 0.429196 0.996490 0.927676
O O15 0.212551 0.250000 0.051306
O O16 0.213833 0.499281 0.214274
O O17 0.785807 0.250000 0.622091
O O18 0.499421 0.250000 0.336129
O O19 0.500000 0.000000 0.500000
#
# Coordination Sequence:
#
# PCOD9164859 Si02
#       7
#     4   4   4   4   4   4   4
#     4  10  22  38  56  82 117 151 187 233 286 340
#     4  10  22  38  57  81 110 143 181 225 275 328
#     4  11  23  40  61  86 116 150 188 233 282 334
#     4  10  21  37  59  85 112 146 193 239 284 341
#     4  11  23  38  57  84 115 150 190 231 279 338
#     4  10  21  38  58  82 111 145 186 234 283 334
#     4  10  21  37  57  84 115 149 190 237 287 343
#
# _framework density 19.523171999999999
#
# number of rings (size 3 to 8) (size 9 to 14) (size 15 to 20)
#    0.000    1.714    0.000    3.857    0.000    8.000 
#    0.000    0.000    0.000    0.000    0.000    0.000 
#    0.000    0.000    0.000    0.000    0.000    0.000 
#
# Total GULP energy -156551.669945 kJ/mol
# GULP energy per Si atom -5591.131069 kJ/mol
# Density = 1.947874 g / cm^3
# Si number density = 19.523172 Si / 1000 Ang^3
#
#
#
# Elastic Constant Matrix: (Units=GPa)
#
#
# Indices 1 2 3 4 5 6 
#
# 1 245.0334 25.9365 151.4564 0.0000 -1.2625 0.0000
# 2 25.9365 12.1082 29.9884 0.0000 -2.3416 0.0000
# 3 151.4564 29.9884 249.2897 0.0000 -1.3020 0.0000
# 4 0.0000 0.0000 0.0000 25.5807 0.0000 6.7711
# 5 -1.2625 -2.3416 -1.3020 0.0000 47.0676 0.0000
# 6 0.0000 0.0000 0.0000 6.7711 0.0000 34.1745
#
#
#
# Elastic Compliance Matrix: (Units=1/GPa)
#
#
# Indices 1 2 3 4 5 6 
#
# 1 0.006851 -0.006277 -0.003409 0.000000 -0.000223 0.000000
# 2 -0.006277 0.124809 -0.011171 0.000000 0.005732 0.000000
# 3 -0.003409 -0.011171 0.007424 0.000000 -0.000442 0.000000
# 4 0.000000 0.000000 0.000000 0.041256 0.000000 -0.008174
# 5 -0.000223 0.005732 -0.000442 0.000000 0.021513 0.000000
# 6 0.000000 0.000000 0.000000 -0.008174 0.000000 0.030881
#
#
# Mechanical properties :
#
#
# Convention : Reuss Voigt Hill
#
# Bulk Modulus (GPa) = 10.26987 102.35486 56.31237
# Shear Modulus (GPa) = 16.29181 41.30124 28.79652
#
# Velocity S-wave (km/s) = 2.89188 4.60444 3.84473
# Velocity P-wave (km/s) = 4.05246 8.98939 6.97250
#
# Compressibility (1/GPa) = 0.09737218
#
# Stress axis : x y z
#
# Youngs Moduli (GPa) = 145.96109 8.01224 134.70361
#
# Poissons Ratio (x) = 0.05029 0.45914
# Poissons Ratio (y) = 0.91617 1.50471
# Poissons Ratio (z) = 0.49751 0.08950
#
# Static dielectric constant tensor:
#      x y z
#    x 1.639050 0.000000 -0.018100 
#    y 0.000000 1.680850 0.000000 
#    z -0.018100 0.000000 1.667570 
# 
# From -- ./inp_files/28428.got.cif
#   From: 2010.05.17/outbox.cif.g08.bks.cpg/sg11_15_cif.got.tgz:28428.got - 2010.06.03 12:22:45.
