data_PCOD9164171
_publ_section_title
;
Structure prediction by ZEFSAII (Michael W. Deem and Ramdas Pophale) SiO2 
 PCOD9164171
Probable space group: P 21/M
;
_chemical_formula_sum "Si O2"
_cell_formula_units_Z 32
_cell_length_a 25.567184
_cell_length_b 14.416522
_cell_length_c 9.263432
_cell_angle_alpha 90.000000
_cell_angle_beta 154.787857
_cell_angle_gamma 90.000000
_cell_volume 1454.438610
_symmetry_space_group_name_H-M "P 21/M"
_symmetry_group_IT_number 11
_symmetry_cell_setting 'monoclinic'
loop_
_space_group_symop_operation_xyz
x,y,z
-x,1/2+y,-z
-x,-y,-z
x,1/2-y,z
loop_
_atom_site_type_symbol
_atom_site_label
_atom_site_fract_x
_atom_site_fract_y
_atom_site_fract_z
Si Si1 0.602435 0.465510 0.590829
Si Si2 0.131333 0.141788 0.448285
Si Si3 0.512306 0.147280 0.598553
Si Si4 0.624183 0.639494 0.127696
Si Si5 0.913660 0.140236 0.678449
Si Si6 0.683766 0.354420 0.292337
Si Si7 0.727085 0.993104 0.614639
Si Si8 0.012177 0.999717 0.359036
O O1 0.578721 0.560624 0.619923
O O2 0.616692 0.384485 0.745102
O O3 0.700901 0.492827 0.717582
O O4 0.485807 0.424084 0.209229
O O5 0.120033 0.250000 0.457236
O O6 0.263633 0.127873 0.705542
O O7 0.093024 0.081098 0.489804
O O8 0.031274 0.121209 0.073237
O O9 0.465137 0.250000 0.443378
O O10 0.569576 0.150323 0.900285
O O11 0.594672 0.750000 0.064616
O O12 0.672309 0.598284 0.400663
O O13 0.901786 0.250000 0.630604
O O14 0.795495 0.108129 0.473667
O O15 0.929491 0.091741 0.565325
O O16 0.714836 0.250000 0.418270
O O17 0.663143 0.421721 0.372445
O O18 0.872046 0.002826 0.952802
O O19 0.000000 0.000000 0.500000
#
# Coordination Sequence:
#
# PCOD9164171 Si02
#       8
#     4   4   4   4   4   4   4   4
#     4  11  25  41  64  93 131 168 206 262 316 370
#     4  10  21  41  67  90 118 162 215 260 304 375
#     4  10  23  43  64  92 124 167 215 256 311 373
#     4  11  23  41  67  92 121 166 219 265 310 370
#     4  10  20  39  64  90 118 161 212 254 302 373
#     4  10  21  38  66  92 121 163 208 257 308 367
#     4  12  24  42  60  96 128 163 209 259 315 381
#     4  12  26  38  62  94 133 166 198 258 327 380
#
# _framework density 22.001615000000001
#
# number of rings (size 3 to 8) (size 9 to 14) (size 15 to 20)
#    0.000    1.250    3.750    1.875    1.750    3.000 
#    0.000    0.000    0.000    0.000    0.000    0.000 
#    0.000    0.000    0.000    0.000    0.000    0.000 
#
# Total GULP energy -178839.773142 kJ/mol
# GULP energy per Si atom -5588.742911 kJ/mol
# Density = 2.195154 g / cm^3
# Si number density = 22.001615 Si / 1000 Ang^3
#
#
#
# Elastic Constant Matrix: (Units=GPa)
#
#
# Indices 1 2 3 4 5 6 
#
# 1 126.8644 51.0061 -18.1225 0.0000 -10.8942 0.0000
# 2 51.0061 121.6059 0.6809 0.0000 -6.2472 0.0000
# 3 -18.1225 0.6809 26.9289 0.0000 -2.4688 0.0000
# 4 0.0000 0.0000 0.0000 15.0682 0.0000 5.2501
# 5 -10.8942 -6.2472 -2.4688 0.0000 35.1940 0.0000
# 6 0.0000 0.0000 0.0000 5.2501 0.0000 7.6260
#
#
#
# Elastic Compliance Matrix: (Units=1/GPa)
#
#
# Indices 1 2 3 4 5 6 
#
# 1 0.011107 -0.004539 0.007881 0.000000 0.003185 0.000000
# 2 -0.004539 0.010154 -0.003296 0.000000 0.000166 0.000000
# 3 0.007881 -0.003296 0.042968 0.000000 0.004869 0.000000
# 4 0.000000 0.000000 0.000000 0.087308 0.000000 -0.060107
# 5 0.003185 0.000166 0.004869 0.000000 0.029771 0.000000
# 6 0.000000 0.000000 0.000000 -0.060107 0.000000 0.172511
#
#
# Mechanical properties :
#
#
# Convention : Reuss Voigt Hill
#
# Bulk Modulus (GPa) = 15.54689 38.05868 26.80279
# Shear Modulus (GPa) = 13.32739 27.69995 20.51367
#
# Velocity S-wave (km/s) = 2.46386 3.55208 3.05679
# Velocity P-wave (km/s) = 3.89560 5.84455 4.96661
#
# Compressibility (1/GPa) = 0.06432154
#
# Stress axis : x y z
#
# Youngs Moduli (GPa) = 90.03538 98.48205 23.27286
#
# Poissons Ratio (x) = 0.44702 -0.18342
# Poissons Ratio (y) = 0.40868 0.07671
# Poissons Ratio (z) = -0.70960 0.32462
#
# Static dielectric constant tensor:
#      x y z
#    x 1.795640 0.000000 0.009920 
#    y 0.000000 1.809630 0.000000 
#    z 0.009920 0.000000 1.865650 
# 
# From -- ./inp_files/27827.got.cif
#   From: 2010.05.17/outbox.cif.g08.bks.cpg/sg11_14_cif.got.tgz:27827.got - 2010.06.03 12:22:45.
