data_PCOD9164715
_publ_section_title
;
Structure prediction by ZEFSAII (Michael W. Deem and Ramdas Pophale) SiO2 
 PCOD9164715
Probable space group: P 21/M
;
_chemical_formula_sum "Si O2"
_cell_formula_units_Z 28
_cell_length_a 7.454709
_cell_length_b 14.554534
_cell_length_c 13.588433
_cell_angle_alpha 90.000000
_cell_angle_beta 116.401637
_cell_angle_gamma 90.000000
_cell_volume 1320.567163
_symmetry_space_group_name_H-M "P 21/M"
_symmetry_group_IT_number 11
_symmetry_cell_setting 'monoclinic'
loop_
_space_group_symop_operation_xyz
x,y,z
-x,1/2+y,-z
-x,-y,-z
x,1/2-y,z
loop_
_atom_site_type_symbol
_atom_site_label
_atom_site_fract_x
_atom_site_fract_y
_atom_site_fract_z
Si Si1 0.415575 0.644609 0.244700
Si Si2 0.291957 0.647320 0.689569
Si Si3 0.033783 0.523423 0.121031
Si Si4 0.742534 0.649502 0.734120
Si Si5 0.211997 0.456676 0.764779
Si Si6 0.981958 0.858925 0.450354
Si Si7 0.614903 0.590505 0.490451
O O1 0.425495 0.750000 0.218173
O O2 0.201557 0.601094 0.172307
O O3 0.583976 0.588435 0.225274
O O4 0.470366 0.635977 0.373991
O O5 0.234235 0.750000 0.709683
O O6 0.529999 0.641860 0.738055
O O7 0.216711 0.563316 0.735673
O O8 0.192723 0.636745 0.557181
O O9 0.122548 0.434228 0.198455
O O10 0.835829 0.552135 0.132426
O O11 0.000000 0.500000 0.000000
O O12 0.830438 0.750000 0.775544
O O13 0.682994 0.642737 0.604927
O O14 0.037134 0.404617 0.660656
O O15 0.924565 0.750000 0.432251
O O16 0.821740 0.914627 0.478267
O O17 0.500000 0.500000 0.500000
#
# Coordination Sequence:
#
# PCOD9164715 Si02
#       7
#     4   4   4   4   4   4   4
#     4  11  25  46  69 103 140 175 223 277 339 407
#     4  10  21  36  62  99 136 173 216 266 334 411
#     4  12  28  47  71  96 129 180 235 285 333 390
#     4  11  22  41  65  99 138 173 216 274 337 401
#     4  11  22  42  69  92 133 176 221 274 341 395
#     4  10  21  36  58  97 137 175 217 262 328 414
#     4  11  19  35  64  98 136 173 210 265 338 402
#
# _framework density 21.203009999999999
#
# number of rings (size 3 to 8) (size 9 to 14) (size 15 to 20)
#    0.000    1.143    2.857    4.714    2.000    5.143 
#    0.000    0.000    0.000    0.000    0.000    0.000 
#    0.000    0.000    0.000    0.000    0.000    0.000 
#
# Total GULP energy -156577.711141 kJ/mol
# GULP energy per Si atom -5592.061112 kJ/mol
# Density = 2.115475 g / cm^3
# Si number density = 21.203010 Si / 1000 Ang^3
#
#
#
# Elastic Constant Matrix: (Units=GPa)
#
#
# Indices 1 2 3 4 5 6 
#
# 1 60.1204 35.9903 26.4396 0.0000 -19.5126 0.0000
# 2 35.9903 142.5731 23.7330 0.0000 -11.9288 0.0000
# 3 26.4396 23.7330 80.1101 0.0000 -26.7590 0.0000
# 4 0.0000 0.0000 0.0000 -0.8584 0.0000 -0.4420
# 5 -19.5126 -11.9288 -26.7590 0.0000 28.3545 0.0000
# 6 0.0000 0.0000 0.0000 -0.4420 0.0000 4.4945
#
#
#
# Elastic Compliance Matrix: (Units=1/GPa)
#
#
# Indices 1 2 3 4 5 6 
#
# 1 0.024681 -0.004755 -0.002529 0.000000 0.012597 0.000000
# 2 -0.004755 0.008339 -0.001201 0.000000 -0.000897 0.000000
# 3 -0.002529 -0.001201 0.018872 0.000000 0.015565 0.000000
# 4 0.000000 0.000000 0.000000 -1.108808 0.000000 -0.109030
# 5 0.012597 -0.000897 0.015565 0.000000 0.058248 0.000000
# 6 0.000000 0.000000 0.000000 -0.109030 0.000000 0.211771
#
#
# Mechanical properties :
#
#
# Convention : Reuss Voigt Hill
#
# Bulk Modulus (GPa) = 28.63545 50.56994 39.60270
# Shear Modulus (GPa) = -6.59383 19.50751 6.45684
#
# Velocity S-wave (km/s) = -1.76539 3.03650 1.74696
# Velocity P-wave (km/s) = 3.06255 6.01630 4.77363
#
# Compressibility (1/GPa) = 0.03492175
#
# Stress axis : x y z
#
# Youngs Moduli (GPa) = 40.51760 119.91639 52.98751
#
# Poissons Ratio (x) = 0.57023 0.13401
# Poissons Ratio (y) = 0.19267 0.06363
# Poissons Ratio (z) = 0.10247 0.14400
#
# Static dielectric constant tensor:
#      x y z
#    x 1.791100 0.000000 -0.007100 
#    y 0.000000 1.837190 0.000000 
#    z -0.007100 0.000000 1.734950 
# 
# From -- ./inp_files/31959.got.cif
#   From: 2010.05.17/outbox.cif.g08.bks.cpg/sg11_16_cif.got.tgz:31959.got - 2010.06.03 12:22:45.
