data_PCOD9164120
_publ_section_title
;
Structure prediction by ZEFSAII (Michael W. Deem and Ramdas Pophale) SiO2 
 PCOD9164120
Probable space group: P 21/M
;
_chemical_formula_sum "Si O2"
_cell_formula_units_Z 32
_cell_length_a 12.214804
_cell_length_b 23.754755
_cell_length_c 5.254680
_cell_angle_alpha 90.000000
_cell_angle_beta 70.519151
_cell_angle_gamma 90.000000
_cell_volume 1437.411982
_symmetry_space_group_name_H-M "P 21/M"
_symmetry_group_IT_number 11
_symmetry_cell_setting 'monoclinic'
loop_
_space_group_symop_operation_xyz
x,y,z
-x,1/2+y,-z
-x,-y,-z
x,1/2-y,z
loop_
_atom_site_type_symbol
_atom_site_label
_atom_site_fract_x
_atom_site_fract_y
_atom_site_fract_z
Si Si1 0.957294 0.687217 0.074262
Si Si2 0.481786 0.870047 0.678655
Si Si3 0.609450 0.185768 0.744008
Si Si4 0.948560 0.075510 0.298732
Si Si5 0.805597 0.540088 0.837584
Si Si6 0.155786 0.848550 0.238790
Si Si7 0.248589 0.110778 0.620294
Si Si8 0.274001 0.936730 0.840495
O O1 0.944474 0.750000 0.967836
O O2 0.837191 0.664367 0.286577
O O3 0.057609 0.691134 0.208841
O O4 0.004329 0.634158 0.868442
O O5 0.439774 0.826365 0.496108
O O6 0.618682 0.875796 0.542508
O O7 0.407211 0.926466 0.664922
O O8 0.451724 0.852430 0.992194
O O9 0.590460 0.250000 0.833151
O O10 0.748777 0.174562 0.641184
O O11 0.913171 0.097937 0.600799
O O12 0.830440 0.050171 0.273251
O O13 0.056609 0.033916 0.218523
O O14 0.793170 0.570930 0.578263
O O15 0.759358 0.579248 0.102897
O O16 0.736846 0.482178 0.927910
O O17 0.234979 0.874354 0.956667
#
# Coordination Sequence:
#
# PCOD9164120 Si02
#       8
#     4   4   4   4   4   4   4   4
#     4  10  22  39  60  88 122 164 205 250 313 371
#     4  11  24  43  63  89 130 162 211 264 305 367
#     4  11  23  40  65  92 120 161 205 256 318 372
#     4  10  20  40  59  93 125 161 203 263 311 373
#     4  11  24  41  66  92 126 165 212 255 315 370
#     4  10  20  39  61  90 128 154 202 258 312 371
#     4  11  25  44  61  91 126 164 212 262 297 368
#     4  10  23  38  64  93 124 167 204 258 319 373
#
# _framework density 22.262233999999999
#
# number of rings (size 3 to 8) (size 9 to 14) (size 15 to 20)
#    0.000    1.500    2.500    1.875    1.750    3.500 
#    0.000    0.000    0.000    0.000    0.000    0.000 
#    0.000    0.000    0.000    0.000    0.000    0.000 
#
# Total GULP energy -178525.723389 kJ/mol
# GULP energy per Si atom -5578.928856 kJ/mol
# Density = 2.221156 g / cm^3
# Si number density = 22.262234 Si / 1000 Ang^3
#
#
#
# Elastic Constant Matrix: (Units=GPa)
#
#
# Indices 1 2 3 4 5 6 
#
# 1 96.6453 17.1579 12.6001 0.0000 -11.4755 0.0000
# 2 17.1579 74.8036 17.6045 0.0000 -1.8944 0.0000
# 3 12.6001 17.6045 77.7637 0.0000 -9.1481 0.0000
# 4 0.0000 0.0000 0.0000 15.9406 0.0000 9.7213
# 5 -11.4755 -1.8944 -9.1481 0.0000 29.4432 0.0000
# 6 0.0000 0.0000 0.0000 9.7213 0.0000 0.3308
#
#
#
# Elastic Compliance Matrix: (Units=1/GPa)
#
#
# Indices 1 2 3 4 5 6 
#
# 1 0.011342 -0.002301 -0.000845 0.000000 0.004010 0.000000
# 2 -0.002301 0.014588 -0.003036 0.000000 -0.000901 0.000000
# 3 -0.000845 -0.003036 0.014139 0.000000 0.003868 0.000000
# 4 0.000000 0.000000 0.000000 -0.003707 0.000000 0.108946
# 5 0.004010 -0.000901 0.003868 0.000000 0.036670 0.000000
# 6 0.000000 0.000000 0.000000 0.108946 0.000000 -0.178647
#
#
# Mechanical properties :
#
#
# Convention : Reuss Voigt Hill
#
# Bulk Modulus (GPa) = 36.09493 38.21529 37.15511
# Shear Modulus (GPa) = -59.51203 22.59960 -18.45621
#
# Velocity S-wave (km/s) = -5.17594 3.18960 -2.88242
# Velocity P-wave (km/s) = 4.41267 5.54689 2.37659
#
# Compressibility (1/GPa) = 0.02770472
#
# Stress axis : x y z
#
# Youngs Moduli (GPa) = 88.16830 68.55076 70.72793
#
# Poissons Ratio (x) = 0.15774 0.05977
# Poissons Ratio (y) = 0.20288 0.21470
# Poissons Ratio (z) = 0.07451 0.20809
#
# Static dielectric constant tensor:
#      x y z
#    x 1.859480 0.000000 0.013740 
#    y 0.000000 1.897770 0.000000 
#    z 0.013740 0.000000 1.877980 
# 
# From -- ./inp_files/5379.got.cif
#   From: 2010.05.17/outbox.cif.g08.bks.cpg/sg11_3_cif.got.tgz:5379.got - 2010.06.03 12:22:45.
