data_PCOD9164929
_publ_section_title
;
Structure prediction by ZEFSAII (Michael W. Deem and Ramdas Pophale) SiO2 
 PCOD9164929
Probable space group: P 21/M
;
_chemical_formula_sum "Si O2"
_cell_formula_units_Z 32
_cell_length_a 20.058134
_cell_length_b 12.771565
_cell_length_c 19.479883
_cell_angle_alpha 90.000000
_cell_angle_beta 21.135384
_cell_angle_gamma 90.000000
_cell_volume 1799.343480
_symmetry_space_group_name_H-M "P 21/M"
_symmetry_group_IT_number 11
_symmetry_cell_setting 'monoclinic'
loop_
_space_group_symop_operation_xyz
x,y,z
-x,1/2+y,-z
-x,-y,-z
x,1/2-y,z
loop_
_atom_site_type_symbol
_atom_site_label
_atom_site_fract_x
_atom_site_fract_y
_atom_site_fract_z
Si Si1 0.527423 0.625915 0.052293
Si Si2 0.802631 0.627141 0.157436
Si Si3 0.790200 0.531272 0.686128
Si Si4 0.569412 0.128244 0.567822
Si Si5 0.455597 0.023337 0.816198
Si Si6 0.107953 0.628028 0.129991
Si Si7 0.903109 0.980591 0.201718
Si Si8 0.778269 0.869850 0.549696
O O1 0.507073 0.750000 0.069301
O O2 0.340594 0.568088 0.206037
O O3 0.566388 0.587085 0.092084
O O4 0.691670 0.588413 0.844421
O O5 0.849137 0.750000 0.106547
O O6 0.594475 0.612965 0.329957
O O7 0.827662 0.588831 0.211269
O O8 0.938772 0.556548 0.980793
O O9 0.787405 0.603638 0.621246
O O10 0.000000 0.500000 0.500000
O O11 0.625321 0.250000 0.513014
O O12 0.487789 0.097938 0.720435
O O13 0.739409 0.052675 0.387897
O O14 0.634041 0.949389 0.654491
O O15 0.281866 0.947886 0.970632
O O16 0.161410 0.750000 0.071781
O O17 0.989956 0.590948 0.177636
O O18 0.975584 0.617773 0.323391
O O19 0.717893 0.750000 0.597473
#
# Coordination Sequence:
#
# PCOD9164929 Si02
#       8
#     4   4   4   4   4   4   4   4
#     4  10  22  38  59  88 120 156 199 243 293 350
#     4  10  22  39  60  86 117 153 192 238 294 346
#     4  10  21  39  61  86 120 153 194 246 294 348
#     4  11  22  38  60  85 117 157 195 236 291 348
#     4  11  21  39  58  84 121 156 195 242 288 344
#     4  11  22  37  59  87 116 154 199 244 297 347
#     4  11  21  39  61  85 119 151 194 245 287 345
#     4  10  21  37  59  84 116 154 194 240 291 346
#
# _framework density 17.784265000000001
#
# number of rings (size 3 to 8) (size 9 to 14) (size 15 to 20)
#    0.000    1.500    2.500    3.000    0.000    1.000 
#    0.000    3.125    0.000    0.000    0.000    0.000 
#    0.000    0.000    0.000    0.000    0.000    0.000 
#
# Total GULP energy -178754.478933 kJ/mol
# GULP energy per Si atom -5586.077467 kJ/mol
# Density = 1.774379 g / cm^3
# Si number density = 17.784265 Si / 1000 Ang^3
#
#
#
# Elastic Constant Matrix: (Units=GPa)
#
#
# Indices 1 2 3 4 5 6 
#
# 1 54.1160 12.9404 22.9691 0.0000 3.1843 0.0000
# 2 12.9404 80.0781 17.6924 0.0000 2.1975 0.0000
# 3 22.9691 17.6924 65.7199 0.0000 4.5466 0.0000
# 4 0.0000 0.0000 0.0000 17.5397 0.0000 3.4149
# 5 3.1843 2.1975 4.5466 0.0000 28.1707 0.0000
# 6 0.0000 0.0000 0.0000 3.4149 0.0000 16.6155
#
#
#
# Elastic Compliance Matrix: (Units=1/GPa)
#
#
# Indices 1 2 3 4 5 6 
#
# 1 0.022026 -0.001961 -0.007088 0.000000 -0.001193 0.000000
# 2 -0.001961 0.013458 -0.002913 0.000000 -0.000358 0.000000
# 3 -0.007088 -0.002913 0.018614 0.000000 -0.001976 0.000000
# 4 0.000000 0.000000 0.000000 0.059390 0.000000 -0.012206
# 5 -0.001193 -0.000358 -0.001976 0.000000 0.035980 0.000000
# 6 0.000000 0.000000 0.000000 -0.012206 0.000000 0.062693
#
#
# Mechanical properties :
#
#
# Convention : Reuss Voigt Hill
#
# Bulk Modulus (GPa) = 33.13947 34.12420 33.63184
# Shear Modulus (GPa) = 20.31341 22.21932 21.26636
#
# Velocity S-wave (km/s) = 3.38333 3.53849 3.46178
# Velocity P-wave (km/s) = 5.82556 5.99367 5.91021
#
# Compressibility (1/GPa) = 0.03017550
#
# Stress axis : x y z
#
# Youngs Moduli (GPa) = 45.40047 74.30486 53.72247
#
# Poissons Ratio (x) = 0.14569 0.38077
# Poissons Ratio (y) = 0.08902 0.15649
# Poissons Ratio (z) = 0.32179 0.21645
#
# Static dielectric constant tensor:
#      x y z
#    x 1.589540 0.000000 0.004590 
#    y 0.000000 1.575030 0.000000 
#    z 0.004590 0.000000 1.580870 
# 
# From -- ./inp_files/66524.got.cif
#   From: 2010.05.17/outbox.cif.g08.bks.cpg/sg11_34_cif.got.tgz:66524.got - 2010.06.03 12:22:45.
