data_PCOD9164056
_publ_section_title
;
Structure prediction by ZEFSAII (Michael W. Deem and Ramdas Pophale) SiO2 
 PCOD9164056
Probable space group: P 21/M
;
_chemical_formula_sum "Si O2"
_cell_formula_units_Z 32
_cell_length_a 16.304589
_cell_length_b 17.078066
_cell_length_c 12.546443
_cell_angle_alpha 90.000000
_cell_angle_beta 28.117202
_cell_angle_gamma 90.000000
_cell_volume 1646.437056
_symmetry_space_group_name_H-M "P 21/M"
_symmetry_group_IT_number 11
_symmetry_cell_setting 'monoclinic'
loop_
_space_group_symop_operation_xyz
x,y,z
-x,1/2+y,-z
-x,-y,-z
x,1/2-y,z
loop_
_atom_site_type_symbol
_atom_site_label
_atom_site_fract_x
_atom_site_fract_y
_atom_site_fract_z
Si Si1 0.168357 0.069546 0.144636
Si Si2 0.047264 0.156268 0.874431
Si Si3 0.702253 0.843838 0.213007
Si Si4 0.944895 0.659213 0.518697
Si Si5 0.498443 0.513290 0.876178
Si Si6 0.337335 0.655400 0.722428
Si Si7 0.333080 0.840240 0.975690
Si Si8 0.135964 0.048398 0.572760
O O1 0.076039 0.122671 0.340466
O O2 0.230091 0.117735 0.971858
O O3 0.030769 0.004610 0.263246
O O4 0.339189 0.032042 0.003580
O O5 0.056997 0.250000 0.837592
O O6 0.165743 0.141437 0.840886
O O7 0.107844 0.104113 0.706047
O O8 0.844575 0.135695 0.124770
O O9 0.692839 0.750000 0.209545
O O10 0.511592 0.874016 0.466662
O O11 0.891170 0.750000 0.578707
O O12 0.839865 0.605043 0.557021
O O13 0.143177 0.655616 0.247590
O O14 0.460944 0.603630 0.891608
O O15 0.691525 0.496155 0.611804
O O16 0.500000 0.500000 0.000000
O O17 0.349012 0.750000 0.709168
O O18 0.325481 0.633209 0.860776
O O19 0.389883 0.750000 0.911434
#
# Coordination Sequence:
#
# PCOD9164056 Si02
#       8
#     4   4   4   4   4   4   4   4
#     4  12  25  44  60  88 134 170 203 250 315 384
#     4  10  20  38  65  96 122 157 214 266 305 357
#     4  10  23  41  63  90 126 170 210 250 305 379
#     4  11  21  39  68  92 118 161 208 258 315 371
#     4  12  24  40  60  89 124 167 204 251 316 375
#     4   9  17  35  62  89 121 156 199 260 313 353
#     4  10  20  38  65  95 121 154 207 267 318 361
#     4  12  23  39  67  93 125 165 208 260 320 364
#
# _framework density 19.435908999999999
#
# number of rings (size 3 to 8) (size 9 to 14) (size 15 to 20)
#    0.000    1.250    3.750    2.625    0.000    3.500 
#    0.000    4.375    0.000    1.500    0.000    0.000 
#    0.000    0.000    0.000    0.000    0.000    0.000 
#
# Total GULP energy -178788.137291 kJ/mol
# GULP energy per Si atom -5587.129290 kJ/mol
# Density = 1.939167 g / cm^3
# Si number density = 19.435909 Si / 1000 Ang^3
#
#
#
# Elastic Constant Matrix: (Units=GPa)
#
#
# Indices 1 2 3 4 5 6 
#
# 1 91.6403 40.7332 64.8927 0.0000 0.9724 0.0000
# 2 40.7332 48.6236 44.2769 0.0000 6.9622 0.0000
# 3 64.8927 44.2769 116.0551 0.0000 5.1935 0.0000
# 4 0.0000 0.0000 0.0000 11.3156 0.0000 2.2635
# 5 0.9724 6.9622 5.1935 0.0000 40.0866 0.0000
# 6 0.0000 0.0000 0.0000 2.2635 0.0000 20.3219
#
#
#
# Elastic Compliance Matrix: (Units=1/GPa)
#
#
# Indices 1 2 3 4 5 6 
#
# 1 0.021364 -0.011137 -0.007805 0.000000 0.002427 0.000000
# 2 -0.011137 0.037951 -0.008015 0.000000 -0.005283 0.000000
# 3 -0.007805 -0.008015 0.016061 0.000000 -0.000499 0.000000
# 4 0.000000 0.000000 0.000000 0.090388 0.000000 -0.010067
# 5 0.002427 -0.005283 -0.000499 0.000000 0.025869 0.000000
# 6 0.000000 0.000000 0.000000 -0.010067 0.000000 0.050329
#
#
# Mechanical properties :
#
#
# Convention : Reuss Voigt Hill
#
# Bulk Modulus (GPa) = 46.59620 61.79162 54.19391
# Shear Modulus (GPa) = 16.49993 21.43923 18.96958
#
# Velocity S-wave (km/s) = 2.91682 3.32486 3.12750
# Velocity P-wave (km/s) = 5.94728 6.82650 6.40200
#
# Compressibility (1/GPa) = 0.02146098
#
# Stress axis : x y z
#
# Youngs Moduli (GPa) = 46.80775 26.34976 62.26150
#
# Poissons Ratio (x) = 0.29346 0.48598
# Poissons Ratio (y) = 0.52130 0.49904
# Poissons Ratio (z) = 0.36535 0.21120
#
# Static dielectric constant tensor:
#      x y z
#    x 1.651900 0.000000 -0.032540 
#    y 0.000000 1.681940 0.000000 
#    z -0.032540 0.000000 1.685740 
# 
# From -- ./inp_files/39945.got.cif
#   From: 2010.05.17/outbox.cif.g08.bks.cpg/sg11_20_cif.got.tgz:39945.got - 2010.06.03 12:22:45.
