data_PCOD9164111
_publ_section_title
;
Structure prediction by ZEFSAII (Michael W. Deem and Ramdas Pophale) SiO2 
 PCOD9164111
Probable space group: P 21/M
;
_chemical_formula_sum "Si O2"
_cell_formula_units_Z 32
_cell_length_a 8.777895
_cell_length_b 13.194789
_cell_length_c 27.549283
_cell_angle_alpha 90.000000
_cell_angle_beta 31.488295
_cell_angle_gamma 90.000000
_cell_volume 1666.646208
_symmetry_space_group_name_H-M "P 21/M"
_symmetry_group_IT_number 11
_symmetry_cell_setting 'monoclinic'
loop_
_space_group_symop_operation_xyz
x,y,z
-x,1/2+y,-z
-x,-y,-z
x,1/2-y,z
loop_
_atom_site_type_symbol
_atom_site_label
_atom_site_fract_x
_atom_site_fract_y
_atom_site_fract_z
Si Si1 0.824903 0.539511 0.422952
Si Si2 0.548163 0.864982 0.867055
Si Si3 0.227014 0.955506 0.044167
Si Si4 0.325338 0.055702 0.341412
Si Si5 0.261652 0.366690 0.753139
Si Si6 0.403074 0.134715 0.423673
Si Si7 0.936475 0.523048 0.286478
Si Si8 0.200310 0.862822 0.860414
O O1 0.500000 0.500000 0.500000
O O2 0.793186 0.619195 0.475232
O O3 0.954307 0.569003 0.335615
O O4 0.037238 0.454122 0.387331
O O5 0.670042 0.750000 0.838062
O O6 0.373202 0.869751 0.864059
O O7 0.342243 0.888218 0.968594
O O8 0.785303 0.954407 0.801586
O O9 0.001684 0.893422 0.138718
O O10 0.044294 0.051856 0.075010
O O11 0.500000 0.000000 0.000000
O O12 0.257312 0.102882 0.412350
O O13 0.570498 0.118184 0.245585
O O14 0.474666 0.945133 0.308026
O O15 0.348329 0.250000 0.733340
O O16 0.137371 0.394247 0.733764
O O17 0.501786 0.250000 0.393753
O O18 0.671861 0.057834 0.356382
O O19 0.075979 0.750000 0.889401
#
# Coordination Sequence:
#
# PCOD9164111 Si02
#       8
#     4   4   4   4   4   4   4   4
#     4  10  21  38  60  84 117 153 191 244 302 350
#     4  11  21  37  61  88 121 159 199 241 296 355
#     4  11  22  39  59  88 124 156 194 252 296 340
#     4  10  20  39  61  84 122 155 197 247 296 352
#     4  10  22  39  59  83 116 161 206 243 296 355
#     4  10  21  36  58  89 118 151 194 240 298 358
#     4  10  20  39  60  86 119 157 194 250 296 348
#     4  10  22  38  62  90 120 160 201 240 293 357
#
# _framework density 19.200234999999999
#
# number of rings (size 3 to 8) (size 9 to 14) (size 15 to 20)
#    0.000    1.750    2.500    1.875    0.000    2.000 
#    0.000    0.625    0.000    1.500    0.000    0.000 
#    0.000    0.000    0.000    0.000    0.000    0.000 
#
# Total GULP energy -178585.031986 kJ/mol
# GULP energy per Si atom -5580.782250 kJ/mol
# Density = 1.915653 g / cm^3
# Si number density = 19.200235 Si / 1000 Ang^3
#
#
#
# Elastic Constant Matrix: (Units=GPa)
#
#
# Indices 1 2 3 4 5 6 
#
# 1 87.4367 7.7034 27.3361 0.0000 22.1495 0.0000
# 2 7.7034 73.6839 8.8514 0.0000 13.7677 0.0000
# 3 27.3361 8.8514 61.8851 0.0000 16.4812 0.0000
# 4 0.0000 0.0000 0.0000 13.8125 0.0000 2.2155
# 5 22.1495 13.7677 16.4812 0.0000 39.5624 0.0000
# 6 0.0000 0.0000 0.0000 2.2155 0.0000 18.0943
#
#
#
# Elastic Compliance Matrix: (Units=1/GPa)
#
#
# Indices 1 2 3 4 5 6 
#
# 1 0.014480 0.000217 -0.004778 0.000000 -0.006192 0.000000
# 2 0.000217 0.014556 -0.000896 0.000000 -0.004814 0.000000
# 3 -0.004778 -0.000896 0.019799 0.000000 -0.005261 0.000000
# 4 0.000000 0.000000 0.000000 0.073849 0.000000 -0.009042
# 5 -0.006192 -0.004814 -0.005261 0.000000 0.032610 0.000000
# 6 0.000000 0.000000 0.000000 -0.009042 0.000000 0.056373
#
#
# Mechanical properties :
#
#
# Convention : Reuss Voigt Hill
#
# Bulk Modulus (GPa) = 26.37066 34.53195 30.45130
# Shear Modulus (GPa) = 21.25660 26.23481 23.74571
#
# Velocity S-wave (km/s) = 3.33092 3.70047 3.52055
# Velocity P-wave (km/s) = 5.34395 6.02347 5.69385
#
# Compressibility (1/GPa) = 0.03792094
#
# Stress axis : x y z
#
# Youngs Moduli (GPa) = 69.06024 68.70085 50.50783
#
# Poissons Ratio (x) = -0.01491 0.24134
# Poissons Ratio (y) = -0.01499 0.04525
# Poissons Ratio (z) = 0.32999 0.06154
#
# Static dielectric constant tensor:
#      x y z
#    x 1.678330 0.000000 0.014350 
#    y 0.000000 1.647480 0.000000 
#    z 0.014350 0.000000 1.674330 
# 
# From -- ./inp_files/72842.got.cif
#   From: 2010.05.17/outbox.cif.g08.bks.cpg/sg11_37_cif.got.tgz:72842.got - 2010.06.03 12:22:45.
