data_PCOD9164884
_publ_section_title
;
Structure prediction by ZEFSAII (Michael W. Deem and Ramdas Pophale) SiO2 
 PCOD9164884
Probable space group: P 21/M
;
_chemical_formula_sum "Si O2"
_cell_formula_units_Z 28
_cell_length_a 29.405795
_cell_length_b 9.015486
_cell_length_c 9.178408
_cell_angle_alpha 90.000000
_cell_angle_beta 38.714853
_cell_angle_gamma 90.000000
_cell_volume 1521.873369
_symmetry_space_group_name_H-M "P 21/M"
_symmetry_group_IT_number 11
_symmetry_cell_setting 'monoclinic'
loop_
_space_group_symop_operation_xyz
x,y,z
-x,1/2+y,-z
-x,-y,-z
x,1/2-y,z
loop_
_atom_site_type_symbol
_atom_site_label
_atom_site_fract_x
_atom_site_fract_y
_atom_site_fract_z
Si Si1 0.504375 0.428142 0.329926
Si Si2 0.931174 0.924408 0.246971
Si Si3 0.355793 0.073502 0.529838
Si Si4 0.639737 0.927705 0.824445
Si Si5 0.221850 0.926909 0.369989
Si Si6 0.220488 0.925764 0.026917
Si Si7 0.068354 0.076574 0.404421
O O1 0.500000 0.500000 0.500000
O O2 0.511910 0.250000 0.321715
O O3 0.430208 0.461975 0.428229
O O4 0.572450 0.496396 0.074310
O O5 0.927266 0.750000 0.220550
O O6 0.938562 0.937987 0.403395
O O7 0.856304 0.005932 0.392461
O O8 0.000000 0.000000 0.000000
O O9 0.343090 0.250000 0.576840
O O10 0.363771 0.040489 0.339012
O O11 0.288213 0.988985 0.769110
O O12 0.637305 0.750000 0.851364
O O13 0.713792 0.993377 0.705044
O O14 0.223218 0.750000 0.390312
O O15 0.231645 0.954369 0.171958
O O16 0.214446 0.750000 0.022054
O O17 0.144794 0.001846 0.171534
O O18 0.070047 0.250000 0.363430
O O19 0.000000 0.000000 0.500000
#
# Coordination Sequence:
#
# PCOD9164884 Si02
#       7
#     4   4   4   4   4   4   4
#     4  11  23  40  62  87 115 150 190 232 279 334
#     4  10  21  37  58  84 113 149 190 234 283 337
#     4  10  23  40  58  83 116 151 187 230 281 333
#     4  11  23  39  59  85 116 150 188 232 281 333
#     4  10  21  38  59  84 113 148 190 235 282 336
#     4  10  21  37  59  84 111 146 189 233 280 334
#     4  10  21  37  58  83 113 148 188 232 281 335
#
# _framework density 18.398377
#
# number of rings (size 3 to 8) (size 9 to 14) (size 15 to 20)
#    0.000    1.714    0.000    3.857    0.000    9.143 
#    0.000    0.000    0.000    0.000    0.000    0.000 
#    0.000    0.000    0.000    0.000    0.000    0.000 
#
# Total GULP energy -156530.498929 kJ/mol
# GULP energy per Si atom -5590.374962 kJ/mol
# Density = 1.835650 g / cm^3
# Si number density = 18.398377 Si / 1000 Ang^3
#
#
#
# Elastic Constant Matrix: (Units=GPa)
#
#
# Indices 1 2 3 4 5 6 
#
# 1 158.1566 100.3665 92.6270 0.0000 -30.2855 0.0000
# 2 100.3665 112.0647 103.3221 0.0000 -11.7861 0.0000
# 3 92.6270 103.3221 187.4203 0.0000 -24.3639 0.0000
# 4 0.0000 0.0000 0.0000 41.9434 0.0000 -4.7393
# 5 -30.2855 -11.7861 -24.3639 0.0000 24.6736 0.0000
# 6 0.0000 0.0000 0.0000 -4.7393 0.0000 33.1612
#
#
#
# Elastic Compliance Matrix: (Units=1/GPa)
#
#
# Indices 1 2 3 4 5 6 
#
# 1 0.019940 -0.018388 0.002664 0.000000 0.018322 0.000000
# 2 -0.018388 0.035145 -0.012665 0.000000 -0.018287 0.000000
# 3 0.002664 -0.012665 0.012206 0.000000 0.009273 0.000000
# 4 0.000000 0.000000 0.000000 0.024233 0.000000 0.003463
# 5 0.018322 -0.018287 0.009273 0.000000 0.063440 0.000000
# 6 0.000000 0.000000 0.000000 0.003463 0.000000 0.030651
#
#
# Mechanical properties :
#
#
# Convention : Reuss Voigt Hill
#
# Bulk Modulus (GPa) = 95.10588 116.69698 105.90143
# Shear Modulus (GPa) = 20.33373 30.71070 25.52222
#
# Velocity S-wave (km/s) = 3.32805 4.09003 3.72855
# Velocity P-wave (km/s) = 8.15921 9.26661 8.73048
#
# Compressibility (1/GPa) = 0.01051460
#
# Stress axis : x y z
#
# Youngs Moduli (GPa) = 50.15017 28.45370 81.92452
#
# Poissons Ratio (x) = 0.52320 -0.21823
# Poissons Ratio (y) = 0.92214 1.03754
# Poissons Ratio (z) = -0.13359 0.36035
#
# Static dielectric constant tensor:
#      x y z
#    x 1.610320 0.000000 0.010500 
#    y 0.000000 1.607770 0.000000 
#    z 0.010500 0.000000 1.595040 
# 
# From -- ./inp_files/28239.got.cif
#   From: 2010.05.17/outbox.cif.g08.bks.cpg/sg11_15_cif.got.tgz:28239.got - 2010.06.03 12:22:45.
