data_PCOD9164677
_publ_section_title
;
Structure prediction by ZEFSAII (Michael W. Deem and Ramdas Pophale) SiO2 
 PCOD9164677
Probable space group: P 21/M
;
_chemical_formula_sum "Si O2"
_cell_formula_units_Z 28
_cell_length_a 6.481131
_cell_length_b 18.830392
_cell_length_c 11.151814
_cell_angle_alpha 90.000000
_cell_angle_beta 84.501260
_cell_angle_gamma 90.000000
_cell_volume 1354.729460
_symmetry_space_group_name_H-M "P 21/M"
_symmetry_group_IT_number 11
_symmetry_cell_setting 'monoclinic'
loop_
_space_group_symop_operation_xyz
x,y,z
-x,1/2+y,-z
-x,-y,-z
x,1/2-y,z
loop_
_atom_site_type_symbol
_atom_site_label
_atom_site_fract_x
_atom_site_fract_y
_atom_site_fract_z
Si Si1 0.349533 0.827547 0.168758
Si Si2 0.389846 0.922663 0.757236
Si Si3 0.602239 0.918422 0.326802
Si Si4 0.326817 0.666200 0.533381
Si Si5 0.094700 0.906956 0.999586
Si Si6 0.700335 0.540045 0.931014
Si Si7 0.019565 0.328551 0.617933
O O1 0.450263 0.750000 0.157317
O O2 0.509213 0.886001 0.208483
O O3 0.171217 0.825445 0.279377
O O4 0.225988 0.844962 0.054452
O O5 0.365049 0.859140 0.665635
O O6 0.205428 0.920466 0.865549
O O7 0.604765 0.923754 0.819796
O O8 0.389487 0.997389 0.686635
O O9 0.460789 0.885233 0.440095
O O10 0.825498 0.886994 0.343878
O O11 0.375389 0.750000 0.512649
O O12 0.088550 0.657046 0.503576
O O13 0.847727 0.904871 0.994302
O O14 0.142819 0.973310 0.086368
O O15 0.500000 0.500000 0.000000
O O16 0.119092 0.250000 0.610321
#
# Coordination Sequence:
#
# PCOD9164677 Si02
#       7
#     4   4   4   4   4   4   4
#     4  10  21  36  57  87 120 155 198 247 300 360
#     4  11  23  36  60  91 116 155 203 248 298 359
#     4  11  21  37  63  86 115 154 203 253 299 347
#     4  10  23  42  57  81 122 160 197 248 303 358
#     4  10  21  36  58  84 123 156 188 246 300 352
#     4   9  20  37  57  85 117 154 191 233 292 349
#     4   9  20  36  57  82 111 152 197 243 300 355
#
# _framework density 20.668333000000001
#
# number of rings (size 3 to 8) (size 9 to 14) (size 15 to 20)
#    0.000    2.000    1.429    2.571    6.000    2.286 
#    0.000    0.714    0.000    0.000    0.000    0.000 
#    0.000    0.000    0.000    0.000    0.000    0.000 
#
# Total GULP energy -156090.237313 kJ/mol
# GULP energy per Si atom -5574.651333 kJ/mol
# Density = 2.062129 g / cm^3
# Si number density = 20.668333 Si / 1000 Ang^3
#
#
#
# Elastic Constant Matrix: (Units=GPa)
#
#
# Indices 1 2 3 4 5 6 
#
# 1 88.5717 18.1335 43.8142 0.0000 25.3186 0.0000
# 2 18.1335 54.1728 25.6211 0.0000 14.5881 0.0000
# 3 43.8142 25.6211 95.4338 0.0000 20.2956 0.0000
# 4 0.0000 0.0000 0.0000 31.4626 0.0000 9.9106
# 5 25.3186 14.5881 20.2956 0.0000 29.8586 0.0000
# 6 0.0000 0.0000 0.0000 9.9106 0.0000 13.8397
#
#
#
# Elastic Compliance Matrix: (Units=1/GPa)
#
#
# Indices 1 2 3 4 5 6 
#
# 1 0.017116 -0.000251 -0.005530 0.000000 -0.010633 0.000000
# 2 -0.000251 0.022719 -0.004289 0.000000 -0.007972 0.000000
# 3 -0.005530 -0.004289 0.014876 0.000000 -0.003327 0.000000
# 4 0.000000 0.000000 0.000000 0.041041 0.000000 -0.029390
# 5 -0.010633 -0.007972 -0.003327 0.000000 0.048664 0.000000
# 6 0.000000 0.000000 0.000000 -0.029390 0.000000 0.093302
#
#
# Mechanical properties :
#
#
# Convention : Reuss Voigt Hill
#
# Bulk Modulus (GPa) = 28.92471 45.92400 37.42436
# Shear Modulus (GPa) = 18.56110 25.07282 21.81696
#
# Velocity S-wave (km/s) = 2.99999 3.48674 3.25248
# Velocity P-wave (km/s) = 5.10147 6.20303 5.67902
#
# Compressibility (1/GPa) = 0.03457252
#
# Stress axis : x y z
#
# Youngs Moduli (GPa) = 58.42335 44.01697 67.22153
#
# Poissons Ratio (x) = 0.01105 0.37171
# Poissons Ratio (y) = 0.01466 0.28829
# Poissons Ratio (z) = 0.32306 0.18878
#
# Static dielectric constant tensor:
#      x y z
#    x 1.773370 0.000000 0.009910 
#    y 0.000000 1.775810 0.000000 
#    z 0.009910 0.000000 1.795250 
# 
# From -- ./inp_files/29884.got.cif
#   From: 2010.05.17/outbox.cif.g08.bks.cpg/sg11_15_cif.got.tgz:29884.got - 2010.06.03 12:22:45.
