data_PCOD9164472
_publ_section_title
;
Structure prediction by ZEFSAII (Michael W. Deem and Ramdas Pophale) SiO2 
 PCOD9164472
Probable space group: P 21/M
;
_chemical_formula_sum "Si O2"
_cell_formula_units_Z 32
_cell_length_a 20.699519
_cell_length_b 8.963827
_cell_length_c 26.670111
_cell_angle_alpha 90.000000
_cell_angle_beta 161.383357
_cell_angle_gamma 90.000000
_cell_volume 1579.750486
_symmetry_space_group_name_H-M "P 21/M"
_symmetry_group_IT_number 11
_symmetry_cell_setting 'monoclinic'
loop_
_space_group_symop_operation_xyz
x,y,z
-x,1/2+y,-z
-x,-y,-z
x,1/2-y,z
loop_
_atom_site_type_symbol
_atom_site_label
_atom_site_fract_x
_atom_site_fract_y
_atom_site_fract_z
Si Si1 0.670291 0.576830 0.007192
Si Si2 0.504836 0.571867 0.329202
Si Si3 0.659993 0.076816 0.154027
Si Si4 0.622766 0.428710 0.657189
Si Si5 0.043053 0.928908 0.477307
Si Si6 0.494902 0.570367 0.775401
Si Si7 0.207162 0.925067 0.317755
Si Si8 0.060608 0.073292 0.306927
O O1 0.731570 0.750000 0.049938
O O2 0.456143 0.571505 0.877929
O O3 0.630529 0.519160 0.921923
O O4 0.846298 0.491707 0.166148
O O5 0.510656 0.750000 0.326097
O O6 0.361485 0.542669 0.271986
O O7 0.445305 0.493825 0.234178
O O8 0.734126 0.522804 0.513905
O O9 0.693469 0.250000 0.165679
O O10 0.868572 0.989555 0.312565
O O11 0.500000 0.000000 0.000000
O O12 0.570309 0.250000 0.613636
O O13 0.800282 0.455800 0.747449
O O14 0.435953 0.530646 0.501924
O O15 0.034319 0.750000 0.475028
O O16 0.263153 0.971219 0.618017
O O17 0.000000 0.000000 0.500000
O O18 0.505356 0.750000 0.781888
O O19 0.169562 0.750000 0.297992
O O20 0.079566 0.019389 0.263188
O O21 0.058075 0.250000 0.307631
#
# Coordination Sequence:
#
# PCOD9164472 Si02
#       8
#     4   4   4   4   4   4   4   4
#     4  10  22  41  58  76 108 146 181 222 272 326
#     4   9  19  34  52  80 112 141 176 223 270 315
#     4  11  24  42  61  86 115 145 183 231 281 334
#     4   8  15  28  46  73 109 140 176 223 267 315
#     4  11  22  40  62  85 111 146 187 231 278 330
#     4  10  22  39  57  79 108 143 182 222 268 324
#     4   9  15  26  48  75 104 143 179 216 270 322
#     4  10  21  35  52  80 113 142 180 227 271 322
#
# _framework density 20.256364999999999
#
# number of rings (size 3 to 8) (size 9 to 14) (size 15 to 20)
#    0.000    2.250    1.250    2.250    1.750    5.500 
#    0.000    0.000    0.000    0.750    0.000    0.000 
#    0.000    0.000    0.000    0.000    0.000    0.000 
#
# Total GULP energy -178503.434663 kJ/mol
# GULP energy per Si atom -5578.232333 kJ/mol
# Density = 2.021026 g / cm^3
# Si number density = 20.256365 Si / 1000 Ang^3
#
#
#
# Elastic Constant Matrix: (Units=GPa)
#
#
# Indices 1 2 3 4 5 6 
#
# 1 67.2251 6.2075 -5.8300 0.0000 -24.6783 0.0000
# 2 6.2075 29.9861 4.7080 0.0000 -8.2304 0.0000
# 3 -5.8300 4.7080 39.7795 0.0000 -14.1876 0.0000
# 4 0.0000 0.0000 0.0000 22.6686 0.0000 -1.3620
# 5 -24.6783 -8.2304 -14.1876 0.0000 27.4785 0.0000
# 6 0.0000 0.0000 0.0000 -1.3620 0.0000 31.6352
#
#
#
# Elastic Compliance Matrix: (Units=1/GPa)
#
#
# Indices 1 2 3 4 5 6 
#
# 1 0.029067 0.000974 0.016620 0.000000 0.034978 0.000000
# 2 0.000974 0.036377 0.000043 0.000000 0.011793 0.000000
# 3 0.016620 0.000043 0.040323 0.000000 0.035758 0.000000
# 4 0.000000 0.000000 0.000000 0.044228 0.000000 0.001904
# 5 0.034978 0.011793 0.035758 0.000000 0.089801 0.000000
# 6 0.000000 0.000000 0.000000 0.001904 0.000000 0.031692
#
#
# Mechanical properties :
#
#
# Convention : Reuss Voigt Hill
#
# Bulk Modulus (GPa) = 7.09015 16.35131 11.72073
# Shear Modulus (GPa) = 17.65363 25.15014 21.40189
#
# Velocity S-wave (km/s) = 2.95534 3.52745 3.25399
# Velocity P-wave (km/s) = 3.89271 4.96792 4.46281
#
# Compressibility (1/GPa) = 0.14104071
#
# Stress axis : x y z
#
# Youngs Moduli (GPa) = 34.40304 27.48980 24.79999
#
# Poissons Ratio (x) = -0.02677 -0.41217
# Poissons Ratio (y) = -0.03350 -0.00107
# Poissons Ratio (z) = -0.57177 -0.00119
#
# Static dielectric constant tensor:
#      x y z
#    x 1.790160 0.000000 0.012410 
#    y 0.000000 1.679330 0.000000 
#    z 0.012410 0.000000 1.716800 
# 
# From -- ./inp_files/72124.got.cif
#   From: 2010.05.17/outbox.cif.g08.bks.cpg/sg11_37_cif.got.tgz:72124.got - 2010.06.03 12:22:45.
