data_PCOD9164060
_publ_section_title
;
Structure prediction by ZEFSAII (Michael W. Deem and Ramdas Pophale) SiO2 
 PCOD9164060
Probable space group: P 21/M
;
_chemical_formula_sum "Si O2"
_cell_formula_units_Z 28
_cell_length_a 10.421420
_cell_length_b 15.310639
_cell_length_c 7.304419
_cell_angle_alpha 90.000000
_cell_angle_beta 68.434661
_cell_angle_gamma 90.000000
_cell_volume 1083.897914
_symmetry_space_group_name_H-M "P 21/M"
_symmetry_group_IT_number 11
_symmetry_cell_setting 'monoclinic'
loop_
_space_group_symop_operation_xyz
x,y,z
-x,1/2+y,-z
-x,-y,-z
x,1/2-y,z
loop_
_atom_site_type_symbol
_atom_site_label
_atom_site_fract_x
_atom_site_fract_y
_atom_site_fract_z
Si Si1 0.734516 0.151805 0.759950
Si Si2 0.950132 0.652294 0.492703
Si Si3 0.017417 0.152187 0.086945
Si Si4 0.689689 0.545088 0.660796
Si Si5 0.496431 0.346153 0.506563
Si Si6 0.325428 0.401733 0.916647
Si Si7 0.727718 0.096954 0.156543
O O1 0.707000 0.250000 0.698061
O O2 0.901553 0.142510 0.675878
O O3 0.687958 0.058134 0.700892
O O4 0.688387 0.149671 0.995318
O O5 0.895400 0.750000 0.478135
O O6 0.977420 0.649109 0.695882
O O7 0.839759 0.577163 0.512769
O O8 0.978253 0.250000 0.049328
O O9 0.892415 0.092128 0.089990
O O10 0.173544 0.133832 0.945514
O O11 0.584086 0.581138 0.567959
O O12 0.662310 0.593731 0.869970
O O13 0.457360 0.250000 0.459669
O O14 0.442904 0.352610 0.742507
O O15 0.655862 0.360947 0.370330
O O16 0.327467 0.500800 0.849231
#
# Coordination Sequence:
#
# PCOD9164060 Si02
#       7
#     4   4   4   4   4   4   4
#     4  10  21  38  63  95 132 175 222 276 339 401
#     4   9  19  36  61  97 131 170 223 275 337 396
#     4  10  20  38  65  96 131 168 217 282 332 394
#     4  10  23  42  68  97 138 175 225 283 333 401
#     4  12  26  44  69  99 136 184 228 278 342 409
#     4  10  24  44  69  98 131 178 230 277 342 401
#     4  11  24  43  64  96 138 174 221 280 339 407
#
# _framework density 25.832694
#
# number of rings (size 3 to 8) (size 9 to 14) (size 15 to 20)
#    0.000    1.714    0.000    3.429    4.000    4.000 
#    2.571    0.000    0.000    0.857    0.000    0.000 
#    0.000    0.000    0.000    0.000    0.000    0.000 
#
# Total GULP energy -156881.817586 kJ/mol
# GULP energy per Si atom -5602.922057 kJ/mol
# Density = 2.577390 g / cm^3
# Si number density = 25.832694 Si / 1000 Ang^3
#
#
#
# Elastic Constant Matrix: (Units=GPa)
#
#
# Indices 1 2 3 4 5 6 
#
# 1 80.0388 35.9083 22.4087 0.0000 -13.2547 0.0000
# 2 35.9083 109.8839 36.5160 0.0000 -2.0782 0.0000
# 3 22.4087 36.5160 140.0150 0.0000 -9.6588 0.0000
# 4 0.0000 0.0000 0.0000 27.8873 0.0000 -5.6423
# 5 -13.2547 -2.0782 -9.6588 0.0000 37.0289 0.0000
# 6 0.0000 0.0000 0.0000 -5.6423 0.0000 39.8676
#
#
#
# Elastic Compliance Matrix: (Units=1/GPa)
#
#
# Indices 1 2 3 4 5 6 
#
# 1 0.015726 -0.004733 -0.000929 0.000000 0.005121 0.000000
# 2 -0.004733 0.011389 -0.002327 0.000000 -0.001662 0.000000
# 3 -0.000929 -0.002327 0.008010 0.000000 0.001626 0.000000
# 4 0.000000 0.000000 0.000000 0.036916 0.000000 0.005225
# 5 0.005121 -0.001662 0.001626 0.000000 0.029170 0.000000
# 6 0.000000 0.000000 0.000000 0.005225 0.000000 0.025822
#
#
# Mechanical properties :
#
#
# Convention : Reuss Voigt Hill
#
# Bulk Modulus (GPa) = 52.23232 57.73374 54.98303
# Shear Modulus (GPa) = 33.46845 36.63040 35.04942
#
# Velocity S-wave (km/s) = 3.60333 3.76970 3.68745
# Velocity P-wave (km/s) = 6.12987 6.43002 6.28174
#
# Compressibility (1/GPa) = 0.01914523
#
# Stress axis : x y z
#
# Youngs Moduli (GPa) = 63.59035 87.80174 124.84440
#
# Poissons Ratio (x) = 0.41559 0.11599
# Poissons Ratio (y) = 0.30099 0.29057
# Poissons Ratio (z) = 0.05908 0.20436
#
# Static dielectric constant tensor:
#      x y z
#    x 2.035470 0.000000 -0.016340 
#    y 0.000000 1.965330 0.000000 
#    z -0.016340 0.000000 2.033650 
# 
# From -- ./inp_files/17949.got.cif
#   From: 2010.05.17/outbox.cif.g08.bks.cpg/sg11_9_cif.got.tgz:17949.got - 2010.06.03 12:22:45.
