data_PCOD9164058
_publ_section_title
;
Structure prediction by ZEFSAII (Michael W. Deem and Ramdas Pophale) SiO2 
 PCOD9164058
Probable space group: P 21/M
;
_chemical_formula_sum "Si O2"
_cell_formula_units_Z 28
_cell_length_a 9.659322
_cell_length_b 29.562582
_cell_length_c 5.251788
_cell_angle_alpha 90.000000
_cell_angle_beta 110.312840
_cell_angle_gamma 90.000000
_cell_volume 1406.408851
_symmetry_space_group_name_H-M "P 21/M"
_symmetry_group_IT_number 11
_symmetry_cell_setting 'monoclinic'
loop_
_space_group_symop_operation_xyz
x,y,z
-x,1/2+y,-z
-x,-y,-z
x,1/2-y,z
loop_
_atom_site_type_symbol
_atom_site_label
_atom_site_fract_x
_atom_site_fract_y
_atom_site_fract_z
Si Si1 0.051875 0.803326 0.930835
Si Si2 0.194865 0.376897 0.149387
Si Si3 0.174230 0.652983 0.494155
Si Si4 0.333824 0.586140 0.878918
Si Si5 0.169255 0.502533 0.511778
Si Si6 0.337910 0.090585 0.724242
Si Si7 0.914095 0.074576 0.885453
O O1 0.028117 0.750000 0.912542
O O2 0.903187 0.831786 0.893730
O O3 0.109560 0.820131 0.692798
O O4 0.161777 0.816533 0.234586
O O5 0.309805 0.380720 0.451959
O O6 0.269727 0.384674 0.926149
O O7 0.073963 0.417756 0.105046
O O8 0.325264 0.628713 0.679589
O O9 0.080873 0.607333 0.360432
O O10 0.273951 0.540689 0.708088
O O11 0.492020 0.581137 0.105410
O O12 0.209994 0.595398 0.013149
O O13 0.252763 0.456382 0.619850
O O14 0.141855 0.524727 0.216241
O O15 0.000000 0.500000 0.500000
#
# Coordination Sequence:
#
# PCOD9164058 Si02
#       7
#     4   4   4   4   4   4   4
#     4  11  22  40  72 103 121 151 212 271 315 384
#     4  11  23  42  62  94 124 167 210 260 323 377
#     4  10  20  38  65  95 128 158 204 259 322 363
#     4  11  24  41  62  92 134 175 215 265 307 380
#     4  11  23  38  63  92 127 175 226 274 300 353
#     4  12  27  39  62  92 135 176 215 253 321 373
#     4  10  21  39  66  85 130 170 221 267 303 361
#
# _framework density 19.908863
#
# number of rings (size 3 to 8) (size 9 to 14) (size 15 to 20)
#    0.000    1.143    4.286    3.429    6.000    1.714 
#    0.000    0.000    0.000    5.143    0.000    0.000 
#    0.000    0.000    0.000    0.000    0.000    0.000 
#
# Total GULP energy -156186.545032 kJ/mol
# GULP energy per Si atom -5578.090894 kJ/mol
# Density = 1.986355 g / cm^3
# Si number density = 19.908863 Si / 1000 Ang^3
#
#
#
# Elastic Constant Matrix: (Units=GPa)
#
#
# Indices 1 2 3 4 5 6 
#
# 1 28.2740 -11.8192 34.7021 0.0000 10.8972 0.0000
# 2 -11.8192 107.6533 47.0357 0.0000 -3.5207 0.0000
# 3 34.7021 47.0357 141.7979 0.0000 10.3097 0.0000
# 4 0.0000 0.0000 0.0000 28.4117 0.0000 -2.2122
# 5 10.8972 -3.5207 10.3097 0.0000 44.1128 0.0000
# 6 0.0000 0.0000 0.0000 -2.2122 0.0000 16.9663
#
#
#
# Elastic Compliance Matrix: (Units=1/GPa)
#
#
# Indices 1 2 3 4 5 6 
#
# 1 0.077840 0.018822 -0.024419 0.000000 -0.012019 0.000000
# 2 0.018822 0.015548 -0.009680 0.000000 -0.001146 0.000000
# 3 -0.024419 -0.009680 0.016131 0.000000 0.001490 0.000000
# 4 0.000000 0.000000 0.000000 0.035558 0.000000 0.004636
# 5 -0.012019 -0.001146 0.001490 0.000000 0.025199 0.000000
# 6 0.000000 0.000000 0.000000 0.004636 0.000000 0.059545
#
#
# Mechanical properties :
#
#
# Convention : Reuss Voigt Hill
#
# Bulk Modulus (GPa) = 12.66407 46.39582 29.52995
# Shear Modulus (GPa) = 17.44010 31.75193 24.59601
#
# Velocity S-wave (km/s) = 2.96294 3.99791 3.51868
# Velocity P-wave (km/s) = 4.25208 6.68324 5.60115
#
# Compressibility (1/GPa) = 0.07896357
#
# Stress axis : x y z
#
# Youngs Moduli (GPa) = 12.84692 64.31899 61.99207
#
# Poissons Ratio (x) = -1.21062 1.51380
# Poissons Ratio (y) = -0.24181 0.60010
# Poissons Ratio (z) = 0.31371 0.62262
#
# Static dielectric constant tensor:
#      x y z
#    x 1.728230 0.000000 -0.045650 
#    y 0.000000 1.730430 0.000000 
#    z -0.045650 0.000000 1.810540 
# 
# From -- ./inp_files/3267.got.cif
#   From: 2010.05.17/outbox.cif.g08.bks.cpg/sg11_2_cif.got.tgz:3267.got - 2010.06.03 12:22:45.
