data_PCOD9164104
_publ_section_title
;
Structure prediction by ZEFSAII (Michael W. Deem and Ramdas Pophale) SiO2 
 PCOD9164104
Probable space group: P 21/M
;
_chemical_formula_sum "Si O2"
_cell_formula_units_Z 24
_cell_length_a 11.594194
_cell_length_b 15.552455
_cell_length_c 16.806110
_cell_angle_alpha 90.000000
_cell_angle_beta 156.137300
_cell_angle_gamma 90.000000
_cell_volume 1225.956236
_symmetry_space_group_name_H-M "P 21/M"
_symmetry_group_IT_number 11
_symmetry_cell_setting 'monoclinic'
loop_
_space_group_symop_operation_xyz
x,y,z
-x,1/2+y,-z
-x,-y,-z
x,1/2-y,z
loop_
_atom_site_type_symbol
_atom_site_label
_atom_site_fract_x
_atom_site_fract_y
_atom_site_fract_z
Si Si1 0.929292 0.908736 0.495350
Si Si2 0.710472 0.921434 0.614697
Si Si3 0.161938 0.847879 0.485494
Si Si4 0.834144 0.489036 0.207578
Si Si5 0.786021 0.648325 0.837082
Si Si6 0.414558 0.852827 0.268850
O O1 0.606270 0.893222 0.319277
O O2 0.041378 0.845309 0.498935
O O3 0.000000 0.000000 0.500000
O O4 0.094960 0.915374 0.682720
O O5 0.751043 0.868871 0.721090
O O6 0.562393 0.873389 0.446692
O O7 0.500000 0.000000 0.500000
O O8 0.014483 0.957599 0.776969
O O9 0.150127 0.750000 0.444870
O O10 0.489986 0.880522 0.690663
O O11 0.982667 0.920263 0.325530
O O12 0.500000 0.500000 0.000000
O O13 0.797447 0.750000 0.858947
O O14 0.089117 0.613646 0.059303
O O15 0.416534 0.750000 0.258714
#
# Coordination Sequence:
#
# PCOD9164104 Si02
#       6
#     4   4   4   4   4   4
#     4   9  20  37  58  83 114 148 195 242 287 348
#     4  11  22  39  59  89 122 156 199 245 294 352
#     4  10  20  39  59  84 118 154 196 243 295 352
#     4  10  22  39  57  87 119 153 196 244 293 350
#     4  10  22  39  62  89 119 156 197 244 300 353
#     4  10  22  40  61  87 118 158 200 246 299 354
#
# _framework density 19.576554999999999
#
# number of rings (size 3 to 8) (size 9 to 14) (size 15 to 20)
#    0.000    2.000    1.667    1.000    4.667    2.000 
#    0.000    4.167    0.000    0.000    0.000    0.000 
#    0.000    0.000    0.000    0.000    0.000    0.000 
#
# Total GULP energy -133759.376436 kJ/mol
# GULP energy per Si atom -5573.307351 kJ/mol
# Density = 1.953200 g / cm^3
# Si number density = 19.576555 Si / 1000 Ang^3
#
#
#
# Elastic Constant Matrix: (Units=GPa)
#
#
# Indices 1 2 3 4 5 6 
#
# 1 49.7748 -4.1181 10.0123 0.0000 15.7964 0.0000
# 2 -4.1181 55.3106 15.9691 0.0000 11.7954 0.0000
# 3 10.0123 15.9691 130.9957 0.0000 32.5192 0.0000
# 4 0.0000 0.0000 0.0000 26.1003 0.0000 3.7596
# 5 15.7964 11.7954 32.5192 0.0000 32.4939 0.0000
# 6 0.0000 0.0000 0.0000 3.7596 0.0000 27.9922
#
#
#
# Elastic Compliance Matrix: (Units=1/GPa)
#
#
# Indices 1 2 3 4 5 6 
#
# 1 0.025038 0.004730 0.001274 0.000000 -0.015164 0.000000
# 2 0.004730 0.020558 -0.000591 0.000000 -0.009171 0.000000
# 3 0.001274 -0.000591 0.010257 0.000000 -0.010670 0.000000
# 4 0.000000 0.000000 0.000000 0.039070 0.000000 -0.005247
# 5 -0.015164 -0.009171 -0.010670 0.000000 0.052154 0.000000
# 6 0.000000 0.000000 0.000000 -0.005247 0.000000 0.036429
#
#
# Mechanical properties :
#
#
# Convention : Reuss Voigt Hill
#
# Bulk Modulus (GPa) = 14.99708 31.08975 23.04341
# Shear Modulus (GPa) = 25.65330 31.59846 28.62588
#
# Velocity S-wave (km/s) = 3.62388 4.02194 3.82809
# Velocity P-wave (km/s) = 5.01871 6.12239 5.59781
#
# Compressibility (1/GPa) = 0.06667966
#
# Stress axis : x y z
#
# Youngs Moduli (GPa) = 39.93941 48.64221 97.49123
#
# Poissons Ratio (x) = -0.23008 -0.12421
# Poissons Ratio (y) = -0.18892 0.05763
# Poissons Ratio (z) = -0.05088 0.02875
#
# Static dielectric constant tensor:
#      x y z
#    x 1.710310 0.000000 0.007390 
#    y 0.000000 1.713240 0.000000 
#    z 0.007390 0.000000 1.701800 
# 
# From -- ./inp_files/22322.got.cif
#   From: 2010.05.17/outbox.cif.g08.bks.cpg/sg11_12_cif.got.tgz:22322.got - 2010.06.03 12:22:45.
