data_PCOD9164670
_publ_section_title
;
Structure prediction by ZEFSAII (Michael W. Deem and Ramdas Pophale) SiO2 
 PCOD9164670
Probable space group: P 21/M
;
_chemical_formula_sum "Si O2"
_cell_formula_units_Z 28
_cell_length_a 22.127688
_cell_length_b 8.741164
_cell_length_c 15.368015
_cell_angle_alpha 90.000000
_cell_angle_beta 152.489030
_cell_angle_gamma 90.000000
_cell_volume 1373.056403
_symmetry_space_group_name_H-M "P 21/M"
_symmetry_group_IT_number 11
_symmetry_cell_setting 'monoclinic'
loop_
_space_group_symop_operation_xyz
x,y,z
-x,1/2+y,-z
-x,-y,-z
x,1/2-y,z
loop_
_atom_site_type_symbol
_atom_site_label
_atom_site_fract_x
_atom_site_fract_y
_atom_site_fract_z
Si Si1 0.350833 0.064440 0.312096
Si Si2 0.796565 0.566459 0.054721
Si Si3 0.852714 0.064165 0.803395
Si Si4 0.314633 0.932677 0.570315
Si Si5 0.981668 0.578236 0.569326
Si Si6 0.320069 0.423790 0.765360
Si Si7 0.597372 0.563506 0.945940
O O1 0.356311 0.250000 0.326247
O O2 0.500000 0.000000 0.500000
O O3 0.254377 0.997560 0.263626
O O4 0.278565 0.023433 0.128843
O O5 0.800626 0.750000 0.061972
O O6 0.941629 0.505180 0.255225
O O7 0.714900 0.512618 0.034898
O O8 0.855969 0.250000 0.812718
O O9 0.796020 0.013815 0.636822
O O10 0.000000 0.000000 0.000000
O O11 0.308554 0.750000 0.562144
O O12 0.460651 0.977363 0.726410
O O13 0.310751 0.987125 0.663964
O O14 0.033093 0.750000 0.630021
O O15 0.000000 0.500000 0.500000
O O16 0.828375 0.583485 0.390719
O O17 0.366382 0.250000 0.808069
O O18 0.396667 0.491346 0.946509
O O19 0.604744 0.750000 0.960898
#
# Coordination Sequence:
#
# PCOD9164670 Si02
#       7
#     4   4   4   4   4   4   4
#     4  11  24  43  70 100 130 168 214 270 331 390
#     4  10  21  39  63  88 121 162 203 249 307 371
#     4  11  25  45  66  92 127 170 220 273 330 388
#     4  10  22  39  62  86 114 156 205 249 300 366
#     4  11  22  37  57  86 121 160 201 249 305 365
#     4  10  21  36  57  85 120 157 194 241 300 358
#     4   9  17  36  60  85 119 155 190 238 297 358
#
# _framework density 20.392461000000001
#
# number of rings (size 3 to 8) (size 9 to 14) (size 15 to 20)
#    0.000    1.714    1.429    2.571    2.000    5.714 
#    0.000    0.714    0.000    0.000    0.000    0.000 
#    0.000    0.000    0.000    0.000    0.000    0.000 
#
# Total GULP energy -156246.575074 kJ/mol
# GULP energy per Si atom -5580.234824 kJ/mol
# Density = 2.034605 g / cm^3
# Si number density = 20.392461 Si / 1000 Ang^3
#
#
#
# Elastic Constant Matrix: (Units=GPa)
#
#
# Indices 1 2 3 4 5 6 
#
# 1 82.3779 23.5672 46.8871 0.0000 -7.0159 0.0000
# 2 23.5672 33.1023 41.3037 0.0000 -0.5257 0.0000
# 3 46.8871 41.3037 174.8113 0.0000 -19.2277 0.0000
# 4 0.0000 0.0000 0.0000 27.9553 0.0000 3.7797
# 5 -7.0159 -0.5257 -19.2277 0.0000 35.7028 0.0000
# 6 0.0000 0.0000 0.0000 3.7797 0.0000 28.5795
#
#
#
# Elastic Compliance Matrix: (Units=1/GPa)
#
#
# Indices 1 2 3 4 5 6 
#
# 1 0.015966 -0.008877 -0.001971 0.000000 0.001945 0.000000
# 2 -0.008877 0.048675 -0.009814 0.000000 -0.006313 0.000000
# 3 -0.001971 -0.009814 0.009045 0.000000 0.004340 0.000000
# 4 0.000000 0.000000 0.000000 0.036423 0.000000 -0.004817
# 5 0.001945 -0.006313 0.004340 0.000000 0.030635 0.000000
# 6 0.000000 0.000000 0.000000 -0.004817 0.000000 0.035627
#
#
# Mechanical properties :
#
#
# Convention : Reuss Voigt Hill
#
# Bulk Modulus (GPa) = 30.90032 57.08973 43.99502
# Shear Modulus (GPa) = 21.88346 30.34974 26.11660
#
# Velocity S-wave (km/s) = 3.27940 3.86201 3.58257
# Velocity P-wave (km/s) = 5.43369 6.92410 6.22367
#
# Compressibility (1/GPa) = 0.03236213
#
# Stress axis : x y z
#
# Youngs Moduli (GPa) = 62.63206 20.54453 110.55506
#
# Poissons Ratio (x) = 0.18237 0.21791
# Poissons Ratio (y) = 0.55598 1.08500
# Poissons Ratio (z) = 0.12345 0.20163
#
# Static dielectric constant tensor:
#      x y z
#    x 1.736370 0.000000 -0.011240 
#    y 0.000000 2.051730 0.000000 
#    z -0.011240 0.000000 1.776620 
# 
# From -- ./inp_files/49130.got.cif
#   From: 2010.05.17/outbox.cif.g08.bks.cpg/sg11_25_cif.got.tgz:49130.got - 2010.06.03 12:22:45.
