data_PCOD9164084
_publ_section_title
;
Structure prediction by ZEFSAII (Michael W. Deem and Ramdas Pophale) SiO2 
 PCOD9164084
Probable space group: P 21/M
;
_chemical_formula_sum "Si O2"
_cell_formula_units_Z 28
_cell_length_a 9.466512
_cell_length_b 19.109652
_cell_length_c 15.177283
_cell_angle_alpha 90.000000
_cell_angle_beta 31.591568
_cell_angle_gamma 90.000000
_cell_volume 1438.309997
_symmetry_space_group_name_H-M "P 21/M"
_symmetry_group_IT_number 11
_symmetry_cell_setting 'monoclinic'
loop_
_space_group_symop_operation_xyz
x,y,z
-x,1/2+y,-z
-x,-y,-z
x,1/2-y,z
loop_
_atom_site_type_symbol
_atom_site_label
_atom_site_fract_x
_atom_site_fract_y
_atom_site_fract_z
Si Si1 0.619697 0.668710 0.950713
Si Si2 0.712751 0.042360 0.829016
Si Si3 0.498713 0.669085 0.668873
Si Si4 0.338254 0.032613 0.505799
Si Si5 0.595338 0.432828 0.692220
Si Si6 0.872088 0.831288 0.006023
Si Si7 0.904064 0.667390 0.617187
O O1 0.548521 0.750000 0.979840
O O2 0.768099 0.647053 0.782207
O O3 0.358646 0.622854 0.110867
O O4 0.814923 0.660957 0.931514
O O5 0.657781 0.033602 0.754335
O O6 0.018534 0.024648 0.688005
O O7 0.500000 0.000000 0.000000
O O8 0.519616 0.750000 0.628685
O O9 0.591655 0.613669 0.547049
O O10 0.687788 0.659987 0.653700
O O11 0.185579 0.656188 0.858026
O O12 0.500000 0.000000 0.500000
O O13 0.419638 0.991537 0.373901
O O14 0.326409 0.386004 0.842429
O O15 0.840886 0.380571 0.539118
O O16 0.807718 0.750000 0.062561
O O17 0.978468 0.750000 0.582752
#
# Coordination Sequence:
#
# PCOD9164084 Si02
#       7
#     4   4   4   4   4   4   4
#     4   9  20  37  65  94 121 161 213 259 308 374
#     4  11  24  41  64  90 126 166 210 262 313 373
#     4  10  23  42  64  90 127 165 205 258 318 376
#     4  12  28  43  62  95 130 169 214 261 325 381
#     4  11  23  41  64  92 127 167 211 265 308 378
#     4   9  20  40  64  93 127 166 207 258 316 373
#     4  10  20  38  67  96 123 163 210 259 316 375
#
# _framework density 19.467290999999999
#
# number of rings (size 3 to 8) (size 9 to 14) (size 15 to 20)
#    0.000    1.714    1.429    1.714    8.000    2.857 
#    0.000    0.714    0.000    0.000    0.000    0.000 
#    0.000    0.000    0.000    0.000    0.000    0.000 
#
# Total GULP energy -156534.242945 kJ/mol
# GULP energy per Si atom -5590.508677 kJ/mol
# Density = 1.942298 g / cm^3
# Si number density = 19.467291 Si / 1000 Ang^3
#
#
#
# Elastic Constant Matrix: (Units=GPa)
#
#
# Indices 1 2 3 4 5 6 
#
# 1 74.4807 56.3846 57.6836 0.0000 6.4587 0.0000
# 2 56.3846 86.7099 60.1423 0.0000 -2.9087 0.0000
# 3 57.6836 60.1423 96.8625 0.0000 1.9397 0.0000
# 4 0.0000 0.0000 0.0000 42.2007 0.0000 3.9908
# 5 6.4587 -2.9087 1.9397 0.0000 33.1400 0.0000
# 6 0.0000 0.0000 0.0000 3.9908 0.0000 24.7637
#
#
#
# Elastic Compliance Matrix: (Units=1/GPa)
#
#
# Indices 1 2 3 4 5 6 
#
# 1 0.033271 -0.014456 -0.010695 0.000000 -0.007127 0.000000
# 2 -0.014456 0.026749 -0.008113 0.000000 0.005640 0.000000
# 3 -0.010695 -0.008113 0.021728 0.000000 0.000101 0.000000
# 4 0.000000 0.000000 0.000000 0.024063 0.000000 -0.003878
# 5 -0.007127 0.005640 0.000101 0.000000 0.032053 0.000000
# 6 0.000000 0.000000 0.000000 -0.003878 0.000000 0.041007
#
#
# Mechanical properties :
#
#
# Convention : Reuss Voigt Hill
#
# Bulk Modulus (GPa) = 65.69940 67.38601 66.54271
# Shear Modulus (GPa) = 19.96220 25.61040 22.78630
#
# Velocity S-wave (km/s) = 3.20570 3.63100 3.42496
# Velocity P-wave (km/s) = 6.89376 7.22973 7.06374
#
# Compressibility (1/GPa) = 0.01522084
#
# Stress axis : x y z
#
# Youngs Moduli (GPa) = 30.05592 37.38420 46.02283
#
# Poissons Ratio (x) = 0.54043 0.49222
# Poissons Ratio (y) = 0.43449 0.37337
# Poissons Ratio (z) = 0.32145 0.30329
#
# Static dielectric constant tensor:
#      x y z
#    x 1.650000 0.000000 0.007010 
#    y 0.000000 1.713390 0.000000 
#    z 0.007010 0.000000 1.649240 
# 
# From -- ./inp_files/48304.got.cif
#   From: 2010.05.17/outbox.cif.g08.bks.cpg/sg11_25_cif.got.tgz:48304.got - 2010.06.03 12:22:45.
