data_PCOD9164044
_publ_section_title
;
Structure prediction by ZEFSAII (Michael W. Deem and Ramdas Pophale) SiO2 
 PCOD9164044
Probable space group: P 21/M
;
_chemical_formula_sum "Si O2"
_cell_formula_units_Z 32
_cell_length_a 12.574873
_cell_length_b 12.230418
_cell_length_c 11.852781
_cell_angle_alpha 90.000000
_cell_angle_beta 113.081598
_cell_angle_gamma 90.000000
_cell_volume 1676.981193
_symmetry_space_group_name_H-M "P 21/M"
_symmetry_group_IT_number 11
_symmetry_cell_setting 'monoclinic'
loop_
_space_group_symop_operation_xyz
x,y,z
-x,1/2+y,-z
-x,-y,-z
x,1/2-y,z
loop_
_atom_site_type_symbol
_atom_site_label
_atom_site_fract_x
_atom_site_fract_y
_atom_site_fract_z
Si Si1 0.481741 0.864133 0.758682
Si Si2 0.272050 0.026852 0.721911
Si Si3 0.379892 0.452465 0.993482
Si Si4 0.303277 0.873447 0.143216
Si Si5 0.804518 0.879033 0.544587
Si Si6 0.956754 0.376333 0.017004
Si Si7 0.062783 0.877291 0.719242
Si Si8 0.608675 0.973706 0.622733
O O1 0.416668 0.750000 0.732739
O O2 0.575756 0.866978 0.897363
O O3 0.558919 0.878177 0.680491
O O4 0.386808 0.959163 0.732484
O O5 0.234002 0.098474 0.599875
O O6 0.306777 0.083637 0.855050
O O7 0.166919 0.946932 0.711215
O O8 0.323589 0.550368 0.042508
O O9 0.500000 0.500000 0.000000
O O10 0.347571 0.750000 0.144317
O O11 0.359906 0.930405 0.275430
O O12 0.165718 0.868915 0.096944
O O13 0.797283 0.750000 0.565929
O O14 0.937183 0.913349 0.621104
O O15 0.718141 0.941423 0.593150
O O16 0.010948 0.250000 0.021285
O O17 0.940646 0.383124 0.145795
O O18 0.000000 0.500000 0.000000
O O19 0.079056 0.750000 0.695894
O O20 0.500000 0.000000 0.500000
#
# Coordination Sequence:
#
# PCOD9164044 Si02
#       8
#     4   4   4   4   4   4   4   4
#     4  10  21  37  60  87 116 154 200 252 309 363
#     4  11  20  39  61  88 122 160 207 251 295 374
#     4   9  20  35  55  87 120 146 191 247 303 356
#     4  10  21  38  64  90 117 157 205 255 309 373
#     4  11  24  40  59  87 125 167 206 251 313 374
#     4  10  20  38  64  94 124 163 212 262 320 376
#     4  10  21  38  63  89 121 164 205 256 313 372
#     4  11  22  42  58  87 122 155 203 253 306 369
#
# _framework density 19.081907999999999
#
# number of rings (size 3 to 8) (size 9 to 14) (size 15 to 20)
#    0.000    1.750    2.500    1.875    0.000    3.500 
#    0.000    3.125    0.000    4.500    0.000    0.000 
#    0.000    0.000    0.000    0.000    0.000    0.000 
#
# Total GULP energy -178158.806799 kJ/mol
# GULP energy per Si atom -5567.462712 kJ/mol
# Density = 1.903848 g / cm^3
# Si number density = 19.081908 Si / 1000 Ang^3
#
#
#
# Elastic Constant Matrix: (Units=GPa)
#
#
# Indices 1 2 3 4 5 6 
#
# 1 78.9029 15.9669 23.7424 0.0000 5.4547 0.0000
# 2 15.9669 71.8835 7.5194 0.0000 -1.2230 0.0000
# 3 23.7424 7.5194 123.2319 0.0000 9.9868 0.0000
# 4 0.0000 0.0000 0.0000 2.5213 0.0000 9.9954
# 5 5.4547 -1.2230 9.9868 0.0000 33.2643 0.0000
# 6 0.0000 0.0000 0.0000 9.9954 0.0000 13.9044
#
#
#
# Elastic Compliance Matrix: (Units=1/GPa)
#
#
# Indices 1 2 3 4 5 6 
#
# 1 0.014103 -0.002910 -0.002402 0.000000 -0.001698 0.000000
# 2 -0.002910 0.014622 -0.000424 0.000000 0.001142 0.000000
# 3 -0.002402 -0.000424 0.008787 0.000000 -0.002260 0.000000
# 4 0.000000 0.000000 0.000000 -0.214408 0.000000 0.154131
# 5 -0.001698 0.001142 -0.002260 0.000000 0.031061 0.000000
# 6 0.000000 0.000000 0.000000 0.154131 0.000000 -0.038880
#
#
# Mechanical properties :
#
#
# Convention : Reuss Voigt Hill
#
# Bulk Modulus (GPa) = 38.40435 40.94175 39.67305
# Shear Modulus (GPa) = -30.38336 25.05731 -2.66302
#
# Velocity S-wave (km/s) = -3.99464 3.62767 -1.18263
# Velocity P-wave (km/s) = 1.05189 6.24892 4.35560
#
# Compressibility (1/GPa) = 0.02603872
#
# Stress axis : x y z
#
# Youngs Moduli (GPa) = 70.90750 68.39193 113.81039
#
# Poissons Ratio (x) = 0.19903 0.27336
# Poissons Ratio (y) = 0.20636 0.04826
# Poissons Ratio (z) = 0.17031 0.02900
#
# Static dielectric constant tensor:
#      x y z
#    x 1.649370 0.000000 -0.013810 
#    y 0.000000 1.659170 0.000000 
#    z -0.013810 0.000000 1.693770 
# 
# From -- ./inp_files/35097.got.cif
#   From: 2010.05.17/outbox.cif.g08.bks.cpg/sg11_18_cif.got.tgz:35097.got - 2010.06.03 12:22:45.
