data_PCOD9164396
_publ_section_title
;
Structure prediction by ZEFSAII (Michael W. Deem and Ramdas Pophale) SiO2 
 PCOD9164396
Probable space group: P 21/M
;
_chemical_formula_sum "Si O2"
_cell_formula_units_Z 28
_cell_length_a 26.022700
_cell_length_b 8.845283
_cell_length_c 9.684670
_cell_angle_alpha 90.000000
_cell_angle_beta 139.467216
_cell_angle_gamma 90.000000
_cell_volume 1448.718868
_symmetry_space_group_name_H-M "P 21/M"
_symmetry_group_IT_number 11
_symmetry_cell_setting 'monoclinic'
loop_
_space_group_symop_operation_xyz
x,y,z
-x,1/2+y,-z
-x,-y,-z
x,1/2-y,z
loop_
_atom_site_type_symbol
_atom_site_label
_atom_site_fract_x
_atom_site_fract_y
_atom_site_fract_z
Si Si1 0.424168 0.432585 0.423728
Si Si2 0.744916 0.068209 0.909520
Si Si3 0.766513 0.569722 0.652018
Si Si4 0.505225 0.069891 0.860833
Si Si5 0.320614 0.570352 0.771782
Si Si6 0.168038 0.930143 0.646630
Si Si7 0.919798 0.930116 0.778857
O O1 0.500000 0.500000 0.500000
O O2 0.423841 0.250000 0.410735
O O3 0.339076 0.499931 0.213238
O O4 0.440850 0.476772 0.617769
O O5 0.738971 0.250000 0.899175
O O6 0.761830 0.009264 0.790395
O O7 0.813808 0.024161 0.159039
O O8 0.762288 0.750000 0.661826
O O9 0.697670 0.516610 0.407109
O O10 0.847336 0.530359 0.734601
O O11 0.499528 0.250000 0.861312
O O12 0.594075 0.031957 0.992258
O O13 0.500000 0.000000 0.000000
O O14 0.319674 0.750000 0.740493
O O15 0.250269 0.539177 0.733964
O O16 0.153663 0.750000 0.613565
O O17 0.102491 0.010450 0.419350
O O18 0.925584 0.750000 0.787096
O O19 0.000000 0.000000 0.000000
#
# Coordination Sequence:
#
# PCOD9164396 Si02
#       7
#     4   4   4   4   4   4   4
#     4  11  23  38  55  78 110 148 190 237 285 333
#     4  11  22  37  57  82 112 148 188 229 276 331
#     4  10  21  36  55  83 114 144 180 225 273 326
#     4  10  21  34  49  72 102 137 181 230 278 324
#     4   9  17  33  54  73  98 137 182 227 273 324
#     4   9  19  36  58  81 107 140 181 225 269 321
#     4  10  21  38  62  89 116 144 179 221 269 327
#
# _framework density 19.327423
#
# number of rings (size 3 to 8) (size 9 to 14) (size 15 to 20)
#    0.000    2.000    0.000    3.429    0.000    9.143 
#    0.000    3.571    0.000    0.000    0.000    0.000 
#    0.000    0.000    0.000    0.000    0.000    0.000 
#
# Total GULP energy -156334.871648 kJ/mol
# GULP energy per Si atom -5583.388273 kJ/mol
# Density = 1.928343 g / cm^3
# Si number density = 19.327423 Si / 1000 Ang^3
#
#
#
# Elastic Constant Matrix: (Units=GPa)
#
#
# Indices 1 2 3 4 5 6 
#
# 1 37.8377 21.7226 26.8332 0.0000 -12.6469 0.0000
# 2 21.7226 32.2852 42.3274 0.0000 -6.3069 0.0000
# 3 26.8332 42.3274 146.0288 0.0000 -7.6905 0.0000
# 4 0.0000 0.0000 0.0000 29.4839 0.0000 0.3311
# 5 -12.6469 -6.3069 -7.6905 0.0000 32.6597 0.0000
# 6 0.0000 0.0000 0.0000 0.3311 0.0000 29.3524
#
#
#
# Elastic Compliance Matrix: (Units=1/GPa)
#
#
# Indices 1 2 3 4 5 6 
#
# 1 0.047732 -0.030656 0.000786 0.000000 0.012748 0.000000
# 2 -0.030656 0.070969 -0.015028 0.000000 -0.001705 0.000000
# 3 0.000786 -0.015028 0.011060 0.000000 0.000007 0.000000
# 4 0.000000 0.000000 0.000000 0.033921 0.000000 -0.000383
# 5 0.012748 -0.001705 0.000007 0.000000 0.035228 0.000000
# 6 0.000000 0.000000 0.000000 -0.000383 0.000000 0.034073
#
#
# Mechanical properties :
#
#
# Convention : Reuss Voigt Hill
#
# Bulk Modulus (GPa) = 25.02124 44.21312 34.61718
# Shear Modulus (GPa) = 14.87656 26.65044 20.76350
#
# Velocity S-wave (km/s) = 2.77738 3.71737 3.28121
# Velocity P-wave (km/s) = 4.82278 6.43045 5.68374
#
# Compressibility (1/GPa) = 0.03996605
#
# Stress axis : x y z
#
# Youngs Moduli (GPa) = 20.95044 14.09060 90.41880
#
# Poissons Ratio (x) = 0.43196 -0.07111
# Poissons Ratio (y) = 0.64226 1.35877
# Poissons Ratio (z) = -0.01648 0.21175
#
# Static dielectric constant tensor:
#      x y z
#    x 1.700180 0.000000 -0.014310 
#    y 0.000000 1.659600 0.000000 
#    z -0.014310 0.000000 1.689810 
# 
# From -- ./inp_files/28416.got.cif
#   From: 2010.05.17/outbox.cif.g08.bks.cpg/sg11_15_cif.got.tgz:28416.got - 2010.06.03 12:22:45.
