data_PCOD9164340
_publ_section_title
;
Structure prediction by ZEFSAII (Michael W. Deem and Ramdas Pophale) SiO2 
 PCOD9164340
Probable space group: P 21/M
;
_chemical_formula_sum "Si O2"
_cell_formula_units_Z 18
_cell_length_a 16.958256
_cell_length_b 9.010833
_cell_length_c 9.443655
_cell_angle_alpha 90.000000
_cell_angle_beta 150.657293
_cell_angle_gamma 90.000000
_cell_volume 707.149080
_symmetry_space_group_name_H-M "P 21/M"
_symmetry_group_IT_number 11
_symmetry_cell_setting 'monoclinic'
loop_
_space_group_symop_operation_xyz
x,y,z
-x,1/2+y,-z
-x,-y,-z
x,1/2-y,z
loop_
_atom_site_type_symbol
_atom_site_label
_atom_site_fract_x
_atom_site_fract_y
_atom_site_fract_z
Si Si1 0.822067 0.075470 0.484406
Si Si2 0.576307 0.750000 0.772532
Si Si3 0.420866 0.250000 0.608380
Si Si4 0.286966 0.956224 0.008926
Si Si5 0.796475 0.250000 0.886915
Si Si6 0.471649 0.750000 0.906733
Si Si7 0.887490 0.750000 0.735003
O O1 0.892834 0.250000 0.602309
O O2 0.646767 0.109322 0.279383
O O3 0.868705 0.914972 0.627611
O O4 0.796062 0.052034 0.274303
O O5 0.670539 0.612932 0.864265
O O6 0.387450 0.750000 0.449999
O O7 0.591290 0.750000 0.965257
O O8 0.534878 0.383036 0.732590
O O9 0.227695 0.250000 0.306770
O O10 0.439304 0.250000 0.806762
O O11 0.184554 0.882119 0.971439
O O12 0.918032 0.250000 0.948504
#
# Coordination Sequence:
#
# PCOD9164340 Si02
#       7
#     4   2   2   4   2   2   2
#     4   9  19  38  62  92 122 143 194 258 299 349
#     4  12  21  35  66  83 112 168 201 240 291 344
#     4   9  18  37  65  91 116 141 190 264 302 335
#     4  10  20  42  61  84 117 151 205 254 286 340
#     4  11  26  41  49  87 130 157 204 232 280 379
#     4   8  17  35  60  95 118 136 207 258 285 348
#     4  12  22  36  62  92 126 160 180 242 324 348
#
# _framework density 25.454322999999999
#
# number of rings (size 3 to 8) (size 9 to 14) (size 15 to 20)
#    0.667    1.333    2.222    4.000    0.000    4.444 
#    2.000    4.444    0.000    0.000    0.000    0.000 
#    0.000    0.000    0.000    0.000    0.000    0.000 
#
# Total GULP energy -100231.304286 kJ/mol
# GULP energy per Si atom -5568.405794 kJ/mol
# Density = 2.539639 g / cm^3
# Si number density = 25.454323 Si / 1000 Ang^3
#
#
#
# Elastic Constant Matrix: (Units=GPa)
#
#
# Indices 1 2 3 4 5 6 
#
# 1 106.5634 -0.1878 24.0089 0.0000 7.0864 0.0000
# 2 -0.1878 163.1035 39.0900 0.0000 -0.8054 0.0000
# 3 24.0089 39.0900 50.5787 0.0000 7.5380 0.0000
# 4 0.0000 0.0000 0.0000 -23.6953 0.0000 -62.0143
# 5 7.0864 -0.8054 7.5380 0.0000 41.7514 0.0000
# 6 0.0000 0.0000 0.0000 -62.0143 0.0000 -44.2844
#
#
#
# Elastic Compliance Matrix: (Units=1/GPa)
#
#
# Indices 1 2 3 4 5 6 
#
# 1 0.010827 0.001493 -0.006190 0.000000 -0.000691 0.000000
# 2 0.001493 0.007792 -0.006901 0.000000 0.001143 0.000000
# 3 -0.006190 -0.006901 0.028678 0.000000 -0.004260 0.000000
# 4 0.000000 0.000000 0.000000 0.015836 0.000000 -0.022176
# 5 -0.000691 0.001143 -0.004260 0.000000 0.024860 0.000000
# 6 0.000000 0.000000 0.000000 -0.022176 0.000000 0.008473
#
#
# Mechanical properties :
#
#
# Convention : Reuss Voigt Hill
#
# Bulk Modulus (GPa) = 41.49320 49.56309 45.52815
# Shear Modulus (GPa) = 39.15487 11.90996 25.53242
#
# Velocity S-wave (km/s) = 3.92630 2.16544 3.17056
# Velocity P-wave (km/s) = 6.07378 5.07600 5.59717
#
# Compressibility (1/GPa) = 0.02410034
#
# Stress axis : x y z
#
# Youngs Moduli (GPa) = 92.35890 128.32981 34.86980
#
# Poissons Ratio (x) = -0.19154 0.21585
# Poissons Ratio (y) = -0.13785 0.24065
# Poissons Ratio (z) = 0.57171 0.88564
#
# Static dielectric constant tensor:
#      x y z
#    x 1.929690 0.000000 -0.032140 
#    y 0.000000 2.104340 0.000000 
#    z -0.032140 0.000000 2.096650 
# 
# From -- ./inp_files/40867.got.cif
#   From: 2010.05.17/outbox.cif.g08.bks.cpg/sg11_21_cif.got.tgz:40867.got - 2010.06.03 12:22:45.
