data_PCOD9164745
_publ_section_title
;
Structure prediction by ZEFSAII (Michael W. Deem and Ramdas Pophale) SiO2 
 PCOD9164745
Probable space group: P 21/M
;
_chemical_formula_sum "Si O2"
_cell_formula_units_Z 20
_cell_length_a 5.203175
_cell_length_b 7.724586
_cell_length_c 26.791128
_cell_angle_alpha 90.000000
_cell_angle_beta 67.244923
_cell_angle_gamma 90.000000
_cell_volume 992.988185
_symmetry_space_group_name_H-M "P 21/M"
_symmetry_group_IT_number 11
_symmetry_cell_setting 'monoclinic'
loop_
_space_group_symop_operation_xyz
x,y,z
-x,1/2+y,-z
-x,-y,-z
x,1/2-y,z
loop_
_atom_site_type_symbol
_atom_site_label
_atom_site_fract_x
_atom_site_fract_y
_atom_site_fract_z
Si Si1 0.191709 0.944032 0.374000
Si Si2 0.090737 0.456141 0.937340
Si Si3 0.535274 0.750000 0.709395
Si Si4 0.893159 0.750000 0.780977
Si Si5 0.446130 0.955931 0.561594
Si Si6 0.723801 0.038639 0.870636
O O1 0.239060 0.750000 0.352029
O O2 0.345374 0.083507 0.328299
O O3 0.323793 0.962647 0.419274
O O4 0.862631 0.981177 0.400829
O O5 0.099558 0.250000 0.934316
O O6 0.401430 0.514172 0.900621
O O7 0.875600 0.510608 0.910923
O O8 0.000000 0.500000 0.000000
O O9 0.660469 0.750000 0.755509
O O10 0.201895 0.750000 0.734717
O O11 0.855417 0.577413 0.817263
O O12 0.458520 0.750000 0.567286
O O13 0.500000 0.000000 0.500000
O O14 0.744825 0.250000 0.861677
#
# Coordination Sequence:
#
# PCOD9164745 Si02
#       6
#     4   4   2   2   4   4
#     4  12  25  45  68  97 137 174 220 279 332 392
#     4  10  21  36  60  90 126 165 202 251 317 386
#     4  12  26  46  66  98 124 172 228 278 324 380
#     4  12  26  42  72  88 124 176 218 272 334 366
#     4  12  23  42  67 101 140 177 219 267 327 405
#     4  10  23  41  59  91 127 158 211 266 311 386
#
# _framework density 20.141224999999999
#
# number of rings (size 3 to 8) (size 9 to 14) (size 15 to 20)
#    0.000    0.800    2.000    5.400    2.800    1.600 
#    0.000    0.000    0.000    0.000    0.000    0.000 
#    0.000    0.000    0.000    0.000    0.000    0.000 
#
# Total GULP energy -111892.376732 kJ/mol
# GULP energy per Si atom -5594.618837 kJ/mol
# Density = 2.009538 g / cm^3
# Si number density = 20.141225 Si / 1000 Ang^3
#
#
#
# Elastic Constant Matrix: (Units=GPa)
#
#
# Indices 1 2 3 4 5 6 
#
# 1 26.7290 -8.7759 -37.6543 0.0000 4.5834 0.0000
# 2 -8.7759 116.4779 16.6284 0.0000 -6.6822 0.0000
# 3 -37.6543 16.6284 45.5421 0.0000 0.5715 0.0000
# 4 0.0000 0.0000 0.0000 -5.4585 0.0000 42.7137
# 5 4.5834 -6.6822 0.5715 0.0000 44.4505 0.0000
# 6 0.0000 0.0000 0.0000 42.7137 0.0000 -24.1514
#
#
#
# Elastic Compliance Matrix: (Units=1/GPa)
#
#
# Indices 1 2 3 4 5 6 
#
# 1 -0.189326 0.009968 -0.160464 0.000000 0.023083 0.000000
# 2 0.009968 0.008621 0.005091 0.000000 0.000203 0.000000
# 3 -0.160464 0.005091 -0.112809 0.000000 0.018762 0.000000
# 4 0.000000 0.000000 0.000000 0.014269 0.000000 0.025235
# 5 0.023083 0.000203 0.018762 0.000000 0.019906 0.000000
# 6 0.000000 0.000000 0.000000 0.025235 0.000000 0.003225
#
#
# Mechanical properties :
#
#
# Convention : Reuss Voigt Hill
#
# Bulk Modulus (GPa) = -1.71138 14.34948 6.31905
# Shear Modulus (GPa) = -31.23492 17.53817 -6.84837
#
# Velocity S-wave (km/s) = -3.94229 2.95407 -1.84596
# Velocity P-wave (km/s) = 4.64475 4.33304 1.18289
#
# Compressibility (1/GPa) = -0.58432439
#
# Stress axis : x y z
#
# Youngs Moduli (GPa) = -5.28190 115.99349 -8.86457
#
# Poissons Ratio (x) = -1.15617 -1.42245
# Poissons Ratio (y) = 0.05265 0.04513
# Poissons Ratio (z) = -0.84756 -0.59051
#
# Static dielectric constant tensor:
#      x y z
#    x 1.709370 0.000000 0.015670 
#    y 0.000000 2.501040 0.000000 
#    z 0.015670 0.000000 1.708120 
# 
# From -- ./inp_files/67495.got.cif
#   From: 2010.05.17/outbox.cif.g08.bks.cpg/sg11_34_cif.got.tgz:67495.got - 2010.06.03 12:22:45.
