data_PCOD9164416
_publ_section_title
;
Structure prediction by ZEFSAII (Michael W. Deem and Ramdas Pophale) SiO2 
 PCOD9164416
Probable space group: P 21/M
;
_chemical_formula_sum "Si O2"
_cell_formula_units_Z 32
_cell_length_a 11.712238
_cell_length_b 24.105959
_cell_length_c 11.639558
_cell_angle_alpha 90.000000
_cell_angle_beta 153.308723
_cell_angle_gamma 90.000000
_cell_volume 1476.128228
_symmetry_space_group_name_H-M "P 21/M"
_symmetry_group_IT_number 11
_symmetry_cell_setting 'monoclinic'
loop_
_space_group_symop_operation_xyz
x,y,z
-x,1/2+y,-z
-x,-y,-z
x,1/2-y,z
loop_
_atom_site_type_symbol
_atom_site_label
_atom_site_fract_x
_atom_site_fract_y
_atom_site_fract_z
Si Si1 0.685330 0.380789 0.428394
Si Si2 0.923591 0.311073 0.955725
Si Si3 0.414387 0.581909 0.412373
Si Si4 0.921389 0.539546 0.291848
Si Si5 0.721272 0.020125 0.915852
Si Si6 0.892380 0.880813 0.697235
Si Si7 0.249070 0.438988 0.634176
Si Si8 0.184085 0.313760 0.957880
O O1 0.599252 0.416953 0.462761
O O2 0.831894 0.422039 0.476015
O O3 0.438474 0.348504 0.161676
O O4 0.918002 0.339421 0.673316
O O5 0.805510 0.250000 0.838358
O O6 0.026025 0.323013 0.174994
O O7 0.149189 0.313673 0.065041
O O8 0.743570 0.362542 0.763460
O O9 0.684821 0.593507 0.597712
O O10 0.309343 0.527837 0.248955
O O11 0.998791 0.477214 0.395070
O O12 0.847167 0.533112 0.090332
O O13 0.716176 0.562471 0.197966
O O14 0.880089 0.075404 0.088859
O O15 0.462910 0.028985 0.754523
O O16 0.792591 0.883433 0.477213
O O17 0.208751 0.250000 0.942445
#
# Coordination Sequence:
#
# PCOD9164416 Si02
#       8
#     4   4   4   4   4   4   4   4
#     4  11  22  36  58  88 116 145 191 230 276 342
#     4   9  17  29  52  79 105 140 180 226 277 333
#     4   9  18  32  49  75 116 142 177 219 282 333
#     4  10  21  34  55  81 106 144 194 229 274 328
#     4   9  18  33  53  74 109 149 179 228 275 332
#     4   9  16  32  51  76 106 142 176 224 279 326
#     4   9  19  36  54  77 107 144 187 233 274 325
#     4  10  21  38  58  83 116 149 182 228 282 338
#
# _framework density 21.678334
#
# number of rings (size 3 to 8) (size 9 to 14) (size 15 to 20)
#    0.000    2.500    1.250    0.750    1.750    1.500 
#    0.000    5.625    0.000    1.500    0.000    0.000 
#    0.000    0.000    0.000    0.000    0.000    0.000 
#
# Total GULP energy -178315.266256 kJ/mol
# GULP energy per Si atom -5572.352071 kJ/mol
# Density = 2.162899 g / cm^3
# Si number density = 21.678334 Si / 1000 Ang^3
#
#
#
# Elastic Constant Matrix: (Units=GPa)
#
#
# Indices 1 2 3 4 5 6 
#
# 1 72.9930 22.7128 8.9709 0.0000 7.2028 0.0000
# 2 22.7128 69.9629 16.9267 0.0000 -1.4682 0.0000
# 3 8.9709 16.9267 54.1714 0.0000 4.6058 0.0000
# 4 0.0000 0.0000 0.0000 25.2246 0.0000 3.7252
# 5 7.2028 -1.4682 4.6058 0.0000 21.1731 0.0000
# 6 0.0000 0.0000 0.0000 3.7252 0.0000 22.6182
#
#
#
# Elastic Compliance Matrix: (Units=1/GPa)
#
#
# Indices 1 2 3 4 5 6 
#
# 1 0.015930 -0.005159 -0.000545 0.000000 -0.005658 0.000000
# 2 -0.005159 0.017230 -0.004871 0.000000 0.004009 0.000000
# 3 -0.000545 -0.004871 0.020464 0.000000 -0.004604 0.000000
# 4 0.000000 0.000000 0.000000 0.040632 0.000000 -0.006692
# 5 -0.005658 0.004009 -0.004604 0.000000 0.050434 0.000000
# 6 0.000000 0.000000 0.000000 -0.006692 0.000000 0.045314
#
#
# Mechanical properties :
#
#
# Convention : Reuss Voigt Hill
#
# Bulk Modulus (GPa) = 30.79200 32.70536 31.74868
# Shear Modulus (GPa) = 22.52467 23.70432 23.11449
#
# Velocity S-wave (km/s) = 3.22691 3.31033 3.26889
# Velocity P-wave (km/s) = 5.30272 5.45257 5.37816
#
# Compressibility (1/GPa) = 0.03247597
#
# Stress axis : x y z
#
# Youngs Moduli (GPa) = 62.77282 58.03664 48.86749
#
# Poissons Ratio (x) = 0.29938 0.02664
# Poissons Ratio (y) = 0.32382 0.23801
# Poissons Ratio (z) = 0.03422 0.28267
#
# Static dielectric constant tensor:
#      x y z
#    x 1.825350 0.000000 -0.074770 
#    y 0.000000 1.789690 0.000000 
#    z -0.074770 0.000000 1.941090 
# 
# From -- ./inp_files/36582.got.cif
#   From: 2010.05.17/outbox.cif.g08.bks.cpg/sg11_19_cif.got.tgz:36582.got - 2010.06.03 12:22:45.
