data_PCOD9164139
_publ_section_title
;
Structure prediction by ZEFSAII (Michael W. Deem and Ramdas Pophale) SiO2 
 PCOD9164139
Probable space group: P 21/M
;
_chemical_formula_sum "Si O2"
_cell_formula_units_Z 32
_cell_length_a 12.763775
_cell_length_b 8.154298
_cell_length_c 29.221500
_cell_angle_alpha 90.000000
_cell_angle_beta 29.961114
_cell_angle_gamma 90.000000
_cell_volume 1518.893434
_symmetry_space_group_name_H-M "P 21/M"
_symmetry_group_IT_number 11
_symmetry_cell_setting 'monoclinic'
loop_
_space_group_symop_operation_xyz
x,y,z
-x,1/2+y,-z
-x,-y,-z
x,1/2-y,z
loop_
_atom_site_type_symbol
_atom_site_label
_atom_site_fract_x
_atom_site_fract_y
_atom_site_fract_z
Si Si1 0.818859 0.056647 0.757487
Si Si2 0.563490 0.435260 0.525595
Si Si3 0.245052 0.548892 0.322460
Si Si4 0.000762 0.948244 0.148225
Si Si5 0.202573 0.439773 0.481075
Si Si6 0.556467 0.944328 0.278386
Si Si7 0.857867 0.064089 0.295192
Si Si8 0.464103 0.553888 0.961013
O O1 0.867444 0.250000 0.737647
O O2 0.769181 0.998854 0.724986
O O3 0.624076 0.027875 0.865206
O O4 0.016026 0.967788 0.706212
O O5 0.500000 0.500000 0.500000
O O6 0.639929 0.250000 0.494794
O O7 0.723023 0.543018 0.494315
O O8 0.339334 0.445417 0.635824
O O9 0.242007 0.750000 0.324195
O O10 0.450390 0.491861 0.271900
O O11 0.035034 0.495377 0.429109
O O12 0.991726 0.750000 0.156998
O O13 0.785382 0.008414 0.206103
O O14 0.006413 0.028476 0.196239
O O15 0.221534 0.985522 0.040858
O O16 0.202986 0.250000 0.467595
O O17 0.377400 0.527955 0.384490
O O18 0.584264 0.750000 0.262488
O O19 0.779434 0.250000 0.323496
O O20 0.494002 0.750000 0.947209
O O21 0.500000 0.500000 0.000000
#
# Coordination Sequence:
#
# PCOD9164139 Si02
#       8
#     4   4   4   4   4   4   4   4
#     4  11  22  39  61  86 120 160 201 248 300 361
#     4  12  24  38  55  81 119 160 200 243 298 358
#     4   9  21  39  60  85 117 158 202 247 300 356
#     4  10  21  37  60  86 117 152 193 242 299 356
#     4  11  21  36  58  88 120 155 200 250 297 352
#     4  10  20  39  63  86 115 158 205 248 297 354
#     4  12  23  36  58  86 119 154 195 243 297 358
#     4  11  22  37  59  89 120 155 195 246 306 365
#
# _framework density 21.067971
#
# number of rings (size 3 to 8) (size 9 to 14) (size 15 to 20)
#    0.000    1.250    2.500    4.500    0.000    1.500 
#    0.000    4.375    0.000    0.000    0.000    0.000 
#    0.000    0.000    0.000    0.000    0.000    0.000 
#
# Total GULP energy -178866.379903 kJ/mol
# GULP energy per Si atom -5589.574372 kJ/mol
# Density = 2.102002 g / cm^3
# Si number density = 21.067971 Si / 1000 Ang^3
#
#
#
# Elastic Constant Matrix: (Units=GPa)
#
#
# Indices 1 2 3 4 5 6 
#
# 1 122.2499 2.0200 27.9120 0.0000 -19.3211 0.0000
# 2 2.0200 39.7823 1.2168 0.0000 -4.8257 0.0000
# 3 27.9120 1.2168 79.4407 0.0000 -15.1576 0.0000
# 4 0.0000 0.0000 0.0000 27.6048 0.0000 1.4371
# 5 -19.3211 -4.8257 -15.1576 0.0000 31.6770 0.0000
# 6 0.0000 0.0000 0.0000 1.4371 0.0000 14.1343
#
#
#
# Elastic Compliance Matrix: (Units=1/GPa)
#
#
# Indices 1 2 3 4 5 6 
#
# 1 0.009467 0.000155 -0.002446 0.000000 0.004628 0.000000
# 2 0.000155 0.025623 0.000348 0.000000 0.004165 0.000000
# 3 -0.002446 0.000348 0.014490 0.000000 0.005495 0.000000
# 4 0.000000 0.000000 0.000000 0.036418 0.000000 -0.003703
# 5 0.004628 0.004165 0.005495 0.000000 0.037655 0.000000
# 6 0.000000 0.000000 0.000000 -0.003703 0.000000 0.071126
#
#
# Mechanical properties :
#
#
# Convention : Reuss Voigt Hill
#
# Bulk Modulus (GPa) = 21.88393 33.75229 27.81811
# Shear Modulus (GPa) = 23.37561 28.70484 26.04022
#
# Velocity S-wave (km/s) = 3.33458 3.69519 3.51951
# Velocity P-wave (km/s) = 5.02352 5.85332 5.45422
#
# Compressibility (1/GPa) = 0.04569563
#
# Stress axis : x y z
#
# Youngs Moduli (GPa) = 105.62768 39.02671 69.01094
#
# Poissons Ratio (x) = -0.00607 0.16878
# Poissons Ratio (y) = -0.01642 -0.02398
# Poissons Ratio (z) = 0.25834 -0.01356
#
# Static dielectric constant tensor:
#      x y z
#    x 1.779920 0.000000 -0.004620 
#    y 0.000000 1.727110 0.000000 
#    z -0.004620 0.000000 1.789150 
# 
# From -- ./inp_files/49389.got.cif
#   From: 2010.05.17/outbox.cif.g08.bks.cpg/sg11_25_cif.got.tgz:49389.got - 2010.06.03 12:22:45.
