data_PCOD9164500
_publ_section_title
;
Structure prediction by ZEFSAII (Michael W. Deem and Ramdas Pophale) SiO2 
 PCOD9164500
Probable space group: P 21/M
;
_chemical_formula_sum "Si O2"
_cell_formula_units_Z 32
_cell_length_a 20.123385
_cell_length_b 14.972681
_cell_length_c 14.510066
_cell_angle_alpha 90.000000
_cell_angle_beta 22.961018
_cell_angle_gamma 90.000000
_cell_volume 1705.498119
_symmetry_space_group_name_H-M "P 21/M"
_symmetry_group_IT_number 11
_symmetry_cell_setting 'monoclinic'
loop_
_space_group_symop_operation_xyz
x,y,z
-x,1/2+y,-z
-x,-y,-z
x,1/2-y,z
loop_
_atom_site_type_symbol
_atom_site_label
_atom_site_fract_x
_atom_site_fract_y
_atom_site_fract_z
Si Si1 0.971000 0.503787 0.147122
Si Si2 0.568012 0.645345 0.953687
Si Si3 0.671092 0.557792 0.281150
Si Si4 0.193546 0.476792 0.232262
Si Si5 0.645391 0.646318 0.122322
Si Si6 0.699512 0.144936 0.546678
Si Si7 0.420993 0.850551 0.940455
Si Si8 0.275451 0.351549 0.588555
O O1 0.856559 0.420271 0.326828
O O2 0.859283 0.592377 0.299384
O O3 0.000000 0.500000 0.000000
O O4 0.157729 0.500535 0.952258
O O5 0.612494 0.750000 0.913065
O O6 0.713028 0.580128 0.806546
O O7 0.525672 0.633609 0.901088
O O8 0.397201 0.628406 0.232778
O O9 0.500000 0.500000 0.500000
O O10 0.659491 0.626279 0.211701
O O11 0.695353 0.605633 0.348506
O O12 0.000000 0.500000 0.500000
O O13 0.229726 0.416821 0.095629
O O14 0.288151 0.570754 0.100574
O O15 0.679545 0.750000 0.058439
O O16 0.452264 0.627461 0.333433
O O17 0.746670 0.250000 0.481644
O O18 0.347906 0.750000 0.040357
O O19 0.549225 0.853599 0.691312
O O20 0.217449 0.250000 0.673439
#
# Coordination Sequence:
#
# PCOD9164500 Si02
#       8
#     4   4   4   4   4   4   4   4
#     4  10  21  35  55  80 109 143 182 232 274 321
#     4   9  19  37  59  82 109 146 190 238 287 339
#     4  11  22  38  58  84 117 151 184 228 285 344
#     4  11  22  35  55  84 118 153 185 232 289 346
#     4  10  21  38  59  84 116 154 192 235 287 344
#     4   9  18  35  59  83 109 142 186 237 286 332
#     4  10  21  37  58  81 109 147 192 237 282 335
#     4  10  21  39  59  80 109 148 190 231 274 327
#
# _framework density 18.762847000000001
#
# number of rings (size 3 to 8) (size 9 to 14) (size 15 to 20)
#    0.000    2.000    0.000    5.625    0.000    5.500 
#    0.000    2.500    0.000    3.750    0.000    0.000 
#    0.000    0.000    0.000    0.000    0.000    0.000 
#
# Total GULP energy -178624.550852 kJ/mol
# GULP energy per Si atom -5582.017214 kJ/mol
# Density = 1.872014 g / cm^3
# Si number density = 18.762847 Si / 1000 Ang^3
#
#
#
# Elastic Constant Matrix: (Units=GPa)
#
#
# Indices 1 2 3 4 5 6 
#
# 1 80.3034 38.6289 36.1071 0.0000 12.8832 0.0000
# 2 38.6289 130.6837 82.0294 0.0000 -14.0665 0.0000
# 3 36.1071 82.0294 115.6032 0.0000 -16.6483 0.0000
# 4 0.0000 0.0000 0.0000 14.9151 0.0000 12.7345
# 5 12.8832 -14.0665 -16.6483 0.0000 23.0623 0.0000
# 6 0.0000 0.0000 0.0000 12.7345 0.0000 23.2688
#
#
#
# Elastic Compliance Matrix: (Units=1/GPa)
#
#
# Indices 1 2 3 4 5 6 
#
# 1 0.019962 -0.004140 -0.005878 0.000000 -0.017919 0.000000
# 2 -0.004140 0.014703 -0.008387 0.000000 0.005226 0.000000
# 3 -0.005878 -0.008387 0.018050 0.000000 0.011198 0.000000
# 4 0.000000 0.000000 0.000000 0.125854 0.000000 -0.068877
# 5 -0.017919 0.005226 0.011198 0.000000 0.064642 0.000000
# 6 0.000000 0.000000 0.000000 -0.068877 0.000000 0.080671
#
#
# Mechanical properties :
#
#
# Convention : Reuss Voigt Hill
#
# Bulk Modulus (GPa) = 62.87309 71.12457 66.99883
# Shear Modulus (GPa) = 13.66146 23.57090 18.61618
#
# Velocity S-wave (km/s) = 2.70128 3.54821 3.15331
# Velocity P-wave (km/s) = 6.58114 7.40107 7.00311
#
# Compressibility (1/GPa) = 0.01590505
#
# Stress axis : x y z
#
# Youngs Moduli (GPa) = 50.09536 68.01404 55.40112
#
# Poissons Ratio (x) = 0.28157 0.32564
# Poissons Ratio (y) = 0.20739 0.46466
# Poissons Ratio (z) = 0.29446 0.57045
#
# Static dielectric constant tensor:
#      x y z
#    x 1.633900 0.000000 0.133490 
#    y 0.000000 1.673190 0.000000 
#    z 0.133490 0.000000 0.583690 
# 
# From -- ./inp_files/54981.got.cif
#   From: 2010.05.17/outbox.cif.g08.bks.cpg/sg11_28_cif.got.tgz:54981.got - 2010.06.03 12:22:45.
