data_PCOD9164893
_publ_section_title
;
Structure prediction by ZEFSAII (Michael W. Deem and Ramdas Pophale) SiO2 
 PCOD9164893
Probable space group: P 21/M
;
_chemical_formula_sum "Si O2"
_cell_formula_units_Z 32
_cell_length_a 25.846600
_cell_length_b 8.947481
_cell_length_c 13.731470
_cell_angle_alpha 90.000000
_cell_angle_beta 27.975771
_cell_angle_gamma 90.000000
_cell_volume 1489.652443
_symmetry_space_group_name_H-M "P 21/M"
_symmetry_group_IT_number 11
_symmetry_cell_setting 'monoclinic'
loop_
_space_group_symop_operation_xyz
x,y,z
-x,1/2+y,-z
-x,-y,-z
x,1/2-y,z
loop_
_atom_site_type_symbol
_atom_site_label
_atom_site_fract_x
_atom_site_fract_y
_atom_site_fract_z
Si Si1 0.606564 0.918898 0.366228
Si Si2 0.772956 0.917557 0.907184
Si Si3 0.214220 0.576707 0.809926
Si Si4 0.051971 0.923580 0.265792
Si Si5 0.831846 0.571504 0.521035
Si Si6 0.353719 0.925346 0.051667
Si Si7 0.449547 0.571294 0.182431
Si Si8 0.788563 0.927759 0.381447
O O1 0.578303 0.750000 0.443445
O O2 0.500000 0.000000 0.500000
O O3 0.671088 0.003745 0.344648
O O4 0.694552 0.912003 0.131939
O O5 0.780100 0.750000 0.853578
O O6 0.890928 0.974878 0.748071
O O7 0.714590 0.028840 0.929947
O O8 0.232768 0.750000 0.756580
O O9 0.169086 0.494949 0.789661
O O10 0.129265 0.567134 0.040942
O O11 0.052121 0.750000 0.296586
O O12 0.930997 0.965090 0.429418
O O13 0.808830 0.750000 0.566833
O O14 0.725954 0.477581 0.728354
O O15 0.857984 0.542510 0.364292
O O16 0.376804 0.750000 0.017505
O O17 0.465036 0.020335 0.875918
O O18 0.444813 0.750000 0.182109
O O19 0.330680 0.501996 0.401807
O O20 0.500000 0.500000 0.000000
O O21 0.776242 0.750000 0.392294
#
# Coordination Sequence:
#
# PCOD9164893 Si02
#       8
#     4   4   4   4   4   4   4   4
#     4  10  21  37  58  84 116 153 199 246 299 361
#     4  10  22  40  61  87 120 158 199 249 304 359
#     4  10  21  38  60  87 122 158 199 249 302 357
#     4   9  20  41  65  89 119 159 203 252 306 357
#     4  10  22  41  64  88 120 159 204 255 303 356
#     4  12  25  40  62  91 122 160 204 248 300 364
#     4  12  24  41  63  88 123 161 200 249 302 358
#     4  11  23  39  61  90 123 162 205 248 300 359
#
# _framework density 21.481521000000001
#
# number of rings (size 3 to 8) (size 9 to 14) (size 15 to 20)
#    0.000    1.500    1.250    3.750    1.750    4.000 
#    0.000    0.000    0.000    0.000    0.000    0.000 
#    0.000    0.000    0.000    0.000    0.000    0.000 
#
# Total GULP energy -178998.966950 kJ/mol
# GULP energy per Si atom -5593.717717 kJ/mol
# Density = 2.143263 g / cm^3
# Si number density = 21.481521 Si / 1000 Ang^3
#
#
#
# Elastic Constant Matrix: (Units=GPa)
#
#
# Indices 1 2 3 4 5 6 
#
# 1 84.2144 22.0350 -8.6942 0.0000 -5.2151 0.0000
# 2 22.0350 100.0140 8.3427 0.0000 -9.3368 0.0000
# 3 -8.6942 8.3427 37.7716 0.0000 -15.5473 0.0000
# 4 0.0000 0.0000 0.0000 24.4430 0.0000 1.4556
# 5 -5.2151 -9.3368 -15.5473 0.0000 30.1827 0.0000
# 6 0.0000 0.0000 0.0000 1.4556 0.0000 37.6282
#
#
#
# Elastic Compliance Matrix: (Units=1/GPa)
#
#
# Indices 1 2 3 4 5 6 
#
# 1 0.013503 -0.003040 0.005524 0.000000 0.004238 0.000000
# 2 -0.003040 0.011025 -0.002471 0.000000 0.001612 0.000000
# 3 0.005524 -0.002471 0.036004 0.000000 0.018736 0.000000
# 4 0.000000 0.000000 0.000000 0.041006 0.000000 -0.001586
# 5 0.004238 0.001612 0.018736 0.000000 0.044013 0.000000
# 6 0.000000 0.000000 0.000000 -0.001586 0.000000 0.026637
#
#
# Mechanical properties :
#
#
# Convention : Reuss Voigt Hill
#
# Bulk Modulus (GPa) = 16.51340 29.48526 22.99933
# Shear Modulus (GPa) = 25.99447 31.80523 28.89985
#
# Velocity S-wave (km/s) = 3.48240 3.85201 3.67186
# Velocity P-wave (km/s) = 4.88605 5.79134 5.35785
#
# Compressibility (1/GPa) = 0.06055688
#
# Stress axis : x y z
#
# Youngs Moduli (GPa) = 74.05981 90.70273 27.77463
#
# Poissons Ratio (x) = 0.27574 -0.15342
# Poissons Ratio (y) = 0.22514 0.06864
# Poissons Ratio (z) = -0.40910 0.22415
#
# Static dielectric constant tensor:
#      x y z
#    x 1.811470 0.000000 0.030760 
#    y 0.000000 1.729660 0.000000 
#    z 0.030760 0.000000 1.784250 
# 
# From -- ./inp_files/55530.got.cif
#   From: 2010.05.17/outbox.cif.g08.bks.cpg/sg11_28_cif.got.tgz:55530.got - 2010.06.03 12:22:45.
