data_PCOD9164838
_publ_section_title
;
Structure prediction by ZEFSAII (Michael W. Deem and Ramdas Pophale) SiO2 
 PCOD9164838
Probable space group: P 21/M
;
_chemical_formula_sum "Si O2"
_cell_formula_units_Z 28
_cell_length_a 5.850471
_cell_length_b 9.302362
_cell_length_c 25.634644
_cell_angle_alpha 90.000000
_cell_angle_beta 111.038409
_cell_angle_gamma 90.000000
_cell_volume 1302.120652
_symmetry_space_group_name_H-M "P 21/M"
_symmetry_group_IT_number 11
_symmetry_cell_setting 'monoclinic'
loop_
_space_group_symop_operation_xyz
x,y,z
-x,1/2+y,-z
-x,-y,-z
x,1/2-y,z
loop_
_atom_site_type_symbol
_atom_site_label
_atom_site_fract_x
_atom_site_fract_y
_atom_site_fract_z
Si Si1 0.276813 0.425102 0.517876
Si Si2 0.240591 0.908631 0.029622
Si Si3 0.924175 0.084713 0.827391
Si Si4 0.613288 0.407324 0.642955
Si Si5 0.990507 0.913604 0.725267
Si Si6 0.324830 0.590868 0.915288
Si Si7 0.584960 0.594330 0.255739
O O1 0.500000 0.500000 0.500000
O O2 0.254823 0.250000 0.504176
O O3 0.397481 0.437142 0.585135
O O4 0.000000 0.500000 0.500000
O O5 0.189044 0.750000 0.047246
O O6 0.441128 0.994303 0.079044
O O7 0.338906 0.890929 0.978683
O O8 0.000000 0.000000 0.000000
O O9 0.007210 0.250000 0.835710
O O10 0.630702 0.086108 0.804231
O O11 0.969858 0.010536 0.775270
O O12 0.077412 0.991920 0.880530
O O13 0.718792 0.250000 0.637387
O O14 0.516686 0.397808 0.693991
O O15 0.822251 0.526305 0.664907
O O16 0.935601 0.750000 0.732138
O O17 0.265976 0.948216 0.732603
O O18 0.330207 0.750000 0.891681
O O19 0.715138 0.750000 0.258005
#
# Coordination Sequence:
#
# PCOD9164838 Si02
#       7
#     4   4   4   4   4   4   4
#     4  11  25  45  69 101 138 181 229 284 342 406
#     4  10  21  37  57  81 110 147 188 231 284 346
#     4  10  21  38  58  81 110 150 192 233 287 353
#     4   9  21  41  63  84 117 164 207 249 307 375
#     4  11  22  35  57  88 119 150 190 246 302 356
#     4  10  21  37  57  81 112 145 184 239 290 340
#     4   9  19  37  59  82 111 152 199 241 291 362
#
# _framework density 21.503385000000002
#
# number of rings (size 3 to 8) (size 9 to 14) (size 15 to 20)
#    0.000    2.000    0.000    3.857    2.000    6.857 
#    0.000    2.857    0.000    0.000    0.000    0.000 
#    0.000    0.000    0.000    0.000    0.000    0.000 
#
# Total GULP energy -155903.503462 kJ/mol
# GULP energy per Si atom -5567.982266 kJ/mol
# Density = 2.145444 g / cm^3
# Si number density = 21.503385 Si / 1000 Ang^3
#
#
#
# Elastic Constant Matrix: (Units=GPa)
#
#
# Indices 1 2 3 4 5 6 
#
# 1 58.8417 42.0310 19.7529 0.0000 14.3459 0.0000
# 2 42.0310 169.6799 49.8364 0.0000 26.1277 0.0000
# 3 19.7529 49.8364 105.8901 0.0000 19.5997 0.0000
# 4 0.0000 0.0000 0.0000 27.9424 0.0000 5.9780
# 5 14.3459 26.1277 19.5997 0.0000 28.6499 0.0000
# 6 0.0000 0.0000 0.0000 5.9780 0.0000 26.5681
#
#
#
# Elastic Compliance Matrix: (Units=1/GPa)
#
#
# Indices 1 2 3 4 5 6 
#
# 1 0.021852 -0.004136 -0.000919 0.000000 -0.006542 0.000000
# 2 -0.004136 0.008201 -0.002390 0.000000 -0.003773 0.000000
# 3 -0.000919 -0.002390 0.011738 0.000000 -0.005390 0.000000
# 4 0.000000 0.000000 0.000000 0.037598 0.000000 -0.008460
# 5 -0.006542 -0.003773 -0.005390 0.000000 0.045308 0.000000
# 6 0.000000 0.000000 0.000000 -0.008460 0.000000 0.039543
#
#
# Mechanical properties :
#
#
# Convention : Reuss Voigt Hill
#
# Bulk Modulus (GPa) = 37.17252 61.96137 49.56695
# Shear Modulus (GPa) = 26.58219 31.48484 29.03352
#
# Velocity S-wave (km/s) = 3.51976 3.83061 3.67847
# Velocity P-wave (km/s) = 5.81744 6.96003 6.41423
#
# Compressibility (1/GPa) = 0.02690159
#
# Stress axis : x y z
#
# Youngs Moduli (GPa) = 45.76163 121.93950 85.19604
#
# Poissons Ratio (x) = 0.50431 0.07830
# Poissons Ratio (y) = 0.18926 0.20360
# Poissons Ratio (z) = 0.04206 0.29141
#
# Static dielectric constant tensor:
#      x y z
#    x 1.889530 0.000000 -0.013150 
#    y 0.000000 1.816250 0.000000 
#    z -0.013150 0.000000 1.762510 
# 
# From -- ./inp_files/72622.got.cif
#   From: 2010.05.17/outbox.cif.g08.bks.cpg/sg11_37_cif.got.tgz:72622.got - 2010.06.03 12:22:45.
