data_PCOD9164802
_publ_section_title
;
Structure prediction by ZEFSAII (Michael W. Deem and Ramdas Pophale) SiO2 
 PCOD9164802
Probable space group: P 21/M
;
_chemical_formula_sum "Si O2"
_cell_formula_units_Z 32
_cell_length_a 13.416720
_cell_length_b 14.803421
_cell_length_c 18.478764
_cell_angle_alpha 90.000000
_cell_angle_beta 27.268211
_cell_angle_gamma 90.000000
_cell_volume 1681.493447
_symmetry_space_group_name_H-M "P 21/M"
_symmetry_group_IT_number 11
_symmetry_cell_setting 'monoclinic'
loop_
_space_group_symop_operation_xyz
x,y,z
-x,1/2+y,-z
-x,-y,-z
x,1/2-y,z
loop_
_atom_site_type_symbol
_atom_site_label
_atom_site_fract_x
_atom_site_fract_y
_atom_site_fract_z
Si Si1 0.324708 0.641697 0.942819
Si Si2 0.600696 0.995821 0.514313
Si Si3 0.755674 0.495821 0.129314
Si Si4 0.977848 0.858302 0.289674
Si Si5 0.195045 0.140082 0.321022
Si Si6 0.144921 0.853697 0.572512
Si Si7 0.507390 0.646304 0.210043
Si Si8 0.146818 0.859919 0.337112
O O1 0.329250 0.750000 0.930430
O O2 0.286070 0.591998 0.892487
O O3 0.557305 0.613968 0.826186
O O4 0.133064 0.619258 0.122317
O O5 0.409689 0.997358 0.696774
O O6 0.749587 0.908005 0.428970
O O7 0.500000 0.000000 0.500000
O O8 0.759242 0.080356 0.429414
O O9 0.693276 0.580351 0.118061
O O10 0.000000 0.500000 0.000000
O O11 0.949784 0.750000 0.309900
O O12 0.093146 0.886030 0.290343
O O13 0.186590 0.250000 0.325797
O O14 0.076112 0.112827 0.323587
O O15 0.047345 0.109753 0.484212
O O16 0.119134 0.750000 0.613803
O O17 0.321197 0.852636 0.392931
O O18 0.579679 0.750000 0.153250
O O19 0.377001 0.612830 0.223293
O O20 0.149406 0.750000 0.338202
#
# Coordination Sequence:
#
# PCOD9164802 Si02
#       8
#     4   4   4   4   4   4   4   4
#     4  10  21  37  56  79 110 146 180 219 270 322
#     4  11  23  38  56  79 108 143 186 230 270 319
#     4  11  23  38  56  79 108 143 186 230 270 319
#     4  10  21  37  56  79 110 146 180 219 270 322
#     4   8  14  29  55  83 107 133 171 217 265 323
#     4   8  16  33  57  82 107 138 175 216 267 327
#     4   8  16  33  57  82 107 138 175 216 267 327
#     4   8  14  29  55  83 107 133 171 217 265 323
#
# _framework density 19.030702999999999
#
# number of rings (size 3 to 8) (size 9 to 14) (size 15 to 20)
#    0.000    2.750    0.000    3.000    0.000    3.500 
#    0.000   10.000    0.000    5.250    0.000    0.000 
#    0.000    0.000    0.000    0.000    0.000    0.000 
#
# Total GULP energy -178584.389588 kJ/mol
# GULP energy per Si atom -5580.762175 kJ/mol
# Density = 1.898739 g / cm^3
# Si number density = 19.030703 Si / 1000 Ang^3
#
#
#
# Elastic Constant Matrix: (Units=GPa)
#
#
# Indices 1 2 3 4 5 6 
#
# 1 163.7124 42.2821 55.5872 0.0000 -18.8147 0.0000
# 2 42.2821 54.8972 33.8137 0.0000 -4.2846 0.0000
# 3 55.5872 33.8137 79.4649 0.0000 -23.7909 0.0000
# 4 0.0000 0.0000 0.0000 19.5959 0.0000 -4.0214
# 5 -18.8147 -4.2846 -23.7909 0.0000 32.9418 0.0000
# 6 0.0000 0.0000 0.0000 -4.0214 0.0000 27.5470
#
#
#
# Elastic Compliance Matrix: (Units=1/GPa)
#
#
# Indices 1 2 3 4 5 6 
#
# 1 0.008672 -0.004231 -0.003761 0.000000 0.001686 0.000000
# 2 -0.004231 0.027582 -0.010751 0.000000 -0.006593 0.000000
# 3 -0.003761 -0.010751 0.023894 0.000000 0.013710 0.000000
# 4 0.000000 0.000000 0.000000 0.052607 0.000000 0.007680
# 5 0.001686 -0.006593 0.013710 0.000000 0.040364 0.000000
# 6 0.000000 0.000000 0.000000 0.007680 0.000000 0.037423
#
#
# Mechanical properties :
#
#
# Convention : Reuss Voigt Hill
#
# Bulk Modulus (GPa) = 44.12543 62.38227 53.25385
# Shear Modulus (GPa) = 21.22403 27.10968 24.16686
#
# Velocity S-wave (km/s) = 3.34316 3.77838 3.56741
# Velocity P-wave (km/s) = 6.17569 7.20318 6.70913
#
# Compressibility (1/GPa) = 0.02266267
#
# Stress axis : x y z
#
# Youngs Moduli (GPa) = 115.31654 36.25553 41.85077
#
# Poissons Ratio (x) = 0.15340 0.15739
# Poissons Ratio (y) = 0.48790 0.44994
# Poissons Ratio (z) = 0.43368 0.38978
#
# Static dielectric constant tensor:
#      x y z
#    x 1.642760 0.000000 0.001980 
#    y 0.000000 1.694290 0.000000 
#    z 0.001980 0.000000 1.646650 
# 
# From -- ./inp_files/59458.got.cif
#   From: 2010.05.17/outbox.cif.g08.bks.cpg/sg11_30_cif.got.tgz:59458.got - 2010.06.03 12:22:45.
