data_PCOD9164910
_publ_section_title
;
Structure prediction by ZEFSAII (Michael W. Deem and Ramdas Pophale) SiO2 
 PCOD9164910
Probable space group: P 21/M
;
_chemical_formula_sum "Si O2"
_cell_formula_units_Z 28
_cell_length_a 10.901895
_cell_length_b 22.313336
_cell_length_c 6.678003
_cell_angle_alpha 90.000000
_cell_angle_beta 75.314478
_cell_angle_gamma 90.000000
_cell_volume 1571.406678
_symmetry_space_group_name_H-M "P 21/M"
_symmetry_group_IT_number 11
_symmetry_cell_setting 'monoclinic'
loop_
_space_group_symop_operation_xyz
x,y,z
-x,1/2+y,-z
-x,-y,-z
x,1/2-y,z
loop_
_atom_site_type_symbol
_atom_site_label
_atom_site_fract_x
_atom_site_fract_y
_atom_site_fract_z
Si Si1 0.010717 0.364565 0.649464
Si Si2 0.560694 0.467729 0.670153
Si Si3 0.071904 0.682213 0.910292
Si Si4 0.123738 0.026243 0.845143
Si Si5 0.197692 0.910657 0.575949
Si Si6 0.661949 0.934860 0.938181
Si Si7 0.815561 0.681107 0.768244
O O1 0.086773 0.415593 0.735605
O O2 0.110599 0.328959 0.471741
O O3 0.904780 0.394274 0.551026
O O4 0.939942 0.326355 0.848017
O O5 0.500000 0.500000 0.500000
O O6 0.660605 0.416603 0.564948
O O7 0.629778 0.520191 0.769741
O O8 0.456421 0.438354 0.860233
O O9 0.106694 0.750000 0.842540
O O10 0.167675 0.636083 0.766267
O O11 0.930167 0.671437 0.880498
O O12 0.173177 0.976226 0.674317
O O13 0.222669 0.039443 0.978682
O O14 0.000000 0.000000 0.000000
O O15 0.708506 0.869383 0.845630
O O16 0.771614 0.750000 0.802966
#
# Coordination Sequence:
#
# PCOD9164910 Si02
#       7
#     4   4   4   4   4   4   4
#     4  11  20  35  59  90 123 154 184 241 310 356
#     4  11  24  41  61  84 119 159 200 242 297 347
#     4  10  21  37  58  87 123 155 192 242 297 361
#     4  12  19  34  58  93 121 145 186 248 307 355
#     4  11  22  36  58  86 120 156 198 237 293 357
#     4  11  23  39  60  89 121 156 198 249 297 350
#     4  10  21  38  59  89 121 156 198 241 297 363
#
# _framework density 17.818429999999999
#
# number of rings (size 3 to 8) (size 9 to 14) (size 15 to 20)
#    0.000    1.143    4.286    3.429    0.000    0.571 
#    0.000    0.714    0.000    2.571    0.000    0.000 
#    0.000    0.000    0.000    0.000    0.000    0.000 
#
# Total GULP energy -156311.525309 kJ/mol
# GULP energy per Si atom -5582.554475 kJ/mol
# Density = 1.777787 g / cm^3
# Si number density = 17.818430 Si / 1000 Ang^3
#
#
#
# Elastic Constant Matrix: (Units=GPa)
#
#
# Indices 1 2 3 4 5 6 
#
# 1 81.2567 40.8645 42.6307 0.0000 -10.1106 0.0000
# 2 40.8645 100.5374 40.9587 0.0000 -18.8608 0.0000
# 3 42.6307 40.9587 110.9403 0.0000 -7.4465 0.0000
# 4 0.0000 0.0000 0.0000 20.7592 0.0000 -4.1746
# 5 -10.1106 -18.8608 -7.4465 0.0000 34.9763 0.0000
# 6 0.0000 0.0000 0.0000 -4.1746 0.0000 21.1958
#
#
#
# Elastic Compliance Matrix: (Units=1/GPa)
#
#
# Indices 1 2 3 4 5 6 
#
# 1 0.017457 -0.004872 -0.004816 0.000000 0.001394 0.000000
# 2 -0.004872 0.014199 -0.002993 0.000000 0.005611 0.000000
# 3 -0.004816 -0.002993 0.011938 0.000000 -0.000465 0.000000
# 4 0.000000 0.000000 0.000000 0.050158 0.000000 0.009879
# 5 0.001394 0.005611 -0.000465 0.000000 0.031921 0.000000
# 6 0.000000 0.000000 0.000000 0.009879 0.000000 0.049125
#
#
# Mechanical properties :
#
#
# Convention : Reuss Voigt Hill
#
# Bulk Modulus (GPa) = 54.84968 60.18246 57.51607
# Shear Modulus (GPa) = 24.24387 26.60495 25.42441
#
# Velocity S-wave (km/s) = 3.69264 3.86828 3.78148
# Velocity P-wave (km/s) = 7.00216 7.33486 7.17044
#
# Compressibility (1/GPa) = 0.01823165
#
# Stress axis : x y z
#
# Youngs Moduli (GPa) = 57.28397 70.42739 83.76355
#
# Poissons Ratio (x) = 0.34313 0.40339
# Poissons Ratio (y) = 0.27910 0.25074
# Poissons Ratio (z) = 0.27587 0.21082
#
# Static dielectric constant tensor:
#      x y z
#    x 1.587890 0.000000 -0.017590 
#    y 0.000000 1.592950 0.000000 
#    z -0.017590 0.000000 1.660330 
# 
# From -- ./inp_files/5031.got.cif
#   From: 2010.05.17/outbox.cif.g08.bks.cpg/sg11_3_cif.got.tgz:5031.got - 2010.06.03 12:22:45.
