data_PCOD9164633
_publ_section_title
;
Structure prediction by ZEFSAII (Michael W. Deem and Ramdas Pophale) SiO2 
 PCOD9164633
Probable space group: P 21/M
;
_chemical_formula_sum "Si O2"
_cell_formula_units_Z 24
_cell_length_a 24.249214
_cell_length_b 8.799155
_cell_length_c 11.827203
_cell_angle_alpha 90.000000
_cell_angle_beta 150.569421
_cell_angle_gamma 90.000000
_cell_volume 1240.018411
_symmetry_space_group_name_H-M "P 21/M"
_symmetry_group_IT_number 11
_symmetry_cell_setting 'monoclinic'
loop_
_space_group_symop_operation_xyz
x,y,z
-x,1/2+y,-z
-x,-y,-z
x,1/2-y,z
loop_
_atom_site_type_symbol
_atom_site_label
_atom_site_fract_x
_atom_site_fract_y
_atom_site_fract_z
Si Si1 0.268737 0.435378 0.370518
Si Si2 0.600648 0.575998 0.613809
Si Si3 0.375482 0.567175 0.784669
Si Si4 0.830961 0.925604 0.166183
Si Si5 0.049217 0.064917 0.843045
Si Si6 0.807286 0.067483 0.368237
O O1 0.271565 0.250000 0.382657
O O2 0.358565 0.484796 0.434672
O O3 0.303864 0.509277 0.550111
O O4 0.145748 0.480712 0.103580
O O5 0.500000 0.500000 0.500000
O O6 0.568115 0.750000 0.536109
O O7 0.711192 0.572746 0.889058
O O8 0.382248 0.750000 0.796405
O O9 0.305653 0.516293 0.770909
O O10 0.500000 0.500000 0.000000
O O11 0.860293 0.750000 0.243037
O O12 0.915789 0.985852 0.221400
O O13 0.819671 0.013972 0.262108
O O14 0.054033 0.250000 0.848670
O O15 0.921497 0.018010 0.636697
O O16 0.806072 0.250000 0.367310
#
# Coordination Sequence:
#
# PCOD9164633 Si02
#       6
#     4   4   4   4   4   4
#     4   9  19  38  60  80 108 144 181 224 277 330
#     4   9  19  33  52  79 108 141 180 222 270 322
#     4  11  25  41  56  78 110 147 190 233 273 322
#     4   9  18  33  54  83 114 143 176 218 272 332
#     4   8  16  35  60  84 113 143 174 221 280 331
#     4  10  21  36  56  82 111 147 185 224 271 324
#
# _framework density 19.354552000000002
#
# number of rings (size 3 to 8) (size 9 to 14) (size 15 to 20)
#    0.000    2.667    0.000    3.000    2.333    3.333 
#    0.000    3.333    0.000    0.000    0.000    0.000 
#    0.000    0.000    0.000    0.000    0.000    0.000 
#
# Total GULP energy -133829.090286 kJ/mol
# GULP energy per Si atom -5576.212095 kJ/mol
# Density = 1.931050 g / cm^3
# Si number density = 19.354552 Si / 1000 Ang^3
#
#
#
# Elastic Constant Matrix: (Units=GPa)
#
#
# Indices 1 2 3 4 5 6 
#
# 1 75.5081 19.7734 62.2149 0.0000 12.0571 0.0000
# 2 19.7734 16.4403 18.6569 0.0000 7.6683 0.0000
# 3 62.2149 18.6569 60.2485 0.0000 8.1627 0.0000
# 4 0.0000 0.0000 0.0000 28.2928 0.0000 -5.7765
# 5 12.0571 7.6683 8.1627 0.0000 36.5734 0.0000
# 6 0.0000 0.0000 0.0000 -5.7765 0.0000 24.1338
#
#
#
# Elastic Compliance Matrix: (Units=1/GPa)
#
#
# Indices 1 2 3 4 5 6 
#
# 1 0.091814 0.000169 -0.093587 0.000000 -0.009416 0.000000
# 2 0.000169 0.100828 -0.029416 0.000000 -0.014631 0.000000
# 3 -0.093587 -0.029416 0.120991 0.000000 0.010017 0.000000
# 4 0.000000 0.000000 0.000000 0.037161 0.000000 0.008894
# 5 -0.009416 -0.014631 0.010017 0.000000 0.031279 0.000000
# 6 0.000000 0.000000 0.000000 0.008894 0.000000 0.043564
#
#
# Mechanical properties :
#
#
# Convention : Reuss Voigt Hill
#
# Bulk Modulus (GPa) = 14.71308 39.27636 26.99472
# Shear Modulus (GPa) = 7.20502 21.23681 14.22091
#
# Velocity S-wave (km/s) = 1.93151 3.31607 2.71358
# Velocity P-wave (km/s) = 3.54862 5.91599 4.87809
#
# Compressibility (1/GPa) = 0.06796675
#
# Stress axis : x y z
#
# Youngs Moduli (GPa) = 10.89159 9.91784 8.26505
#
# Poissons Ratio (x) = -0.00168 0.77350
# Poissons Ratio (y) = -0.00184 0.24312
# Poissons Ratio (z) = 1.01931 0.29174
#
# Static dielectric constant tensor:
#      x y z
#    x 1.687060 0.000000 0.018740 
#    y 0.000000 1.670760 0.000000 
#    z 0.018740 0.000000 1.684560 
# 
# From -- ./inp_files/44027.got.cif
#   From: 2010.05.17/outbox.cif.g08.bks.cpg/sg11_23_cif.got.tgz:44027.got - 2010.06.03 12:22:45.
