data_PCOD9164367
_publ_section_title
;
Structure prediction by ZEFSAII (Michael W. Deem and Ramdas Pophale) SiO2 
 PCOD9164367
Probable space group: P 21/M
;
_chemical_formula_sum "Si O2"
_cell_formula_units_Z 30
_cell_length_a 9.574315
_cell_length_b 14.476152
_cell_length_c 11.200205
_cell_angle_alpha 90.000000
_cell_angle_beta 70.655151
_cell_angle_gamma 90.000000
_cell_volume 1464.697806
_symmetry_space_group_name_H-M "P 21/M"
_symmetry_group_IT_number 11
_symmetry_cell_setting 'monoclinic'
loop_
_space_group_symop_operation_xyz
x,y,z
-x,1/2+y,-z
-x,-y,-z
x,1/2-y,z
loop_
_atom_site_type_symbol
_atom_site_label
_atom_site_fract_x
_atom_site_fract_y
_atom_site_fract_z
Si Si1 0.551776 0.638118 0.933588
Si Si2 0.856394 0.475620 0.306780
Si Si3 0.719855 0.360836 0.834370
Si Si4 0.694093 0.073945 0.583394
Si Si5 0.561833 0.250000 0.480045
Si Si6 0.025577 0.141253 0.865460
Si Si7 0.888845 0.861353 0.886584
Si Si8 0.459505 0.583916 0.694760
O O1 0.550026 0.750000 0.937268
O O2 0.720463 0.609719 0.909123
O O3 0.495061 0.607768 0.820883
O O4 0.436357 0.606795 0.067518
O O5 0.814876 0.464783 0.456724
O O6 0.713187 0.438412 0.275836
O O7 0.887191 0.578704 0.253070
O O8 0.996144 0.413433 0.230484
O O9 0.711717 0.250000 0.817566
O O10 0.753106 0.408743 0.699629
O O11 0.852119 0.375942 0.890498
O O12 0.631022 0.168907 0.547896
O O13 0.559498 0.002203 0.628948
O O14 0.507249 0.169362 0.401111
O O15 0.055194 0.250000 0.839331
O O16 0.069941 0.117375 0.987834
O O17 0.901880 0.750000 0.867426
#
# Coordination Sequence:
#
# PCOD9164367 Si02
#       8
#     4   4   4   4   2   4   4   4
#     4  10  22  43  69 104 132 174 224 280 333 385
#     4  11  24  42  67  96 132 176 223 268 331 405
#     4  10  22  43  72  96 133 179 224 275 332 401
#     4  11  25  43  68 103 130 179 228 265 336 393
#     4  10  20  44  66  92 136 166 216 278 308 408
#     4  10  23  45  64  96 134 177 222 274 341 393
#     4  10  23  41  68 101 136 172 220 277 339 389
#     4  11  24  43  69 102 130 176 230 267 333 392
#
# _framework density 20.482040999999999
#
# number of rings (size 3 to 8) (size 9 to 14) (size 15 to 20)
#    0.000    1.600    1.333    2.800    7.467    2.133 
#    4.800    0.000    0.000    0.000    0.000    0.000 
#    0.000    0.000    0.000    0.000    0.000    0.000 
#
# Total GULP energy -167264.720242 kJ/mol
# GULP energy per Si atom -5575.490675 kJ/mol
# Density = 2.043542 g / cm^3
# Si number density = 20.482041 Si / 1000 Ang^3
#
#
#
# Elastic Constant Matrix: (Units=GPa)
#
#
# Indices 1 2 3 4 5 6 
#
# 1 117.2312 15.4368 60.2093 0.0000 -7.7517 0.0000
# 2 15.4368 58.5140 14.2956 0.0000 -19.7044 0.0000
# 3 60.2093 14.2956 136.2382 0.0000 -5.4487 0.0000
# 4 0.0000 0.0000 0.0000 2.5623 0.0000 11.0250
# 5 -7.7517 -19.7044 -5.4487 0.0000 19.3073 0.0000
# 6 0.0000 0.0000 0.0000 11.0250 0.0000 21.2585
#
#
#
# Elastic Compliance Matrix: (Units=1/GPa)
#
#
# Indices 1 2 3 4 5 6 
#
# 1 0.011267 -0.001121 -0.004781 0.000000 0.002031 0.000000
# 2 -0.001121 0.026540 -0.001238 0.000000 0.026286 0.000000
# 3 -0.004781 -0.001238 0.009563 0.000000 -0.000484 0.000000
# 4 0.000000 0.000000 0.000000 -0.316913 0.000000 0.164356
# 5 0.002031 0.026286 -0.000484 0.000000 0.079300 0.000000
# 6 0.000000 0.000000 0.000000 0.164356 0.000000 -0.038197
#
#
# Mechanical properties :
#
#
# Convention : Reuss Voigt Hill
#
# Bulk Modulus (GPa) = 30.21924 54.65190 42.43557
# Shear Modulus (GPa) = -24.61477 23.42838 -0.59320
#
# Velocity S-wave (km/s) = -3.47042 3.38575 -0.53875
# Velocity P-wave (km/s) = 1.12800 6.48268 4.51402
#
# Compressibility (1/GPa) = 0.03309150
#
# Stress axis : x y z
#
# Youngs Moduli (GPa) = 88.75205 37.67902 104.56484
#
# Poissons Ratio (x) = 0.04222 0.49989
# Poissons Ratio (y) = 0.09946 0.12949
# Poissons Ratio (z) = 0.42430 0.04666
#
# Static dielectric constant tensor:
#      x y z
#    x 1.710500 0.000000 -0.002010 
#    y 0.000000 1.735070 0.000000 
#    z -0.002010 0.000000 1.711250 
# 
# From -- ./inp_files/31849.got.cif
#   From: 2010.05.17/outbox.cif.g08.bks.cpg/sg11_16_cif.got.tgz:31849.got - 2010.06.03 12:22:45.
