data_PCOD9164356
_publ_section_title
;
Structure prediction by ZEFSAII (Michael W. Deem and Ramdas Pophale) SiO2 
 PCOD9164356
Probable space group: P 21/M
;
_chemical_formula_sum "Si O2"
_cell_formula_units_Z 26
_cell_length_a 13.179825
_cell_length_b 15.415388
_cell_length_c 8.217781
_cell_angle_alpha 90.000000
_cell_angle_beta 135.593101
_cell_angle_gamma 90.000000
_cell_volume 1168.318303
_symmetry_space_group_name_H-M "P 21/M"
_symmetry_group_IT_number 11
_symmetry_cell_setting 'monoclinic'
loop_
_space_group_symop_operation_xyz
x,y,z
-x,1/2+y,-z
-x,-y,-z
x,1/2-y,z
loop_
_atom_site_type_symbol
_atom_site_label
_atom_site_fract_x
_atom_site_fract_y
_atom_site_fract_z
Si Si1 0.946713 0.344771 0.244261
Si Si2 0.551413 0.250000 0.651871
Si Si3 0.706651 0.250000 0.495449
Si Si4 0.613932 0.927546 0.579877
Si Si5 0.273806 0.416604 0.650525
Si Si6 0.098979 0.013501 0.954773
Si Si7 0.846243 0.404062 0.464389
Si Si8 0.473855 0.250000 0.940058
O O1 0.942680 0.250000 0.167211
O O2 0.881379 0.347235 0.348616
O O3 0.113931 0.375214 0.446827
O O4 0.858473 0.416473 0.045727
O O5 0.672184 0.250000 0.647725
O O6 0.459313 0.334814 0.504927
O O7 0.561742 0.250000 0.864655
O O8 0.786534 0.339478 0.534065
O O9 0.570916 0.250000 0.213009
O O10 0.667761 0.943224 0.458983
O O11 0.758493 0.931431 0.852912
O O12 0.500000 0.000000 0.500000
O O13 0.251209 0.512532 0.702392
O O14 0.376779 0.338679 0.831160
O O15 0.995947 0.054871 0.701071
O O16 0.000000 0.000000 0.000000
#
# Coordination Sequence:
#
# PCOD9164356 Si02
#       8
#     4   2   2   4   4   4   4   2
#     4  11  22  42  68  98 137 178 239 297 350 432
#     4  10  26  43  69 101 147 191 239 302 358 439
#     4  12  26  46  64 106 148 182 248 306 343 435
#     4  11  23  44  68 104 142 180 239 292 357 434
#     4  10  20  42  70  92 139 182 229 292 345 437
#     4  11  23  43  72 101 132 188 231 290 370 413
#     4  11  24  43  65 100 140 177 241 295 356 425
#     4  10  24  43  69  99 133 197 239 282 383 412
#
# _framework density 22.254208999999999
#
# number of rings (size 3 to 8) (size 9 to 14) (size 15 to 20)
#    0.000    1.231    4.615    2.769    0.000    6.154 
#    2.769    0.000    0.000    0.000    0.000    0.000 
#    0.000    0.000    0.000    0.000    0.000    0.000 
#
# Total GULP energy -145254.782998 kJ/mol
# GULP energy per Si atom -5586.722423 kJ/mol
# Density = 2.220356 g / cm^3
# Si number density = 22.254209 Si / 1000 Ang^3
#
#
#
# Elastic Constant Matrix: (Units=GPa)
#
#
# Indices 1 2 3 4 5 6 
#
# 1 107.3301 27.4378 7.9975 0.0000 4.6533 0.0000
# 2 27.4378 138.1570 24.7001 0.0000 10.1383 0.0000
# 3 7.9975 24.7001 67.6357 0.0000 13.9045 0.0000
# 4 0.0000 0.0000 0.0000 15.4467 0.0000 0.5111
# 5 4.6533 10.1383 13.9045 0.0000 15.0868 0.0000
# 6 0.0000 0.0000 0.0000 0.5111 0.0000 38.7610
#
#
#
# Elastic Compliance Matrix: (Units=1/GPa)
#
#
# Indices 1 2 3 4 5 6 
#
# 1 0.009864 -0.001807 -0.000161 0.000000 -0.001680 0.000000
# 2 -0.001807 0.008202 -0.002175 0.000000 -0.002950 0.000000
# 3 -0.000161 -0.002175 0.018862 0.000000 -0.015872 0.000000
# 4 0.000000 0.000000 0.000000 0.064767 0.000000 -0.000854
# 5 -0.001680 -0.002950 -0.015872 0.000000 0.083411 0.000000
# 6 0.000000 0.000000 0.000000 -0.000854 0.000000 0.025810
#
#
# Mechanical properties :
#
#
# Convention : Reuss Voigt Hill
#
# Bulk Modulus (GPa) = 34.91527 48.15484 41.53505
# Shear Modulus (GPa) = 21.85790 30.72473 26.29131
#
# Velocity S-wave (km/s) = 3.13739 3.71971 3.44089
# Velocity P-wave (km/s) = 5.37100 6.33513 5.87288
#
# Compressibility (1/GPa) = 0.02864077
#
# Stress axis : x y z
#
# Youngs Moduli (GPa) = 101.38100 121.91605 53.01795
#
# Poissons Ratio (x) = 0.22029 0.00855
# Poissons Ratio (y) = 0.18318 0.11534
# Poissons Ratio (z) = 0.01634 0.26522
#
# Static dielectric constant tensor:
#      x y z
#    x 1.861530 0.000000 0.001850 
#    y 0.000000 1.815530 0.000000 
#    z 0.001850 0.000000 1.839290 
# 
# From -- ./inp_files/22472.got.cif
#   From: 2010.05.17/outbox.cif.g08.bks.cpg/sg11_12_cif.got.tgz:22472.got - 2010.06.03 12:22:45.
