data_PCOD9164181
_publ_section_title
;
Structure prediction by ZEFSAII (Michael W. Deem and Ramdas Pophale) SiO2 
 PCOD9164181
Probable space group: P 21/M
;
_chemical_formula_sum "Si O2"
_cell_formula_units_Z 32
_cell_length_a 5.179554
_cell_length_b 15.013851
_cell_length_c 20.495010
_cell_angle_alpha 90.000000
_cell_angle_beta 111.807375
_cell_angle_gamma 90.000000
_cell_volume 1479.740351
_symmetry_space_group_name_H-M "P 21/M"
_symmetry_group_IT_number 11
_symmetry_cell_setting 'monoclinic'
loop_
_space_group_symop_operation_xyz
x,y,z
-x,1/2+y,-z
-x,-y,-z
x,1/2-y,z
loop_
_atom_site_type_symbol
_atom_site_label
_atom_site_fract_x
_atom_site_fract_y
_atom_site_fract_z
Si Si1 0.246226 0.354669 0.157632
Si Si2 0.173617 0.461736 0.575998
Si Si3 0.580243 0.071364 0.951993
Si Si4 0.324260 0.525726 0.721686
Si Si5 0.830608 0.846850 0.998191
Si Si6 0.110538 0.007932 0.828302
Si Si7 0.278650 0.649432 0.390522
Si Si8 0.694220 0.148583 0.760179
O O1 0.197501 0.250000 0.169166
O O2 0.472377 0.400396 0.227068
O O3 0.986203 0.422220 0.140400
O O4 0.312031 0.357329 0.086471
O O5 0.244610 0.534743 0.638871
O O6 0.456516 0.415313 0.578531
O O7 0.000000 0.500000 0.500000
O O8 0.980572 0.389513 0.594647
O O9 0.397908 0.149714 0.966562
O O10 0.903010 0.088671 0.972007
O O11 0.424295 0.036007 0.873400
O O12 0.500000 0.000000 0.000000
O O13 0.073197 0.521530 0.749638
O O14 0.453065 0.425662 0.737341
O O15 0.964445 0.750000 0.010567
O O16 0.932976 0.097214 0.822202
O O17 0.344294 0.750000 0.418145
O O18 0.216627 0.654348 0.307275
O O19 0.630558 0.250000 0.776047
#
# Coordination Sequence:
#
# PCOD9164181 Si02
#       8
#     4   4   4   4   4   4   4   4
#     4  10  23  42  65  87 118 168 219 266 314 375
#     4  11  22  40  67  94 131 171 209 261 322 381
#     4  12  24  40  64  89 124 164 208 263 324 377
#     4  10  22  40  62  93 124 165 212 260 315 383
#     4  11  25  44  63  90 124 166 214 265 321 385
#     4  11  22  38  63  88 124 164 208 265 320 378
#     4  10  20  39  64  93 126 166 212 256 306 385
#     4   9  20  36  58  89 124 162 204 253 313 379
#
# _framework density 21.625416000000001
#
# number of rings (size 3 to 8) (size 9 to 14) (size 15 to 20)
#    0.000    1.500    2.500    2.250    3.500    2.500 
#    0.000    1.250    0.000    0.000    0.000    0.000 
#    0.000    0.000    0.000    0.000    0.000    0.000 
#
# Total GULP energy -178538.906496 kJ/mol
# GULP energy per Si atom -5579.340828 kJ/mol
# Density = 2.157620 g / cm^3
# Si number density = 21.625416 Si / 1000 Ang^3
#
#
#
# Elastic Constant Matrix: (Units=GPa)
#
#
# Indices 1 2 3 4 5 6 
#
# 1 56.5614 19.9868 5.5821 0.0000 6.8080 0.0000
# 2 19.9868 129.4771 33.5445 0.0000 11.7706 0.0000
# 3 5.5821 33.5445 109.1753 0.0000 8.6997 0.0000
# 4 0.0000 0.0000 0.0000 15.6115 0.0000 -4.3372
# 5 6.8080 11.7706 8.6997 0.0000 30.4547 0.0000
# 6 0.0000 0.0000 0.0000 -4.3372 0.0000 21.9508
#
#
#
# Elastic Compliance Matrix: (Units=1/GPa)
#
#
# Indices 1 2 3 4 5 6 
#
# 1 0.019002 -0.002666 0.000106 0.000000 -0.003248 0.000000
# 2 -0.002666 0.008966 -0.002445 0.000000 -0.002171 0.000000
# 3 0.000106 -0.002445 0.010061 0.000000 -0.001953 0.000000
# 4 0.000000 0.000000 0.000000 0.067776 0.000000 0.013392
# 5 -0.003248 -0.002171 -0.001953 0.000000 0.034959 0.000000
# 6 0.000000 0.000000 0.000000 0.013392 0.000000 0.048202
#
#
# Mechanical properties :
#
#
# Convention : Reuss Voigt Hill
#
# Bulk Modulus (GPa) = 35.68934 45.93784 40.81359
# Shear Modulus (GPa) = 24.00204 29.34342 26.67273
#
# Velocity S-wave (km/s) = 3.33513 3.68760 3.51579
# Velocity P-wave (km/s) = 5.60090 6.27852 5.94936
#
# Compressibility (1/GPa) = 0.02801957
#
# Stress axis : x y z
#
# Youngs Moduli (GPa) = 52.62526 111.53544 99.39240
#
# Poissons Ratio (x) = 0.29730 -0.01056
# Poissons Ratio (y) = 0.14028 0.24306
# Poissons Ratio (z) = -0.00559 0.27276
#
# Static dielectric constant tensor:
#      x y z
#    x 1.836710 0.000000 0.003560 
#    y 0.000000 1.989350 0.000000 
#    z 0.003560 0.000000 1.819190 
# 
# From -- ./inp_files/62857.got.cif
#   From: 2010.05.17/outbox.cif.g08.bks.cpg/sg11_32_cif.got.tgz:62857.got - 2010.06.03 12:22:45.
