data_PCOD9164269
_publ_section_title
;
Structure prediction by ZEFSAII (Michael W. Deem and Ramdas Pophale) SiO2 
 PCOD9164269
Probable space group: P 21/M
;
_chemical_formula_sum "Si O2"
_cell_formula_units_Z 28
_cell_length_a 19.100653
_cell_length_b 8.398308
_cell_length_c 13.207831
_cell_angle_alpha 90.000000
_cell_angle_beta 142.174112
_cell_angle_gamma 90.000000
_cell_volume 1299.328584
_symmetry_space_group_name_H-M "P 21/M"
_symmetry_group_IT_number 11
_symmetry_cell_setting 'monoclinic'
loop_
_space_group_symop_operation_xyz
x,y,z
-x,1/2+y,-z
-x,-y,-z
x,1/2-y,z
loop_
_atom_site_type_symbol
_atom_site_label
_atom_site_fract_x
_atom_site_fract_y
_atom_site_fract_z
Si Si1 0.710350 0.939930 0.070028
Si Si2 0.349826 0.435411 0.776731
Si Si3 0.133105 0.436442 0.382118
Si Si4 0.041161 0.562304 0.655847
Si Si5 0.487650 0.057519 0.749765
Si Si6 0.619334 0.940080 0.583842
Si Si7 0.131542 0.565783 0.161583
O O1 0.726215 0.750000 0.093916
O O2 0.674304 0.003356 0.140645
O O3 0.828213 0.021673 0.179864
O O4 0.612187 0.984936 0.879529
O O5 0.381495 0.250000 0.828783
O O6 0.235787 0.438031 0.579555
O O7 0.441046 0.507982 0.803853
O O8 0.117348 0.250000 0.333538
O O9 0.153305 0.536140 0.305403
O O10 0.027891 0.501252 0.327006
O O11 0.019724 0.750000 0.630351
O O12 0.000000 0.500000 0.500000
O O13 0.494205 0.250000 0.762924
O O14 0.405655 0.020634 0.563007
O O15 0.620983 0.750000 0.598090
O O16 0.500000 0.000000 0.500000
O O17 0.750224 0.998659 0.755761
O O18 0.126335 0.750000 0.127982
O O19 0.000000 0.500000 0.000000
#
# Coordination Sequence:
#
# PCOD9164269 Si02
#       7
#     4   4   4   4   4   4   4
#     4  11  22  36  57  89 128 166 209 257 306 366
#     4   9  17  35  60  86 119 161 202 246 304 363
#     4  10  20  40  65  89 122 164 206 257 317 376
#     4  11  22  37  59  86 123 167 210 255 311 372
#     4  10  21  39  62  87 121 164 206 253 315 375
#     4  11  24  45  72  99 133 174 217 271 335 396
#     4  12  26  45  71 102 131 166 218 275 336 403
#
# _framework density 21.549590999999999
#
# number of rings (size 3 to 8) (size 9 to 14) (size 15 to 20)
#    0.000    1.429    2.857    3.000    0.000    3.429 
#    0.000    2.143    0.000    0.000    0.000    0.000 
#    0.000    0.000    0.000    0.000    0.000    0.000 
#
# Total GULP energy -156175.382761 kJ/mol
# GULP energy per Si atom -5577.692241 kJ/mol
# Density = 2.150054 g / cm^3
# Si number density = 21.549591 Si / 1000 Ang^3
#
#
#
# Elastic Constant Matrix: (Units=GPa)
#
#
# Indices 1 2 3 4 5 6 
#
# 1 94.4617 21.2021 25.7792 0.0000 39.3148 0.0000
# 2 21.2021 36.1718 18.2825 0.0000 9.7525 0.0000
# 3 25.7792 18.2825 88.4773 0.0000 35.1413 0.0000
# 4 0.0000 0.0000 0.0000 30.4693 0.0000 7.0678
# 5 39.3148 9.7525 35.1413 0.0000 36.5722 0.0000
# 6 0.0000 0.0000 0.0000 7.0678 0.0000 24.7170
#
#
#
# Elastic Compliance Matrix: (Units=1/GPa)
#
#
# Indices 1 2 3 4 5 6 
#
# 1 0.022438 -0.008852 0.006362 0.000000 -0.027873 0.000000
# 2 -0.008852 0.034626 -0.007581 0.000000 0.007567 0.000000
# 3 0.006362 -0.007581 0.020908 0.000000 -0.024908 0.000000
# 4 0.000000 0.000000 0.000000 0.035151 0.000000 -0.010051
# 5 -0.027873 0.007567 -0.024908 0.000000 0.079221 0.000000
# 6 0.000000 0.000000 0.000000 -0.010051 0.000000 0.043332
#
#
# Mechanical properties :
#
#
# Convention : Reuss Voigt Hill
#
# Bulk Modulus (GPa) = 17.29247 38.84872 28.07060
# Shear Modulus (GPa) = 18.17546 28.60818 23.39182
#
# Velocity S-wave (km/s) = 2.90733 3.64751 3.29825
# Velocity P-wave (km/s) = 4.39454 5.98380 5.24966
#
# Compressibility (1/GPa) = 0.05782863
#
# Stress axis : x y z
#
# Youngs Moduli (GPa) = 44.56807 28.87983 47.82871
#
# Poissons Ratio (x) = 0.25566 -0.30430
# Poissons Ratio (y) = 0.39454 0.36260
# Poissons Ratio (z) = -0.28355 0.21895
#
# Static dielectric constant tensor:
#      x y z
#    x 1.960830 0.000000 0.224010 
#    y 0.000000 1.761530 0.000000 
#    z 0.224010 0.000000 2.063200 
# 
# From -- ./inp_files/54608.got.cif
#   From: 2010.05.17/outbox.cif.g08.bks.cpg/sg11_28_cif.got.tgz:54608.got - 2010.06.03 12:22:45.
