data_PCOD9164134
_publ_section_title
;
Structure prediction by ZEFSAII (Michael W. Deem and Ramdas Pophale) SiO2 
 PCOD9164134
Probable space group: P 21/M
;
_chemical_formula_sum "Si O2"
_cell_formula_units_Z 24
_cell_length_a 22.950071
_cell_length_b 10.172592
_cell_length_c 10.562774
_cell_angle_alpha 90.000000
_cell_angle_beta 154.288594
_cell_angle_gamma 90.000000
_cell_volume 1069.847048
_symmetry_space_group_name_H-M "P 21/M"
_symmetry_group_IT_number 11
_symmetry_cell_setting 'monoclinic'
loop_
_space_group_symop_operation_xyz
x,y,z
-x,1/2+y,-z
-x,-y,-z
x,1/2-y,z
loop_
_atom_site_type_symbol
_atom_site_label
_atom_site_fract_x
_atom_site_fract_y
_atom_site_fract_z
Si Si1 0.444060 0.019475 0.032480
Si Si2 0.353423 0.250000 0.315326
Si Si3 0.716708 0.015384 0.668141
Si Si4 0.810339 0.605915 0.594107
Si Si5 0.003031 0.456916 0.256390
Si Si6 0.059393 0.750000 0.445006
Si Si7 0.626480 0.250000 0.961389
Si Si8 0.868719 0.750000 0.314208
O O1 0.568363 0.075547 0.358122
O O2 0.403833 0.879162 0.013760
O O3 0.500000 0.000000 0.000000
O O4 0.308195 0.098004 0.742607
O O5 0.307839 0.379606 0.303786
O O6 0.515081 0.250000 0.632689
O O7 0.278731 0.250000 0.035311
O O8 0.770776 0.987564 0.631604
O O9 0.848847 0.081132 0.985383
O O10 0.811814 0.750000 0.654303
O O11 0.945548 0.582738 0.781597
O O12 0.021643 0.613836 0.302051
O O13 0.096997 0.378897 0.537714
O O14 0.971987 0.750000 0.399942
O O15 0.219564 0.750000 0.778576
#
# Coordination Sequence:
#
# PCOD9164134 Si02
#       8
#     4   2   4   4   4   2   2   2
#     4   9  20  35  60  90 124 165 203 247 303 379
#     4  10  20  39  67  85 122 170 210 249 320 379
#     4  10  20  39  62  93 125 171 203 249 317 393
#     4  11  21  39  61  95 134 161 201 259 322 377
#     4  12  24  43  65  95 125 163 215 263 320 371
#     4  12  24  42  66  89 123 171 212 259 315 378
#     4  10  20  40  62  90 122 165 217 250 306 390
#     4  12  26  45  65  90 123 166 219 276 315 359
#
# _framework density 22.433115000000001
#
# number of rings (size 3 to 8) (size 9 to 14) (size 15 to 20)
#    0.000    1.333    5.000    1.000    3.500    0.000 
#    1.500    3.333    0.000    0.000    0.000    0.000 
#    0.000    0.000    0.000    0.000    0.000    0.000 
#
# Total GULP energy -133974.168529 kJ/mol
# GULP energy per Si atom -5582.257022 kJ/mol
# Density = 2.238206 g / cm^3
# Si number density = 22.433115 Si / 1000 Ang^3
#
#
#
# Elastic Constant Matrix: (Units=GPa)
#
#
# Indices 1 2 3 4 5 6 
#
# 1 7.8525 -7.6033 -5.9236 0.0000 2.6953 0.0000
# 2 -7.6033 66.0061 13.4098 0.0000 -6.6874 0.0000
# 3 -5.9236 13.4098 148.2841 0.0000 5.5776 0.0000
# 4 0.0000 0.0000 0.0000 22.7725 0.0000 -8.9097
# 5 2.6953 -6.6874 5.5776 0.0000 39.9690 0.0000
# 6 0.0000 0.0000 0.0000 -8.9097 0.0000 25.1674
#
#
#
# Elastic Compliance Matrix: (Units=1/GPa)
#
#
# Indices 1 2 3 4 5 6 
#
# 1 0.148631 0.015309 0.004859 0.000000 -0.008139 0.000000
# 2 0.015309 0.017327 -0.001031 0.000000 0.002011 0.000000
# 3 0.004859 -0.001031 0.007087 0.000000 -0.001489 0.000000
# 4 0.000000 0.000000 0.000000 0.050973 0.000000 0.018045
# 5 -0.008139 0.002011 -0.001489 0.000000 0.026112 0.000000
# 6 0.000000 0.000000 0.000000 0.018045 0.000000 0.046122
#
#
# Mechanical properties :
#
#
# Convention : Reuss Voigt Hill
#
# Bulk Modulus (GPa) = 4.73218 24.65651 14.69435
# Shear Modulus (GPa) = 15.22453 32.39910 23.81181
#
# Velocity S-wave (km/s) = 2.60794 3.80446 3.26154
# Velocity P-wave (km/s) = 3.34403 5.50577 4.55500
#
# Compressibility (1/GPa) = 0.21131892
#
# Stress axis : x y z
#
# Youngs Moduli (GPa) = 6.72809 57.71431 141.10003
#
# Poissons Ratio (x) = -0.88355 -0.68563
# Poissons Ratio (y) = -0.10300 0.14547
# Poissons Ratio (z) = -0.03269 0.05950
#
# Static dielectric constant tensor:
#      x y z
#    x 1.772910 0.000000 -0.006090 
#    y 0.000000 1.827550 0.000000 
#    z -0.006090 0.000000 1.939050 
# 
# From -- ./inp_files/44836.got.cif
#   From: 2010.05.17/outbox.cif.g08.bks.cpg/sg11_23_cif.got.tgz:44836.got - 2010.06.03 12:22:45.
