data_PCOD9164445
_publ_section_title
;
Structure prediction by ZEFSAII (Michael W. Deem and Ramdas Pophale) SiO2 
 PCOD9164445
Probable space group: P 21/M
;
_chemical_formula_sum "Si O2"
_cell_formula_units_Z 32
_cell_length_a 7.591811
_cell_length_b 18.721378
_cell_length_c 18.455212
_cell_angle_alpha 90.000000
_cell_angle_beta 145.358337
_cell_angle_gamma 90.000000
_cell_volume 1491.037296
_symmetry_space_group_name_H-M "P 21/M"
_symmetry_group_IT_number 11
_symmetry_cell_setting 'monoclinic'
loop_
_space_group_symop_operation_xyz
x,y,z
-x,1/2+y,-z
-x,-y,-z
x,1/2-y,z
loop_
_atom_site_type_symbol
_atom_site_label
_atom_site_fract_x
_atom_site_fract_y
_atom_site_fract_z
Si Si1 0.020540 0.416963 0.530589
Si Si2 0.476682 0.397029 0.256826
Si Si3 0.934282 0.555657 0.194127
Si Si4 0.050634 0.397027 0.256824
Si Si5 0.398184 0.916963 0.469413
Si Si6 0.342227 0.555659 0.194127
Si Si7 0.966520 0.828103 0.003297
Si Si8 0.453341 0.328103 0.996697
O O1 0.823930 0.378946 0.400813
O O2 0.835798 0.407421 0.542898
O O3 0.000000 0.500000 0.500000
O O4 0.377524 0.404178 0.669511
O O5 0.462005 0.476316 0.215834
O O6 0.277918 0.401122 0.263955
O O7 0.303206 0.343671 0.145378
O O8 0.199479 0.595820 0.330489
O O9 0.070392 0.543513 0.160196
O O10 0.901335 0.476313 0.215831
O O11 0.638340 0.606187 0.086142
O O12 0.279330 0.378945 0.400811
O O13 0.778325 0.343668 0.145374
O O14 0.500000 0.000000 0.500000
O O15 0.206209 0.606189 0.086138
O O16 0.105902 0.750000 0.037413
O O17 0.804274 0.826714 0.027142
O O18 0.456241 0.250000 0.962573
#
# Coordination Sequence:
#
# PCOD9164445 Si02
#       8
#     4   4   4   4   4   4   4   4
#     4   9  17  30  50  77 103 126 159 202 247 293
#     4   9  18  32  51  75 100 128 162 201 245 291
#     4   9  18  33  52  75 102 129 161 203 247 291
#     4   9  18  32  51  75 100 128 162 201 245 291
#     4   9  17  30  50  77 103 126 159 202 247 293
#     4   9  18  33  52  75 102 129 161 203 247 291
#     4  10  21  35  50  71 100 133 168 205 245 290
#     4  10  21  35  50  71 100 133 168 205 245 290
#
# _framework density 21.461569000000001
#
# number of rings (size 3 to 8) (size 9 to 14) (size 15 to 20)
#    0.000    2.750    0.000    3.000    0.000    6.500 
#    0.000    1.250    0.000    4.500    0.000    0.000 
#    0.000    0.000    0.000    0.000    0.000    0.000 
#
# Total GULP energy -178362.169660 kJ/mol
# GULP energy per Si atom -5573.817802 kJ/mol
# Density = 2.141272 g / cm^3
# Si number density = 21.461569 Si / 1000 Ang^3
#
#
#
# Elastic Constant Matrix: (Units=GPa)
#
#
# Indices 1 2 3 4 5 6 
#
# 1 45.1904 0.7470 -21.1826 0.0000 0.1457 0.0000
# 2 0.7470 36.5961 1.2646 0.0000 -0.0044 0.0000
# 3 -21.1826 1.2646 65.2043 0.0000 -0.3047 0.0000
# 4 0.0000 0.0000 0.0000 0.7991 0.0000 0.0402
# 5 0.1457 -0.0044 -0.3047 0.0000 24.3128 0.0000
# 6 0.0000 0.0000 0.0000 0.0402 0.0000 5.8449
#
#
#
# Elastic Compliance Matrix: (Units=1/GPa)
#
#
# Indices 1 2 3 4 5 6 
#
# 1 0.026129 -0.000827 0.008504 0.000000 -0.000050 0.000000
# 2 -0.000827 0.027370 -0.000800 0.000000 0.000000 0.000000
# 3 0.008504 -0.000800 0.018115 0.000000 0.000176 0.000000
# 4 0.000000 0.000000 0.000000 1.251902 0.000000 -0.008603
# 5 -0.000050 0.000000 0.000176 0.000000 0.041133 0.000000
# 6 0.000000 0.000000 0.000000 -0.008603 0.000000 0.171148
#
#
# Mechanical properties :
#
#
# Convention : Reuss Voigt Hill
#
# Bulk Modulus (GPa) = 11.71392 12.07209 11.89301
# Shear Modulus (GPa) = 3.22477 17.26882 10.24679
#
# Velocity S-wave (km/s) = 1.22713 2.83969 2.18743
# Velocity P-wave (km/s) = 2.73454 4.04833 3.45447
#
# Compressibility (1/GPa) = 0.08536852
#
# Stress axis : x y z
#
# Youngs Moduli (GPa) = 38.27221 36.53658 55.20161
#
# Poissons Ratio (x) = 0.03022 -0.46944
# Poissons Ratio (y) = 0.03166 0.04414
# Poissons Ratio (z) = -0.32547 0.02921
#
# Static dielectric constant tensor:
#      x y z
#    x 1.822080 0.000000 0.000030 
#    y 0.000000 1.784730 0.000000 
#    z 0.000030 0.000000 1.817990 
# 
# From -- ./inp_files/64011.got.cif
#   From: 2010.05.17/outbox.cif.g08.bks.cpg/sg11_33_cif.got.tgz:64011.got - 2010.06.03 12:22:45.
