data_PCOD9164039
_publ_section_title
;
Structure prediction by ZEFSAII (Michael W. Deem and Ramdas Pophale) SiO2 
 PCOD9164039
Probable space group: P 21/M
;
_chemical_formula_sum "Si O2"
_cell_formula_units_Z 32
_cell_length_a 21.674993
_cell_length_b 8.559635
_cell_length_c 27.609588
_cell_angle_alpha 90.000000
_cell_angle_beta 18.386512
_cell_angle_gamma 90.000000
_cell_volume 1615.738781
_symmetry_space_group_name_H-M "P 21/M"
_symmetry_group_IT_number 11
_symmetry_cell_setting 'monoclinic'
loop_
_space_group_symop_operation_xyz
x,y,z
-x,1/2+y,-z
-x,-y,-z
x,1/2-y,z
loop_
_atom_site_type_symbol
_atom_site_label
_atom_site_fract_x
_atom_site_fract_y
_atom_site_fract_z
Si Si1 0.655830 0.066881 0.768893
Si Si2 0.782120 0.063707 0.155785
Si Si3 0.483160 0.562534 0.458497
Si Si4 0.185854 0.433825 0.248180
Si Si5 0.739945 0.432289 0.911430
Si Si6 0.779717 0.932196 0.576980
Si Si7 0.516132 0.065047 0.696609
Si Si8 0.152553 0.564843 0.632151
O O1 0.698109 0.250000 0.732944
O O2 0.725827 0.003959 0.768615
O O3 0.758305 0.974663 0.649087
O O4 0.424739 0.033001 0.939202
O O5 0.783251 0.250000 0.152497
O O6 0.648427 0.009091 0.300511
O O7 0.677463 0.995791 0.185733
O O8 0.000000 0.000000 0.000000
O O9 0.500000 0.500000 0.500000
O O10 0.503083 0.750000 0.442315
O O11 0.273025 0.524907 0.590814
O O12 0.226366 0.250000 0.214274
O O13 0.261967 0.519909 0.143692
O O14 0.953963 0.465024 0.424822
O O15 0.693898 0.250000 0.950945
O O16 0.955750 0.470323 0.770138
O O17 0.825867 0.750000 0.536203
O O18 0.582337 0.976518 0.695517
O O19 0.501799 0.250000 0.716163
O O20 0.691637 0.038126 0.527104
O O21 0.105819 0.750000 0.666855
#
# Coordination Sequence:
#
# PCOD9164039 Si02
#       8
#     4   4   4   4   4   4   4   4
#     4  12  26  44  62  87 124 162 201 254 313 364
#     4  11  22  39  63  92 126 163 207 254 303 359
#     4  10  21  39  63  92 126 161 205 251 304 362
#     4  12  24  42  66  91 121 160 205 250 302 366
#     4  12  24  40  63  92 123 158 205 254 303 363
#     4  12  24  41  64  93 124 159 205 252 303 362
#     4  10  20  38  64  92 123 161 205 250 300 358
#     4   9  19  37  62  89 121 160 203 247 298 360
#
# _framework density 19.805181000000001
#
# number of rings (size 3 to 8) (size 9 to 14) (size 15 to 20)
#    0.000    1.000    1.250    7.875    0.000    2.500 
#    2.250    0.000    0.000    0.000    0.000    0.000 
#    0.000    0.000    0.000    0.000    0.000    0.000 
#
# Total GULP energy -179053.090488 kJ/mol
# GULP energy per Si atom -5595.409078 kJ/mol
# Density = 1.976010 g / cm^3
# Si number density = 19.805181 Si / 1000 Ang^3
#
#
#
# Elastic Constant Matrix: (Units=GPa)
#
#
# Indices 1 2 3 4 5 6 
#
# 1 86.1388 17.6365 -1.4959 0.0000 -12.1266 0.0000
# 2 17.6365 81.4422 -6.3510 0.0000 -13.3663 0.0000
# 3 -1.4959 -6.3510 36.7631 0.0000 -15.3227 0.0000
# 4 0.0000 0.0000 0.0000 31.0514 0.0000 -2.7506
# 5 -12.1266 -13.3663 -15.3227 0.0000 31.9427 0.0000
# 6 0.0000 0.0000 0.0000 -2.7506 0.0000 36.2326
#
#
#
# Elastic Compliance Matrix: (Units=1/GPa)
#
#
# Indices 1 2 3 4 5 6 
#
# 1 0.012745 -0.001702 0.002430 0.000000 0.005292 0.000000
# 2 -0.001702 0.014450 0.005847 0.000000 0.008205 0.000000
# 3 0.002430 0.005847 0.037140 0.000000 0.021185 0.000000
# 4 0.000000 0.000000 0.000000 0.032423 0.000000 0.002461
# 5 0.005292 0.008205 0.021185 0.000000 0.046911 0.000000
# 6 0.000000 0.000000 0.000000 0.002461 0.000000 0.027786
#
#
# Mechanical properties :
#
#
# Convention : Reuss Voigt Hill
#
# Bulk Modulus (GPa) = 12.90571 24.88035 18.89303
# Shear Modulus (GPa) = 27.15440 32.81564 29.98502
#
# Velocity S-wave (km/s) = 3.70682 4.07495 3.89524
# Velocity P-wave (km/s) = 4.98510 5.89322 5.45808
#
# Compressibility (1/GPa) = 0.07748508
#
# Stress axis : x y z
#
# Youngs Moduli (GPa) = 78.46319 69.20531 26.92516
#
# Poissons Ratio (x) = 0.11778 -0.06544
# Poissons Ratio (y) = 0.13353 -0.15743
# Poissons Ratio (z) = -0.19069 -0.40463
#
# Static dielectric constant tensor:
#      x y z
#    x 1.700040 0.000000 -0.023690 
#    y 0.000000 1.669720 0.000000 
#    z -0.023690 0.000000 1.695420 
# 
# From -- ./inp_files/72106.got.cif
#   From: 2010.05.17/outbox.cif.g08.bks.cpg/sg11_37_cif.got.tgz:72106.got - 2010.06.03 12:22:45.
