data_PCOD9164783
_publ_section_title
;
Structure prediction by ZEFSAII (Michael W. Deem and Ramdas Pophale) SiO2 
 PCOD9164783
Probable space group: P 21/M
;
_chemical_formula_sum "Si O2"
_cell_formula_units_Z 24
_cell_length_a 25.993848
_cell_length_b 7.503316
_cell_length_c 12.950463
_cell_angle_alpha 90.000000
_cell_angle_beta 154.859484
_cell_angle_gamma 90.000000
_cell_volume 1073.085135
_symmetry_space_group_name_H-M "P 21/M"
_symmetry_group_IT_number 11
_symmetry_cell_setting 'monoclinic'
loop_
_space_group_symop_operation_xyz
x,y,z
-x,1/2+y,-z
-x,-y,-z
x,1/2-y,z
loop_
_atom_site_type_symbol
_atom_site_label
_atom_site_fract_x
_atom_site_fract_y
_atom_site_fract_z
Si Si1 0.360446 0.462656 0.237556
Si Si2 0.694833 0.952058 0.086593
Si Si3 0.366171 0.035429 0.802777
Si Si4 0.037323 0.538099 0.449349
Si Si5 0.812708 0.532711 0.900125
Si Si6 0.854941 0.535956 0.746433
O O1 0.500000 0.500000 0.500000
O O2 0.333860 0.250000 0.186634
O O3 0.293824 0.530499 0.218455
O O4 0.322352 0.537615 0.057073
O O5 0.645514 0.750000 0.990057
O O6 0.640889 0.034298 0.092282
O O7 0.838994 0.947417 0.358711
O O8 0.353904 0.250000 0.785772
O O9 0.247280 0.971853 0.521762
O O10 0.500000 0.000000 0.000000
O O11 0.053337 0.750000 0.469661
O O12 0.000000 0.500000 0.500000
O O13 0.933034 0.483384 0.181112
O O14 0.808635 0.750000 0.887737
O O15 0.814897 0.469829 0.786992
O O16 0.845954 0.750000 0.728263
O O17 0.000000 0.500000 0.000000
#
# Coordination Sequence:
#
# PCOD9164783 Si02
#       6
#     4   4   4   4   4   4
#     4  10  21  37  55  78 111 147 183 230 279 329
#     4  10  21  39  58  81 116 148 182 234 286 333
#     4  10  23  40  61  87 117 154 195 241 290 343
#     4  11  20  34  57  85 114 147 184 226 281 340
#     4   9  19  36  57  80 112 147 178 225 282 331
#     4  10  21  39  61  86 115 151 194 238 285 340
#
# _framework density 22.365421000000001
#
# number of rings (size 3 to 8) (size 9 to 14) (size 15 to 20)
#    0.000    2.000    1.667    1.500    2.333    2.000 
#    0.000    1.667    0.000    0.000    0.000    0.000 
#    0.000    0.000    0.000    0.000    0.000    0.000 
#
# Total GULP energy -133951.834090 kJ/mol
# GULP energy per Si atom -5581.326420 kJ/mol
# Density = 2.231452 g / cm^3
# Si number density = 22.365421 Si / 1000 Ang^3
#
#
#
# Elastic Constant Matrix: (Units=GPa)
#
#
# Indices 1 2 3 4 5 6 
#
# 1 203.2553 1.4217 56.7063 0.0000 2.4030 0.0000
# 2 1.4217 67.0184 -4.1091 0.0000 -8.2671 0.0000
# 3 56.7063 -4.1091 88.4539 0.0000 13.4780 0.0000
# 4 0.0000 0.0000 0.0000 21.3956 0.0000 12.0670
# 5 2.4030 -8.2671 13.4780 0.0000 36.4811 0.0000
# 6 0.0000 0.0000 0.0000 12.0670 0.0000 11.0720
#
#
#
# Elastic Compliance Matrix: (Units=1/GPa)
#
#
# Indices 1 2 3 4 5 6 
#
# 1 0.006036 -0.000248 -0.004040 0.000000 0.001039 0.000000
# 2 -0.000248 0.015364 0.000360 0.000000 0.003365 0.000000
# 3 -0.004040 0.000360 0.014685 0.000000 -0.005078 0.000000
# 4 0.000000 0.000000 0.000000 0.121299 0.000000 -0.132201
# 5 0.001039 0.003365 -0.005078 0.000000 0.029982 0.000000
# 6 0.000000 0.000000 0.000000 -0.132201 0.000000 0.234400
#
#
# Mechanical properties :
#
#
# Convention : Reuss Voigt Hill
#
# Bulk Modulus (GPa) = 35.42257 51.86281 43.64269
# Shear Modulus (GPa) = 11.38871 34.10365 22.74618
#
# Velocity S-wave (km/s) = 2.25902 3.90915 3.19254
# Velocity P-wave (km/s) = 4.76201 6.60413 5.75722
#
# Compressibility (1/GPa) = 0.02823059
#
# Stress axis : x y z
#
# Youngs Moduli (GPa) = 165.66220 65.08855 68.09447
#
# Poissons Ratio (x) = 0.01612 0.27507
# Poissons Ratio (y) = 0.04102 -0.02449
# Poissons Ratio (z) = 0.66921 -0.02341
#
# Static dielectric constant tensor:
#      x y z
#    x 1.838150 0.000000 -0.035080 
#    y 0.000000 1.911800 0.000000 
#    z -0.035080 0.000000 1.639910 
# 
# From -- ./inp_files/27668.got.cif
#   From: 2010.05.17/outbox.cif.g08.bks.cpg/sg11_14_cif.got.tgz:27668.got - 2010.06.03 12:22:45.
