data_PCOD9164870
_publ_section_title
;
Structure prediction by ZEFSAII (Michael W. Deem and Ramdas Pophale) SiO2 
 PCOD9164870
Probable space group: P 21/M
;
_chemical_formula_sum "Si O2"
_cell_formula_units_Z 24
_cell_length_a 16.669605
_cell_length_b 9.137888
_cell_length_c 10.032345
_cell_angle_alpha 90.000000
_cell_angle_beta 44.288578
_cell_angle_gamma 90.000000
_cell_volume 1067.083974
_symmetry_space_group_name_H-M "P 21/M"
_symmetry_group_IT_number 11
_symmetry_cell_setting 'monoclinic'
loop_
_space_group_symop_operation_xyz
x,y,z
-x,1/2+y,-z
-x,-y,-z
x,1/2-y,z
loop_
_atom_site_type_symbol
_atom_site_label
_atom_site_fract_x
_atom_site_fract_y
_atom_site_fract_z
Si Si1 0.190325 0.082235 0.618107
Si Si2 0.578020 0.923711 0.295171
Si Si3 0.917764 0.422657 0.703658
Si Si4 0.444571 0.082685 0.232651
Si Si5 0.732356 0.421240 0.717406
Si Si6 0.153871 0.424133 0.954875
O O1 0.154522 0.250000 0.633781
O O2 0.330251 0.087859 0.464806
O O3 0.139386 0.030161 0.818064
O O4 0.180398 0.981390 0.500481
O O5 0.556199 0.750000 0.319706
O O6 0.711981 0.946647 0.167802
O O7 0.500000 0.000000 0.500000
O O8 0.538039 0.993395 0.202911
O O9 0.940160 0.250000 0.678715
O O10 0.791389 0.445587 0.788433
O O11 0.000000 0.500000 0.500000
O O12 0.918364 0.488965 0.850137
O O13 0.479660 0.250000 0.165267
O O14 0.615612 0.992842 0.823465
O O15 0.714978 0.250000 0.716958
O O16 0.130860 0.250000 0.990682
#
# Coordination Sequence:
#
# PCOD9164870 Si02
#       6
#     4   4   4   4   4   4
#     4   8  16  32  55  83 114 148 186 227 278 332
#     4  11  19  30  52  84 121 158 191 231 281 333
#     4  11  25  43  63  85 110 146 192 240 293 347
#     4   9  17  30  51  80 114 150 186 222 273 331
#     4   9  18  35  58  83 111 146 188 234 283 340
#     4  10  21  37  57  86 120 151 191 238 282 333
#
# _framework density 22.491199000000002
#
# number of rings (size 3 to 8) (size 9 to 14) (size 15 to 20)
#    1.000    1.333    1.667    1.500    0.000    4.667 
#    0.000    1.667    0.000    0.000    0.000    0.000 
#    0.000    0.000    0.000    0.000    0.000    0.000 
#
# Total GULP energy -134050.344492 kJ/mol
# GULP energy per Si atom -5585.431020 kJ/mol
# Density = 2.244001 g / cm^3
# Si number density = 22.491199 Si / 1000 Ang^3
#
#
#
# Elastic Constant Matrix: (Units=GPa)
#
#
# Indices 1 2 3 4 5 6 
#
# 1 88.1216 29.4583 24.2120 0.0000 15.5634 0.0000
# 2 29.4583 65.1312 43.8789 0.0000 6.1820 0.0000
# 3 24.2120 43.8789 128.9025 0.0000 21.6346 0.0000
# 4 0.0000 0.0000 0.0000 17.8665 0.0000 -0.0013
# 5 15.5634 6.1820 21.6346 0.0000 42.6680 0.0000
# 6 0.0000 0.0000 0.0000 -0.0013 0.0000 18.9758
#
#
#
# Elastic Compliance Matrix: (Units=1/GPa)
#
#
# Indices 1 2 3 4 5 6 
#
# 1 0.014101 -0.006063 0.000143 0.000000 -0.004338 0.000000
# 2 -0.006063 0.022543 -0.006949 0.000000 0.002469 0.000000
# 3 0.000143 -0.006949 0.010861 0.000000 -0.004552 0.000000
# 4 0.000000 0.000000 0.000000 0.055971 0.000000 0.000004
# 5 -0.004338 0.002469 -0.004552 0.000000 0.026969 0.000000
# 6 0.000000 0.000000 0.000000 0.000004 0.000000 0.052699
#
#
# Mechanical properties :
#
#
# Convention : Reuss Voigt Hill
#
# Bulk Modulus (GPa) = 45.94058 53.02820 49.48439
# Shear Modulus (GPa) = 23.13342 28.20914 25.67128
#
# Velocity S-wave (km/s) = 3.21059 3.54535 3.38211
# Velocity P-wave (km/s) = 5.84929 6.35515 6.10746
#
# Compressibility (1/GPa) = 0.02176725
#
# Stress axis : x y z
#
# Youngs Moduli (GPa) = 70.91485 44.35934 92.07647
#
# Poissons Ratio (x) = 0.26893 -0.01317
# Poissons Ratio (y) = 0.42993 0.63988
# Poissons Ratio (z) = -0.01015 0.30827
#
# Static dielectric constant tensor:
#      x y z
#    x 1.866710 0.000000 -0.036340 
#    y 0.000000 1.813820 0.000000 
#    z -0.036340 0.000000 1.907890 
# 
# From -- ./inp_files/43885.got.cif
#   From: 2010.05.17/outbox.cif.g08.bks.cpg/sg11_22_cif.got.tgz:43885.got - 2010.06.03 12:22:45.
