data_PCOD9164267
_publ_section_title
;
Structure prediction by ZEFSAII (Michael W. Deem and Ramdas Pophale) SiO2 
 PCOD9164267
Probable space group: P 21/M
;
_chemical_formula_sum "Si O2"
_cell_formula_units_Z 22
_cell_length_a 18.551307
_cell_length_b 9.231366
_cell_length_c 14.752630
_cell_angle_alpha 90.000000
_cell_angle_beta 158.684153
_cell_angle_gamma 90.000000
_cell_volume 918.385437
_symmetry_space_group_name_H-M "P 21/M"
_symmetry_group_IT_number 11
_symmetry_cell_setting 'monoclinic'
loop_
_space_group_symop_operation_xyz
x,y,z
-x,1/2+y,-z
-x,-y,-z
x,1/2-y,z
loop_
_atom_site_type_symbol
_atom_site_label
_atom_site_fract_x
_atom_site_fract_y
_atom_site_fract_z
Si Si1 0.181902 0.076390 0.400653
Si Si2 0.683865 0.012160 0.115748
Si Si3 0.013097 0.586084 0.373295
Si Si4 0.435928 0.920755 0.564139
Si Si5 0.559866 0.750000 0.100728
Si Si6 0.191275 0.078915 0.119003
O O1 0.190533 0.250000 0.405321
O O2 0.108263 0.022247 0.412758
O O3 0.372118 0.992752 0.583432
O O4 0.003835 0.013180 0.128728
O O5 0.841837 0.088961 0.369419
O O6 0.611985 0.873270 0.085767
O O7 0.507687 0.125010 0.905575
O O8 0.805414 0.969035 0.169490
O O9 0.001731 0.750000 0.323149
O O10 0.385840 0.750000 0.505391
O O11 0.663434 0.932116 0.798242
O O12 0.312676 0.008361 0.343567
O O13 0.152192 0.250000 0.089410
#
# Coordination Sequence:
#
# PCOD9164267 Si02
#       6
#     4   4   4   4   2   4
#     4  12  26  40  60  92 125 167 204 254 306 361
#     4  10  22  40  66  88 122 156 204 246 302 364
#     4  11  23  42  61  85 122 165 198 247 303 366
#     4  10  21  41  67  92 123 161 205 253 304 364
#     4  10  20  40  64  98 112 152 206 250 300 360
#     4  10  21  41  67  92 123 161 205 253 304 364
#
# _framework density 23.955085
#
# number of rings (size 3 to 8) (size 9 to 14) (size 15 to 20)
#    0.000    1.455    1.818    3.273    2.545    2.182 
#    6.545    0.000    0.000    0.000    0.000    0.000 
#    0.000    0.000    0.000    0.000    0.000    0.000 
#
# Total GULP energy -122703.144118 kJ/mol
# GULP energy per Si atom -5577.415642 kJ/mol
# Density = 2.390056 g / cm^3
# Si number density = 23.955085 Si / 1000 Ang^3
#
#
#
# Elastic Constant Matrix: (Units=GPa)
#
#
# Indices 1 2 3 4 5 6 
#
# 1 150.3887 80.1524 19.3213 0.0000 24.2731 0.0000
# 2 80.1524 238.3139 38.6054 0.0000 30.3900 0.0000
# 3 19.3213 38.6054 59.4431 0.0000 14.3764 0.0000
# 4 0.0000 0.0000 0.0000 16.3220 0.0000 -7.0081
# 5 24.2731 30.3900 14.3764 0.0000 40.2175 0.0000
# 6 0.0000 0.0000 0.0000 -7.0081 0.0000 35.4806
#
#
#
# Elastic Compliance Matrix: (Units=1/GPa)
#
#
# Indices 1 2 3 4 5 6 
#
# 1 0.008485 -0.002378 -0.000449 0.000000 -0.003164 0.000000
# 2 -0.002378 0.005637 -0.002414 0.000000 -0.001962 0.000000
# 3 -0.000449 -0.002414 0.019736 0.000000 -0.004960 0.000000
# 4 0.000000 0.000000 0.000000 0.066945 0.000000 0.013223
# 5 -0.003164 -0.001962 -0.004960 0.000000 0.030030 0.000000
# 6 0.000000 0.000000 0.000000 0.013223 0.000000 0.030796
#
#
# Mechanical properties :
#
#
# Convention : Reuss Voigt Hill
#
# Bulk Modulus (GPa) = 42.77512 80.47820 61.62666
# Shear Modulus (GPa) = 27.79308 39.07512 33.43410
#
# Velocity S-wave (km/s) = 3.40989 4.04317 3.73996
# Velocity P-wave (km/s) = 5.77912 7.44746 6.66570
#
# Compressibility (1/GPa) = 0.02337808
#
# Stress axis : x y z
#
# Youngs Moduli (GPa) = 117.85580 177.40028 50.66926
#
# Poissons Ratio (x) = 0.42179 0.02273
# Poissons Ratio (y) = 0.28021 0.12230
# Poissons Ratio (z) = 0.05286 0.42819
#
# Static dielectric constant tensor:
#      x y z
#    x 1.912660 0.000000 -0.046500 
#    y 0.000000 1.740830 0.000000 
#    z -0.046500 0.000000 2.096690 
# 
# From -- ./inp_files/53336.got.cif
#   From: 2010.05.17/outbox.cif.g08.bks.cpg/sg11_27_cif.got.tgz:53336.got - 2010.06.03 12:22:45.
