data_PCOD9164113
_publ_section_title
;
Structure prediction by ZEFSAII (Michael W. Deem and Ramdas Pophale) SiO2 
 PCOD9164113
Probable space group: P 21/M
;
_chemical_formula_sum "Si O2"
_cell_formula_units_Z 32
_cell_length_a 11.929844
_cell_length_b 14.854475
_cell_length_c 8.662915
_cell_angle_alpha 90.000000
_cell_angle_beta 89.743591
_cell_angle_gamma 90.000000
_cell_volume 1535.153391
_symmetry_space_group_name_H-M "P 21/M"
_symmetry_group_IT_number 11
_symmetry_cell_setting 'monoclinic'
loop_
_space_group_symop_operation_xyz
x,y,z
-x,1/2+y,-z
-x,-y,-z
x,1/2-y,z
loop_
_atom_site_type_symbol
_atom_site_label
_atom_site_fract_x
_atom_site_fract_y
_atom_site_fract_z
Si Si1 0.941864 0.152108 0.859761
Si Si2 0.582345 0.971173 0.133428
Si Si3 0.500069 0.898461 0.440165
Si Si4 0.745922 0.651257 0.512041
Si Si5 0.919833 0.977633 0.646983
Si Si6 0.661950 0.347540 0.314723
Si Si7 0.110707 0.893817 0.801343
Si Si8 0.187050 0.400654 0.832924
O O1 0.917582 0.250000 0.789891
O O2 0.075888 0.147211 0.894282
O O3 0.910621 0.067427 0.751321
O O4 0.883217 0.143276 0.026051
O O5 0.518398 0.907993 0.257732
O O6 0.694701 0.916799 0.081972
O O7 0.620963 0.064330 0.219339
O O8 0.500000 0.000000 0.000000
O O9 0.611793 0.854984 0.511340
O O10 0.390318 0.855378 0.514620
O O11 0.500000 0.000000 0.500000
O O12 0.780966 0.750000 0.569050
O O13 0.803551 0.566513 0.594805
O O14 0.782921 0.641343 0.332930
O O15 0.985707 0.898616 0.737586
O O16 0.000000 0.000000 0.500000
O O17 0.626520 0.250000 0.249619
O O18 0.796279 0.351130 0.308447
O O19 0.142831 0.998553 0.808440
#
# Coordination Sequence:
#
# PCOD9164113 Si02
#       8
#     4   4   4   4   4   4   4   4
#     4  11  22  40  61  91 132 175 219 265 319 395
#     4   9  19  38  62  91 116 159 204 257 323 387
#     4   9  20  39  64  85 120 165 213 254 327 382
#     4  11  21  37  64  98 131 164 213 273 321 387
#     4  11  22  38  66  94 131 163 212 269 334 385
#     4  10  20  39  61  84 121 164 211 260 308 369
#     4  10  21  40  61  85 123 176 211 255 323 387
#     4   9  18  36  61  85 118 163 208 249 328 380
#
# _framework density 20.844823000000002
#
# number of rings (size 3 to 8) (size 9 to 14) (size 15 to 20)
#    0.000    2.000    2.500    3.375    0.000    1.000 
#   13.500    3.750    0.000    0.000    0.000    0.000 
#    0.000    0.000    0.000    0.000    0.000    0.000 
#
# Total GULP energy -178326.567161 kJ/mol
# GULP energy per Si atom -5572.705224 kJ/mol
# Density = 2.079738 g / cm^3
# Si number density = 20.844823 Si / 1000 Ang^3
#
#
#
# Elastic Constant Matrix: (Units=GPa)
#
#
# Indices 1 2 3 4 5 6 
#
# 1 84.6006 30.9648 39.8727 0.0000 -8.7804 0.0000
# 2 30.9648 118.8788 21.1721 0.0000 -3.5018 0.0000
# 3 39.8727 21.1721 52.2947 0.0000 4.3644 0.0000
# 4 0.0000 0.0000 0.0000 15.5106 0.0000 7.1818
# 5 -8.7804 -3.5018 4.3644 0.0000 34.5963 0.0000
# 6 0.0000 0.0000 0.0000 7.1818 0.0000 14.9080
#
#
#
# Elastic Compliance Matrix: (Units=1/GPa)
#
#
# Indices 1 2 3 4 5 6 
#
# 1 0.020668 -0.002446 -0.015347 0.000000 0.006934 0.000000
# 2 -0.002446 0.009422 -0.001999 0.000000 0.000585 0.000000
# 3 -0.015347 -0.001999 0.032315 0.000000 -0.008174 0.000000
# 4 0.000000 0.000000 0.000000 0.082982 0.000000 -0.039976
# 5 0.006934 0.000585 -0.008174 0.000000 0.031755 0.000000
# 6 0.000000 0.000000 0.000000 -0.039976 0.000000 0.086336
#
#
# Mechanical properties :
#
#
# Convention : Reuss Voigt Hill
#
# Bulk Modulus (GPa) = 43.81658 48.86593 46.34125
# Shear Modulus (GPa) = 16.09426 23.92062 20.00744
#
# Velocity S-wave (km/s) = 2.78168 3.39124 3.10147
# Velocity P-wave (km/s) = 5.60205 6.23118 5.92497
#
# Compressibility (1/GPa) = 0.02282241
#
# Stress axis : x y z
#
# Youngs Moduli (GPa) = 48.38305 106.13218 30.94500
#
# Poissons Ratio (x) = 0.25960 0.47492
# Poissons Ratio (y) = 0.11834 0.06185
# Poissons Ratio (z) = 0.74255 0.21211
#
# Static dielectric constant tensor:
#      x y z
#    x 1.800540 0.000000 -0.004660 
#    y 0.000000 1.771700 0.000000 
#    z -0.004660 0.000000 1.754800 
# 
# From -- ./inp_files/18075.got.cif
#   From: 2010.05.17/outbox.cif.g08.bks.cpg/sg11_10_cif.got.tgz:18075.got - 2010.06.03 12:22:45.
