data_PCOD9164840
_publ_section_title
;
Structure prediction by ZEFSAII (Michael W. Deem and Ramdas Pophale) SiO2 
 PCOD9164840
Probable space group: P 21/M
;
_chemical_formula_sum "Si O2"
_cell_formula_units_Z 32
_cell_length_a 16.115426
_cell_length_b 8.767986
_cell_length_c 26.003133
_cell_angle_alpha 90.000000
_cell_angle_beta 29.753767
_cell_angle_gamma 90.000000
_cell_volume 1823.427389
_symmetry_space_group_name_H-M "P 21/M"
_symmetry_group_IT_number 11
_symmetry_cell_setting 'monoclinic'
loop_
_space_group_symop_operation_xyz
x,y,z
-x,1/2+y,-z
-x,-y,-z
x,1/2-y,z
loop_
_atom_site_type_symbol
_atom_site_label
_atom_site_fract_x
_atom_site_fract_y
_atom_site_fract_z
Si Si1 0.213851 0.932447 0.434617
Si Si2 0.350214 0.067520 0.148549
Si Si3 0.523779 0.066596 0.329635
Si Si4 0.146023 0.567522 0.352708
Si Si5 0.963511 0.433404 0.183077
Si Si6 0.268482 0.567552 0.083052
Si Si7 0.101883 0.932570 0.898132
Si Si8 0.602704 0.932570 0.397314
O O1 0.218164 0.750000 0.438305
O O2 0.213574 0.967852 0.373719
O O3 0.369715 0.007291 0.379362
O O4 0.039293 0.996649 0.550344
O O5 0.331176 0.250000 0.157716
O O6 0.263371 0.999994 0.245545
O O7 0.270491 0.996658 0.139915
O O8 0.548326 0.032150 0.039011
O O9 0.519126 0.250000 0.336874
O O10 0.702246 0.023580 0.208142
O O11 0.525746 0.993703 0.385229
O O12 0.135443 0.750000 0.353416
O O13 0.951122 0.250000 0.192888
O O14 0.970961 0.476439 0.118602
O O15 0.792844 0.506283 0.296229
O O16 0.122484 0.492714 0.128437
O O17 0.248799 0.750000 0.094744
O O18 0.094709 0.750000 0.905296
O O19 0.000000 0.000000 0.000000
O O20 0.600711 0.750000 0.399312
O O21 0.500000 0.000000 0.500000
#
# Coordination Sequence:
#
# PCOD9164840 Si02
#       8
#     4   4   4   4   4   4   4   4
#     4  10  21  37  57  82 110 143 183 226 273 323
#     4  10  21  37  57  81 111 145 182 226 273 324
#     4  10  21  38  57  81 112 145 182 225 272 321
#     4  10  21  37  57  81 111 145 182 226 273 324
#     4  10  21  38  57  81 112 145 182 225 272 321
#     4  10  21  37  57  82 110 143 183 226 273 323
#     4   9  20  36  55  79 109 143 179 221 266 316
#     4  11  22  38  59  83 111 143 181 225 272 324
#
# _framework density 17.549368999999999
#
# number of rings (size 3 to 8) (size 9 to 14) (size 15 to 20)
#    0.000    2.000    0.000    4.125    0.000    8.000 
#    0.000   10.000    0.000    0.000    0.000    0.000 
#    0.000    0.000    0.000    0.000    0.000    0.000 
#
# Total GULP energy -178726.501451 kJ/mol
# GULP energy per Si atom -5585.203170 kJ/mol
# Density = 1.750943 g / cm^3
# Si number density = 17.549369 Si / 1000 Ang^3
#
#
#
# Elastic Constant Matrix: (Units=GPa)
#
#
# Indices 1 2 3 4 5 6 
#
# 1 149.1603 73.9285 109.9467 0.0000 -18.6355 0.0000
# 2 73.9285 94.8136 72.7460 0.0000 -0.8192 0.0000
# 3 109.9467 72.7460 152.2656 0.0000 20.3889 0.0000
# 4 0.0000 0.0000 0.0000 35.1808 0.0000 1.2024
# 5 -18.6355 -0.8192 20.3889 0.0000 30.2617 0.0000
# 6 0.0000 0.0000 0.0000 1.2024 0.0000 33.2998
#
#
#
# Elastic Compliance Matrix: (Units=1/GPa)
#
#
# Indices 1 2 3 4 5 6 
#
# 1 0.035674 -0.005481 -0.028647 0.000000 0.041121 0.000000
# 2 -0.005481 0.018697 -0.005046 0.000000 0.000530 0.000000
# 3 -0.028647 -0.005046 0.035221 0.000000 -0.041508 0.000000
# 4 0.000000 0.000000 0.000000 0.028460 0.000000 -0.001028
# 5 0.041121 0.000530 -0.041508 0.000000 0.086348 0.000000
# 6 0.000000 0.000000 0.000000 -0.001028 0.000000 0.030067
#
#
# Mechanical properties :
#
#
# Convention : Reuss Voigt Hill
#
# Bulk Modulus (GPa) = 88.93152 101.05356 94.99254
# Shear Modulus (GPa) = 15.79464 29.05633 22.42549
#
# Velocity S-wave (km/s) = 3.00327 4.07343 3.57858
# Velocity P-wave (km/s) = 7.92536 8.93483 8.44519
#
# Compressibility (1/GPa) = 0.01124461
#
# Stress axis : x y z
#
# Youngs Moduli (GPa) = 28.03151 53.48520 28.39205
#
# Poissons Ratio (x) = 0.29317 0.81334
# Poissons Ratio (y) = 0.15365 0.14325
# Poissons Ratio (z) = 0.80301 0.26986
#
# Static dielectric constant tensor:
#      x y z
#    x 1.571980 0.000000 0.000550 
#    y 0.000000 1.589910 0.000000 
#    z 0.000550 0.000000 1.572860 
# 
# From -- ./inp_files/69036.got.cif
#   From: 2010.05.17/outbox.cif.g08.bks.cpg/sg11_35_cif.got.tgz:69036.got - 2010.06.03 12:22:45.
