data_PCOD9164631
_publ_section_title
;
Structure prediction by ZEFSAII (Michael W. Deem and Ramdas Pophale) SiO2 
 PCOD9164631
Probable space group: P 21/M
;
_chemical_formula_sum "Si O2"
_cell_formula_units_Z 32
_cell_length_a 15.492860
_cell_length_b 8.527822
_cell_length_c 26.636261
_cell_angle_alpha 90.000000
_cell_angle_beta 150.532180
_cell_angle_gamma 90.000000
_cell_volume 1731.212577
_symmetry_space_group_name_H-M "P 21/M"
_symmetry_group_IT_number 11
_symmetry_cell_setting 'monoclinic'
loop_
_space_group_symop_operation_xyz
x,y,z
-x,1/2+y,-z
-x,-y,-z
x,1/2-y,z
loop_
_atom_site_type_symbol
_atom_site_label
_atom_site_fract_x
_atom_site_fract_y
_atom_site_fract_z
Si Si1 0.451929 0.937540 0.221734
Si Si2 0.641391 0.439902 0.937261
Si Si3 0.392743 0.561647 0.897424
Si Si4 0.733834 0.061551 0.504291
Si Si5 0.650780 0.560429 0.723773
Si Si6 0.996735 0.939001 0.719603
Si Si7 0.984151 0.558572 0.828264
Si Si8 0.829444 0.062156 0.441180
O O1 0.443251 0.750000 0.219439
O O2 0.379285 0.989603 0.130983
O O3 0.354954 0.004521 0.221634
O O4 0.653233 0.991598 0.328366
O O5 0.634431 0.250000 0.935325
O O6 0.488587 0.503060 0.895850
O O7 0.828986 0.490086 0.054493
O O8 0.395530 0.750000 0.900179
O O9 0.189841 0.509170 0.798751
O O10 0.500000 0.500000 0.000000
O O11 0.733141 0.250000 0.507921
O O12 0.531361 0.009745 0.395125
O O13 0.827076 0.018923 0.498893
O O14 0.842177 0.994128 0.605163
O O15 0.649591 0.750000 0.723789
O O16 0.820676 0.506498 0.779264
O O17 0.998192 0.750000 0.720582
O O18 0.970126 0.992519 0.763451
O O19 0.982673 0.750000 0.827657
O O20 0.820251 0.250000 0.433243
O O21 0.000000 0.000000 0.500000
#
# Coordination Sequence:
#
# PCOD9164631 Si02
#       8
#     4   4   4   4   4   4   4   4
#     4  10  21  36  56  83 114 146 184 233 283 329
#     4  10  21  38  58  82 114 152 188 227 279 336
#     4  11  22  37  57  82 113 149 187 230 279 332
#     4   9  20  36  53  79 111 142 181 228 279 327
#     4   9  19  38  61  80 108 150 187 230 283 334
#     4  10  21  36  56  82 110 147 188 224 271 333
#     4   9  18  37  60  80 108 148 190 227 277 338
#     4  10  21  37  56  79 110 148 188 230 280 336
#
# _framework density 18.484155000000001
#
# number of rings (size 3 to 8) (size 9 to 14) (size 15 to 20)
#    0.000    2.250    1.250    1.875    1.750    5.500 
#    0.000    1.250    0.000    0.000    0.000    0.000 
#    0.000    0.000    0.000    0.000    0.000    0.000 
#
# Total GULP energy -178620.216300 kJ/mol
# GULP energy per Si atom -5581.881759 kJ/mol
# Density = 1.844208 g / cm^3
# Si number density = 18.484155 Si / 1000 Ang^3
#
#
#
# Elastic Constant Matrix: (Units=GPa)
#
#
# Indices 1 2 3 4 5 6 
#
# 1 181.3890 26.6784 101.9895 0.0000 3.5916 0.0000
# 2 26.6784 13.8423 23.7351 0.0000 -2.0845 0.0000
# 3 101.9895 23.7351 110.2543 0.0000 -32.4511 0.0000
# 4 0.0000 0.0000 0.0000 24.9074 0.0000 -4.2448
# 5 3.5916 -2.0845 -32.4511 0.0000 31.1690 0.0000
# 6 0.0000 0.0000 0.0000 -4.2448 0.0000 27.9520
#
#
#
# Elastic Compliance Matrix: (Units=1/GPa)
#
#
# Indices 1 2 3 4 5 6 
#
# 1 0.029684 0.011287 -0.044226 0.000000 -0.048711 0.000000
# 2 0.011287 0.135501 -0.053818 0.000000 -0.048271 0.000000
# 3 -0.044226 -0.053818 0.089403 0.000000 0.094578 0.000000
# 4 0.000000 0.000000 0.000000 0.041215 0.000000 0.006259
# 5 -0.048711 -0.048271 0.094578 0.000000 0.132936 0.000000
# 6 0.000000 0.000000 0.000000 0.006259 0.000000 0.036726
#
#
# Mechanical properties :
#
#
# Convention : Reuss Voigt Hill
#
# Bulk Modulus (GPa) = 12.33444 67.81019 40.07231
# Shear Modulus (GPa) = 7.50745 27.01120 17.25933
#
# Velocity S-wave (km/s) = 2.01752 3.82686 3.05902
# Velocity P-wave (km/s) = 3.48061 7.50278 5.84835
#
# Compressibility (1/GPa) = 0.08107383
#
# Stress axis : x y z
#
# Youngs Moduli (GPa) = 33.68784 7.38002 11.18526
#
# Poissons Ratio (x) = -0.08330 0.49468
# Poissons Ratio (y) = -0.38023 0.60197
# Poissons Ratio (z) = 1.48988 0.39718
#
# Static dielectric constant tensor:
#      x y z
#    x 1.622970 0.000000 -0.000210 
#    y 0.000000 1.637850 0.000000 
#    z -0.000210 0.000000 1.616460 
# 
# From -- ./inp_files/51752.got.cif
#   From: 2010.05.17/outbox.cif.g08.bks.cpg/sg11_26_cif.got.tgz:51752.got - 2010.06.03 12:22:45.
