data_PCOD9164082
_publ_section_title
;
Structure prediction by ZEFSAII (Michael W. Deem and Ramdas Pophale) SiO2 
 PCOD9164082
Probable space group: P 21/M
;
_chemical_formula_sum "Si O2"
_cell_formula_units_Z 26
_cell_length_a 8.859997
_cell_length_b 13.004299
_cell_length_c 19.341813
_cell_angle_alpha 90.000000
_cell_angle_beta 139.549762
_cell_angle_gamma 90.000000
_cell_volume 1445.839538
_symmetry_space_group_name_H-M "P 21/M"
_symmetry_group_IT_number 11
_symmetry_cell_setting 'monoclinic'
loop_
_space_group_symop_operation_xyz
x,y,z
-x,1/2+y,-z
-x,-y,-z
x,1/2-y,z
loop_
_atom_site_type_symbol
_atom_site_label
_atom_site_fract_x
_atom_site_fract_y
_atom_site_fract_z
Si Si1 0.800092 0.250000 0.249644
Si Si2 0.330082 0.967892 0.733122
Si Si3 0.392376 0.064260 0.901336
Si Si4 0.458405 0.452954 0.335653
Si Si5 0.826276 0.750000 0.728950
Si Si6 0.319662 0.750000 0.950922
Si Si7 0.084608 0.627743 0.432641
Si Si8 0.855130 0.130687 0.709918
O O1 0.762797 0.353035 0.281197
O O2 0.648828 0.250000 0.123560
O O3 0.057931 0.250000 0.306642
O O4 0.519203 0.960729 0.738965
O O5 0.415544 0.009037 0.836451
O O6 0.139904 0.053288 0.642974
O O7 0.120177 0.092718 0.817244
O O8 0.559273 0.159679 0.966372
O O9 0.500000 0.000000 0.000000
O O10 0.314719 0.353153 0.308669
O O11 0.716484 0.427128 0.453324
O O12 0.332147 0.553450 0.322399
O O13 0.042829 0.750000 0.857037
O O14 0.048110 0.750000 0.438256
O O15 0.164369 0.627293 0.380205
O O16 0.829260 0.250000 0.722668
#
# Coordination Sequence:
#
# PCOD9164082 Si02
#       8
#     2   4   4   4   2   2   4   4
#     4  10  21  41  62  91 116 162 215 244 297 373
#     4  11  24  38  64  94 125 162 205 256 309 369
#     4  11  19  40  66  87 116 163 216 249 295 371
#     4  12  22  41  61  91 135 156 196 266 319 354
#     4  10  21  39  65  89 116 162 208 254 300 368
#     4  10  20  38  67  86 110 162 217 246 293 355
#     4  10  22  42  63  87 121 171 211 243 300 378
#     4  10  22  38  60  92 123 159 212 255 301 369
#
# _framework density 17.982631000000001
#
# number of rings (size 3 to 8) (size 9 to 14) (size 15 to 20)
#    0.462    0.923    3.077    4.154    1.077    0.615 
#    1.385    3.077    0.000    0.000    0.000    0.000 
#    0.000    0.000    0.000    0.000    0.000    0.000 
#
# Total GULP energy -144813.393770 kJ/mol
# GULP energy per Si atom -5569.745914 kJ/mol
# Density = 1.794170 g / cm^3
# Si number density = 17.982631 Si / 1000 Ang^3
#
#
#
# Elastic Constant Matrix: (Units=GPa)
#
#
# Indices 1 2 3 4 5 6 
#
# 1 54.9014 21.8988 -28.8034 0.0000 -11.2347 0.0000
# 2 21.8988 109.1652 -6.2806 0.0000 -16.7705 0.0000
# 3 -28.8034 -6.2806 47.7442 0.0000 -15.1849 0.0000
# 4 0.0000 0.0000 0.0000 31.7624 0.0000 7.7554
# 5 -11.2347 -16.7705 -15.1849 0.0000 5.4952 0.0000
# 6 0.0000 0.0000 0.0000 7.7554 0.0000 20.6898
#
#
#
# Elastic Compliance Matrix: (Units=1/GPa)
#
#
# Indices 1 2 3 4 5 6 
#
# 1 0.006680 -0.008841 -0.011315 0.000000 -0.044590 0.000000
# 2 -0.008841 0.009325 -0.006647 0.000000 -0.007987 0.000000
# 3 -0.011315 -0.006647 -0.004661 0.000000 -0.056299 0.000000
# 4 0.000000 0.000000 0.000000 0.034656 0.000000 -0.012990
# 5 -0.044590 -0.007987 -0.056299 0.000000 -0.089131 0.000000
# 6 0.000000 0.000000 0.000000 -0.012990 0.000000 0.053202
#
#
# Mechanical properties :
#
#
# Convention : Reuss Voigt Hill
#
# Bulk Modulus (GPa) = -23.66132 20.60450 -1.52841
# Shear Modulus (GPa) = 100.82908 26.58922 63.70915
#
# Velocity S-wave (km/s) = 7.49613 3.84944 5.95861
# Velocity P-wave (km/s) = 7.85724 5.58931 6.81823
#
# Compressibility (1/GPa) = -0.04226308
#
# Stress axis : x y z
#
# Youngs Moduli (GPa) = 149.69495 107.24375 -214.53281
#
# Poissons Ratio (x) = 0.94816 -2.42737
# Poissons Ratio (y) = 1.32348 -1.42608
# Poissons Ratio (z) = 1.69375 0.71289
#
# Static dielectric constant tensor:
#      x y z
#    x 1.580520 0.000000 0.007090 
#    y 0.000000 1.819620 0.000000 
#    z 0.007090 0.000000 1.605970 
# 
# From -- ./inp_files/47096.got.cif
#   From: 2010.05.17/outbox.cif.g08.bks.cpg/sg11_24_cif.got.tgz:47096.got - 2010.06.03 12:22:45.
