data_PCOD9164417
_publ_section_title
;
Structure prediction by ZEFSAII (Michael W. Deem and Ramdas Pophale) SiO2 
 PCOD9164417
Probable space group: P 21/M
;
_chemical_formula_sum "Si O2"
_cell_formula_units_Z 14
_cell_length_a 7.977743
_cell_length_b 10.727871
_cell_length_c 6.861620
_cell_angle_alpha 90.000000
_cell_angle_beta 113.963225
_cell_angle_gamma 90.000000
_cell_volume 536.629335
_symmetry_space_group_name_H-M "P 21/M"
_symmetry_group_IT_number 11
_symmetry_cell_setting 'monoclinic'
loop_
_space_group_symop_operation_xyz
x,y,z
-x,1/2+y,-z
-x,-y,-z
x,1/2-y,z
loop_
_atom_site_type_symbol
_atom_site_label
_atom_site_fract_x
_atom_site_fract_y
_atom_site_fract_z
Si Si1 0.397869 0.250000 0.028553
Si Si2 0.198729 0.001363 0.384993
Si Si3 0.536479 0.395297 0.786713
Si Si4 0.995039 0.250000 0.712091
Si Si5 0.099107 0.250000 0.188305
O O1 0.511886 0.368239 0.006105
O O2 0.215684 0.250000 0.803325
O O3 0.309825 0.250000 0.199126
O O4 0.360813 0.040581 0.605592
O O5 0.076427 0.122976 0.292200
O O6 0.290978 0.968186 0.218365
O O7 0.094333 0.877511 0.399867
O O8 0.547984 0.250000 0.717116
O O9 0.976373 0.250000 0.939148
#
# Coordination Sequence:
#
# PCOD9164417 Si02
#       5
#     2   4   4   2   2
#     4   8  20  36  48  84 114 126 178 216 276 298
#     4  11  19  36  62  72 107 141 186 206 266 307
#     4   9  19  37  53  81 101 138 176 230 245 310
#     4  10  21  34  55  82 106 144 170 220 257 326
#     4  10  21  34  55  82 106 144 170 220 257 326
#
# _framework density 26.088771999999999
#
# number of rings (size 3 to 8) (size 9 to 14) (size 15 to 20)
#    1.714    0.571    2.857    0.857    0.000    2.286 
#    0.000    0.000    0.000    0.000    0.000    0.000 
#    0.000    0.000    0.000    0.000    0.000    0.000 
#
# Total GULP energy -78232.476867 kJ/mol
# GULP energy per Si atom -5588.034062 kJ/mol
# Density = 2.602939 g / cm^3
# Si number density = 26.088772 Si / 1000 Ang^3
#
#
#
# Elastic Constant Matrix: (Units=GPa)
#
#
# Indices 1 2 3 4 5 6 
#
# 1 85.8638 40.7172 28.6180 0.0000 -27.1012 0.0000
# 2 40.7172 236.0497 33.1856 0.0000 6.4579 0.0000
# 3 28.6180 33.1856 60.3276 0.0000 -10.1824 0.0000
# 4 0.0000 0.0000 0.0000 33.4338 0.0000 21.7754
# 5 -27.1012 6.4579 -10.1824 0.0000 37.5568 0.0000
# 6 0.0000 0.0000 0.0000 21.7754 0.0000 -62.0208
#
#
#
# Elastic Compliance Matrix: (Units=1/GPa)
#
#
# Indices 1 2 3 4 5 6 
#
# 1 0.018686 -0.002839 -0.005182 0.000000 0.012567 0.000000
# 2 -0.002839 0.005110 -0.002052 0.000000 -0.003483 0.000000
# 3 -0.005182 -0.002052 0.020531 0.000000 0.002180 0.000000
# 4 0.000000 0.000000 0.000000 0.024343 0.000000 0.008547
# 5 0.012567 -0.003483 0.002180 0.000000 0.036885 0.000000
# 6 0.000000 0.000000 0.000000 0.008547 0.000000 -0.013123
#
#
# Mechanical properties :
#
#
# Convention : Reuss Voigt Hill
#
# Bulk Modulus (GPa) = 41.35289 65.25363 53.30326
# Shear Modulus (GPa) = 41.44634 20.44199 30.94416
#
# Velocity S-wave (km/s) = 3.99013 2.80224 3.44773
# Velocity P-wave (km/s) = 6.09208 5.96125 6.02702
#
# Compressibility (1/GPa) = 0.02418211
#
# Stress axis : x y z
#
# Youngs Moduli (GPa) = 53.51599 195.70017 48.70655
#
# Poissons Ratio (x) = 0.55551 0.25238
# Poissons Ratio (y) = 0.15191 0.09996
# Poissons Ratio (z) = 0.27730 0.40163
#
# Static dielectric constant tensor:
#      x y z
#    x 2.092930 0.000000 -0.060870 
#    y 0.000000 2.072470 0.000000 
#    z -0.060870 0.000000 1.979620 
# 
# From -- ./inp_files/11006.got.cif
#   From: 2010.05.17/outbox.cif.g08.bks.cpg/sg11_6_cif.got.tgz:11006.got - 2010.06.03 12:22:45.
