data_PCOD9164493
_publ_section_title
;
Structure prediction by ZEFSAII (Michael W. Deem and Ramdas Pophale) SiO2 
 PCOD9164493
Probable space group: P 21/M
;
_chemical_formula_sum "Si O2"
_cell_formula_units_Z 28
_cell_length_a 10.130308
_cell_length_b 21.632610
_cell_length_c 5.637008
_cell_angle_alpha 90.000000
_cell_angle_beta 70.438482
_cell_angle_gamma 90.000000
_cell_volume 1164.022477
_symmetry_space_group_name_H-M "P 21/M"
_symmetry_group_IT_number 11
_symmetry_cell_setting 'monoclinic'
loop_
_space_group_symop_operation_xyz
x,y,z
-x,1/2+y,-z
-x,-y,-z
x,1/2-y,z
loop_
_atom_site_type_symbol
_atom_site_label
_atom_site_fract_x
_atom_site_fract_y
_atom_site_fract_z
Si Si1 0.375861 0.515784 0.294665
Si Si2 0.142207 0.942989 0.104679
Si Si3 0.405105 0.373732 0.193339
Si Si4 0.431575 0.124347 0.679096
Si Si5 0.105888 0.319029 0.433726
Si Si6 0.164576 0.447880 0.754007
Si Si7 0.933020 0.318798 0.043534
O O1 0.280354 0.556358 0.177411
O O2 0.429526 0.448840 0.165185
O O3 0.488042 0.559042 0.353125
O O4 0.260277 0.493371 0.548982
O O5 0.981619 0.937259 0.294053
O O6 0.152532 0.882676 0.930446
O O7 0.135502 0.012147 0.004698
O O8 0.467650 0.348636 0.401614
O O9 0.237938 0.364407 0.323961
O O10 0.455436 0.344389 0.917489
O O11 0.265614 0.108016 0.770625
O O12 0.169532 0.250000 0.380526
O O13 0.024418 0.317921 0.739049
O O14 0.012014 0.325257 0.250844
O O15 0.866310 0.250000 0.089561
#
# Coordination Sequence:
#
# PCOD9164493 Si02
#       7
#     4   4   4   4   4   4   4
#     4  11  23  35  57  85 120 163 189 234 288 365
#     4  11  22  34  58  85 119 149 194 244 293 339
#     4  11  20  36  58  84 115 150 193 242 282 341
#     4  11  23  38  58  84 121 160 193 226 293 354
#     4  10  21  38  61  86 115 152 196 245 295 339
#     4  10  21  35  53  89 116 151 189 246 289 340
#     4  10  22  38  57  83 116 155 193 236 292 351
#
# _framework density 24.054516
#
# number of rings (size 3 to 8) (size 9 to 14) (size 15 to 20)
#    0.000    1.429    1.429    6.000    6.000    0.000 
#    0.000    0.000    0.000    1.714    0.000    0.000 
#    0.000    0.000    0.000    0.000    0.000    0.000 
#
# Total GULP energy -155912.298147 kJ/mol
# GULP energy per Si atom -5568.296362 kJ/mol
# Density = 2.399977 g / cm^3
# Si number density = 24.054516 Si / 1000 Ang^3
#
#
#
# Elastic Constant Matrix: (Units=GPa)
#
#
# Indices 1 2 3 4 5 6 
#
# 1 95.4535 7.9862 20.4002 0.0000 17.3746 0.0000
# 2 7.9862 28.6226 -2.1197 0.0000 9.2769 0.0000
# 3 20.4002 -2.1197 140.5310 0.0000 34.8308 0.0000
# 4 0.0000 0.0000 0.0000 19.7723 0.0000 10.4906
# 5 17.3746 9.2769 34.8308 0.0000 31.8347 0.0000
# 6 0.0000 0.0000 0.0000 10.4906 0.0000 3.3272
#
#
#
# Elastic Compliance Matrix: (Units=1/GPa)
#
#
# Indices 1 2 3 4 5 6 
#
# 1 0.011687 -0.001477 -0.000336 0.000000 -0.005581 0.000000
# 2 -0.001477 0.041088 0.004942 0.000000 -0.016575 0.000000
# 3 -0.000336 0.004942 0.010360 0.000000 -0.012592 0.000000
# 4 0.000000 0.000000 0.000000 -0.075163 0.000000 0.236989
# 5 -0.005581 -0.016575 -0.012592 0.000000 0.053066 0.000000
# 6 0.000000 0.000000 0.000000 0.236989 0.000000 -0.446669
#
#
# Mechanical properties :
#
#
# Convention : Reuss Voigt Hill
#
# Bulk Modulus (GPa) = 14.41038 35.23784 24.82411
# Shear Modulus (GPa) = -12.86144 26.87620 7.00738
#
# Velocity S-wave (km/s) = -2.31482 3.34624 1.70864
# Velocity P-wave (km/s) = 1.06808 5.44157 3.77292
#
# Compressibility (1/GPa) = 0.06939441
#
# Stress axis : x y z
#
# Youngs Moduli (GPa) = 85.56151 24.33828 96.52399
#
# Poissons Ratio (x) = 0.03595 0.03239
# Poissons Ratio (y) = 0.12637 -0.47704
# Poissons Ratio (z) = 0.02871 -0.12028
#
# Static dielectric constant tensor:
#      x y z
#    x 1.960300 0.000000 0.000060 
#    y 0.000000 1.972700 0.000000 
#    z 0.000060 0.000000 2.096780 
# 
# From -- ./inp_files/5220.got.cif
#   From: 2010.05.17/outbox.cif.g08.bks.cpg/sg11_3_cif.got.tgz:5220.got - 2010.06.03 12:22:45.
