data_PCOD9164288
_publ_section_title
;
Structure prediction by ZEFSAII (Michael W. Deem and Ramdas Pophale) SiO2 
 PCOD9164288
Probable space group: P 21/M
;
_chemical_formula_sum "Si O2"
_cell_formula_units_Z 18
_cell_length_a 6.706824
_cell_length_b 19.158978
_cell_length_c 9.226567
_cell_angle_alpha 90.000000
_cell_angle_beta 47.969957
_cell_angle_gamma 90.000000
_cell_volume 880.638557
_symmetry_space_group_name_H-M "P 21/M"
_symmetry_group_IT_number 11
_symmetry_cell_setting 'monoclinic'
loop_
_space_group_symop_operation_xyz
x,y,z
-x,1/2+y,-z
-x,-y,-z
x,1/2-y,z
loop_
_atom_site_type_symbol
_atom_site_label
_atom_site_fract_x
_atom_site_fract_y
_atom_site_fract_z
Si Si1 0.108371 0.750000 0.874640
Si Si2 0.780879 0.870068 0.943501
Si Si3 0.792282 0.750000 0.317235
Si Si4 0.924775 0.482335 0.372893
Si Si5 0.366460 0.100366 0.652802
Si Si6 0.603724 0.250000 0.980401
O O1 0.046189 0.820313 0.819498
O O2 0.355881 0.750000 0.864431
O O3 0.859826 0.750000 0.112076
O O4 0.844975 0.936713 0.814973
O O5 0.708921 0.893520 0.140971
O O6 0.552441 0.819122 0.991617
O O7 0.643957 0.677461 0.413424
O O8 0.094934 0.750000 0.232556
O O9 0.853981 0.552232 0.318895
O O10 0.652532 0.436671 0.502377
O O11 0.000000 0.500000 0.500000
#
# Coordination Sequence:
#
# PCOD9164288 Si02
#       6
#     2   4   2   4   4   2
#     4   7  17  35  60  92 119 152 209 246 307 362
#     4  10  20  40  67  89 125 166 202 262 308 364
#     4   8  18  40  65  90 116 161 207 255 312 362
#     4  11  26  41  59  98 127 165 216 246 314 379
#     4  10  23  44  63  88 130 163 206 262 308 375
#     4   9  19  35  67 102 115 155 226 249 307 380
#
# _framework density 20.439713000000001
#
# number of rings (size 3 to 8) (size 9 to 14) (size 15 to 20)
#    0.667    1.778    0.000    1.333    3.111    6.222 
#    0.000    2.222    0.000    0.000    0.000    0.000 
#    0.000    0.000    0.000    0.000    0.000    0.000 
#
# Total GULP energy -100376.154207 kJ/mol
# GULP energy per Si atom -5576.453012 kJ/mol
# Density = 2.039319 g / cm^3
# Si number density = 20.439713 Si / 1000 Ang^3
#
#
#
# Elastic Constant Matrix: (Units=GPa)
#
#
# Indices 1 2 3 4 5 6 
#
# 1 107.1118 42.4292 11.3917 0.0000 5.5824 0.0000
# 2 42.4292 135.9985 24.6660 0.0000 1.3604 0.0000
# 3 11.3917 24.6660 43.4144 0.0000 -1.8648 0.0000
# 4 0.0000 0.0000 0.0000 -18.5892 0.0000 -64.6880
# 5 5.5824 1.3604 -1.8648 0.0000 27.1722 0.0000
# 6 0.0000 0.0000 0.0000 -64.6880 0.0000 -70.5336
#
#
#
# Elastic Compliance Matrix: (Units=1/GPa)
#
#
# Indices 1 2 3 4 5 6 
#
# 1 0.010815 -0.003145 -0.001143 0.000000 -0.002143 0.000000
# 2 -0.003145 0.009127 -0.004365 0.000000 -0.000110 0.000000
# 3 -0.001143 -0.004365 0.025910 0.000000 0.002231 0.000000
# 4 0.000000 0.000000 0.000000 0.024547 0.000000 -0.022513
# 5 -0.002143 -0.000110 0.002231 0.000000 0.037401 0.000000
# 6 0.000000 0.000000 0.000000 -0.022513 0.000000 0.006469
#
#
# Mechanical properties :
#
#
# Convention : Reuss Voigt Hill
#
# Bulk Modulus (GPa) = 35.03190 49.27761 42.15475
# Shear Modulus (GPa) = 35.43799 1.47907 18.45853
#
# Velocity S-wave (km/s) = 4.16839 0.85159 3.00838
# Velocity P-wave (km/s) = 6.35166 5.01279 5.72152
#
# Compressibility (1/GPa) = 0.02854541
#
# Stress axis : x y z
#
# Youngs Moduli (GPa) = 92.46203 109.56345 38.59582
#
# Poissons Ratio (x) = 0.34463 0.04411
# Poissons Ratio (y) = 0.29084 0.16847
# Poissons Ratio (z) = 0.10567 0.47824
#
# Static dielectric constant tensor:
#      x y z
#    x 1.720750 0.000000 -0.022300 
#    y 0.000000 1.748390 0.000000 
#    z -0.022300 0.000000 1.731930 
# 
# From -- ./inp_files/10044.got.cif
#   From: 2010.05.17/outbox.cif.g08.bks.cpg/sg11_6_cif.got.tgz:10044.got - 2010.06.03 12:22:45.
