data_PCOD9164198
_publ_section_title
;
Structure prediction by ZEFSAII (Michael W. Deem and Ramdas Pophale) SiO2 
 PCOD9164198
Probable space group: P 21/M
;
_chemical_formula_sum "Si O2"
_cell_formula_units_Z 24
_cell_length_a 7.380907
_cell_length_b 11.832945
_cell_length_c 12.696975
_cell_angle_alpha 90.000000
_cell_angle_beta 90.980806
_cell_angle_gamma 90.000000
_cell_volume 1108.764235
_symmetry_space_group_name_H-M "P 21/M"
_symmetry_group_IT_number 11
_symmetry_cell_setting 'monoclinic'
loop_
_space_group_symop_operation_xyz
x,y,z
-x,1/2+y,-z
-x,-y,-z
x,1/2-y,z
loop_
_atom_site_type_symbol
_atom_site_label
_atom_site_fract_x
_atom_site_fract_y
_atom_site_fract_z
Si Si1 0.314423 0.873833 0.147640
Si Si2 0.512416 0.568319 0.715926
Si Si3 0.119632 0.122664 0.864133
Si Si4 0.133976 0.129785 0.400417
Si Si5 0.707006 0.376848 0.083714
Si Si6 0.827012 0.549488 0.365405
O O1 0.354627 0.750000 0.189537
O O2 0.393303 0.961604 0.228418
O O3 0.098206 0.884103 0.131202
O O4 0.392017 0.883689 0.030180
O O5 0.672955 0.626511 0.654615
O O6 0.419592 0.627396 0.815171
O O7 0.351052 0.528669 0.638398
O O8 0.171436 0.250000 0.906773
O O9 0.175597 0.120199 0.741809
O O10 0.190150 0.999270 0.906365
O O11 0.043759 0.250000 0.376589
O O12 0.161346 0.115504 0.525557
O O13 0.004108 0.029930 0.361340
O O14 0.801277 0.250000 0.081834
#
# Coordination Sequence:
#
# PCOD9164198 Si02
#       6
#     4   4   4   4   4   4
#     4  10  21  39  62  92 127 168 212 261 312 374
#     4  11  22  41  62  93 125 166 209 259 313 376
#     4  10  20  39  65  92 125 165 216 260 314 378
#     4  11  23  41  63  89 124 163 207 261 319 376
#     4  10  22  39  62  93 131 167 211 261 315 374
#     4  10  23  41  63  91 123 159 211 256 316 372
#
# _framework density 21.645720000000001
#
# number of rings (size 3 to 8) (size 9 to 14) (size 15 to 20)
#    0.000    1.667    1.667    2.500    0.000    6.667 
#    0.000    1.667    0.000    0.000    0.000    0.000 
#    0.000    0.000    0.000    0.000    0.000    0.000 
#
# Total GULP energy -133834.759868 kJ/mol
# GULP energy per Si atom -5576.448328 kJ/mol
# Density = 2.159645 g / cm^3
# Si number density = 21.645720 Si / 1000 Ang^3
#
#
#
# Elastic Constant Matrix: (Units=GPa)
#
#
# Indices 1 2 3 4 5 6 
#
# 1 76.6159 35.0385 -0.9206 0.0000 -8.2961 0.0000
# 2 35.0385 159.0949 21.9623 0.0000 0.3502 0.0000
# 3 -0.9206 21.9623 35.7602 0.0000 -3.9744 0.0000
# 4 0.0000 0.0000 0.0000 15.7383 0.0000 -9.7074
# 5 -8.2961 0.3502 -3.9744 0.0000 19.0843 0.0000
# 6 0.0000 0.0000 0.0000 -9.7074 0.0000 22.0890
#
#
#
# Elastic Compliance Matrix: (Units=1/GPa)
#
#
# Indices 1 2 3 4 5 6 
#
# 1 0.015760 -0.004001 0.003719 0.000000 0.007699 0.000000
# 2 -0.004001 0.007903 -0.005289 0.000000 -0.002986 0.000000
# 3 0.003719 -0.005289 0.032245 0.000000 0.008429 0.000000
# 4 0.000000 0.000000 0.000000 0.087167 0.000000 0.038307
# 5 0.007699 -0.002986 0.008429 0.000000 0.057556 0.000000
# 6 0.000000 0.000000 0.000000 0.038307 0.000000 0.062106
#
#
# Mechanical properties :
#
#
# Convention : Reuss Voigt Hill
#
# Bulk Modulus (GPa) = 22.33838 42.62571 32.48204
# Shear Modulus (GPa) = 17.31288 25.74171 21.52729
#
# Velocity S-wave (km/s) = 2.83119 3.45226 3.15704
# Velocity P-wave (km/s) = 4.58584 5.96875 5.32240
#
# Compressibility (1/GPa) = 0.04476600
#
# Stress axis : x y z
#
# Youngs Moduli (GPa) = 63.45020 126.52675 31.01284
#
# Poissons Ratio (x) = 0.50628 -0.11533
# Poissons Ratio (y) = 0.25389 0.16402
# Poissons Ratio (z) = -0.23596 0.66918
#
# Static dielectric constant tensor:
#      x y z
#    x 1.800610 0.000000 -0.027540 
#    y 0.000000 1.848890 0.000000 
#    z -0.027540 0.000000 1.748480 
# 
# From -- ./inp_files/31128.got.cif
#   From: 2010.05.17/outbox.cif.g08.bks.cpg/sg11_16_cif.got.tgz:31128.got - 2010.06.03 12:22:45.
