data_PCOD9164719
_publ_section_title
;
Structure prediction by ZEFSAII (Michael W. Deem and Ramdas Pophale) SiO2 
 PCOD9164719
Probable space group: P 21/M
;
_chemical_formula_sum "Si O2"
_cell_formula_units_Z 32
_cell_length_a 12.587935
_cell_length_b 8.431227
_cell_length_c 22.496703
_cell_angle_alpha 90.000000
_cell_angle_beta 136.839919
_cell_angle_gamma 90.000000
_cell_volume 1633.221343
_symmetry_space_group_name_H-M "P 21/M"
_symmetry_group_IT_number 11
_symmetry_cell_setting 'monoclinic'
loop_
_space_group_symop_operation_xyz
x,y,z
-x,1/2+y,-z
-x,-y,-z
x,1/2-y,z
loop_
_atom_site_type_symbol
_atom_site_label
_atom_site_fract_x
_atom_site_fract_y
_atom_site_fract_z
Si Si1 0.668933 0.060340 0.589347
Si Si2 0.664783 0.941664 0.136441
Si Si3 0.691888 0.058816 0.018263
Si Si4 0.610100 0.556743 0.347400
Si Si5 0.725683 0.057702 0.748033
Si Si6 0.840138 0.560216 0.546199
Si Si7 0.020116 0.939768 0.941432
Si Si8 0.182537 0.057923 0.678492
O O1 0.663143 0.250000 0.588045
O O2 0.710554 0.006704 0.673030
O O3 0.500000 0.000000 0.500000
O O4 0.792812 0.005357 0.591137
O O5 0.666633 0.750000 0.135648
O O6 0.759304 0.993603 0.232775
O O7 0.729208 0.003764 0.100310
O O8 0.484416 0.993939 0.067347
O O9 0.691180 0.250000 0.016989
O O10 0.820081 0.002211 0.023932
O O11 0.609390 0.750000 0.346988
O O12 0.432495 0.506772 0.283179
O O13 0.712361 0.506510 0.445836
O O14 0.696576 0.505626 0.322811
O O15 0.731780 0.250000 0.751538
O O16 0.876460 0.993269 0.842248
O O17 0.835771 0.750000 0.546471
O O18 0.010318 0.504403 0.596903
O O19 0.025631 0.750000 0.945112
O O20 0.000000 0.000000 0.000000
O O21 0.178420 0.250000 0.676022
#
# Coordination Sequence:
#
# PCOD9164719 Si02
#       8
#     4   4   4   4   4   4   4   4
#     4  11  22  39  63  91 123 161 205 251 302 360
#     4   9  19  36  60  85 109 146 192 239 294 352
#     4   9  20  39  60  83 114 150 189 235 291 350
#     4   9  19  38  61  83 115 159 200 241 296 359
#     4  10  22  41  64  88 119 161 203 246 301 360
#     4  11  22  38  58  85 122 160 200 245 299 352
#     4  11  25  42  63  92 123 157 198 245 300 359
#     4  10  21  36  59  87 113 150 201 246 295 353
#
# _framework density 19.593181999999999
#
# number of rings (size 3 to 8) (size 9 to 14) (size 15 to 20)
#    0.000    2.000    1.250    1.500    3.500    2.500 
#    0.000    1.250    0.000    0.000    0.000    0.000 
#    0.000    0.000    0.000    0.000    0.000    0.000 
#
# Total GULP energy -178760.993008 kJ/mol
# GULP energy per Si atom -5586.281031 kJ/mol
# Density = 1.954859 g / cm^3
# Si number density = 19.593182 Si / 1000 Ang^3
#
#
#
# Elastic Constant Matrix: (Units=GPa)
#
#
# Indices 1 2 3 4 5 6 
#
# 1 126.8816 12.9193 22.9175 0.0000 -8.4440 0.0000
# 2 12.9193 16.5616 12.0112 0.0000 -3.0224 0.0000
# 3 22.9175 12.0112 74.3790 0.0000 -8.4941 0.0000
# 4 0.0000 0.0000 0.0000 28.8359 0.0000 2.7587
# 5 -8.4440 -3.0224 -8.4941 0.0000 23.8563 0.0000
# 6 0.0000 0.0000 0.0000 2.7587 0.0000 26.8347
#
#
#
# Elastic Compliance Matrix: (Units=1/GPa)
#
#
# Indices 1 2 3 4 5 6 
#
# 1 0.008850 -0.005369 -0.001647 0.000000 0.001866 0.000000
# 2 -0.005369 0.072209 -0.009568 0.000000 0.003841 0.000000
# 3 -0.001647 -0.009568 0.015940 0.000000 0.003881 0.000000
# 4 0.000000 0.000000 0.000000 0.035023 0.000000 -0.003601
# 5 0.001866 0.003841 0.003881 0.000000 0.044447 0.000000
# 6 0.000000 0.000000 0.000000 -0.003601 0.000000 0.037635
#
#
# Mechanical properties :
#
#
# Convention : Reuss Voigt Hill
#
# Bulk Modulus (GPa) = 15.66608 34.83535 25.25071
# Shear Modulus (GPa) = 18.61869 27.23697 22.92783
#
# Velocity S-wave (km/s) = 3.08598 3.73248 3.42452
# Velocity P-wave (km/s) = 4.55090 6.03267 5.34340
#
# Compressibility (1/GPa) = 0.06383218
#
# Stress axis : x y z
#
# Youngs Moduli (GPa) = 112.99936 13.84878 62.73422
#
# Poissons Ratio (x) = 0.07435 0.10330
# Poissons Ratio (y) = 0.60665 0.60023
# Poissons Ratio (z) = 0.18608 0.13250
#
# Static dielectric constant tensor:
#      x y z
#    x 1.681440 0.000000 -0.001600 
#    y 0.000000 1.679320 0.000000 
#    z -0.001600 0.000000 1.663420 
# 
# From -- ./inp_files/64446.got.cif
#   From: 2010.05.17/outbox.cif.g08.bks.cpg/sg11_33_cif.got.tgz:64446.got - 2010.06.03 12:22:45.
