data_PCOD9164586
_publ_section_title
;
Structure prediction by ZEFSAII (Michael W. Deem and Ramdas Pophale) SiO2 
 PCOD9164586
Probable space group: P 21/M
;
_chemical_formula_sum "Si O2"
_cell_formula_units_Z 28
_cell_length_a 14.439377
_cell_length_b 9.100421
_cell_length_c 12.860890
_cell_angle_alpha 90.000000
_cell_angle_beta 128.919512
_cell_angle_gamma 90.000000
_cell_volume 1314.852052
_symmetry_space_group_name_H-M "P 21/M"
_symmetry_group_IT_number 11
_symmetry_cell_setting 'monoclinic'
loop_
_space_group_symop_operation_xyz
x,y,z
-x,1/2+y,-z
-x,-y,-z
x,1/2-y,z
loop_
_atom_site_type_symbol
_atom_site_label
_atom_site_fract_x
_atom_site_fract_y
_atom_site_fract_z
Si Si1 0.905365 0.584815 0.296683
Si Si2 0.809271 0.424341 0.048703
Si Si3 0.826534 0.415710 0.430303
Si Si4 0.721161 0.575366 0.554736
Si Si5 0.777332 0.579404 0.818956
Si Si6 0.494873 0.582233 0.665100
Si Si7 0.439583 0.073788 0.057582
O O1 0.868009 0.750000 0.242376
O O2 0.908041 0.481504 0.198368
O O3 0.819228 0.511957 0.321327
O O4 0.034422 0.593643 0.440207
O O5 0.797565 0.250000 0.042135
O O6 0.832337 0.482216 0.948723
O O7 0.688128 0.500324 0.006598
O O8 0.782446 0.250000 0.381370
O O9 0.768024 0.493283 0.486775
O O10 0.732838 0.750000 0.554204
O O11 0.788333 0.529568 0.707632
O O12 0.582768 0.529452 0.456457
O O13 0.815065 0.750000 0.855390
O O14 0.634703 0.575869 0.738575
O O15 0.454937 0.750000 0.617075
O O16 0.485966 0.551427 0.782806
O O17 0.427316 0.250000 0.035302
O O18 0.500000 0.000000 0.000000
#
# Coordination Sequence:
#
# PCOD9164586 Si02
#       7
#     4   4   4   4   4   4   4
#     4  10  21  40  63  84 111 147 185 231 285 340
#     4  11  22  36  59  85 111 147 186 230 286 341
#     4  10  22  39  60  86 114 144 185 234 282 337
#     4  11  22  35  57  85 115 150 189 233 283 333
#     4   9  20  39  57  80 114 152 193 234 274 330
#     4   9  19  35  54  77 111 151 190 232 276 324
#     4  10  21  36  53  78 114 151 189 233 275 330
#
# _framework density 21.295172000000001
#
# number of rings (size 3 to 8) (size 9 to 14) (size 15 to 20)
#    0.000    2.000    0.000    4.286    2.000    5.714 
#    0.000    0.714    0.000    0.000    0.000    0.000 
#    0.000    0.000    0.000    0.000    0.000    0.000 
#
# Total GULP energy -156449.448103 kJ/mol
# GULP energy per Si atom -5587.480289 kJ/mol
# Density = 2.124670 g / cm^3
# Si number density = 21.295172 Si / 1000 Ang^3
#
#
#
# Elastic Constant Matrix: (Units=GPa)
#
#
# Indices 1 2 3 4 5 6 
#
# 1 22.6479 4.2425 -1.9072 0.0000 -14.2128 0.0000
# 2 4.2425 111.3685 40.0861 0.0000 -13.4970 0.0000
# 3 -1.9072 40.0861 76.1493 0.0000 -22.8107 0.0000
# 4 0.0000 0.0000 0.0000 35.1329 0.0000 -2.2556
# 5 -14.2128 -13.4970 -22.8107 0.0000 20.6936 0.0000
# 6 0.0000 0.0000 0.0000 -2.2556 0.0000 21.3686
#
#
#
# Elastic Compliance Matrix: (Units=1/GPa)
#
#
# Indices 1 2 3 4 5 6 
#
# 1 0.149648 -0.006075 0.054565 0.000000 0.158967 0.000000
# 2 -0.006075 0.011345 -0.007700 0.000000 -0.005261 0.000000
# 3 0.054565 -0.007700 0.042213 0.000000 0.078986 0.000000
# 4 0.000000 0.000000 0.000000 0.028658 0.000000 0.003025
# 5 0.158967 -0.005261 0.078986 0.000000 0.241141 0.000000
# 6 0.000000 0.000000 0.000000 0.003025 0.000000 0.047117
#
#
# Mechanical properties :
#
#
# Convention : Reuss Voigt Hill
#
# Bulk Modulus (GPa) = 3.51143 32.77871 18.14507
# Shear Modulus (GPa) = 9.37261 26.62197 17.99729
#
# Velocity S-wave (km/s) = 2.10020 3.53957 2.91027
# Velocity P-wave (km/s) = 2.74475 5.66840 4.45333
#
# Compressibility (1/GPa) = 0.28478428
#
# Stress axis : x y z
#
# Youngs Moduli (GPa) = 6.68235 88.14753 23.68959
#
# Poissons Ratio (x) = 0.53554 -1.29263
# Poissons Ratio (y) = 0.04060 0.18242
# Poissons Ratio (z) = -0.36462 0.67876
#
# Static dielectric constant tensor:
#      x y z
#    x 1.825340 0.000000 0.033590 
#    y 0.000000 1.725200 0.000000 
#    z 0.033590 0.000000 1.797550 
# 
# From -- ./inp_files/38433.got.cif
#   From: 2010.05.17/outbox.cif.g08.bks.cpg/sg11_20_cif.got.tgz:38433.got - 2010.06.03 12:22:45.
