data_PCOD9164025
_publ_section_title
;
Structure prediction by ZEFSAII (Michael W. Deem and Ramdas Pophale) SiO2 
 PCOD9164025
Probable space group: P 21/M
;
_chemical_formula_sum "Si O2"
_cell_formula_units_Z 20
_cell_length_a 8.646029
_cell_length_b 14.327965
_cell_length_c 9.739806
_cell_angle_alpha 90.000000
_cell_angle_beta 133.584914
_cell_angle_gamma 90.000000
_cell_volume 873.981052
_symmetry_space_group_name_H-M "P 21/M"
_symmetry_group_IT_number 11
_symmetry_cell_setting 'monoclinic'
loop_
_space_group_symop_operation_xyz
x,y,z
-x,1/2+y,-z
-x,-y,-z
x,1/2-y,z
loop_
_atom_site_type_symbol
_atom_site_label
_atom_site_fract_x
_atom_site_fract_y
_atom_site_fract_z
Si Si1 0.947281 0.091067 0.376563
Si Si2 0.507384 0.559406 0.817092
Si Si3 0.027875 0.467851 0.860706
Si Si4 0.600234 0.849880 0.292072
Si Si5 0.604966 0.357531 0.532027
O O1 0.700582 0.113299 0.254367
O O2 0.143654 0.154007 0.541223
O O3 0.973901 0.058807 0.236576
O O4 0.000000 0.000000 0.500000
O O5 0.470075 0.448039 0.818137
O O6 0.506535 0.581259 0.653792
O O7 0.741592 0.580826 0.015834
O O8 0.838200 0.400549 0.699108
O O9 0.000000 0.500000 0.000000
O O10 0.519959 0.750000 0.186675
O O11 0.515199 0.858593 0.396320
O O12 0.616231 0.250000 0.493150
#
# Coordination Sequence:
#
# PCOD9164025 Si02
#       5
#     4   4   4   4   4
#     4  10  21  40  63  94 128 172 212 262 327 389
#     4  11  22  41  67  92 131 172 218 264 333 377
#     4  12  22  39  69  95 130 170 219 269 326 384
#     4  10  20  38  63  92 128 172 213 258 320 387
#     4  11  23  41  65  96 131 171 220 269 323 392
#
# _framework density 22.883792
#
# number of rings (size 3 to 8) (size 9 to 14) (size 15 to 20)
#    0.000    1.200    6.000    2.400    0.000    1.600 
#    0.000    2.000    0.000    2.400    0.000    0.000 
#    0.000    0.000    0.000    0.000    0.000    0.000 
#
# Total GULP energy -111785.613546 kJ/mol
# GULP energy per Si atom -5589.280677 kJ/mol
# Density = 2.283171 g / cm^3
# Si number density = 22.883792 Si / 1000 Ang^3
#
#
#
# Elastic Constant Matrix: (Units=GPa)
#
#
# Indices 1 2 3 4 5 6 
#
# 1 84.4824 5.6399 0.1674 0.0000 16.5674 0.0000
# 2 5.6399 88.8469 4.5760 0.0000 14.4623 0.0000
# 3 0.1674 4.5760 68.5260 0.0000 17.1282 0.0000
# 4 0.0000 0.0000 0.0000 9.7416 0.0000 5.9938
# 5 16.5674 14.4623 17.1282 0.0000 55.7044 0.0000
# 6 0.0000 0.0000 0.0000 5.9938 0.0000 3.5726
#
#
#
# Elastic Compliance Matrix: (Units=1/GPa)
#
#
# Indices 1 2 3 4 5 6 
#
# 1 0.012634 -0.000200 0.000984 0.000000 -0.004008 0.000000
# 2 -0.000200 0.011755 -0.000040 0.000000 -0.002980 0.000000
# 3 0.000984 -0.000040 0.015885 0.000000 -0.005167 0.000000
# 4 0.000000 0.000000 0.000000 -3.182432 0.000000 5.339166
# 5 -0.004008 -0.002980 -0.005167 0.000000 0.021506 0.000000
# 6 0.000000 0.000000 0.000000 5.339166 0.000000 -8.677614
#
#
# Mechanical properties :
#
#
# Convention : Reuss Voigt Hill
#
# Bulk Modulus (GPa) = 23.94451 29.18024 26.56238
# Shear Modulus (GPa) = -0.42424 29.23522 14.40549
#
# Velocity S-wave (km/s) = -0.43103 3.57816 2.51172
# Velocity P-wave (km/s) = 3.19977 5.46353 4.47709
#
# Compressibility (1/GPa) = 0.04176323
#
# Stress axis : x y z
#
# Youngs Moduli (GPa) = 79.14993 85.06893 62.95375
#
# Poissons Ratio (x) = 0.01703 -0.06197
# Poissons Ratio (y) = 0.01585 0.00249
# Poissons Ratio (z) = -0.07792 0.00337
#
# Static dielectric constant tensor:
#      x y z
#    x 1.927850 0.000000 -0.041630 
#    y 0.000000 1.819760 0.000000 
#    z -0.041630 0.000000 1.869850 
# 
# From -- ./inp_files/13630.got.cif
#   From: 2010.05.17/outbox.cif.g08.bks.cpg/sg11_7_cif.got.tgz:13630.got - 2010.06.03 12:22:45.
