data_PCOD9164055
_publ_section_title
;
Structure prediction by ZEFSAII (Michael W. Deem and Ramdas Pophale) SiO2 
 PCOD9164055
Probable space group: P 21/M
;
_chemical_formula_sum "Si O2"
_cell_formula_units_Z 30
_cell_length_a 10.197945
_cell_length_b 12.216742
_cell_length_c 15.360008
_cell_angle_alpha 90.000000
_cell_angle_beta 116.939170
_cell_angle_gamma 90.000000
_cell_volume 1705.984257
_symmetry_space_group_name_H-M "P 21/M"
_symmetry_group_IT_number 11
_symmetry_cell_setting 'monoclinic'
loop_
_space_group_symop_operation_xyz
x,y,z
-x,1/2+y,-z
-x,-y,-z
x,1/2-y,z
loop_
_atom_site_type_symbol
_atom_site_label
_atom_site_fract_x
_atom_site_fract_y
_atom_site_fract_z
Si Si1 0.012956 0.450129 0.100804
Si Si2 0.659228 0.623362 0.821254
Si Si3 0.560557 0.479128 0.376550
Si Si4 0.782833 0.250000 0.026369
Si Si5 0.452132 0.554095 0.075718
Si Si6 0.672662 0.379073 0.587902
Si Si7 0.284028 0.378192 0.718650
Si Si8 0.004731 0.120929 0.751983
O O1 0.181280 0.412245 0.165743
O O2 0.972483 0.543550 0.158311
O O3 0.000000 0.500000 0.000000
O O4 0.907851 0.346384 0.077253
O O5 0.662295 0.750000 0.849282
O O6 0.532685 0.603994 0.711211
O O7 0.621499 0.540750 0.887984
O O8 0.640377 0.422534 0.481491
O O9 0.439168 0.561202 0.380405
O O10 0.672776 0.546012 0.349569
O O11 0.658472 0.153646 0.972174
O O12 0.593046 0.597313 0.171367
O O13 0.500000 0.500000 0.000000
O O14 0.645617 0.250000 0.583287
O O15 0.840740 0.398451 0.666545
O O16 0.289595 0.250000 0.696251
O O17 0.126553 0.401469 0.714979
O O18 0.016749 0.250000 0.779506
#
# Coordination Sequence:
#
# PCOD9164055 Si02
#       8
#     4   4   4   2   4   4   4   4
#     4  12  24  39  59  90 126 163 209 260 314 366
#     4  11  23  39  60  89 125 165 202 258 314 371
#     4  10  21  38  63  92 125 160 204 259 311 374
#     4  12  24  40  60  86 122 168 210 268 302 376
#     4  11  24  41  61  87 121 169 216 258 308 372
#     4  10  20  38  65  93 120 161 207 256 312 373
#     4  10  21  39  61  87 122 158 207 257 310 370
#     4  10  23  41  65  92 124 163 210 260 311 376
#
# _framework density 17.585155
#
# number of rings (size 3 to 8) (size 9 to 14) (size 15 to 20)
#    0.000    1.333    4.000    1.600    1.867    0.533 
#    2.400    0.000    2.933    0.000    0.000    0.000 
#    0.000    0.000    0.000    0.000    0.000    0.000 
#
# Total GULP energy -167020.010992 kJ/mol
# GULP energy per Si atom -5567.333700 kJ/mol
# Density = 1.754513 g / cm^3
# Si number density = 17.585155 Si / 1000 Ang^3
#
#
#
# Elastic Constant Matrix: (Units=GPa)
#
#
# Indices 1 2 3 4 5 6 
#
# 1 85.7919 58.2365 32.7336 0.0000 2.4056 0.0000
# 2 58.2365 124.7777 46.8706 0.0000 1.7076 0.0000
# 3 32.7336 46.8706 60.4720 0.0000 -5.6292 0.0000
# 4 0.0000 0.0000 0.0000 14.8704 0.0000 12.5787
# 5 2.4056 1.7076 -5.6292 0.0000 19.2160 0.0000
# 6 0.0000 0.0000 0.0000 12.5787 0.0000 28.2409
#
#
#
# Elastic Compliance Matrix: (Units=1/GPa)
#
#
# Indices 1 2 3 4 5 6 
#
# 1 0.018083 -0.006502 -0.005043 0.000000 -0.003163 0.000000
# 2 -0.006502 0.013902 -0.007499 0.000000 -0.002618 0.000000
# 3 -0.005043 -0.007499 0.025906 0.000000 0.008887 0.000000
# 4 0.000000 0.000000 0.000000 0.107901 0.000000 -0.048060
# 5 -0.003163 -0.002618 0.008887 0.000000 0.055272 0.000000
# 6 0.000000 0.000000 0.000000 -0.048060 0.000000 0.056816
#
#
# Mechanical properties :
#
#
# Convention : Reuss Voigt Hill
#
# Bulk Modulus (GPa) = 50.49981 60.74700 55.62340
# Shear Modulus (GPa) = 15.50064 21.34552 18.42308
#
# Velocity S-wave (km/s) = 2.97216 3.48780 3.24025
# Velocity P-wave (km/s) = 6.36851 7.13015 6.76007
#
# Compressibility (1/GPa) = 0.01980206
#
# Stress axis : x y z
#
# Youngs Moduli (GPa) = 55.30201 71.93459 38.60109
#
# Poissons Ratio (x) = 0.46771 0.19467
# Poissons Ratio (y) = 0.35957 0.28947
# Poissons Ratio (z) = 0.27889 0.53944
#
# Static dielectric constant tensor:
#      x y z
#    x 1.592760 0.000000 0.004090 
#    y 0.000000 1.568290 0.000000 
#    z 0.004090 0.000000 1.595440 
# 
# From -- ./inp_files/47235.got.cif
#   From: 2010.05.17/outbox.cif.g08.bks.cpg/sg11_24_cif.got.tgz:47235.got - 2010.06.03 12:22:45.
