data_PCOD9164654
_publ_section_title
;
Structure prediction by ZEFSAII (Michael W. Deem and Ramdas Pophale) SiO2 
 PCOD9164654
Probable space group: P 21/M
;
_chemical_formula_sum "Si O2"
_cell_formula_units_Z 28
_cell_length_a 13.440359
_cell_length_b 8.596400
_cell_length_c 14.900660
_cell_angle_alpha 90.000000
_cell_angle_beta 56.106518
_cell_angle_gamma 90.000000
_cell_volume 1429.060797
_symmetry_space_group_name_H-M "P 21/M"
_symmetry_group_IT_number 11
_symmetry_cell_setting 'monoclinic'
loop_
_space_group_symop_operation_xyz
x,y,z
-x,1/2+y,-z
-x,-y,-z
x,1/2-y,z
loop_
_atom_site_type_symbol
_atom_site_label
_atom_site_fract_x
_atom_site_fract_y
_atom_site_fract_z
Si Si1 0.549337 0.434608 0.330063
Si Si2 0.718406 0.435710 0.538167
Si Si3 0.289392 0.936776 0.257159
Si Si4 0.432402 0.061576 0.871486
Si Si5 0.766272 0.934436 0.329582
Si Si6 0.781601 0.563118 0.892218
Si Si7 0.988629 0.437222 0.106236
O O1 0.531316 0.250000 0.343712
O O2 0.421791 0.519949 0.401536
O O3 0.600187 0.484337 0.207029
O O4 0.642681 0.489372 0.357665
O O5 0.731414 0.250000 0.524903
O O6 0.751979 0.486201 0.622499
O O7 0.786513 0.516283 0.422345
O O8 0.285522 0.750000 0.257229
O O9 0.430023 0.982266 0.177084
O O10 0.218294 0.001418 0.208678
O O11 0.427468 0.250000 0.863725
O O12 0.339651 0.013828 0.994987
O O13 0.756423 0.750000 0.327107
O O14 0.871494 0.997057 0.213706
O O15 0.780744 0.750000 0.889603
O O16 0.895474 0.514723 0.893801
O O17 0.983246 0.250000 0.107040
O O18 0.000000 0.500000 0.000000
#
# Coordination Sequence:
#
# PCOD9164654 Si02
#       7
#     4   4   4   4   4   4   4
#     4  11  21  34  56  87 118 151 188 232 284 343
#     4  10  21  39  59  84 117 150 186 234 283 336
#     4   9  19  34  56  84 116 149 184 228 282 338
#     4   9  18  34  54  83 119 153 187 231 281 333
#     4  12  24  39  59  83 112 151 193 237 285 338
#     4  10  21  36  57  82 113 149 189 234 282 333
#     4  11  24  42  62  87 115 149 190 236 283 333
#
# _framework density 19.593288000000001
#
# number of rings (size 3 to 8) (size 9 to 14) (size 15 to 20)
#    0.000    1.714    0.000    6.000    0.000    5.714 
#    0.000    0.714    0.000    0.000    0.000    0.000 
#    0.000    0.000    0.000    0.000    0.000    0.000 
#
# Total GULP energy -156500.191131 kJ/mol
# GULP energy per Si atom -5589.292540 kJ/mol
# Density = 1.954869 g / cm^3
# Si number density = 19.593288 Si / 1000 Ang^3
#
#
#
# Elastic Constant Matrix: (Units=GPa)
#
#
# Indices 1 2 3 4 5 6 
#
# 1 81.5118 5.7157 32.7921 0.0000 34.7764 0.0000
# 2 5.7157 23.5738 0.6162 0.0000 6.1648 0.0000
# 3 32.7921 0.6162 116.6079 0.0000 27.6038 0.0000
# 4 0.0000 0.0000 0.0000 33.9858 0.0000 5.8849
# 5 34.7764 6.1648 27.6038 0.0000 29.6264 0.0000
# 6 0.0000 0.0000 0.0000 5.8849 0.0000 27.6603
#
#
#
# Elastic Compliance Matrix: (Units=1/GPa)
#
#
# Indices 1 2 3 4 5 6 
#
# 1 0.024639 0.001678 -0.000011 0.000000 -0.029261 0.000000
# 2 0.001678 0.045565 0.002564 0.000000 -0.013840 0.000000
# 3 -0.000011 0.002564 0.011147 0.000000 -0.010907 0.000000
# 4 0.000000 0.000000 0.000000 0.030550 0.000000 -0.006500
# 5 -0.029261 -0.013840 -0.010907 0.000000 0.081142 0.000000
# 6 0.000000 0.000000 0.000000 -0.006500 0.000000 0.037536
#
#
# Mechanical properties :
#
#
# Convention : Reuss Voigt Hill
#
# Bulk Modulus (GPa) = 11.13428 33.32684 22.23056
# Shear Modulus (GPa) = 19.83696 30.42581 25.13138
#
# Velocity S-wave (km/s) = 3.18533 3.94492 3.58530
# Velocity P-wave (km/s) = 4.38446 6.14785 5.33946
#
# Compressibility (1/GPa) = 0.08981272
#
# Stress axis : x y z
#
# Youngs Moduli (GPa) = 40.58655 21.94653 89.70906
#
# Poissons Ratio (x) = -0.03683 0.00099
# Poissons Ratio (y) = -0.06812 -0.22997
# Poissons Ratio (z) = 0.00045 -0.05626
#
# Static dielectric constant tensor:
#      x y z
#    x 1.674500 0.000000 0.004600 
#    y 0.000000 1.655820 0.000000 
#    z 0.004600 0.000000 1.719830 
# 
# From -- ./inp_files/37870.got.cif
#   From: 2010.05.17/outbox.cif.g08.bks.cpg/sg11_19_cif.got.tgz:37870.got - 2010.06.03 12:22:45.
