data_PCOD9164422
_publ_section_title
;
Structure prediction by ZEFSAII (Michael W. Deem and Ramdas Pophale) SiO2 
 PCOD9164422
Probable space group: P 21/M
;
_chemical_formula_sum "Si O2"
_cell_formula_units_Z 32
_cell_length_a 5.315184
_cell_length_b 23.053223
_cell_length_c 12.612333
_cell_angle_alpha 90.000000
_cell_angle_beta 89.653209
_cell_angle_gamma 90.000000
_cell_volume 1545.387619
_symmetry_space_group_name_H-M "P 21/M"
_symmetry_group_IT_number 11
_symmetry_cell_setting 'monoclinic'
loop_
_space_group_symop_operation_xyz
x,y,z
-x,1/2+y,-z
-x,-y,-z
x,1/2-y,z
loop_
_atom_site_type_symbol
_atom_site_label
_atom_site_fract_x
_atom_site_fract_y
_atom_site_fract_z
Si Si1 0.199047 0.689204 0.165887
Si Si2 0.959790 0.907662 0.055050
Si Si3 0.699383 0.009108 0.826412
Si Si4 0.064269 0.080169 0.571225
Si Si5 0.964417 0.046711 0.344617
Si Si6 0.664524 0.410497 0.145172
Si Si7 0.455154 0.613167 0.310760
Si Si8 0.436553 0.315991 0.032926
O O1 0.067112 0.750000 0.183759
O O2 0.025785 0.633859 0.155067
O O3 0.398666 0.673951 0.254760
O O4 0.339634 0.690783 0.052684
O O5 0.056785 0.968023 0.109014
O O6 0.126632 0.908017 0.947453
O O7 0.724639 0.869262 0.015340
O O8 0.539475 0.063938 0.783188
O O9 0.521732 0.963588 0.885636
O O10 0.799263 0.973485 0.725786
O O11 0.293793 0.114651 0.621897
O O12 0.043138 0.084588 0.444827
O O13 0.791650 0.095822 0.620173
O O14 0.133149 0.013583 0.603847
O O15 0.777695 0.074918 0.259775
O O16 0.535615 0.347008 0.139182
O O17 0.329175 0.250000 0.045479
#
# Coordination Sequence:
#
# PCOD9164422 Si02
#       8
#     4   4   4   4   4   4   4   4
#     4   9  20  36  58  85 114 152 196 247 304 364
#     4  10  21  35  55  84 120 155 194 245 295 371
#     4  10  21  34  56  86 123 157 193 238 306 366
#     4  10  22  38  58  87 120 158 198 247 295 366
#     4  10  22  34  57  82 118 155 195 238 295 359
#     4  11  21  36  54  84 115 157 195 246 297 362
#     4  10  21  37  60  87 123 156 196 246 306 360
#     4  10  22  38  58  81 114 154 201 245 297 357
#
# _framework density 20.706778
#
# number of rings (size 3 to 8) (size 9 to 14) (size 15 to 20)
#    0.000    2.000    1.250    1.500    7.000    5.000 
#    0.000    0.000    0.000    1.500    0.000    0.000 
#    0.000    0.000    0.000    0.000    0.000    0.000 
#
# Total GULP energy -178167.635653 kJ/mol
# GULP energy per Si atom -5567.738614 kJ/mol
# Density = 2.065965 g / cm^3
# Si number density = 20.706778 Si / 1000 Ang^3
#
#
#
# Elastic Constant Matrix: (Units=GPa)
#
#
# Indices 1 2 3 4 5 6 
#
# 1 44.5091 21.2524 16.2649 0.0000 8.5886 0.0000
# 2 21.2524 72.6923 40.9386 0.0000 7.5065 0.0000
# 3 16.2649 40.9386 99.8228 0.0000 17.0375 0.0000
# 4 0.0000 0.0000 0.0000 0.0090 0.0000 -4.3094
# 5 8.5886 7.5065 17.0375 0.0000 22.0252 0.0000
# 6 0.0000 0.0000 0.0000 -4.3094 0.0000 11.2178
#
#
#
# Elastic Compliance Matrix: (Units=1/GPa)
#
#
# Indices 1 2 3 4 5 6 
#
# 1 0.027496 -0.007096 -0.000176 0.000000 -0.008167 0.000000
# 2 -0.007096 0.019724 -0.007210 0.000000 0.001622 0.000000
# 3 -0.000176 -0.007210 0.014484 0.000000 -0.008679 0.000000
# 4 0.000000 0.000000 0.000000 -0.607355 0.000000 -0.233321
# 5 -0.008167 0.001622 -0.008679 0.000000 0.054748 0.000000
# 6 0.000000 0.000000 0.000000 -0.233321 0.000000 -0.000488
#
#
# Mechanical properties :
#
#
# Convention : Reuss Voigt Hill
#
# Bulk Modulus (GPa) = 30.54290 41.54843 36.04567
# Shear Modulus (GPa) = -11.07388 15.88829 2.40720
#
# Velocity S-wave (km/s) = -2.31507 2.77302 1.07937
# Velocity P-wave (km/s) = 2.76336 5.51013 4.35877
#
# Compressibility (1/GPa) = 0.03274083
#
# Stress axis : x y z
#
# Youngs Moduli (GPa) = 36.36896 50.69926 69.03954
#
# Poissons Ratio (x) = 0.35978 0.01214
# Poissons Ratio (y) = 0.25809 0.49775
# Poissons Ratio (z) = 0.00640 0.36553
#
# Static dielectric constant tensor:
#      x y z
#    x 1.881680 0.000000 0.042660 
#    y 0.000000 1.860310 0.000000 
#    z 0.042660 0.000000 1.744320 
# 
# From -- ./inp_files/30188.got.cif
#   From: 2010.05.17/outbox.cif.g08.bks.cpg/sg11_16_cif.got.tgz:30188.got - 2010.06.03 12:22:45.
