data_PCOD9164365
_publ_section_title
;
Structure prediction by ZEFSAII (Michael W. Deem and Ramdas Pophale) SiO2 
 PCOD9164365
Probable space group: P 21/M
;
_chemical_formula_sum "Si O2"
_cell_formula_units_Z 22
_cell_length_a 8.302864
_cell_length_b 19.953731
_cell_length_c 5.378012
_cell_angle_alpha 90.000000
_cell_angle_beta 77.841428
_cell_angle_gamma 90.000000
_cell_volume 871.005657
_symmetry_space_group_name_H-M "P 21/M"
_symmetry_group_IT_number 11
_symmetry_cell_setting 'monoclinic'
loop_
_space_group_symop_operation_xyz
x,y,z
-x,1/2+y,-z
-x,-y,-z
x,1/2-y,z
loop_
_atom_site_type_symbol
_atom_site_label
_atom_site_fract_x
_atom_site_fract_y
_atom_site_fract_z
Si Si1 0.152166 0.999007 0.128774
Si Si2 0.386468 0.250000 0.531485
Si Si3 0.591962 0.396625 0.114506
Si Si4 0.268695 0.750000 0.841535
Si Si5 0.060127 0.099612 0.536833
Si Si6 0.617123 0.608852 0.306939
Si Si7 0.944709 0.750000 0.618226
O O1 0.295572 0.961959 0.937224
O O2 0.101840 0.944233 0.360365
O O3 0.150109 0.070832 0.262462
O O4 0.000000 0.000000 0.000000
O O5 0.580207 0.250000 0.406567
O O6 0.349168 0.187359 0.709580
O O7 0.259325 0.250000 0.335644
O O8 0.475416 0.406498 0.914500
O O9 0.689682 0.324494 0.055336
O O10 0.495245 0.399714 0.408486
O O11 0.080062 0.750000 0.799952
O O12 0.200477 0.083575 0.694405
O O13 0.020128 0.178173 0.524501
#
# Coordination Sequence:
#
# PCOD9164365 Si02
#       7
#     4   2   4   2   4   4   2
#     4  11  26  44  67 100 146 187 235 298 354 430
#     4   8  19  39  66 100 146 172 240 296 356 404
#     4  11  25  42  72 100 141 188 240 287 363 415
#     4  10  21  40  70 102 146 185 238 304 354 425
#     4  10  25  45  71 102 142 184 239 297 356 429
#     4  10  23  44  68 102 137 189 235 297 350 425
#     4  10  20  43  76 104 134 189 238 290 366 425
#
# _framework density 25.258158999999999
#
# number of rings (size 3 to 8) (size 9 to 14) (size 15 to 20)
#    0.000    1.818    0.000    1.636   12.727    2.182 
#    3.273    0.909    0.000    0.000    0.000    0.000 
#    0.000    0.000    0.000    0.000    0.000    0.000 
#
# Total GULP energy -122697.799229 kJ/mol
# GULP energy per Si atom -5577.172692 kJ/mol
# Density = 2.520067 g / cm^3
# Si number density = 25.258159 Si / 1000 Ang^3
#
#
#
# Elastic Constant Matrix: (Units=GPa)
#
#
# Indices 1 2 3 4 5 6 
#
# 1 89.6167 46.9700 41.2031 0.0000 18.6360 0.0000
# 2 46.9700 139.4300 30.4921 0.0000 -9.2117 0.0000
# 3 41.2031 30.4921 110.4882 0.0000 15.3876 0.0000
# 4 0.0000 0.0000 0.0000 25.0038 0.0000 9.8120
# 5 18.6360 -9.2117 15.3876 0.0000 45.4134 0.0000
# 6 0.0000 0.0000 0.0000 9.8120 0.0000 39.0568
#
#
#
# Elastic Compliance Matrix: (Units=1/GPa)
#
#
# Indices 1 2 3 4 5 6 
#
# 1 0.017231 -0.005381 -0.003992 0.000000 -0.006810 0.000000
# 2 -0.005381 0.009565 -0.001271 0.000000 0.004579 0.000000
# 3 -0.003992 -0.001271 0.011228 0.000000 -0.002424 0.000000
# 4 0.000000 0.000000 0.000000 0.044368 0.000000 -0.011146
# 5 -0.006810 0.004579 -0.002424 0.000000 0.026565 0.000000
# 6 0.000000 0.000000 0.000000 -0.011146 0.000000 0.028404
#
#
# Mechanical properties :
#
#
# Convention : Reuss Voigt Hill
#
# Bulk Modulus (GPa) = 59.75392 64.09614 61.92503
# Shear Modulus (GPa) = 30.44568 36.61945 33.53257
#
# Velocity S-wave (km/s) = 3.47562 3.81176 3.64757
# Velocity P-wave (km/s) = 6.30993 6.69360 6.50459
#
# Compressibility (1/GPa) = 0.01673530
#
# Stress axis : x y z
#
# Youngs Moduli (GPa) = 58.03595 104.54441 89.06520
#
# Poissons Ratio (x) = 0.56259 0.35556
# Poissons Ratio (y) = 0.31231 0.11318
# Poissons Ratio (z) = 0.23169 0.13285
#
# Static dielectric constant tensor:
#      x y z
#    x 2.052160 0.000000 -0.072990 
#    y 0.000000 2.089300 0.000000 
#    z -0.072990 0.000000 2.122920 
# 
# From -- ./inp_files/2422.got.cif
#   From: 2010.05.17/outbox.cif.g08.bks.cpg/sg11_2_cif.got.tgz:2422.got - 2010.06.03 12:22:45.
