data_PCOD9164985
_publ_section_title
;
Structure prediction by ZEFSAII (Michael W. Deem and Ramdas Pophale) SiO2 
 PCOD9164985
Probable space group: P 21/M
;
_chemical_formula_sum "Si O2"
_cell_formula_units_Z 24
_cell_length_a 13.862344
_cell_length_b 12.141190
_cell_length_c 18.966390
_cell_angle_alpha 90.000000
_cell_angle_beta 18.215797
_cell_angle_gamma 90.000000
_cell_volume 997.854371
_symmetry_space_group_name_H-M "P 21/M"
_symmetry_group_IT_number 11
_symmetry_cell_setting 'monoclinic'
loop_
_space_group_symop_operation_xyz
x,y,z
-x,1/2+y,-z
-x,-y,-z
x,1/2-y,z
loop_
_atom_site_type_symbol
_atom_site_label
_atom_site_fract_x
_atom_site_fract_y
_atom_site_fract_z
Si Si1 0.396670 0.369184 0.248817
Si Si2 0.679802 0.015976 0.179080
Si Si3 0.226131 0.947715 0.262019
Si Si4 0.846231 0.633058 0.787627
Si Si5 0.989783 0.426171 0.169243
Si Si6 0.639828 0.623127 0.469430
O O1 0.471025 0.250000 0.166505
O O2 0.582757 0.387218 0.192048
O O3 0.420396 0.472106 0.179196
O O4 0.031932 0.377191 0.520800
O O5 0.448564 0.043693 0.403676
O O6 0.740832 0.920467 0.077184
O O7 0.000000 0.000000 0.000000
O O8 0.050269 0.033455 0.333354
O O9 0.474455 0.878441 0.046871
O O10 0.950526 0.750000 0.686572
O O11 0.937542 0.624631 0.805745
O O12 0.896763 0.554855 0.248311
O O13 0.674875 0.375054 0.357557
O O14 0.721580 0.750000 0.430489
#
# Coordination Sequence:
#
# PCOD9164985 Si02
#       6
#     4   4   4   4   4   4
#     4  11  21  39  63  88 125 164 201 254 314 364
#     4  10  21  38  60  87 123 158 203 259 303 362
#     4  10  23  38  60  93 122 157 207 256 296 377
#     4  11  21  39  61  86 121 161 200 251 313 364
#     4  10  21  39  59  88 124 159 206 257 304 372
#     4  10  21  37  60  88 122 164 205 252 313 366
#
# _framework density 24.051606
#
# number of rings (size 3 to 8) (size 9 to 14) (size 15 to 20)
#    0.000    1.667    1.667    3.000    0.000    1.333 
#    0.000    0.833    0.000    4.000    0.000    0.000 
#    0.000    0.000    0.000    0.000    0.000    0.000 
#
# Total GULP energy -133710.177822 kJ/mol
# GULP energy per Si atom -5571.257409 kJ/mol
# Density = 2.399686 g / cm^3
# Si number density = 24.051606 Si / 1000 Ang^3
#
#
#
# Elastic Constant Matrix: (Units=GPa)
#
#
# Indices 1 2 3 4 5 6 
#
# 1 143.0708 15.2394 0.7371 0.0000 -14.0261 0.0000
# 2 15.2394 98.0764 21.8521 0.0000 -9.7247 0.0000
# 3 0.7371 21.8521 66.9867 0.0000 12.0437 0.0000
# 4 0.0000 0.0000 0.0000 0.2421 0.0000 -0.0224
# 5 -14.0261 -9.7247 12.0437 0.0000 36.5138 0.0000
# 6 0.0000 0.0000 0.0000 -0.0224 0.0000 16.1711
#
#
#
# Elastic Compliance Matrix: (Units=1/GPa)
#
#
# Indices 1 2 3 4 5 6 
#
# 1 0.007342 -0.000805 -0.000305 0.000000 0.002707 0.000000
# 2 -0.000805 0.011781 -0.004617 0.000000 0.004351 0.000000
# 3 -0.000305 -0.004617 0.017731 0.000000 -0.007195 0.000000
# 4 0.000000 0.000000 0.000000 4.130339 0.000000 0.005733
# 5 0.002707 0.004351 -0.007195 0.000000 0.031959 0.000000
# 6 0.000000 0.000000 0.000000 0.005733 0.000000 0.061847
#
#
# Mechanical properties :
#
#
# Convention : Reuss Voigt Hill
#
# Bulk Modulus (GPa) = 39.36645 42.64346 41.00495
# Shear Modulus (GPa) = 1.16797 28.60577 14.88687
#
# Velocity S-wave (km/s) = 0.69761 3.45244 2.49058
# Velocity P-wave (km/s) = 4.12940 5.80180 5.03551
#
# Compressibility (1/GPa) = 0.02540234
#
# Stress axis : x y z
#
# Youngs Moduli (GPa) = 136.19963 84.88075 56.39720
#
# Poissons Ratio (x) = 0.06829 0.01720
# Poissons Ratio (y) = 0.10957 0.26037
# Poissons Ratio (z) = 0.04154 0.39187
#
# Static dielectric constant tensor:
#      x y z
#    x 1.949440 0.000000 -0.031530 
#    y 0.000000 1.930360 0.000000 
#    z -0.031530 0.000000 1.928910 
# 
# From -- ./inp_files/65574.got.cif
#   From: 2010.05.17/outbox.cif.g08.bks.cpg/sg11_33_cif.got.tgz:65574.got - 2010.06.03 12:22:45.
