data_PCOD9164345
_publ_section_title
;
Structure prediction by ZEFSAII (Michael W. Deem and Ramdas Pophale) SiO2 
 PCOD9164345
Probable space group: P 21/M
;
_chemical_formula_sum "Si O2"
_cell_formula_units_Z 26
_cell_length_a 20.431813
_cell_length_b 15.079552
_cell_length_c 8.722844
_cell_angle_alpha 90.000000
_cell_angle_beta 151.393985
_cell_angle_gamma 90.000000
_cell_volume 1286.746819
_symmetry_space_group_name_H-M "P 21/M"
_symmetry_group_IT_number 11
_symmetry_cell_setting 'monoclinic'
loop_
_space_group_symop_operation_xyz
x,y,z
-x,1/2+y,-z
-x,-y,-z
x,1/2-y,z
loop_
_atom_site_type_symbol
_atom_site_label
_atom_site_fract_x
_atom_site_fract_y
_atom_site_fract_z
Si Si1 0.877943 0.087265 0.898660
Si Si2 0.036216 0.088161 0.788597
Si Si3 0.653264 0.519212 0.254655
Si Si4 0.324169 0.354867 0.436747
Si Si5 0.576067 0.054197 0.788122
Si Si6 0.818844 0.144923 0.111849
Si Si7 0.020444 0.750000 0.090438
O O1 0.953402 0.171246 0.984040
O O2 0.759796 0.052241 0.541157
O O3 0.806731 0.115241 0.911547
O O4 0.974565 0.003910 0.140535
O O5 0.996899 0.171479 0.813823
O O6 0.945455 0.095001 0.451565
O O7 0.197631 0.100493 0.088217
O O8 0.690414 0.610573 0.417535
O O9 0.500000 0.500000 0.000000
O O10 0.646241 0.510407 0.057961
O O11 0.313974 0.250000 0.411159
O O12 0.464451 0.388469 0.651685
O O13 0.500000 0.000000 0.500000
O O14 0.687456 0.116753 0.939409
O O15 0.839706 0.250000 0.162046
#
# Coordination Sequence:
#
# PCOD9164345 Si02
#       7
#     4   4   4   4   4   4   2
#     4  11  24  42  66  97 136 175 221 280 335 390
#     4  11  23  42  69  94 135 173 222 275 337 388
#     4   9  20  39  62  90 124 169 212 263 328 387
#     4  10  20  42  64  92 128 172 214 271 328 395
#     4  11  23  41  65  94 132 173 217 270 336 400
#     4  12  23  42  66 103 131 176 227 275 327 403
#     4  12  22  40  62  96 126 172 228 272 324 398
#
# _framework density 20.205995999999999
#
# number of rings (size 3 to 8) (size 9 to 14) (size 15 to 20)
#    0.000    1.231    2.308    5.077    0.000    1.231 
#    5.538    1.538    0.000    0.000    0.000    0.000 
#    0.000    0.000    0.000    0.000    0.000    0.000 
#
# Total GULP energy -144763.373415 kJ/mol
# GULP energy per Si atom -5567.822054 kJ/mol
# Density = 2.016001 g / cm^3
# Si number density = 20.205996 Si / 1000 Ang^3
#
#
#
# Elastic Constant Matrix: (Units=GPa)
#
#
# Indices 1 2 3 4 5 6 
#
# 1 91.0974 10.7138 18.7398 0.0000 -17.1993 0.0000
# 2 10.7138 119.3392 13.4154 0.0000 -2.3316 0.0000
# 3 18.7398 13.4154 101.1121 0.0000 -17.5848 0.0000
# 4 0.0000 0.0000 0.0000 16.4776 0.0000 -1.1476
# 5 -17.1993 -2.3316 -17.5848 0.0000 28.4584 0.0000
# 6 0.0000 0.0000 0.0000 -1.1476 0.0000 35.6225
#
#
#
# Elastic Compliance Matrix: (Units=1/GPa)
#
#
# Indices 1 2 3 4 5 6 
#
# 1 0.012595 -0.000882 -0.001015 0.000000 0.006912 0.000000
# 2 -0.000882 0.008568 -0.001058 0.000000 -0.000484 0.000000
# 3 -0.001015 -0.001058 0.011312 0.000000 0.006290 0.000000
# 4 0.000000 0.000000 0.000000 0.060825 0.000000 0.001960
# 5 0.006912 -0.000484 0.006290 0.000000 0.043164 0.000000
# 6 0.000000 0.000000 0.000000 0.001960 0.000000 0.028135
#
#
# Mechanical properties :
#
#
# Convention : Reuss Voigt Hill
#
# Bulk Modulus (GPa) = 37.64131 44.14296 40.89214
# Shear Modulus (GPa) = 27.87638 34.02367 30.95002
#
# Velocity S-wave (km/s) = 3.71834 4.10791 3.91797
# Velocity P-wave (km/s) = 6.09130 6.66287 6.38349
#
# Compressibility (1/GPa) = 0.02656655
#
# Stress axis : x y z
#
# Youngs Moduli (GPa) = 79.39763 116.71266 88.39869
#
# Poissons Ratio (x) = 0.10289 0.08974
# Poissons Ratio (y) = 0.06999 0.09349
# Poissons Ratio (z) = 0.08060 0.12344
#
# Static dielectric constant tensor:
#      x y z
#    x 1.732280 0.000000 0.015460 
#    y 0.000000 1.697120 0.000000 
#    z 0.015460 0.000000 1.755400 
# 
# From -- ./inp_files/26874.got.cif
#   From: 2010.05.17/outbox.cif.g08.bks.cpg/sg11_14_cif.got.tgz:26874.got - 2010.06.03 12:22:45.
