data_PCOD9164437
_publ_section_title
;
Structure prediction by ZEFSAII (Michael W. Deem and Ramdas Pophale) SiO2 
 PCOD9164437
Probable space group: P 21/M
;
_chemical_formula_sum "Si O2"
_cell_formula_units_Z 32
_cell_length_a 12.787301
_cell_length_b 15.328318
_cell_length_c 14.909989
_cell_angle_alpha 90.000000
_cell_angle_beta 30.948137
_cell_angle_gamma 90.000000
_cell_volume 1502.917442
_symmetry_space_group_name_H-M "P 21/M"
_symmetry_group_IT_number 11
_symmetry_cell_setting 'monoclinic'
loop_
_space_group_symop_operation_xyz
x,y,z
-x,1/2+y,-z
-x,-y,-z
x,1/2-y,z
loop_
_atom_site_type_symbol
_atom_site_label
_atom_site_fract_x
_atom_site_fract_y
_atom_site_fract_z
Si Si1 0.041958 0.355903 0.453153
Si Si2 0.259019 0.149436 0.463868
Si Si3 0.581768 0.998809 0.540134
Si Si4 0.310997 0.151878 0.954764
Si Si5 0.720525 0.348122 0.545236
Si Si6 0.551735 0.855903 0.953153
Si Si7 0.162037 0.501191 0.959866
Si Si8 0.686755 0.350564 0.036132
O O1 0.031726 0.250000 0.466880
O O2 0.085351 0.384259 0.522879
O O3 0.239834 0.379034 0.250000
O O4 0.851678 0.382663 0.533188
O O5 0.219228 0.250000 0.517843
O O6 0.294291 0.086763 0.521511
O O7 0.469205 0.149925 0.250000
O O8 0.382155 0.998907 0.750000
O O9 0.500000 0.000000 0.500000
O O10 0.712504 0.083604 0.470809
O O11 0.230756 0.250000 0.030900
O O12 0.492742 0.159840 0.750000
O O13 0.154122 0.083604 0.029191
O O14 0.418055 0.117337 0.966812
O O15 0.792557 0.250000 0.469099
O O16 0.534513 0.750000 0.966880
O O17 0.368890 0.884259 0.022879
O O18 0.162686 0.586763 0.021511
O O19 0.000000 0.500000 0.000000
O O20 0.754915 0.250000 0.982156
#
# Coordination Sequence:
#
# PCOD9164437 Si02
#       8
#     4   4   4   4   4   4   4   4
#     4   8  14  27  49  74  95 117 151 191 228 273
#     4   8  15  30  51  72  94 120 151 192 238 275
#     4  10  21  35  49  67  92 124 162 197 229 270
#     4   9  18  32  48  68  98 129 150 179 231 285
#     4   9  18  32  48  68  98 129 150 179 231 285
#     4   8  14  27  49  74  95 117 151 191 228 273
#     4  10  21  35  49  67  92 124 162 197 229 270
#     4   8  15  30  51  72  94 120 151 192 238 275
#
# _framework density 21.291920999999999
#
# number of rings (size 3 to 8) (size 9 to 14) (size 15 to 20)
#    0.000    3.250    0.000    1.500    0.000    3.000 
#    0.000    1.250    0.000    1.500    0.000    0.000 
#    0.000    0.000    0.000    0.000    0.000    0.000 
#
# Total GULP energy -178420.218418 kJ/mol
# GULP energy per Si atom -5575.631826 kJ/mol
# Density = 2.124346 g / cm^3
# Si number density = 21.291921 Si / 1000 Ang^3
#
#
#
# Elastic Constant Matrix: (Units=GPa)
#
#
# Indices 1 2 3 4 5 6 
#
# 1 213.6863 108.0511 0.9631 0.0000 4.7446 0.0000
# 2 108.0511 113.7154 4.3370 0.0000 3.1403 0.0000
# 3 0.9631 4.3370 30.1739 0.0000 0.8117 0.0000
# 4 0.0000 0.0000 0.0000 -3.8949 0.0000 1.3073
# 5 4.7446 3.1403 0.8117 0.0000 28.1298 0.0000
# 6 0.0000 0.0000 0.0000 1.3073 0.0000 39.2827
#
#
#
# Elastic Compliance Matrix: (Units=1/GPa)
#
#
# Indices 1 2 3 4 5 6 
#
# 1 0.009044 -0.008614 0.000965 0.000000 -0.000592 0.000000
# 2 -0.008614 0.017073 -0.002168 0.000000 -0.000390 0.000000
# 3 0.000965 -0.002168 0.033446 0.000000 -0.000886 0.000000
# 4 0.000000 0.000000 0.000000 -0.253912 0.000000 0.008450
# 5 -0.000592 -0.000390 -0.000886 0.000000 0.035718 0.000000
# 6 0.000000 0.000000 0.000000 0.008450 0.000000 0.025175
#
#
# Mechanical properties :
#
#
# Convention : Reuss Voigt Hill
#
# Bulk Modulus (GPa) = 25.04497 64.91978 44.98237
# Shear Modulus (GPa) = -49.74569 28.98515 -10.38027
#
# Velocity S-wave (km/s) = -4.83884 3.69361 -2.21038
# Velocity P-wave (km/s) = 4.40806 6.98190 3.82857
#
# Compressibility (1/GPa) = 0.03992818
#
# Stress axis : x y z
#
# Youngs Moduli (GPa) = 110.56502 58.57308 29.89899
#
# Poissons Ratio (x) = 0.50457 -0.02886
# Poissons Ratio (y) = 0.95245 0.06483
# Poissons Ratio (z) = -0.10674 0.12701
#
# Static dielectric constant tensor:
#      x y z
#    x 1.750970 0.000000 -0.001200 
#    y 0.000000 1.804220 0.000000 
#    z -0.001200 0.000000 1.790570 
# 
# From -- ./inp_files/50368.got.cif
#   From: 2010.05.17/outbox.cif.g08.bks.cpg/sg11_26_cif.got.tgz:50368.got - 2010.06.03 12:22:45.
