data_PCOD9164187
_publ_section_title
;
Structure prediction by ZEFSAII (Michael W. Deem and Ramdas Pophale) SiO2 
 PCOD9164187
Probable space group: P 21/M
;
_chemical_formula_sum "Si O2"
_cell_formula_units_Z 20
_cell_length_a 7.000506
_cell_length_b 19.265721
_cell_length_c 8.581181
_cell_angle_alpha 90.000000
_cell_angle_beta 34.698422
_cell_angle_gamma 90.000000
_cell_volume 658.824968
_symmetry_space_group_name_H-M "P 21/M"
_symmetry_group_IT_number 11
_symmetry_cell_setting 'monoclinic'
loop_
_space_group_symop_operation_xyz
x,y,z
-x,1/2+y,-z
-x,-y,-z
x,1/2-y,z
loop_
_atom_site_type_symbol
_atom_site_label
_atom_site_fract_x
_atom_site_fract_y
_atom_site_fract_z
Si Si1 0.510918 0.826767 0.593646
Si Si2 0.632683 0.117786 0.977096
Si Si3 0.445165 0.672882 0.293199
Si Si4 0.284791 0.453705 0.720608
Si Si5 0.933164 0.971833 0.715374
O O1 0.663069 0.750000 0.503832
O O2 0.347383 0.844253 0.869651
O O3 0.304208 0.824252 0.568366
O O4 0.748764 0.892428 0.394120
O O5 0.236132 0.101625 0.204290
O O6 0.737570 0.158187 0.749295
O O7 0.725612 0.035738 0.928224
O O8 0.598094 0.750000 0.174186
O O9 0.671566 0.604603 0.166741
O O10 0.300822 0.523005 0.555676
O O11 0.000000 0.500000 0.000000
O O12 0.000000 0.000000 0.500000
#
# Coordination Sequence:
#
# PCOD9164187 Si02
#       5
#     4   4   4   4   4
#     4   9  20  40  62  89 130 166 206 262 309 376
#     4  11  22  38  69  91 121 170 210 254 321 376
#     4   9  20  39  61  88 126 165 207 256 307 375
#     4  10  20  39  65  87 129 163 201 262 315 354
#     4  11  22  39  62 100 127 156 213 269 311 372
#
# _framework density 30.357075999999999
#
# number of rings (size 3 to 8) (size 9 to 14) (size 15 to 20)
#    1.200    0.800    2.000    1.800    2.800    0.800 
#    0.000    4.000    0.000    2.400    0.000    0.000 
#    0.000    0.000    0.000    0.000    0.000    0.000 
#
# Total GULP energy -111435.368495 kJ/mol
# GULP energy per Si atom -5571.768425 kJ/mol
# Density = 3.028798 g / cm^3
# Si number density = 30.357076 Si / 1000 Ang^3
#
#
#
# Elastic Constant Matrix: (Units=GPa)
#
#
# Indices 1 2 3 4 5 6 
#
# 1 169.6464 44.8069 70.6422 0.0000 59.2301 0.0000
# 2 44.8069 279.1653 86.6836 0.0000 -4.9010 0.0000
# 3 70.6422 86.6836 211.9255 0.0000 49.0590 0.0000
# 4 0.0000 0.0000 0.0000 50.8967 0.0000 5.1779
# 5 59.2301 -4.9010 49.0590 0.0000 71.5083 0.0000
# 6 0.0000 0.0000 0.0000 5.1779 0.0000 58.6528
#
#
#
# Elastic Compliance Matrix: (Units=1/GPa)
#
#
# Indices 1 2 3 4 5 6 
#
# 1 0.009036 -0.001305 -0.000862 0.000000 -0.006983 0.000000
# 2 -0.001305 0.004474 -0.002040 0.000000 0.002788 0.000000
# 3 -0.000862 -0.002040 0.006785 0.000000 -0.004081 0.000000
# 4 0.000000 0.000000 0.000000 0.019826 0.000000 -0.001750
# 5 -0.006983 0.002788 -0.004081 0.000000 0.022759 0.000000
# 6 0.000000 0.000000 0.000000 -0.001750 0.000000 0.017204
#
#
# Mechanical properties :
#
#
# Convention : Reuss Voigt Hill
#
# Bulk Modulus (GPa) = 84.16839 118.33364 101.25102
# Shear Modulus (GPa) = 54.07792 66.78520 60.43156
#
# Velocity S-wave (km/s) = 4.22524 4.69549 4.46656
# Velocity P-wave (km/s) = 7.18260 8.27418 7.74764
#
# Compressibility (1/GPa) = 0.01188094
#
# Stress axis : x y z
#
# Youngs Moduli (GPa) = 110.66563 223.51039 147.38183
#
# Poissons Ratio (x) = 0.29177 0.12699
# Poissons Ratio (y) = 0.14446 0.30069
# Poissons Ratio (z) = 0.09535 0.45600
#
# Static dielectric constant tensor:
#      x y z
#    x 2.530930 0.000000 -0.519430 
#    y 0.000000 2.413080 0.000000 
#    z -0.519430 0.000000 2.779910 
# 
# From -- ./inp_files/14182.got.cif
#   From: 2010.05.17/outbox.cif.g08.bks.cpg/sg11_8_cif.got.tgz:14182.got - 2010.06.03 12:22:45.
