data_PCOD9164851
_publ_section_title
;
Structure prediction by ZEFSAII (Michael W. Deem and Ramdas Pophale) SiO2 
 PCOD9164851
Probable space group: P 21/M
;
_chemical_formula_sum "Si O2"
_cell_formula_units_Z 28
_cell_length_a 9.204191
_cell_length_b 8.403541
_cell_length_c 29.578659
_cell_angle_alpha 90.000000
_cell_angle_beta 141.137768
_cell_angle_gamma 90.000000
_cell_volume 1435.507599
_symmetry_space_group_name_H-M "P 21/M"
_symmetry_group_IT_number 11
_symmetry_cell_setting 'monoclinic'
loop_
_space_group_symop_operation_xyz
x,y,z
-x,1/2+y,-z
-x,-y,-z
x,1/2-y,z
loop_
_atom_site_type_symbol
_atom_site_label
_atom_site_fract_x
_atom_site_fract_y
_atom_site_fract_z
Si Si1 0.905128 0.557621 0.429096
Si Si2 0.956996 0.442434 0.715592
Si Si3 0.622011 0.057412 0.715747
Si Si4 0.186850 0.440762 0.142202
Si Si5 0.666875 0.940775 0.000728
Si Si6 0.522794 0.057663 0.142640
Si Si7 0.240014 0.557571 0.429061
O O1 0.904789 0.750000 0.429097
O O2 0.641374 0.504400 0.356879
O O3 0.000000 0.500000 0.500000
O O4 0.072034 0.503812 0.428868
O O5 0.957576 0.250000 0.715643
O O6 0.217264 0.499975 0.786232
O O7 0.790203 0.495594 0.715936
O O8 0.857589 0.496061 0.643120
O O9 0.622855 0.250000 0.716424
O O10 0.714976 0.998643 0.786195
O O11 0.184056 0.250000 0.141238
O O12 0.353731 0.496489 0.141965
O O13 0.927211 0.501174 0.071798
O O14 0.665695 0.750000 0.000543
O O15 0.572346 0.996487 0.929084
O O16 0.500000 0.000000 0.000000
O O17 0.523043 0.250000 0.142674
O O18 0.500000 0.500000 0.500000
O O19 0.240241 0.750000 0.429002
#
# Coordination Sequence:
#
# PCOD9164851 Si02
#       7
#     4   4   4   4   4   4   4
#     4  10  21  37  58  83 113 148 189 233 282 337
#     4  10  21  37  59  84 111 145 187 231 279 333
#     4  10  21  38  59  84 113 148 188 233 283 336
#     4  11  23  39  59  85 115 149 189 232 278 332
#     4  11  23  40  61  86 116 150 188 232 280 333
#     4  10  23  40  58  83 115 149 187 230 278 331
#     4  10  21  37  57  83 112 147 188 231 279 334
#
# _framework density 19.505296000000001
#
# number of rings (size 3 to 8) (size 9 to 14) (size 15 to 20)
#    0.000    1.714    0.000    3.857    0.000    9.143 
#    0.000    0.000    0.000    0.000    0.000    0.000 
#    0.000    0.000    0.000    0.000    0.000    0.000 
#
# Total GULP energy -156550.453909 kJ/mol
# GULP energy per Si atom -5591.087640 kJ/mol
# Density = 1.946090 g / cm^3
# Si number density = 19.505296 Si / 1000 Ang^3
#
#
#
# Elastic Constant Matrix: (Units=GPa)
#
#
# Indices 1 2 3 4 5 6 
#
# 1 249.9295 31.3253 151.6425 0.0000 -0.5105 0.0000
# 2 31.3253 12.0755 26.2682 0.0000 -1.3158 0.0000
# 3 151.6425 26.2682 244.3624 0.0000 -0.8405 0.0000
# 4 0.0000 0.0000 0.0000 37.7213 0.0000 2.9150
# 5 -0.5105 -1.3158 -0.8405 0.0000 47.0279 0.0000
# 6 0.0000 0.0000 0.0000 2.9150 0.0000 29.7719
#
#
#
# Elastic Compliance Matrix: (Units=1/GPa)
#
#
# Indices 1 2 3 4 5 6 
#
# 1 0.007614 -0.012407 -0.003392 0.000000 -0.000325 0.000000
# 2 -0.012407 0.128681 -0.006122 0.000000 0.003356 0.000000
# 3 -0.003392 -0.006122 0.006855 0.000000 -0.000086 0.000000
# 4 0.000000 0.000000 0.000000 0.026712 0.000000 -0.002615
# 5 -0.000325 0.003356 -0.000086 0.000000 0.021353 0.000000
# 6 0.000000 0.000000 0.000000 -0.002615 0.000000 0.033845
#
#
# Mechanical properties :
#
#
# Convention : Reuss Voigt Hill
#
# Bulk Modulus (GPa) = 10.06976 102.75995 56.41485
# Shear Modulus (GPa) = 16.55605 42.71297 29.63451
#
# Velocity S-wave (km/s) = 2.91657 4.68462 3.90206
# Velocity P-wave (km/s) = 4.06395 9.05861 7.02047
#
# Compressibility (1/GPa) = 0.09930723
#
# Stress axis : x y z
#
# Youngs Moduli (GPa) = 131.34186 7.77117 145.87620
#
# Poissons Ratio (x) = 0.09642 0.49484
# Poissons Ratio (y) = 1.62959 0.89302
# Poissons Ratio (z) = 0.44554 0.04757
#
# Static dielectric constant tensor:
#      x y z
#    x 1.669750 0.000000 -0.007930 
#    y 0.000000 1.681100 0.000000 
#    z -0.007930 0.000000 1.633580 
# 
# From -- ./inp_files/28350.got.cif
#   From: 2010.05.17/outbox.cif.g08.bks.cpg/sg11_15_cif.got.tgz:28350.got - 2010.06.03 12:22:45.
