data_PCOD9164816
_publ_section_title
;
Structure prediction by ZEFSAII (Michael W. Deem and Ramdas Pophale) SiO2 
 PCOD9164816
Probable space group: P 21/M
;
_chemical_formula_sum "Si O2"
_cell_formula_units_Z 28
_cell_length_a 7.960526
_cell_length_b 8.879312
_cell_length_c 28.273067
_cell_angle_alpha 90.000000
_cell_angle_beta 134.541448
_cell_angle_gamma 90.000000
_cell_volume 1424.384043
_symmetry_space_group_name_H-M "P 21/M"
_symmetry_group_IT_number 11
_symmetry_cell_setting 'monoclinic'
loop_
_space_group_symop_operation_xyz
x,y,z
-x,1/2+y,-z
-x,-y,-z
x,1/2-y,z
loop_
_atom_site_type_symbol
_atom_site_label
_atom_site_fract_x
_atom_site_fract_y
_atom_site_fract_z
Si Si1 0.520370 0.072464 0.787650
Si Si2 0.912842 0.430555 0.934002
Si Si3 0.067794 0.928719 0.655612
Si Si4 0.196355 0.568999 0.572917
Si Si5 0.054409 0.928794 0.203253
Si Si6 0.704639 0.430344 0.650969
Si Si7 0.270479 0.571935 0.931146
O O1 0.459593 0.250000 0.772844
O O2 0.645653 0.046033 0.863051
O O3 0.719326 0.043304 0.786455
O O4 0.292292 0.976159 0.731457
O O5 0.954573 0.250000 0.940883
O O6 0.066830 0.516712 0.925920
O O7 0.000000 0.500000 0.000000
O O8 0.031926 0.750000 0.650531
O O9 0.131927 0.971213 0.614418
O O10 0.839336 0.010950 0.631393
O O11 0.199525 0.750000 0.569981
O O12 0.450906 0.504093 0.609161
O O13 0.000000 0.500000 0.500000
O O14 0.008895 0.750000 0.191866
O O15 0.133268 0.969625 0.271475
O O16 0.824078 0.011664 0.137750
O O17 0.680167 0.250000 0.644970
O O18 0.296193 0.750000 0.934894
O O19 0.500000 0.500000 0.000000
#
# Coordination Sequence:
#
# PCOD9164816 Si02
#       7
#     4   4   4   4   4   4   4
#     4   9  18  36  60  84 116 158 204 254 311 375
#     4  10  21  37  56  82 116 157 204 255 312 375
#     4  11  24  40  63  97 131 164 209 261 312 375
#     4  11  25  45  69  97 132 171 211 260 316 377
#     4   9  19  37  60  86 117 156 205 258 314 377
#     4  11  23  41  68  97 128 168 212 260 314 376
#     4  11  22  36  56  81 114 158 205 258 315 372
#
# _framework density 19.657620999999999
#
# number of rings (size 3 to 8) (size 9 to 14) (size 15 to 20)
#    0.000    1.714    1.429    3.857    0.000    7.429 
#    0.000    1.429    0.000    0.000    0.000    0.000 
#    0.000    0.000    0.000    0.000    0.000    0.000 
#
# Total GULP energy -156381.468802 kJ/mol
# GULP energy per Si atom -5585.052457 kJ/mol
# Density = 1.961288 g / cm^3
# Si number density = 19.657621 Si / 1000 Ang^3
#
#
#
# Elastic Constant Matrix: (Units=GPa)
#
#
# Indices 1 2 3 4 5 6 
#
# 1 91.9383 48.8516 57.2143 0.0000 9.2694 0.0000
# 2 48.8516 80.9344 68.2363 0.0000 12.5612 0.0000
# 3 57.2143 68.2363 138.4655 0.0000 13.0450 0.0000
# 4 0.0000 0.0000 0.0000 37.1111 0.0000 4.3136
# 5 9.2694 12.5612 13.0450 0.0000 18.3178 0.0000
# 6 0.0000 0.0000 0.0000 4.3136 0.0000 31.5739
#
#
#
# Elastic Compliance Matrix: (Units=1/GPa)
#
#
# Indices 1 2 3 4 5 6 
#
# 1 0.016895 -0.007215 -0.003308 0.000000 -0.001246 0.000000
# 2 -0.007215 0.025251 -0.008763 0.000000 -0.007424 0.000000
# 3 -0.003308 -0.008763 0.013060 0.000000 -0.001617 0.000000
# 4 0.000000 0.000000 0.000000 0.027381 0.000000 -0.003741
# 5 -0.001246 -0.007424 -0.001617 0.000000 0.061465 0.000000
# 6 0.000000 0.000000 0.000000 -0.003741 0.000000 0.032183
#
#
# Mechanical properties :
#
#
# Convention : Reuss Voigt Hill
#
# Bulk Modulus (GPa) = 60.12103 73.32696 66.72399
# Shear Modulus (GPa) = 22.69102 26.53630 24.61366
#
# Velocity S-wave (km/s) = 3.40120 3.67812 3.54237
# Velocity P-wave (km/s) = 6.78784 7.44453 7.12376
#
# Compressibility (1/GPa) = 0.01663312
#
# Stress axis : x y z
#
# Youngs Moduli (GPa) = 59.18936 39.60192 76.57156
#
# Poissons Ratio (x) = 0.28575 0.25329
# Poissons Ratio (y) = 0.42708 0.67100
# Poissons Ratio (z) = 0.19579 0.34703
#
# Static dielectric constant tensor:
#      x y z
#    x 1.693260 0.000000 -0.016550 
#    y 0.000000 1.652920 0.000000 
#    z -0.016550 0.000000 1.717740 
# 
# From -- ./inp_files/72758.got.cif
#   From: 2010.05.17/outbox.cif.g08.bks.cpg/sg11_37_cif.got.tgz:72758.got - 2010.06.03 12:22:45.
