data_PCOD9164829
_publ_section_title
;
Structure prediction by ZEFSAII (Michael W. Deem and Ramdas Pophale) SiO2 
 PCOD9164829
Probable space group: P 21/M
;
_chemical_formula_sum "Si O2"
_cell_formula_units_Z 32
_cell_length_a 16.417513
_cell_length_b 8.218510
_cell_length_c 25.248177
_cell_angle_alpha 90.000000
_cell_angle_beta 150.843607
_cell_angle_gamma 90.000000
_cell_volume 1659.714693
_symmetry_space_group_name_H-M "P 21/M"
_symmetry_group_IT_number 11
_symmetry_cell_setting 'monoclinic'
loop_
_space_group_symop_operation_xyz
x,y,z
-x,1/2+y,-z
-x,-y,-z
x,1/2-y,z
loop_
_atom_site_type_symbol
_atom_site_label
_atom_site_fract_x
_atom_site_fract_y
_atom_site_fract_z
Si Si1 0.937594 0.948515 0.647367
Si Si2 0.372041 0.447266 0.599376
Si Si3 0.738982 0.555643 0.839130
Si Si4 0.538195 0.057648 0.963255
Si Si5 0.816347 0.936589 0.405426
Si Si6 0.928883 0.055370 0.163299
Si Si7 0.054925 0.553263 0.948193
Si Si8 0.768335 0.436131 0.268397
O O1 0.943436 0.750000 0.651745
O O2 0.756261 0.996477 0.520636
O O3 0.977469 0.006091 0.730062
O O4 0.086149 0.994420 0.689856
O O5 0.376933 0.250000 0.600850
O O6 0.563368 0.502435 0.713853
O O7 0.283076 0.512463 0.602490
O O8 0.742134 0.750000 0.842301
O O9 0.891884 0.498077 0.888553
O O10 0.784948 0.496112 0.924841
O O11 0.500377 0.250000 0.934666
O O12 0.411716 0.946833 0.859530
O O13 0.731999 0.033875 0.061171
O O14 0.500000 0.000000 0.000000
O O15 0.828270 0.750000 0.426536
O O16 0.741016 0.959887 0.305313
O O17 0.000000 0.000000 0.500000
O O18 0.963351 0.250000 0.181420
O O19 0.958938 0.993126 0.120449
O O20 0.056488 0.750000 0.947161
O O21 0.811355 0.250000 0.307082
#
# Coordination Sequence:
#
# PCOD9164829 Si02
#       8
#     4   4   4   4   4   4   4   4
#     4   9  17  34  56  78 105 145 187 219 263 325
#     4  10  21  37  57  79 109 149 187 220 269 339
#     4  10  21  37  58  85 113 139 176 229 282 327
#     4  11  21  34  53  80 111 148 190 230 276 329
#     4  11  22  36  54  79 110 148 191 231 274 328
#     4   9  18  34  58  81 105 142 186 226 269 333
#     4   9  19  38  62  84 108 141 179 224 280 337
#     4  11  21  36  53  75 111 150 189 234 277 326
#
# _framework density 19.280421
#
# number of rings (size 3 to 8) (size 9 to 14) (size 15 to 20)
#    0.000    2.000    2.500    1.500    1.750    1.500 
#    0.000    1.250    0.000    0.000    0.000    0.000 
#    0.000    0.000    0.000    0.000    0.000    0.000 
#
# Total GULP energy -178239.555986 kJ/mol
# GULP energy per Si atom -5569.986125 kJ/mol
# Density = 1.923654 g / cm^3
# Si number density = 19.280421 Si / 1000 Ang^3
#
#
#
# Elastic Constant Matrix: (Units=GPa)
#
#
# Indices 1 2 3 4 5 6 
#
# 1 99.5743 13.0685 49.4523 0.0000 -19.5649 0.0000
# 2 13.0685 15.7255 19.8361 0.0000 3.7083 0.0000
# 3 49.4523 19.8361 137.1155 0.0000 -20.2916 0.0000
# 4 0.0000 0.0000 0.0000 29.1159 0.0000 0.4004
# 5 -19.5649 3.7083 -20.2916 0.0000 26.8088 0.0000
# 6 0.0000 0.0000 0.0000 0.4004 0.0000 17.7334
#
#
#
# Elastic Compliance Matrix: (Units=1/GPa)
#
#
# Indices 1 2 3 4 5 6 
#
# 1 0.014810 -0.012563 -0.001878 0.000000 0.011125 0.000000
# 2 -0.012563 0.101551 -0.015311 0.000000 -0.034804 0.000000
# 3 -0.001878 -0.015311 0.011595 0.000000 0.009524 0.000000
# 4 0.000000 0.000000 0.000000 0.034356 0.000000 -0.000776
# 5 0.011125 -0.034804 0.009524 0.000000 0.057442 0.000000
# 6 0.000000 0.000000 0.000000 -0.000776 0.000000 0.056408
#
#
# Mechanical properties :
#
#
# Convention : Reuss Voigt Hill
#
# Bulk Modulus (GPa) = 14.60841 46.34767 30.47804
# Shear Modulus (GPa) = 13.94768 26.06886 20.00827
#
# Velocity S-wave (km/s) = 2.69255 3.68107 3.22491
# Velocity P-wave (km/s) = 4.15448 6.49291 5.45058
#
# Compressibility (1/GPa) = 0.06845370
#
# Stress axis : x y z
#
# Youngs Moduli (GPa) = 67.52261 9.84724 86.24650
#
# Poissons Ratio (x) = 0.12371 0.16194
# Poissons Ratio (y) = 0.84825 1.32051
# Poissons Ratio (z) = 0.12678 0.15077
#
# Static dielectric constant tensor:
#      x y z
#    x 2.361420 0.000000 -0.659540 
#    y 0.000000 1.729750 0.000000 
#    z -0.659540 0.000000 2.277260 
# 
# From -- ./inp_files/69110.got.cif
#   From: 2010.05.17/outbox.cif.g08.bks.cpg/sg11_35_cif.got.tgz:69110.got - 2010.06.03 12:22:45.
