data_PCOD9164064
_publ_section_title
;
Structure prediction by ZEFSAII (Michael W. Deem and Ramdas Pophale) SiO2 
 PCOD9164064
Probable space group: P 21/M
;
_chemical_formula_sum "Si O2"
_cell_formula_units_Z 28
_cell_length_a 10.715739
_cell_length_b 11.664534
_cell_length_c 11.333328
_cell_angle_alpha 90.000000
_cell_angle_beta 127.277509
_cell_angle_gamma 90.000000
_cell_volume 1127.203949
_symmetry_space_group_name_H-M "P 21/M"
_symmetry_group_IT_number 11
_symmetry_cell_setting 'monoclinic'
loop_
_space_group_symop_operation_xyz
x,y,z
-x,1/2+y,-z
-x,-y,-z
x,1/2-y,z
loop_
_atom_site_type_symbol
_atom_site_label
_atom_site_fract_x
_atom_site_fract_y
_atom_site_fract_z
Si Si1 0.947691 0.875889 0.562703
Si Si2 0.028904 0.630656 0.135405
Si Si3 0.688525 0.377882 0.164382
Si Si4 0.197359 0.877261 0.457119
Si Si5 0.218118 0.550873 0.032753
Si Si6 0.339167 0.376003 0.747023
Si Si7 0.500698 0.002161 0.357527
O O1 0.908280 0.750000 0.597986
O O2 0.847946 0.871336 0.384402
O O3 0.887546 0.000427 0.570549
O O4 0.135504 0.879111 0.678207
O O5 0.945583 0.750000 0.105324
O O6 0.178716 0.627297 0.305395
O O7 0.098238 0.621404 0.045033
O O8 0.900179 0.538627 0.092837
O O9 0.623504 0.250000 0.156648
O O10 0.702641 0.384222 0.029804
O O11 0.376504 0.496054 0.834366
O O12 0.142975 0.750000 0.464536
O O13 0.375706 0.896355 0.598964
O O14 0.337906 0.490604 0.193071
O O15 0.380918 0.250000 0.819206
O O16 0.419079 0.392899 0.662902
O O17 0.500000 0.000000 0.500000
#
# Coordination Sequence:
#
# PCOD9164064 Si02
#       7
#     4   4   4   4   4   4   4
#     4   9  19  39  65  98 134 175 226 277 335 400
#     4  10  21  38  63  98 134 170 221 279 339 404
#     4  11  23  41  67  99 138 186 236 282 337 410
#     4  10  20  38  65  99 134 169 216 275 336 402
#     4  11  23  41  66  96 139 181 226 280 345 409
#     4  10  24  42  66  98 138 183 229 287 345 407
#     4  11  24  44  67  97 134 175 226 282 345 412
#
# _framework density 24.840226999999999
#
# number of rings (size 3 to 8) (size 9 to 14) (size 15 to 20)
#    0.000    1.714    2.857    0.857    0.000    6.286 
#    0.000    0.000    0.000    0.000    0.000    0.000 
#    0.000    0.000    0.000    0.000    0.000    0.000 
#
# Total GULP energy -155887.556726 kJ/mol
# GULP energy per Si atom -5567.412740 kJ/mol
# Density = 2.478369 g / cm^3
# Si number density = 24.840227 Si / 1000 Ang^3
#
#
#
# Elastic Constant Matrix: (Units=GPa)
#
#
# Indices 1 2 3 4 5 6 
#
# 1 62.7128 49.4645 13.6823 0.0000 -11.6449 0.0000
# 2 49.4645 239.2065 33.6690 0.0000 -12.2530 0.0000
# 3 13.6823 33.6690 141.7599 0.0000 5.2290 0.0000
# 4 0.0000 0.0000 0.0000 14.6959 0.0000 10.3939
# 5 -11.6449 -12.2530 5.2290 0.0000 41.2804 0.0000
# 6 0.0000 0.0000 0.0000 10.3939 0.0000 -47.9447
#
#
#
# Elastic Compliance Matrix: (Units=1/GPa)
#
#
# Indices 1 2 3 4 5 6 
#
# 1 0.020025 -0.003729 -0.001220 0.000000 0.004697 0.000000
# 2 -0.003729 0.005104 -0.000873 0.000000 0.000574 0.000000
# 3 -0.001220 -0.000873 0.007436 0.000000 -0.001546 0.000000
# 4 0.000000 0.000000 0.000000 0.059000 0.000000 0.012791
# 5 0.004697 0.000574 -0.001546 0.000000 0.025916 0.000000
# 6 0.000000 0.000000 0.000000 0.012791 0.000000 -0.018085
#
#
# Mechanical properties :
#
#
# Convention : Reuss Voigt Hill
#
# Bulk Modulus (GPa) = 47.80042 70.81231 59.30637
# Shear Modulus (GPa) = 42.36761 24.73055 33.54908
#
# Velocity S-wave (km/s) = 4.13438 3.15871 3.67903
# Velocity P-wave (km/s) = 6.48658 6.47088 6.47873
#
# Compressibility (1/GPa) = 0.02092032
#
# Stress axis : x y z
#
# Youngs Moduli (GPa) = 49.93762 195.93124 134.47284
#
# Poissons Ratio (x) = 0.73053 0.16412
# Poissons Ratio (y) = 0.18619 0.11746
# Poissons Ratio (z) = 0.06095 0.17114
#
# Static dielectric constant tensor:
#      x y z
#    x 2.067780 0.000000 -0.020850 
#    y 0.000000 2.064110 0.000000 
#    z -0.020850 0.000000 1.994470 
# 
# From -- ./inp_files/60928.got.cif
#   From: 2010.05.17/outbox.cif.g08.bks.cpg/sg11_31_cif.got.tgz:60928.got - 2010.06.03 12:22:45.
