data_PCOD9164475
_publ_section_title
;
Structure prediction by ZEFSAII (Michael W. Deem and Ramdas Pophale) SiO2 
 PCOD9164475
Probable space group: P 21/M
;
_chemical_formula_sum "Si O2"
_cell_formula_units_Z 28
_cell_length_a 5.456401
_cell_length_b 17.801362
_cell_length_c 15.400278
_cell_angle_alpha 90.000000
_cell_angle_beta 62.627375
_cell_angle_gamma 90.000000
_cell_volume 1328.367475
_symmetry_space_group_name_H-M "P 21/M"
_symmetry_group_IT_number 11
_symmetry_cell_setting 'monoclinic'
loop_
_space_group_symop_operation_xyz
x,y,z
-x,1/2+y,-z
-x,-y,-z
x,1/2-y,z
loop_
_atom_site_type_symbol
_atom_site_label
_atom_site_fract_x
_atom_site_fract_y
_atom_site_fract_z
Si Si1 0.128341 0.934156 0.422288
Si Si2 0.691167 0.332795 0.471274
Si Si3 0.484245 0.163252 0.177480
Si Si4 0.133254 0.334852 0.674707
Si Si5 0.856498 0.394038 0.272323
Si Si6 0.673274 0.483387 0.058178
Si Si7 0.316607 0.047579 0.761303
O O1 0.103055 0.861624 0.488660
O O2 0.434826 0.960409 0.347979
O O3 0.026268 0.901483 0.347866
O O4 0.000000 0.000000 0.500000
O O5 0.758006 0.250000 0.427039
O O6 0.406627 0.329872 0.570202
O O7 0.708477 0.390450 0.389762
O O8 0.506093 0.250000 0.148832
O O9 0.654694 0.149605 0.238845
O O10 0.620083 0.103602 0.090063
O O11 0.160469 0.140821 0.235769
O O12 0.015626 0.250000 0.697239
O O13 0.200239 0.370049 0.758132
O O14 0.882441 0.477771 0.229470
O O15 0.583951 0.532296 0.157197
O O16 0.500000 0.500000 0.000000
O O17 0.000000 0.500000 0.000000
#
# Coordination Sequence:
#
# PCOD9164475 Si02
#       7
#     4   4   4   4   4   4   4
#     4  11  22  35  61  91 129 173 229 273 335 394
#     4  10  21  35  52  86 129 172 221 270 322 390
#     4  11  24  43  68 100 136 170 211 280 347 402
#     4  10  22  39  59  86 130 182 231 285 336 395
#     4  11  23  38  65  99 133 177 220 268 338 413
#     4  11  25  45  73 100 128 171 222 276 338 407
#     4  10  24  41  64  90 131 169 222 278 340 406
#
# _framework density 21.078506999999998
#
# number of rings (size 3 to 8) (size 9 to 14) (size 15 to 20)
#    0.000    1.429    0.000    5.143   12.000    2.857 
#    0.000    1.429    0.000    0.000    0.000    0.000 
#    0.000    0.000    0.000    0.000    0.000    0.000 
#
# Total GULP energy -156137.541485 kJ/mol
# GULP energy per Si atom -5576.340767 kJ/mol
# Density = 2.103053 g / cm^3
# Si number density = 21.078507 Si / 1000 Ang^3
#
#
#
# Elastic Constant Matrix: (Units=GPa)
#
#
# Indices 1 2 3 4 5 6 
#
# 1 113.1286 49.2679 33.1073 0.0000 14.4030 0.0000
# 2 49.2679 109.3064 40.7998 0.0000 2.9843 0.0000
# 3 33.1073 40.7998 75.8652 0.0000 22.4513 0.0000
# 4 0.0000 0.0000 0.0000 28.5552 0.0000 -1.3053
# 5 14.4030 2.9843 22.4513 0.0000 37.2370 0.0000
# 6 0.0000 0.0000 0.0000 -1.3053 0.0000 17.3759
#
#
#
# Elastic Compliance Matrix: (Units=1/GPa)
#
#
# Indices 1 2 3 4 5 6 
#
# 1 0.011729 -0.004548 -0.001750 0.000000 -0.003117 0.000000
# 2 -0.004548 0.013575 -0.006712 0.000000 0.004718 0.000000
# 3 -0.001750 -0.006712 0.020930 0.000000 -0.011404 0.000000
# 4 0.000000 0.000000 0.000000 0.035141 0.000000 0.002640
# 5 -0.003117 0.004718 -0.011404 0.000000 0.034559 0.000000
# 6 0.000000 0.000000 0.000000 0.002640 0.000000 0.057749
#
#
# Mechanical properties :
#
#
# Convention : Reuss Voigt Hill
#
# Bulk Modulus (GPa) = 49.47277 60.51668 54.99473
# Shear Modulus (GPa) = 24.21995 28.30864 26.26430
#
# Velocity S-wave (km/s) = 3.39342 3.66869 3.53373
# Velocity P-wave (km/s) = 6.23501 6.83507 6.54192
#
# Compressibility (1/GPa) = 0.02021314
#
# Stress axis : x y z
#
# Youngs Moduli (GPa) = 85.25584 73.66336 47.77921
#
# Poissons Ratio (x) = 0.33506 0.08362
# Poissons Ratio (y) = 0.38779 0.32070
# Poissons Ratio (z) = 0.14920 0.49443
#
# Static dielectric constant tensor:
#      x y z
#    x 1.909870 0.000000 0.007230 
#    y 0.000000 1.911140 0.000000 
#    z 0.007230 0.000000 1.750210 
# 
# From -- ./inp_files/6652.got.cif
#   From: 2010.05.17/outbox.cif.g08.bks.cpg/sg11_4_cif.got.tgz:6652.got - 2010.06.03 12:22:45.
