data_PCOD9164800
_publ_section_title
;
Structure prediction by ZEFSAII (Michael W. Deem and Ramdas Pophale) SiO2 
 PCOD9164800
Probable space group: P 21/M
;
_chemical_formula_sum "Si O2"
_cell_formula_units_Z 28
_cell_length_a 9.731244
_cell_length_b 9.034343
_cell_length_c 26.242282
_cell_angle_alpha 90.000000
_cell_angle_beta 133.273118
_cell_angle_gamma 90.000000
_cell_volume 1679.787153
_symmetry_space_group_name_H-M "P 21/M"
_symmetry_group_IT_number 11
_symmetry_cell_setting 'monoclinic'
loop_
_space_group_symop_operation_xyz
x,y,z
-x,1/2+y,-z
-x,-y,-z
x,1/2-y,z
loop_
_atom_site_type_symbol
_atom_site_label
_atom_site_fract_x
_atom_site_fract_y
_atom_site_fract_z
Si Si1 0.674417 0.423062 0.571249
Si Si2 0.200731 0.576001 0.929320
Si Si3 0.191307 0.927503 0.173674
Si Si4 0.532471 0.427624 0.199146
Si Si5 0.155746 0.576664 0.282616
Si Si6 0.046177 0.925285 0.683561
Si Si7 0.554605 0.575866 0.094590
O O1 0.500000 0.500000 0.500000
O O2 0.674942 0.250000 0.559700
O O3 0.674397 0.440375 0.633131
O O4 0.878691 0.494174 0.610211
O O5 0.169941 0.750000 0.911349
O O6 0.287756 0.495896 0.901873
O O7 0.006422 0.496942 0.894570
O O8 0.358541 0.563293 0.013365
O O9 0.190494 0.750000 0.167471
O O10 0.202545 0.962440 0.237039
O O11 0.365063 0.998442 0.188112
O O12 0.511724 0.250000 0.192478
O O13 0.534785 0.492272 0.142728
O O14 0.739260 0.462165 0.275159
O O15 0.100014 0.750000 0.269802
O O16 0.994090 0.480055 0.268634
O O17 0.020157 0.750000 0.674052
O O18 0.594827 0.750000 0.112621
#
# Coordination Sequence:
#
# PCOD9164800 Si02
#       7
#     4   4   4   4   4   4   4
#     4   9  17  31  53  82 110 133 168 213 255 303
#     4  10  21  37  56  79 105 135 175 225 272 316
#     4  11  22  36  54  76 105 143 181 218 266 320
#     4  11  23  36  52  77 108 141 179 223 267 312
#     4   8  18  33  51  76 104 134 169 212 256 305
#     4   9  18  32  52  77 104 136 170 210 258 307
#     4  10  21  37  57  78 103 138 178 220 270 322
#
# _framework density 16.668779000000001
#
# number of rings (size 3 to 8) (size 9 to 14) (size 15 to 20)
#    0.857    1.429    0.000    3.000    0.000    8.000 
#    0.000    0.000    0.000    0.857    0.000    0.000 
#    0.000    0.000    0.000    0.000    0.000    0.000 
#
# Total GULP energy -156008.476768 kJ/mol
# GULP energy per Si atom -5571.731313 kJ/mol
# Density = 1.663084 g / cm^3
# Si number density = 16.668779 Si / 1000 Ang^3
#
#
#
# Elastic Constant Matrix: (Units=GPa)
#
#
# Indices 1 2 3 4 5 6 
#
# 1 86.6089 48.4758 45.7825 0.0000 34.8911 0.0000
# 2 48.4758 92.3894 55.1490 0.0000 24.4088 0.0000
# 3 45.7825 55.1490 91.7737 0.0000 28.0754 0.0000
# 4 0.0000 0.0000 0.0000 22.1787 0.0000 3.2984
# 5 34.8911 24.4088 28.0754 0.0000 23.4327 0.0000
# 6 0.0000 0.0000 0.0000 3.2984 0.0000 29.8877
#
#
#
# Elastic Compliance Matrix: (Units=1/GPa)
#
#
# Indices 1 2 3 4 5 6 
#
# 1 0.030819 -0.005760 0.000458 0.000000 -0.040437 0.000000
# 2 -0.005760 0.019120 -0.008125 0.000000 -0.001604 0.000000
# 3 0.000458 -0.008125 0.020790 0.000000 -0.017127 0.000000
# 4 0.000000 0.000000 0.000000 0.045841 0.000000 -0.005059
# 5 -0.040437 -0.001604 -0.017127 0.000000 0.125078 0.000000
# 6 0.000000 0.000000 0.000000 -0.005059 0.000000 0.034017
#
#
# Mechanical properties :
#
#
# Convention : Reuss Voigt Hill
#
# Bulk Modulus (GPa) = 22.79293 63.28741 43.04017
# Shear Modulus (GPa) = 15.76568 23.19078 19.47823
#
# Velocity S-wave (km/s) = 3.07876 3.73402 3.42211
# Velocity P-wave (km/s) = 5.13245 7.52600 6.44138
#
# Compressibility (1/GPa) = 0.04387326
#
# Stress axis : x y z
#
# Youngs Moduli (GPa) = 32.44797 52.30083 48.09919
#
# Poissons Ratio (x) = 0.30126 -0.02201
# Poissons Ratio (y) = 0.18691 0.39082
# Poissons Ratio (z) = -0.01485 0.42496
#
# Static dielectric constant tensor:
#      x y z
#    x 1.532020 0.000000 0.001170 
#    y 0.000000 1.555340 0.000000 
#    z 0.001170 0.000000 1.584740 
# 
# From -- ./inp_files/72759.got.cif
#   From: 2010.05.17/outbox.cif.g08.bks.cpg/sg11_37_cif.got.tgz:72759.got - 2010.06.03 12:22:45.
