data_PCOD9164216
_publ_section_title
;
Structure prediction by ZEFSAII (Michael W. Deem and Ramdas Pophale) SiO2 
 PCOD9164216
Probable space group: P 21/M
;
_chemical_formula_sum "Si O2"
_cell_formula_units_Z 32
_cell_length_a 12.350464
_cell_length_b 15.154713
_cell_length_c 17.965337
_cell_angle_alpha 90.000000
_cell_angle_beta 153.478309
_cell_angle_gamma 90.000000
_cell_volume 1501.493322
_symmetry_space_group_name_H-M "P 21/M"
_symmetry_group_IT_number 11
_symmetry_cell_setting 'monoclinic'
loop_
_space_group_symop_operation_xyz
x,y,z
-x,1/2+y,-z
-x,-y,-z
x,1/2-y,z
loop_
_atom_site_type_symbol
_atom_site_label
_atom_site_fract_x
_atom_site_fract_y
_atom_site_fract_z
Si Si1 0.406663 0.850403 0.146442
Si Si2 0.496138 0.654372 0.781692
Si Si3 0.264858 0.897365 0.790672
Si Si4 0.916121 0.512063 0.033339
Si Si5 0.624589 0.091412 0.599302
Si Si6 0.283067 0.403253 0.517809
Si Si7 0.326057 0.389938 0.839755
Si Si8 0.778967 0.116206 0.536385
O O1 0.325747 0.750000 0.108652
O O2 0.566196 0.882103 0.315025
O O3 0.577763 0.855388 0.179563
O O4 0.181667 0.917740 0.997923
O O5 0.612555 0.750000 0.865414
O O6 0.314638 0.635641 0.738076
O O7 0.362630 0.653824 0.620779
O O8 0.689279 0.576858 0.899126
O O9 0.994124 0.871394 0.648415
O O10 0.297169 0.003785 0.812688
O O11 0.473715 0.866161 0.975371
O O12 0.128859 0.559085 0.209692
O O13 0.000000 0.500000 0.000000
O O14 0.442085 0.132805 0.547028
O O15 0.680637 0.141112 0.557214
O O16 0.500000 0.000000 0.500000
O O17 0.256409 0.509585 0.492847
O O18 0.060564 0.360169 0.701143
#
# Coordination Sequence:
#
# PCOD9164216 Si02
#       8
#     4   4   4   4   4   4   4   4
#     4  12  25  41  66 100 132 172 221 273 339 399
#     4  12  25  43  70 102 134 178 228 278 340 400
#     4  10  21  39  69  99 131 178 225 274 334 399
#     4  12  23  46  72  96 137 177 222 280 334 401
#     4  10  21  39  71 101 128 178 224 270 340 399
#     4  10  20  40  65  95 135 174 222 264 331 397
#     4  10  21  38  66  98 134 175 223 276 337 396
#     4  10  20  39  66  99 131 180 223 274 333 403
#
# _framework density 21.312118000000002
#
# number of rings (size 3 to 8) (size 9 to 14) (size 15 to 20)
#    0.000    1.250    3.750    2.250    5.250    5.000 
#    0.000    2.500    0.000    0.750    0.000    0.000 
#    0.000    0.000    0.000    0.000    0.000    0.000 
#
# Total GULP energy -178900.900868 kJ/mol
# GULP energy per Si atom -5590.653152 kJ/mol
# Density = 2.126361 g / cm^3
# Si number density = 21.312118 Si / 1000 Ang^3
#
#
#
# Elastic Constant Matrix: (Units=GPa)
#
#
# Indices 1 2 3 4 5 6 
#
# 1 198.7108 29.0128 69.7698 0.0000 1.3978 0.0000
# 2 29.0128 89.4147 18.8594 0.0000 13.0225 0.0000
# 3 69.7698 18.8594 114.5325 0.0000 0.8981 0.0000
# 4 0.0000 0.0000 0.0000 -7.7561 0.0000 2.4345
# 5 1.3978 13.0225 0.8981 0.0000 37.6827 0.0000
# 6 0.0000 0.0000 0.0000 2.4345 0.0000 -18.9798
#
#
#
# Elastic Compliance Matrix: (Units=1/GPa)
#
#
# Indices 1 2 3 4 5 6 
#
# 1 0.006555 -0.001379 -0.003768 0.000000 0.000323 0.000000
# 2 -0.001379 0.012499 -0.001185 0.000000 -0.004240 0.000000
# 3 -0.003768 -0.001185 0.011220 0.000000 0.000282 0.000000
# 4 0.000000 0.000000 0.000000 -0.134340 0.000000 -0.017232
# 5 0.000323 -0.004240 0.000282 0.000000 0.027984 0.000000
# 6 0.000000 0.000000 0.000000 -0.017232 0.000000 -0.054898
#
#
# Mechanical properties :
#
#
# Convention : Reuss Voigt Hill
#
# Bulk Modulus (GPa) = 56.79039 70.88243 63.83641
# Shear Modulus (GPa) = -44.46530 21.19043 -11.63743
#
# Velocity S-wave (km/s) = -4.57265 3.15666 -2.33930
# Velocity P-wave (km/s) = 1.08352 6.82769 4.76673
#
# Compressibility (1/GPa) = 0.01760861
#
# Stress axis : x y z
#
# Youngs Moduli (GPa) = 152.56408 80.00813 89.12989
#
# Poissons Ratio (x) = 0.11034 0.33587
# Poissons Ratio (y) = 0.21040 0.10560
# Poissons Ratio (z) = 0.57491 0.09479
#
# Static dielectric constant tensor:
#      x y z
#    x 1.764120 0.000000 -0.013110 
#    y 0.000000 1.807660 0.000000 
#    z -0.013110 0.000000 1.625970 
# 
# From -- ./inp_files/59487.got.cif
#   From: 2010.05.17/outbox.cif.g08.bks.cpg/sg11_30_cif.got.tgz:59487.got - 2010.06.03 12:22:45.
