data_PCOD9164636
_publ_section_title
;
Structure prediction by ZEFSAII (Michael W. Deem and Ramdas Pophale) SiO2 
 PCOD9164636
Probable space group: P 21/M
;
_chemical_formula_sum "Si O2"
_cell_formula_units_Z 28
_cell_length_a 14.553237
_cell_length_b 8.810684
_cell_length_c 14.776451
_cell_angle_alpha 90.000000
_cell_angle_beta 59.754253
_cell_angle_gamma 90.000000
_cell_volume 1636.775871
_symmetry_space_group_name_H-M "P 21/M"
_symmetry_group_IT_number 11
_symmetry_cell_setting 'monoclinic'
loop_
_space_group_symop_operation_xyz
x,y,z
-x,1/2+y,-z
-x,-y,-z
x,1/2-y,z
loop_
_atom_site_type_symbol
_atom_site_label
_atom_site_fract_x
_atom_site_fract_y
_atom_site_fract_z
Si Si1 0.787152 0.928763 0.276530
Si Si2 0.392090 0.570451 0.510353
Si Si3 0.406480 0.068066 0.109081
Si Si4 0.425276 0.074492 0.305619
Si Si5 0.235325 0.068802 0.050681
Si Si6 0.675636 0.423774 0.166886
Si Si7 0.014635 0.932877 0.094239
O O1 0.778383 0.750000 0.298569
O O2 0.911011 0.970348 0.206154
O O3 0.711500 0.015910 0.383501
O O4 0.740183 0.969106 0.201541
O O5 0.500000 0.500000 0.500000
O O6 0.402264 0.750000 0.512189
O O7 0.381557 0.518815 0.411574
O O8 0.424599 0.250000 0.103038
O O9 0.405939 0.014937 0.213496
O O10 0.293073 0.040103 0.117381
O O11 0.500000 0.000000 0.000000
O O12 0.388314 0.250000 0.329255
O O13 0.552737 0.075559 0.254080
O O14 0.232607 0.250000 0.037388
O O15 0.119656 0.000027 0.088806
O O16 0.310343 0.988169 0.939835
O O17 0.715025 0.250000 0.152866
O O18 0.021806 0.750000 0.083320
O O19 0.000000 0.000000 0.000000
#
# Coordination Sequence:
#
# PCOD9164636 Si02
#       7
#     4   4   4   4   4   4   4
#     4  11  23  38  56  80 112 148 187 231 279 332
#     4  12  24  37  57  83 112 148 185 228 279 334
#     4  10  21  36  56  82 113 150 188 229 279 330
#     4  10  21  37  55  80 114 150 187 228 275 328
#     4  11  22  35  54  82 117 152 188 230 278 333
#     4  11  20  31  54  82 114 152 187 225 272 329
#     4  11  23  37  57  82 112 149 188 231 282 335
#
# _framework density 17.106801000000001
#
# number of rings (size 3 to 8) (size 9 to 14) (size 15 to 20)
#    0.000    1.143    4.286    3.000    0.000    3.429 
#    0.000    0.000    0.000    0.857    0.000    0.000 
#    0.000    0.000    0.000    0.000    0.000    0.000 
#
# Total GULP energy -156328.725696 kJ/mol
# GULP energy per Si atom -5583.168775 kJ/mol
# Density = 1.706787 g / cm^3
# Si number density = 17.106801 Si / 1000 Ang^3
#
#
#
# Elastic Constant Matrix: (Units=GPa)
#
#
# Indices 1 2 3 4 5 6 
#
# 1 79.6828 26.6334 34.6940 0.0000 0.4358 0.0000
# 2 26.6334 70.9441 44.0624 0.0000 -7.7340 0.0000
# 3 34.6940 44.0624 102.5802 0.0000 1.3143 0.0000
# 4 0.0000 0.0000 0.0000 29.6320 0.0000 -2.2746
# 5 0.4358 -7.7340 1.3143 0.0000 27.9706 0.0000
# 6 0.0000 0.0000 0.0000 -2.2746 0.0000 21.6344
#
#
#
# Elastic Compliance Matrix: (Units=1/GPa)
#
#
# Indices 1 2 3 4 5 6 
#
# 1 0.015344 -0.003632 -0.003616 0.000000 -0.001073 0.000000
# 2 -0.003632 0.021040 -0.007889 0.000000 0.006245 0.000000
# 3 -0.003616 -0.007889 0.014396 0.000000 -0.002802 0.000000
# 4 0.000000 0.000000 0.000000 0.034022 0.000000 0.003577
# 5 -0.001073 0.006245 -0.002802 0.000000 0.037627 0.000000
# 6 0.000000 0.000000 0.000000 0.003577 0.000000 0.046599
#
#
# Mechanical properties :
#
#
# Convention : Reuss Voigt Hill
#
# Bulk Modulus (GPa) = 48.76541 51.55409 50.15975
# Shear Modulus (GPa) = 24.25590 25.70189 24.97890
#
# Velocity S-wave (km/s) = 3.76960 3.88033 3.82537
# Velocity P-wave (km/s) = 6.89310 7.09070 6.99260
#
# Compressibility (1/GPa) = 0.02050634
#
# Stress axis : x y z
#
# Youngs Moduli (GPa) = 65.17299 47.52953 69.46379
#
# Poissons Ratio (x) = 0.17261 0.25117
# Poissons Ratio (y) = 0.23668 0.54801
# Poissons Ratio (z) = 0.23565 0.37497
#
# Static dielectric constant tensor:
#      x y z
#    x 1.582650 0.000000 0.003320 
#    y 0.000000 1.583000 0.000000 
#    z 0.003320 0.000000 1.577060 
# 
# From -- ./inp_files/51090.got.cif
#   From: 2010.05.17/outbox.cif.g08.bks.cpg/sg11_26_cif.got.tgz:51090.got - 2010.06.03 12:22:45.
