data_PCOD9164533
_publ_section_title
;
Structure prediction by ZEFSAII (Michael W. Deem and Ramdas Pophale) SiO2 
 PCOD9164533
Probable space group: P 21/M
;
_chemical_formula_sum "Si O2"
_cell_formula_units_Z 32
_cell_length_a 15.996562
_cell_length_b 8.349831
_cell_length_c 26.768793
_cell_angle_alpha 90.000000
_cell_angle_beta 152.510834
_cell_angle_gamma 90.000000
_cell_volume 1650.368555
_symmetry_space_group_name_H-M "P 21/M"
_symmetry_group_IT_number 11
_symmetry_cell_setting 'monoclinic'
loop_
_space_group_symop_operation_xyz
x,y,z
-x,1/2+y,-z
-x,-y,-z
x,1/2-y,z
loop_
_atom_site_type_symbol
_atom_site_label
_atom_site_fract_x
_atom_site_fract_y
_atom_site_fract_z
Si Si1 0.663112 0.056479 0.489696
Si Si2 0.137050 0.556736 0.503950
Si Si3 0.977089 0.441972 0.044329
Si Si4 0.248331 0.556634 0.673333
Si Si5 0.370678 0.442379 0.078685
Si Si6 0.333510 0.558214 0.945158
Si Si7 0.069638 0.056489 0.282319
Si Si8 0.750719 0.554613 0.726314
O O1 0.658812 0.250000 0.486691
O O2 0.748005 0.000751 0.482316
O O3 0.456676 0.999742 0.386129
O O4 0.793006 0.003717 0.603155
O O5 0.138518 0.750000 0.504981
O O6 0.220138 0.502271 0.601009
O O7 0.929686 0.500416 0.391870
O O8 0.976540 0.250000 0.044065
O O9 0.142907 0.496879 0.167713
O O10 0.793123 0.500064 0.973194
O O11 0.000000 0.500000 0.000000
O O12 0.249042 0.750000 0.673746
O O13 0.436578 0.501766 0.796807
O O14 0.370422 0.250000 0.078068
O O15 0.348865 0.502534 0.010587
O O16 0.333261 0.750000 0.944589
O O17 0.137770 0.502649 0.820723
O O18 0.500000 0.500000 0.000000
O O19 0.071432 0.250000 0.284164
O O20 0.139843 0.004677 0.264949
O O21 0.749032 0.750000 0.725634
#
# Coordination Sequence:
#
# PCOD9164533 Si02
#       8
#     4   4   4   4   4   4   4   4
#     4  10  21  35  59  88 111 146 195 241 290 349
#     4   9  19  36  56  83 114 149 192 238 287 347
#     4  11  23  41  64  91 124 163 203 249 302 359
#     4   9  20  37  58  81 114 155 192 234 292 350
#     4  11  23  40  64  93 122 159 203 249 302 361
#     4  11  24  42  63  89 123 162 203 249 304 362
#     4  10  21  40  60  82 115 154 192 238 298 354
#     4   9  19  39  62  82 114 155 191 237 300 355
#
# _framework density 19.389609
#
# number of rings (size 3 to 8) (size 9 to 14) (size 15 to 20)
#    0.000    2.000    1.250    1.500    3.500    2.500 
#    0.000    1.250    0.000    0.000    0.000    0.000 
#    0.000    0.000    0.000    0.000    0.000    0.000 
#
# Total GULP energy -178734.508855 kJ/mol
# GULP energy per Si atom -5585.453402 kJ/mol
# Density = 1.934548 g / cm^3
# Si number density = 19.389609 Si / 1000 Ang^3
#
#
#
# Elastic Constant Matrix: (Units=GPa)
#
#
# Indices 1 2 3 4 5 6 
#
# 1 138.7984 18.8265 59.9104 0.0000 28.3649 0.0000
# 2 18.8265 21.8783 18.4911 0.0000 5.9367 0.0000
# 3 59.9104 18.4911 151.7027 0.0000 37.9596 0.0000
# 4 0.0000 0.0000 0.0000 16.7982 0.0000 -5.7781
# 5 28.3649 5.9367 37.9596 0.0000 21.8496 0.0000
# 6 0.0000 0.0000 0.0000 -5.7781 0.0000 30.4954
#
#
#
# Elastic Compliance Matrix: (Units=1/GPa)
#
#
# Indices 1 2 3 4 5 6 
#
# 1 0.010480 -0.005435 -0.000781 0.000000 -0.010772 0.000000
# 2 -0.005435 0.054139 -0.004489 0.000000 0.000144 0.000000
# 3 -0.000781 -0.004489 0.012186 0.000000 -0.018937 0.000000
# 4 0.000000 0.000000 0.000000 0.063681 0.000000 0.012066
# 5 -0.010772 0.000144 -0.018937 0.000000 0.092612 0.000000
# 6 0.000000 0.000000 0.000000 0.012066 0.000000 0.035078
#
#
# Mechanical properties :
#
#
# Convention : Reuss Voigt Hill
#
# Bulk Modulus (GPa) = 18.05202 56.31503 37.18353
# Shear Modulus (GPa) = 16.23106 28.17206 22.20156
#
# Velocity S-wave (km/s) = 2.89641 3.81589 3.38749
# Velocity P-wave (km/s) = 4.52945 6.96575 5.87527
#
# Compressibility (1/GPa) = 0.05539545
#
# Stress axis : x y z
#
# Youngs Moduli (GPa) = 95.41603 18.47092 82.06166
#
# Poissons Ratio (x) = 0.10040 0.06409
# Poissons Ratio (y) = 0.51863 0.36834
# Poissons Ratio (z) = 0.07452 0.08291
#
# Static dielectric constant tensor:
#      x y z
#    x 1.636750 0.000000 0.002820 
#    y 0.000000 1.674490 0.000000 
#    z 0.002820 0.000000 1.666480 
# 
# From -- ./inp_files/51683.got.cif
#   From: 2010.05.17/outbox.cif.g08.bks.cpg/sg11_26_cif.got.tgz:51683.got - 2010.06.03 12:22:45.
