data_PCOD9164581
_publ_section_title
;
Structure prediction by ZEFSAII (Michael W. Deem and Ramdas Pophale) SiO2 
 PCOD9164581
Probable space group: P 21/M
;
_chemical_formula_sum "Si O2"
_cell_formula_units_Z 28
_cell_length_a 20.435441
_cell_length_b 8.948781
_cell_length_c 24.358235
_cell_angle_alpha 90.000000
_cell_angle_beta 157.820496
_cell_angle_gamma 90.000000
_cell_volume 1681.595985
_symmetry_space_group_name_H-M "P 21/M"
_symmetry_group_IT_number 11
_symmetry_cell_setting 'monoclinic'
loop_
_space_group_symop_operation_xyz
x,y,z
-x,1/2+y,-z
-x,-y,-z
x,1/2-y,z
loop_
_atom_site_type_symbol
_atom_site_label
_atom_site_fract_x
_atom_site_fract_y
_atom_site_fract_z
Si Si1 0.676201 0.926282 0.473867
Si Si2 0.011510 0.930341 0.448394
Si Si3 0.677503 0.929701 0.116094
Si Si4 0.624143 0.574053 0.552379
Si Si5 0.682929 0.569777 0.992417
Si Si6 0.941048 0.427748 0.750117
Si Si7 0.633512 0.928701 0.317961
O O1 0.722039 0.750000 0.509338
O O2 0.563595 0.950928 0.441728
O O3 0.596392 0.961850 0.353355
O O4 0.847975 0.021299 0.621001
O O5 0.019860 0.750000 0.457896
O O6 0.842234 0.972824 0.281239
O O7 0.000000 0.000000 0.500000
O O8 0.184690 0.995007 0.555537
O O9 0.663387 0.750000 0.107937
O O10 0.702150 0.970472 0.071413
O O11 0.500000 0.000000 0.000000
O O12 0.500000 0.500000 0.500000
O O13 0.633044 0.750000 0.569075
O O14 0.818112 0.505188 0.699886
O O15 0.664763 0.750000 0.975160
O O16 0.516892 0.492909 0.837025
O O17 0.859278 0.527506 0.097621
O O18 0.929646 0.250000 0.746560
O O19 0.646808 0.750000 0.321357
#
# Coordination Sequence:
#
# PCOD9164581 Si02
#       7
#     4   4   4   4   4   4   4
#     4   8  18  33  50  75 107 137 173 217 263 310
#     4  11  23  39  57  79 106 139 178 223 270 323
#     4  10  22  38  55  76 104 137 176 220 268 317
#     4   9  17  31  52  81 112 140 176 222 267 319
#     4  10  21  36  53  76 106 140 179 223 267 317
#     4   9  17  31  53  78 104 137 177 219 266 314
#     4  11  22  36  54  78 107 142 179 221 270 318
#
# _framework density 16.650849000000001
#
# number of rings (size 3 to 8) (size 9 to 14) (size 15 to 20)
#    0.857    1.429    0.000    3.000    0.000    7.429 
#    0.000    0.000    0.000    0.857    0.000    0.000 
#    0.000    0.000    0.000    0.000    0.000    0.000 
#
# Total GULP energy -155938.694489 kJ/mol
# GULP energy per Si atom -5569.239089 kJ/mol
# Density = 1.661295 g / cm^3
# Si number density = 16.650849 Si / 1000 Ang^3
#
#
#
# Elastic Constant Matrix: (Units=GPa)
#
#
# Indices 1 2 3 4 5 6 
#
# 1 131.9852 54.7850 77.3016 0.0000 11.0723 0.0000
# 2 54.7850 50.2165 52.3017 0.0000 2.4675 0.0000
# 3 77.3016 52.3017 142.9604 0.0000 3.0757 0.0000
# 4 0.0000 0.0000 0.0000 26.4362 0.0000 1.1346
# 5 11.0723 2.4675 3.0757 0.0000 25.7781 0.0000
# 6 0.0000 0.0000 0.0000 1.1346 0.0000 28.4157
#
#
#
# Elastic Compliance Matrix: (Units=1/GPa)
#
#
# Indices 1 2 3 4 5 6 
#
# 1 0.015403 -0.012920 -0.003495 0.000000 -0.004962 0.000000
# 2 -0.012920 0.043083 -0.008829 0.000000 0.002479 0.000000
# 3 -0.003495 -0.008829 0.012095 0.000000 0.000903 0.000000
# 4 0.000000 0.000000 0.000000 0.037892 0.000000 -0.001513
# 5 -0.004962 0.002479 0.000903 0.000000 0.040579 0.000000
# 6 0.000000 0.000000 0.000000 -0.001513 0.000000 0.035252
#
#
# Mechanical properties :
#
#
# Convention : Reuss Voigt Hill
#
# Bulk Modulus (GPa) = 49.76858 77.10430 63.43644
# Shear Modulus (GPa) = 20.70476 25.51093 23.10785
#
# Velocity S-wave (km/s) = 3.53011 3.91846 3.72934
# Velocity P-wave (km/s) = 6.82422 8.17799 7.53158
#
# Compressibility (1/GPa) = 0.02009300
#
# Stress axis : x y z
#
# Youngs Moduli (GPa) = 64.92317 23.21096 82.67574
#
# Poissons Ratio (x) = 0.29989 0.28896
# Poissons Ratio (y) = 0.83881 0.72995
# Poissons Ratio (z) = 0.22691 0.20493
#
# Static dielectric constant tensor:
#      x y z
#    x 1.572650 0.000000 -0.007870 
#    y 0.000000 1.554430 0.000000 
#    z -0.007870 0.000000 1.539260 
# 
# From -- ./inp_files/69843.got.cif
#   From: 2010.05.17/outbox.cif.g08.bks.cpg/sg11_35_cif.got.tgz:69843.got - 2010.06.03 12:22:45.
