data_PCOD9164979
_publ_section_title
;
Structure prediction by ZEFSAII (Michael W. Deem and Ramdas Pophale) SiO2 
 PCOD9164979
Probable space group: P 21/M
;
_chemical_formula_sum "Si O2"
_cell_formula_units_Z 28
_cell_length_a 22.514590
_cell_length_b 8.458791
_cell_length_c 8.310379
_cell_angle_alpha 90.000000
_cell_angle_beta 131.906998
_cell_angle_gamma 90.000000
_cell_volume 1177.878038
_symmetry_space_group_name_H-M "P 21/M"
_symmetry_group_IT_number 11
_symmetry_cell_setting 'monoclinic'
loop_
_space_group_symop_operation_xyz
x,y,z
-x,1/2+y,-z
-x,-y,-z
x,1/2-y,z
loop_
_atom_site_type_symbol
_atom_site_label
_atom_site_fract_x
_atom_site_fract_y
_atom_site_fract_z
Si Si1 0.544407 0.566253 0.736908
Si Si2 0.168374 0.940413 0.732433
Si Si3 0.122401 0.069633 0.142440
Si Si4 0.320199 0.936008 0.817252
Si Si5 0.023858 0.433381 0.295588
Si Si6 0.404086 0.069058 0.657931
Si Si7 0.739272 0.433918 0.779103
O O1 0.500000 0.500000 0.500000
O O2 0.563679 0.750000 0.753475
O O3 0.479843 0.541189 0.762817
O O4 0.622372 0.468162 0.926379
O O5 0.161625 0.750000 0.720592
O O6 0.231500 0.985812 0.707526
O O7 0.081941 0.011129 0.542048
O O8 0.211600 0.986954 0.975724
O O9 0.150409 0.250000 0.178510
O O10 0.078079 0.050778 0.232251
O O11 0.054882 0.032027 0.886839
O O12 0.196975 0.955742 0.249542
O O13 0.320315 0.750000 0.779229
O O14 0.358671 0.030548 0.740456
O O15 0.001160 0.250000 0.273591
O O16 0.430496 0.250000 0.700334
O O17 0.338623 0.033596 0.401937
O O18 0.717212 0.250000 0.755831
#
# Coordination Sequence:
#
# PCOD9164979 Si02
#       7
#     4   4   4   4   4   4   4
#     4  12  25  43  66  94 127 163 203 250 304 361
#     4  10  23  40  60  86 119 157 197 244 299 358
#     4  10  21  38  60  87 118 154 198 246 299 360
#     4  11  23  42  66  92 123 162 206 252 302 359
#     4  10  21  37  60  87 116 153 198 246 297 356
#     4  12  25  42  64  92 124 161 205 252 303 360
#     4  11  23  40  61  88 121 158 201 249 303 361
#
# _framework density 23.771561999999999
#
# number of rings (size 3 to 8) (size 9 to 14) (size 15 to 20)
#    0.000    1.143    0.000    6.429    0.000    8.000 
#    0.000    0.000    0.000    0.000    0.000    0.000 
#    0.000    0.000    0.000    0.000    0.000    0.000 
#
# Total GULP energy -156913.819258 kJ/mol
# GULP energy per Si atom -5604.064973 kJ/mol
# Density = 2.371746 g / cm^3
# Si number density = 23.771562 Si / 1000 Ang^3
#
#
#
# Elastic Constant Matrix: (Units=GPa)
#
#
# Indices 1 2 3 4 5 6 
#
# 1 62.6787 2.8907 -0.8296 0.0000 4.8914 0.0000
# 2 2.8907 49.2813 1.0242 0.0000 1.0180 0.0000
# 3 -0.8296 1.0242 103.4380 0.0000 4.5775 0.0000
# 4 0.0000 0.0000 0.0000 35.7578 0.0000 -1.3751
# 5 4.8914 1.0180 4.5775 0.0000 39.6009 0.0000
# 6 0.0000 0.0000 0.0000 -1.3751 0.0000 23.9412
#
#
#
# Elastic Compliance Matrix: (Units=1/GPa)
#
#
# Indices 1 2 3 4 5 6 
#
# 1 0.016155 -0.000911 0.000227 0.000000 -0.001998 0.000000
# 2 -0.000911 0.020357 -0.000192 0.000000 -0.000389 0.000000
# 3 0.000227 -0.000192 0.009722 0.000000 -0.001147 0.000000
# 4 0.000000 0.000000 0.000000 0.028028 0.000000 0.001610
# 5 -0.001998 -0.000389 -0.001147 0.000000 0.025641 0.000000
# 6 0.000000 0.000000 0.000000 0.001610 0.000000 0.041861
#
#
# Mechanical properties :
#
#
# Convention : Reuss Voigt Hill
#
# Bulk Modulus (GPa) = 22.48044 24.61873 23.54959
# Shear Modulus (GPa) = 31.57675 34.01415 32.79545
#
# Velocity S-wave (km/s) = 3.64860 3.78680 3.71834
# Velocity P-wave (km/s) = 5.21796 5.43126 5.32568
#
# Compressibility (1/GPa) = 0.04448312
#
# Stress axis : x y z
#
# Youngs Moduli (GPa) = 61.89902 49.12284 102.85841
#
# Poissons Ratio (x) = 0.04475 -0.02335
# Poissons Ratio (y) = 0.05639 0.01972
# Poissons Ratio (z) = -0.01405 0.00942
#
# Static dielectric constant tensor:
#      x y z
#    x 1.943530 0.000000 -0.066020 
#    y 0.000000 1.832930 0.000000 
#    z -0.066020 0.000000 1.911670 
# 
# From -- ./inp_files/28421.got.cif
#   From: 2010.05.17/outbox.cif.g08.bks.cpg/sg11_15_cif.got.tgz:28421.got - 2010.06.03 12:22:45.
