data_PCOD9164733
_publ_section_title
;
Structure prediction by ZEFSAII (Michael W. Deem and Ramdas Pophale) SiO2 
 PCOD9164733
Probable space group: P 21/M
;
_chemical_formula_sum "Si O2"
_cell_formula_units_Z 32
_cell_length_a 15.737493
_cell_length_b 23.087489
_cell_length_c 10.941685
_cell_angle_alpha 90.000000
_cell_angle_beta 24.128163
_cell_angle_gamma 90.000000
_cell_volume 1625.118916
_symmetry_space_group_name_H-M "P 21/M"
_symmetry_group_IT_number 11
_symmetry_cell_setting 'monoclinic'
loop_
_space_group_symop_operation_xyz
x,y,z
-x,1/2+y,-z
-x,-y,-z
x,1/2-y,z
loop_
_atom_site_type_symbol
_atom_site_label
_atom_site_fract_x
_atom_site_fract_y
_atom_site_fract_z
Si Si1 0.461734 0.931318 0.549715
Si Si2 0.114575 0.384841 0.912286
Si Si3 0.125550 0.539275 0.177208
Si Si4 0.727259 0.043842 0.452098
Si Si5 0.740513 0.577105 0.519520
Si Si6 0.504644 0.882308 0.057571
Si Si7 0.097786 0.411353 0.303414
Si Si8 0.106837 0.684057 0.602851
O O1 0.666585 0.894623 0.307552
O O2 0.368797 0.921607 0.536513
O O3 0.500000 0.000000 0.500000
O O4 0.293606 0.925544 0.878391
O O5 0.159834 0.379415 0.709061
O O6 0.981526 0.334059 0.148318
O O7 0.971516 0.442178 0.121048
O O8 0.168449 0.470758 0.141959
O O9 0.914098 0.547663 0.377592
O O10 0.078327 0.566713 0.370918
O O11 0.638555 0.067547 0.695655
O O12 0.667454 0.976626 0.531636
O O13 0.572654 0.604111 0.830272
O O14 0.354125 0.827480 0.268815
O O15 0.711970 0.884998 0.868019
O O16 0.004237 0.362540 0.339452
O O17 0.057189 0.750000 0.638618
#
# Coordination Sequence:
#
# PCOD9164733 Si02
#       8
#     4   4   4   4   4   4   4   4
#     4  12  20  30  54  85 123 168 195 223 293 363
#     4  11  23  36  56  85 122 158 203 244 294 357
#     4  10  21  36  59  96 133 161 189 243 313 385
#     4  11  20  34  52  86 130 161 188 231 284 367
#     4  11  20  35  57  88 129 161 190 238 295 365
#     4  10  23  38  60  90 115 158 204 243 298 357
#     4  10  22  40  61  92 129 158 199 250 309 370
#     4  11  25  45  65  84 112 160 215 264 302 355
#
# _framework density 19.690866
#
# number of rings (size 3 to 8) (size 9 to 14) (size 15 to 20)
#    0.000    1.250    2.500    5.250    1.750    1.500 
#    0.000    0.625    0.000    1.500    0.000    0.000 
#    0.000    0.000    0.000    0.000    0.000    0.000 
#
# Total GULP energy -178714.575871 kJ/mol
# GULP energy per Si atom -5584.830496 kJ/mol
# Density = 1.964605 g / cm^3
# Si number density = 19.690866 Si / 1000 Ang^3
#
#
#
# Elastic Constant Matrix: (Units=GPa)
#
#
# Indices 1 2 3 4 5 6 
#
# 1 98.1416 28.8817 46.6258 0.0000 12.2798 0.0000
# 2 28.8817 80.2007 31.2971 0.0000 5.6343 0.0000
# 3 46.6258 31.2971 133.7348 0.0000 28.5598 0.0000
# 4 0.0000 0.0000 0.0000 11.6237 0.0000 -2.4559
# 5 12.2798 5.6343 28.5598 0.0000 41.7082 0.0000
# 6 0.0000 0.0000 0.0000 -2.4559 0.0000 14.5465
#
#
#
# Elastic Compliance Matrix: (Units=1/GPa)
#
#
# Indices 1 2 3 4 5 6 
#
# 1 0.012942 -0.003205 -0.003562 0.000000 -0.000939 0.000000
# 2 -0.003205 0.014521 -0.002417 0.000000 0.000637 0.000000
# 3 -0.003562 -0.002417 0.010531 0.000000 -0.005836 0.000000
# 4 0.000000 0.000000 0.000000 0.089213 0.000000 0.015062
# 5 -0.000939 0.000637 -0.005836 0.000000 0.028163 0.000000
# 6 0.000000 0.000000 0.000000 0.015062 0.000000 0.071288
#
#
# Mechanical properties :
#
#
# Convention : Reuss Voigt Hill
#
# Bulk Modulus (GPa) = 50.94898 58.40958 54.67928
# Shear Modulus (GPa) = 19.87534 27.26052 23.56793
#
# Velocity S-wave (km/s) = 3.18050 3.72482 3.46337
# Velocity P-wave (km/s) = 6.27838 6.94455 6.61985
#
# Compressibility (1/GPa) = 0.01962748
#
# Stress axis : x y z
#
# Youngs Moduli (GPa) = 77.26744 68.86442 94.95562
#
# Poissons Ratio (x) = 0.22070 0.33821
# Poissons Ratio (y) = 0.24763 0.22951
# Poissons Ratio (z) = 0.27521 0.16645
#
# Static dielectric constant tensor:
#      x y z
#    x 1.773370 0.000000 -0.013840 
#    y 0.000000 1.646890 0.000000 
#    z -0.013840 0.000000 1.756320 
# 
# From -- ./inp_files/42040.got.cif
#   From: 2010.05.17/outbox.cif.g08.bks.cpg/sg11_22_cif.got.tgz:42040.got - 2010.06.03 12:22:45.
