data_PCOD9164406
_publ_section_title
;
Structure prediction by ZEFSAII (Michael W. Deem and Ramdas Pophale) SiO2 
 PCOD9164406
Probable space group: P 21/M
;
_chemical_formula_sum "Si O2"
_cell_formula_units_Z 32
_cell_length_a 13.697868
_cell_length_b 7.453222
_cell_length_c 14.199261
_cell_angle_alpha 90.000000
_cell_angle_beta 90.561968
_cell_angle_gamma 90.000000
_cell_volume 1449.578991
_symmetry_space_group_name_H-M "P 21/M"
_symmetry_group_IT_number 11
_symmetry_cell_setting 'monoclinic'
loop_
_space_group_symop_operation_xyz
x,y,z
-x,1/2+y,-z
-x,-y,-z
x,1/2-y,z
loop_
_atom_site_type_symbol
_atom_site_label
_atom_site_fract_x
_atom_site_fract_y
_atom_site_fract_z
Si Si1 0.723433 0.956395 0.398947
Si Si2 0.000852 0.964880 0.111073
Si Si3 0.800120 0.038081 0.796414
Si Si4 0.507639 0.462268 0.387817
Si Si5 0.804169 0.970419 0.210328
Si Si6 0.608856 0.967578 0.101917
Si Si7 0.704879 0.533348 0.610375
Si Si8 0.398472 0.540167 0.120010
O O1 0.752787 0.750000 0.411337
O O2 0.790967 0.032727 0.317780
O O3 0.721863 0.035097 0.504211
O O4 0.611401 0.957778 0.359881
O O5 0.000143 0.750000 0.123837
O O6 0.100425 0.035441 0.158985
O O7 0.902499 0.031233 0.160373
O O8 0.000000 0.000000 0.000000
O O9 0.799865 0.250000 0.818785
O O10 0.700033 0.959209 0.838264
O O11 0.788014 0.016477 0.684594
O O12 0.500000 0.500000 0.500000
O O13 0.514519 0.250000 0.372761
O O14 0.401810 0.529175 0.352525
O O15 0.803497 0.750000 0.210864
O O16 0.707326 0.027062 0.153250
O O17 0.606759 0.750000 0.103384
O O18 0.506225 0.033194 0.145423
O O19 0.609867 0.024697 0.993071
O O20 0.697703 0.750000 0.605403
O O21 0.400272 0.750000 0.145204
#
# Coordination Sequence:
#
# PCOD9164406 Si02
#       8
#     4   4   4   4   4   4   4   4
#     4   9  18  33  53  76 105 142 180 220 261 309
#     4  10  21  38  58  81 105 134 177 222 268 319
#     4  10  21  34  52  76 103 137 175 216 262 312
#     4   9  17  30  48  74 106 141 177 215 258 308
#     4   9  18  33  55  77 100 136 179 215 258 320
#     4   9  17  30  49  72  96 128 167 203 252 315
#     4   9  19  33  49  74 106 138 176 215 257 308
#     4   9  18  31  46  70 101 129 161 204 258 312
#
# _framework density 22.075375999999999
#
# number of rings (size 3 to 8) (size 9 to 14) (size 15 to 20)
#    0.000    2.750    0.000    1.875    1.750    3.500 
#    0.000    1.875    0.000    0.000    0.000    0.000 
#    0.000    0.000    0.000    0.000    0.000    0.000 
#
# Total GULP energy -178634.881338 kJ/mol
# GULP energy per Si atom -5582.340042 kJ/mol
# Density = 2.202513 g / cm^3
# Si number density = 22.075376 Si / 1000 Ang^3
#
#
#
# Elastic Constant Matrix: (Units=GPa)
#
#
# Indices 1 2 3 4 5 6 
#
# 1 198.8123 6.9321 105.8022 0.0000 -2.3959 0.0000
# 2 6.9321 74.6169 -5.7449 0.0000 -3.2062 0.0000
# 3 105.8022 -5.7449 125.4691 0.0000 -4.7417 0.0000
# 4 0.0000 0.0000 0.0000 19.0469 0.0000 4.2459
# 5 -2.3959 -3.2062 -4.7417 0.0000 44.6785 0.0000
# 6 0.0000 0.0000 0.0000 4.2459 0.0000 -1.1509
#
#
#
# Elastic Compliance Matrix: (Units=1/GPa)
#
#
# Indices 1 2 3 4 5 6 
#
# 1 0.009291 -0.001492 -0.007920 0.000000 -0.000449 0.000000
# 2 -0.001492 0.013737 0.001929 0.000000 0.001111 0.000000
# 3 -0.007920 0.001929 0.014786 0.000000 0.001283 0.000000
# 4 0.000000 0.000000 0.000000 0.028810 0.000000 0.106283
# 5 -0.000449 0.001111 0.001283 0.000000 0.022574 0.000000
# 6 0.000000 0.000000 0.000000 0.106283 0.000000 -0.476781
#
#
# Mechanical properties :
#
#
# Convention : Reuss Voigt Hill
#
# Bulk Modulus (GPa) = 43.76894 68.09747 55.93321
# Shear Modulus (GPa) = -13.69861 31.97549 9.13844
#
# Velocity S-wave (km/s) = -2.49376 3.81000 2.03682
# Velocity P-wave (km/s) = 3.40269 7.09010 5.56093
#
# Compressibility (1/GPa) = 0.02284725
#
# Stress axis : x y z
#
# Youngs Moduli (GPa) = 107.62529 72.79770 67.63241
#
# Poissons Ratio (x) = 0.10864 0.53568
# Poissons Ratio (y) = 0.16061 -0.13049
# Poissons Ratio (z) = 0.85244 -0.14045
#
# Static dielectric constant tensor:
#      x y z
#    x 1.812270 0.000000 -0.001620 
#    y 0.000000 1.843920 0.000000 
#    z -0.001620 0.000000 1.811750 
# 
# From -- ./inp_files/49359.got.cif
#   From: 2010.05.17/outbox.cif.g08.bks.cpg/sg11_25_cif.got.tgz:49359.got - 2010.06.03 12:22:45.
