data_PCOD9164940
_publ_section_title
;
Structure prediction by ZEFSAII (Michael W. Deem and Ramdas Pophale) SiO2 
 PCOD9164940
Probable space group: P 21/M
;
_chemical_formula_sum "Si O2"
_cell_formula_units_Z 28
_cell_length_a 16.097396
_cell_length_b 8.582568
_cell_length_c 21.711581
_cell_angle_alpha 90.000000
_cell_angle_beta 28.249527
_cell_angle_gamma 90.000000
_cell_volume 1419.751081
_symmetry_space_group_name_H-M "P 21/M"
_symmetry_group_IT_number 11
_symmetry_cell_setting 'monoclinic'
loop_
_space_group_symop_operation_xyz
x,y,z
-x,1/2+y,-z
-x,-y,-z
x,1/2-y,z
loop_
_atom_site_type_symbol
_atom_site_label
_atom_site_fract_x
_atom_site_fract_y
_atom_site_fract_z
Si Si1 0.301021 0.064682 0.918914
Si Si2 0.425079 0.436749 0.351432
Si Si3 0.560811 0.432726 0.047153
Si Si4 0.550118 0.062027 0.400285
Si Si5 0.935613 0.063238 0.107343
Si Si6 0.920118 0.432595 0.488420
Si Si7 0.782550 0.431787 0.786784
O O1 0.321637 0.250000 0.914161
O O2 0.402855 0.013231 0.791080
O O3 0.388142 0.972020 0.917444
O O4 0.095428 0.026890 0.048843
O O5 0.439768 0.250000 0.338156
O O6 0.424187 0.480490 0.424604
O O7 0.258551 0.490157 0.419901
O O8 0.516883 0.250000 0.067944
O O9 0.394572 0.534405 0.135755
O O10 0.722700 0.467113 0.895492
O O11 0.551613 0.250000 0.402514
O O12 0.746285 0.007362 0.253544
O O13 0.500000 0.000000 0.500000
O O14 0.924350 0.250000 0.109244
O O15 0.000000 0.000000 0.000000
O O16 0.889435 0.250000 0.517323
O O17 0.000000 0.500000 0.500000
O O18 0.064904 0.465279 0.341416
O O19 0.831714 0.250000 0.749728
#
# Coordination Sequence:
#
# PCOD9164940 Si02
#       7
#     4   4   4   4   4   4   4
#     4  11  22  36  60  91 121 154 201 253 304 361
#     4  11  23  41  63  88 123 162 206 256 308 370
#     4  10  21  37  59  86 118 157 198 244 301 360
#     4  10  23  42  64  92 127 166 208 258 315 374
#     4  10  21  39  62  89 119 155 200 249 302 358
#     4  12  25  41  62  88 121 160 204 251 306 367
#     4  10  21  39  60  84 118 155 199 248 300 358
#
# _framework density 19.721767
#
# number of rings (size 3 to 8) (size 9 to 14) (size 15 to 20)
#    0.000    1.429    1.429    3.857    0.000    5.143 
#    0.000    2.857    0.000    0.000    0.000    0.000 
#    0.000    0.000    0.000    0.000    0.000    0.000 
#
# Total GULP energy -156422.919499 kJ/mol
# GULP energy per Si atom -5586.532839 kJ/mol
# Density = 1.967688 g / cm^3
# Si number density = 19.721767 Si / 1000 Ang^3
#
#
#
# Elastic Constant Matrix: (Units=GPa)
#
#
# Indices 1 2 3 4 5 6 
#
# 1 102.9304 12.2221 36.8800 0.0000 10.6925 0.0000
# 2 12.2221 27.1037 8.1080 0.0000 -1.9458 0.0000
# 3 36.8800 8.1080 90.8734 0.0000 0.1202 0.0000
# 4 0.0000 0.0000 0.0000 28.8487 0.0000 6.7099
# 5 10.6925 -1.9458 0.1202 0.0000 25.1658 0.0000
# 6 0.0000 0.0000 0.0000 6.7099 0.0000 27.1262
#
#
#
# Elastic Compliance Matrix: (Units=1/GPa)
#
#
# Indices 1 2 3 4 5 6 
#
# 1 0.012527 -0.004661 -0.004660 0.000000 -0.005660 0.000000
# 2 -0.004661 0.039861 -0.001672 0.000000 0.005070 0.000000
# 3 -0.004660 -0.001672 0.013042 0.000000 0.001789 0.000000
# 4 0.000000 0.000000 0.000000 0.036780 0.000000 -0.009098
# 5 -0.005660 0.005070 0.001789 0.000000 0.042525 0.000000
# 6 0.000000 0.000000 0.000000 -0.009098 0.000000 0.039115
#
#
# Mechanical properties :
#
#
# Convention : Reuss Voigt Hill
#
# Bulk Modulus (GPa) = 23.01801 37.25862 30.13831
# Shear Modulus (GPa) = 22.69451 27.14130 24.91790
#
# Velocity S-wave (km/s) = 3.39593 3.71376 3.55839
# Velocity P-wave (km/s) = 5.20319 6.10921 5.67431
#
# Compressibility (1/GPa) = 0.04344424
#
# Stress axis : x y z
#
# Youngs Moduli (GPa) = 79.83011 25.08706 76.67242
#
# Poissons Ratio (x) = 0.11693 0.35733
# Poissons Ratio (y) = 0.37208 0.12817
# Poissons Ratio (z) = 0.37204 0.04194
#
# Static dielectric constant tensor:
#      x y z
#    x 1.701080 0.000000 -0.004290 
#    y 0.000000 1.677410 0.000000 
#    z -0.004290 0.000000 1.694850 
# 
# From -- ./inp_files/65344.got.cif
#   From: 2010.05.17/outbox.cif.g08.bks.cpg/sg11_33_cif.got.tgz:65344.got - 2010.06.03 12:22:45.
