data_PCOD9164228
_publ_section_title
;
Structure prediction by ZEFSAII (Michael W. Deem and Ramdas Pophale) SiO2 
 PCOD9164228
Probable space group: P 21/M
;
_chemical_formula_sum "Si O2"
_cell_formula_units_Z 26
_cell_length_a 13.834751
_cell_length_b 15.183788
_cell_length_c 9.708100
_cell_angle_alpha 90.000000
_cell_angle_beta 143.446600
_cell_angle_gamma 90.000000
_cell_volume 1214.562290
_symmetry_space_group_name_H-M "P 21/M"
_symmetry_group_IT_number 11
_symmetry_cell_setting 'monoclinic'
loop_
_space_group_symop_operation_xyz
x,y,z
-x,1/2+y,-z
-x,-y,-z
x,1/2-y,z
loop_
_atom_site_type_symbol
_atom_site_label
_atom_site_fract_x
_atom_site_fract_y
_atom_site_fract_z
Si Si1 0.528193 0.387584 0.421268
Si Si2 0.425147 0.750000 0.752366
Si Si3 0.388276 0.914449 0.887686
Si Si4 0.480973 0.589976 0.287816
Si Si5 0.856047 0.850871 0.995141
Si Si6 0.155752 0.149390 0.338799
Si Si7 0.055280 0.985331 0.407040
O O1 0.610544 0.325852 0.405823
O O2 0.531115 0.488734 0.376654
O O3 0.590190 0.378080 0.648330
O O4 0.338428 0.359161 0.209880
O O5 0.465268 0.827910 0.910895
O O6 0.223861 0.934510 0.619930
O O7 0.363867 0.903550 0.023707
O O8 0.500000 0.000000 0.000000
O O9 0.648237 0.638669 0.441066
O O10 0.902216 0.750000 0.083762
O O11 0.895473 0.866440 0.879351
O O12 0.937081 0.922491 0.185421
O O13 0.114898 0.250000 0.329310
O O14 0.084531 0.076178 0.358804
O O15 0.000000 0.000000 0.500000
#
# Coordination Sequence:
#
# PCOD9164228 Si02
#       7
#     4   2   4   4   4   4   4
#     4  10  20  39  69 100 126 173 224 275 321 395
#     4  12  24  38  70  96 134 176 222 274 340 398
#     4  12  25  43  64 101 138 176 214 272 348 397
#     4  10  21  40  66  97 136 164 222 274 329 392
#     4  10  22  41  68  94 131 174 226 267 326 398
#     4  10  22  43  68  95 123 180 227 268 330 398
#     4  12  26  42  67  96 137 174 221 278 332 398
#
# _framework density 21.406889
#
# number of rings (size 3 to 8) (size 9 to 14) (size 15 to 20)
#    0.000    1.231    3.846    1.385    3.231    0.615 
#    0.000    1.538    0.000    0.000    0.000    0.000 
#    0.000    0.000    0.000    0.000    0.000    0.000 
#
# Total GULP energy -144843.708519 kJ/mol
# GULP energy per Si atom -5570.911866 kJ/mol
# Density = 2.135817 g / cm^3
# Si number density = 21.406889 Si / 1000 Ang^3
#
#
#
# Elastic Constant Matrix: (Units=GPa)
#
#
# Indices 1 2 3 4 5 6 
#
# 1 73.6956 52.0897 26.4379 0.0000 -35.1077 0.0000
# 2 52.0897 154.3132 51.8605 0.0000 -33.2232 0.0000
# 3 26.4379 51.8605 86.5652 0.0000 -35.1713 0.0000
# 4 0.0000 0.0000 0.0000 35.2194 0.0000 -18.3828
# 5 -35.1077 -33.2232 -35.1713 0.0000 39.6456 0.0000
# 6 0.0000 0.0000 0.0000 -18.3828 0.0000 37.5858
#
#
#
# Elastic Compliance Matrix: (Units=1/GPa)
#
#
# Indices 1 2 3 4 5 6 
#
# 1 0.026981 -0.005646 0.004577 0.000000 0.023222 0.000000
# 2 -0.005646 0.009698 -0.004402 0.000000 -0.000778 0.000000
# 3 0.004577 -0.004402 0.020232 0.000000 0.018313 0.000000
# 4 0.000000 0.000000 0.000000 0.038126 0.000000 0.018647
# 5 0.023222 -0.000778 0.018313 0.000000 0.061381 0.000000
# 6 0.000000 0.000000 0.000000 0.018647 0.000000 0.035726
#
#
# Mechanical properties :
#
#
# Convention : Reuss Voigt Hill
#
# Bulk Modulus (GPa) = 21.75374 63.92781 42.84078
# Shear Modulus (GPa) = 22.89288 34.76922 28.83105
#
# Velocity S-wave (km/s) = 3.27374 4.03452 3.67387
# Velocity P-wave (km/s) = 4.94711 7.18548 6.16867
#
# Compressibility (1/GPa) = 0.04596910
#
# Stress axis : x y z
#
# Youngs Moduli (GPa) = 37.06362 103.11304 49.42755
#
# Poissons Ratio (x) = 0.58221 -0.22625
# Poissons Ratio (y) = 0.20927 0.21756
# Poissons Ratio (z) = -0.16965 0.45387
#
# Static dielectric constant tensor:
#      x y z
#    x 1.816000 0.000000 -0.024340 
#    y 0.000000 1.764860 0.000000 
#    z -0.024340 0.000000 2.105180 
# 
# From -- ./inp_files/22447.got.cif
#   From: 2010.05.17/outbox.cif.g08.bks.cpg/sg11_12_cif.got.tgz:22447.got - 2010.06.03 12:22:45.
