data_PCOD9164392
_publ_section_title
;
Structure prediction by ZEFSAII (Michael W. Deem and Ramdas Pophale) SiO2 
 PCOD9164392
Probable space group: P 21/M
;
_chemical_formula_sum "Si O2"
_cell_formula_units_Z 28
_cell_length_a 7.107578
_cell_length_b 7.286396
_cell_length_c 26.478864
_cell_angle_alpha 90.000000
_cell_angle_beta 47.533812
_cell_angle_gamma 90.000000
_cell_volume 1011.577931
_symmetry_space_group_name_H-M "P 21/M"
_symmetry_group_IT_number 11
_symmetry_cell_setting 'monoclinic'
loop_
_space_group_symop_operation_xyz
x,y,z
-x,1/2+y,-z
-x,-y,-z
x,1/2-y,z
loop_
_atom_site_type_symbol
_atom_site_label
_atom_site_fract_x
_atom_site_fract_y
_atom_site_fract_z
Si Si1 0.351512 0.043175 0.668293
Si Si2 0.339401 0.533068 0.479517
Si Si3 0.858293 0.973055 0.195462
Si Si4 0.850616 0.464757 0.949125
Si Si5 0.131576 0.026439 0.371792
Si Si6 0.319996 0.037198 0.235474
Si Si7 0.388843 0.527914 0.909540
O O1 0.271782 0.250000 0.670503
O O2 0.480489 0.951479 0.596457
O O3 0.152379 0.961755 0.744444
O O4 0.602221 0.049495 0.657894
O O5 0.500000 0.500000 0.500000
O O6 0.312370 0.750000 0.473311
O O7 0.065831 0.465651 0.548842
O O8 0.862323 0.750000 0.195819
O O9 0.085714 0.040172 0.118006
O O10 0.595507 0.027562 0.214468
O O11 0.798263 0.250000 0.953046
O O12 0.122161 0.481329 0.929552
O O13 0.646142 0.539295 0.026491
O O14 0.129799 0.250000 0.372688
O O15 0.116546 0.970848 0.315085
O O16 0.261401 0.250000 0.239611
O O17 0.389436 0.956609 0.167948
O O18 0.403816 0.750000 0.907845
#
# Coordination Sequence:
#
# PCOD9164392 Si02
#       7
#     4   4   4   4   4   4   4
#     4   9  17  29  45  64  84 107 136 168 202 241
#     4  10  21  34  46  62  84 108 135 168 206 246
#     4   8  13  21  33  50  73  99 126 157 190 225
#     4   8  12  17  26  42  66  96 125 150 180 220
#     4   9  17  29  45  64  84 107 136 168 202 241
#     4   8  13  21  33  50  73  99 126 157 190 225
#     4   8  12  17  26  42  66  96 125 150 180 220
#
# _framework density 27.679531000000001
#
# number of rings (size 3 to 8) (size 9 to 14) (size 15 to 20)
#    0.000    3.429    0.000    0.429    0.000    1.143 
#    0.000    0.000    0.000    0.000    0.000    0.000 
#    0.000    1.143    0.000    0.857    0.000   17.143 
#
# Total GULP energy -156269.425338 kJ/mol
# GULP energy per Si atom -5581.050905 kJ/mol
# Density = 2.761653 g / cm^3
# Si number density = 27.679531 Si / 1000 Ang^3
#
#
#
# Elastic Constant Matrix: (Units=GPa)
#
#
# Indices 1 2 3 4 5 6 
#
# 1 44.7692 26.0581 73.2646 0.0000 -0.6684 0.0000
# 2 26.0581 150.8532 21.0719 0.0000 6.6882 0.0000
# 3 73.2646 21.0719 335.8746 0.0000 59.8851 0.0000
# 4 0.0000 0.0000 0.0000 -11.5318 0.0000 1.7269
# 5 -0.6684 6.6882 59.8851 0.0000 71.2736 0.0000
# 6 0.0000 0.0000 0.0000 1.7269 0.0000 24.8246
#
#
#
# Elastic Compliance Matrix: (Units=1/GPa)
#
#
# Indices 1 2 3 4 5 6 
#
# 1 0.044644 -0.006612 -0.011184 0.000000 0.010436 0.000000
# 2 -0.006612 0.007673 0.001294 0.000000 -0.001870 0.000000
# 3 -0.011184 0.001294 0.006323 0.000000 -0.005539 0.000000
# 4 0.000000 0.000000 0.000000 -0.085823 0.000000 0.005970
# 5 0.010436 -0.001870 -0.005539 0.000000 0.018958 0.000000
# 6 0.000000 0.000000 0.000000 0.005970 0.000000 0.039867
#
#
# Mechanical properties :
#
#
# Convention : Reuss Voigt Hill
#
# Bulk Modulus (GPa) = 39.00697 85.80957 62.40827
# Shear Modulus (GPa) = 68.31268 44.32011 56.31640
#
# Velocity S-wave (km/s) = 4.97327 4.00582 4.51553
# Velocity P-wave (km/s) = 6.86301 7.24320 7.05566
#
# Compressibility (1/GPa) = 0.02563645
#
# Stress axis : x y z
#
# Youngs Moduli (GPa) = 22.39941 130.32305 158.14406
#
# Poissons Ratio (x) = 0.86172 1.76871
# Poissons Ratio (y) = 0.14811 -0.20468
# Poissons Ratio (z) = 0.25052 -0.16867
#
# Static dielectric constant tensor:
#      x y z
#    x 2.222800 0.000000 -0.155870 
#    y 0.000000 1.923740 0.000000 
#    z -0.155870 0.000000 2.705720 
# 
# From -- ./inp_files/25563.got.cif
#   From: 2010.05.17/outbox.cif.g08.bks.cpg/sg11_13_cif.got.tgz:25563.got - 2010.06.03 12:22:45.
