data_PCOD9164275
_publ_section_title
;
Structure prediction by ZEFSAII (Michael W. Deem and Ramdas Pophale) SiO2 
 PCOD9164275
Probable space group: P 21/M
;
_chemical_formula_sum "Si O2"
_cell_formula_units_Z 32
_cell_length_a 23.187631
_cell_length_b 14.503714
_cell_length_c 8.602012
_cell_angle_alpha 90.000000
_cell_angle_beta 30.259958
_cell_angle_gamma 90.000000
_cell_volume 1457.809527
_symmetry_space_group_name_H-M "P 21/M"
_symmetry_group_IT_number 11
_symmetry_cell_setting 'monoclinic'
loop_
_space_group_symop_operation_xyz
x,y,z
-x,1/2+y,-z
-x,-y,-z
x,1/2-y,z
loop_
_atom_site_type_symbol
_atom_site_label
_atom_site_fract_x
_atom_site_fract_y
_atom_site_fract_z
Si Si1 0.641905 0.006145 0.797786
Si Si2 0.195712 0.143551 0.063274
Si Si3 0.108370 0.003990 0.637310
Si Si4 0.806663 0.356288 0.794057
Si Si5 0.763350 0.036749 0.212029
Si Si6 0.386210 0.359370 0.882706
Si Si7 0.010713 0.645242 0.253490
Si Si8 0.438759 0.647142 0.787279
O O1 0.773720 0.012276 0.549860
O O2 0.658989 0.032131 0.577253
O O3 0.609667 0.911428 0.962312
O O4 0.559128 0.080070 0.071950
O O5 0.220496 0.250000 0.966777
O O6 0.060641 0.138356 0.420418
O O7 0.280061 0.118511 0.012351
O O8 0.218897 0.068538 0.879582
O O9 0.111577 0.930077 0.486216
O O10 0.088033 0.108860 0.629600
O O11 0.000000 0.000000 0.000000
O O12 0.849430 0.250000 0.716817
O O13 0.760196 0.401314 0.062428
O O14 0.693852 0.348426 0.951109
O O15 0.880150 0.080177 0.009451
O O16 0.386060 0.250000 0.908474
O O17 0.492913 0.385060 0.523647
O O18 0.043799 0.750000 0.146658
O O19 0.480667 0.750000 0.727081
#
# Coordination Sequence:
#
# PCOD9164275 Si02
#       8
#     4   4   4   4   4   4   4   4
#     4  11  22  35  60  87 118 149 192 248 295 347
#     4  10  21  38  61  84 114 157 199 243 296 353
#     4  11  21  39  58  86 118 153 204 251 284 338
#     4  10  22  40  60  86 122 164 199 239 296 355
#     4  12  23  38  56  86 128 159 189 240 292 368
#     4  10  20  40  66  87 110 151 202 251 299 347
#     4  11  22  37  60  83 116 160 199 236 288 350
#     4   9  20  40  64  86 113 151 203 251 291 347
#
# _framework density 21.950742000000002
#
# number of rings (size 3 to 8) (size 9 to 14) (size 15 to 20)
#    0.000    1.500    3.750    1.875    0.000    2.000 
#    0.000    2.500    0.000    4.500    0.000    0.000 
#    0.000    0.000    0.000    0.000    0.000    0.000 
#
# Total GULP energy -178222.140969 kJ/mol
# GULP energy per Si atom -5569.441905 kJ/mol
# Density = 2.190078 g / cm^3
# Si number density = 21.950742 Si / 1000 Ang^3
#
#
#
# Elastic Constant Matrix: (Units=GPa)
#
#
# Indices 1 2 3 4 5 6 
#
# 1 36.4778 27.7523 15.2572 0.0000 4.7376 0.0000
# 2 27.7523 87.1713 35.0825 0.0000 20.4234 0.0000
# 3 15.2572 35.0825 118.2797 0.0000 26.9982 0.0000
# 4 0.0000 0.0000 0.0000 20.6860 0.0000 -6.1684
# 5 4.7376 20.4234 26.9982 0.0000 34.9248 0.0000
# 6 0.0000 0.0000 0.0000 -6.1684 0.0000 8.2411
#
#
#
# Elastic Compliance Matrix: (Units=1/GPa)
#
#
# Indices 1 2 3 4 5 6 
#
# 1 0.036700 -0.011659 -0.002059 0.000000 0.003432 0.000000
# 2 -0.011659 0.017708 -0.002120 0.000000 -0.007135 0.000000
# 3 -0.002059 -0.002120 0.010931 0.000000 -0.006931 0.000000
# 4 0.000000 0.000000 0.000000 0.062231 0.000000 0.046579
# 5 0.003432 -0.007135 -0.006931 0.000000 0.037698 0.000000
# 6 0.000000 0.000000 0.000000 0.046579 0.000000 0.156207
#
#
# Mechanical properties :
#
#
# Convention : Reuss Voigt Hill
#
# Bulk Modulus (GPa) = 29.70617 44.23476 36.97046
# Shear Modulus (GPa) = 13.72221 23.69282 18.70752
#
# Velocity S-wave (km/s) = 2.50299 3.28893 2.92250
# Velocity P-wave (km/s) = 4.68142 5.88373 5.31667
#
# Compressibility (1/GPa) = 0.03366304
#
# Stress axis : x y z
#
# Youngs Moduli (GPa) = 27.24809 56.47033 91.48315
#
# Poissons Ratio (x) = 0.65840 0.18837
# Poissons Ratio (y) = 0.31769 0.19392
# Poissons Ratio (z) = 0.05611 0.11970
#
# Static dielectric constant tensor:
#      x y z
#    x 1.908710 0.000000 0.047940 
#    y 0.000000 1.857250 0.000000 
#    z 0.047940 0.000000 1.911340 
# 
# From -- ./inp_files/28844.got.cif
#   From: 2010.05.17/outbox.cif.g08.bks.cpg/sg11_15_cif.got.tgz:28844.got - 2010.06.03 12:22:45.
