data_PCOD9164828
_publ_section_title
;
Structure prediction by ZEFSAII (Michael W. Deem and Ramdas Pophale) SiO2 
 PCOD9164828
Probable space group: P 21/M
;
_chemical_formula_sum "Si O2"
_cell_formula_units_Z 32
_cell_length_a 16.442244
_cell_length_b 8.004824
_cell_length_c 24.796540
_cell_angle_alpha 90.000000
_cell_angle_beta 27.762294
_cell_angle_gamma 90.000000
_cell_volume 1520.223881
_symmetry_space_group_name_H-M "P 21/M"
_symmetry_group_IT_number 11
_symmetry_cell_setting 'monoclinic'
loop_
_space_group_symop_operation_xyz
x,y,z
-x,1/2+y,-z
-x,-y,-z
x,1/2-y,z
loop_
_atom_site_type_symbol
_atom_site_label
_atom_site_fract_x
_atom_site_fract_y
_atom_site_fract_z
Si Si1 0.679252 0.951416 0.365960
Si Si2 0.407342 0.554799 0.285244
Si Si3 0.827095 0.045526 0.673306
Si Si4 0.809036 0.949055 0.495339
Si Si5 0.781932 0.445829 0.071509
Si Si6 0.172789 0.453274 0.831958
Si Si7 0.691059 0.049510 0.869309
Si Si8 0.057780 0.454541 0.697898
O O1 0.685918 0.750000 0.360421
O O2 0.706538 0.008913 0.288420
O O3 0.839592 0.010372 0.309471
O O4 0.500000 0.000000 0.500000
O O5 0.374742 0.750000 0.307052
O O6 0.274776 0.480515 0.318902
O O7 0.364059 0.488571 0.370192
O O8 0.606984 0.527196 0.151829
O O9 0.827708 0.250000 0.670781
O O10 0.728121 0.996030 0.786166
O O11 0.026298 0.989469 0.565405
O O12 0.824425 0.750000 0.483186
O O13 0.837154 0.009338 0.417776
O O14 0.769306 0.250000 0.068308
O O15 0.782871 0.477098 0.135354
O O16 0.970730 0.502915 0.939545
O O17 0.178351 0.250000 0.832744
O O18 0.699884 0.250000 0.864502
O O19 0.857007 0.991088 0.807593
O O20 0.500000 0.000000 0.000000
O O21 0.057872 0.250000 0.698690
#
# Coordination Sequence:
#
# PCOD9164828 Si02
#       8
#     4   4   4   4   4   4   4   4
#     4  10  21  37  57  83 111 142 180 224 274 325
#     4  11  21  32  50  78 108 138 173 219 269 313
#     4   8  17  33  50  71 105 143 175 210 260 315
#     4   9  17  33  54  74 101 140 181 214 253 316
#     4  10  21  37  57  79 104 141 182 221 270 327
#     4   9  20  39  58  77 107 139 176 227 274 318
#     4   9  17  33  55  77 103 140 178 215 258 312
#     4   8  17  34  54  75 104 141 176 211 264 325
#
# _framework density 21.049530000000001
#
# number of rings (size 3 to 8) (size 9 to 14) (size 15 to 20)
#    0.000    2.750    0.000    2.625    1.750    2.000 
#    0.000    6.250    0.000    0.000    0.000    0.000 
#    0.000    0.000    0.000    0.000    0.000    0.000 
#
# Total GULP energy -178511.498065 kJ/mol
# GULP energy per Si atom -5578.484315 kJ/mol
# Density = 2.100162 g / cm^3
# Si number density = 21.049530 Si / 1000 Ang^3
#
#
#
# Elastic Constant Matrix: (Units=GPa)
#
#
# Indices 1 2 3 4 5 6 
#
# 1 36.4240 -1.6975 1.3946 0.0000 5.4489 0.0000
# 2 -1.6975 7.1084 -5.6739 0.0000 2.1098 0.0000
# 3 1.3946 -5.6739 95.3572 0.0000 12.1648 0.0000
# 4 0.0000 0.0000 0.0000 29.1981 0.0000 -2.6824
# 5 5.4489 2.1098 12.1648 0.0000 17.8421 0.0000
# 6 0.0000 0.0000 0.0000 -2.6824 0.0000 13.9092
#
#
#
# Elastic Compliance Matrix: (Units=1/GPa)
#
#
# Indices 1 2 3 4 5 6 
#
# 1 0.029694 0.011973 0.001770 0.000000 -0.011690 0.000000
# 2 0.011973 0.164116 0.013726 0.000000 -0.032422 0.000000
# 3 0.001770 0.013726 0.012654 0.000000 -0.010791 0.000000
# 4 0.000000 0.000000 0.000000 0.034867 0.000000 0.006724
# 5 -0.011690 -0.032422 -0.010791 0.000000 0.070809 0.000000
# 6 0.000000 0.000000 0.000000 0.006724 0.000000 0.073192
#
#
# Mechanical properties :
#
#
# Convention : Reuss Voigt Hill
#
# Bulk Modulus (GPa) = 3.82553 14.10400 8.96477
# Shear Modulus (GPa) = 11.97526 21.84764 16.91145
#
# Velocity S-wave (km/s) = 2.38777 3.22517 2.83753
# Velocity P-wave (km/s) = 3.06973 4.53694 3.87344
#
# Compressibility (1/GPa) = 0.26140196
#
# Stress axis : x y z
#
# Youngs Moduli (GPa) = 33.67737 6.09324 79.02400
#
# Poissons Ratio (x) = -0.07296 -0.13983
# Poissons Ratio (y) = -0.40323 -1.08469
# Poissons Ratio (z) = -0.05959 -0.08364
#
# Static dielectric constant tensor:
#      x y z
#    x 1.774870 0.000000 -0.004400 
#    y 0.000000 1.758960 0.000000 
#    z -0.004400 0.000000 1.762530 
# 
# From -- ./inp_files/69031.got.cif
#   From: 2010.05.17/outbox.cif.g08.bks.cpg/sg11_35_cif.got.tgz:69031.got - 2010.06.03 12:22:45.
