data_PCOD9164443
_publ_section_title
;
Structure prediction by ZEFSAII (Michael W. Deem and Ramdas Pophale) SiO2 
 PCOD9164443
Probable space group: P 21/M
;
_chemical_formula_sum "Si O2"
_cell_formula_units_Z 32
_cell_length_a 24.941695
_cell_length_b 7.626444
_cell_length_c 18.208510
_cell_angle_alpha 90.000000
_cell_angle_beta 153.801617
_cell_angle_gamma 90.000000
_cell_volume 1529.093402
_symmetry_space_group_name_H-M "P 21/M"
_symmetry_group_IT_number 11
_symmetry_cell_setting 'monoclinic'
loop_
_space_group_symop_operation_xyz
x,y,z
-x,1/2+y,-z
-x,-y,-z
x,1/2-y,z
loop_
_atom_site_type_symbol
_atom_site_label
_atom_site_fract_x
_atom_site_fract_y
_atom_site_fract_z
Si Si1 0.603267 0.050158 0.938401
Si Si2 0.864826 0.963066 0.675557
Si Si3 0.184508 0.044461 0.907921
Si Si4 0.143651 0.460120 0.174486
Si Si5 0.850978 0.955701 0.977828
Si Si6 0.644277 0.534590 0.306538
Si Si7 0.313545 0.452011 0.800817
Si Si8 0.037722 0.960117 0.462865
O O1 0.591145 0.250000 0.898932
O O2 0.698468 0.966650 0.000029
O O3 0.656884 0.046318 0.086942
O O4 0.468374 0.975142 0.782336
O O5 0.871124 0.750000 0.682874
O O6 0.813491 0.020027 0.692538
O O7 0.772221 0.018930 0.498579
O O8 0.002185 0.029270 0.835760
O O9 0.157571 0.250000 0.885095
O O10 0.199637 0.968651 0.008220
O O11 0.067940 0.971952 0.720892
O O12 0.159671 0.250000 0.192827
O O13 0.186401 0.531133 0.147914
O O14 0.000000 0.500000 0.000000
O O15 0.818709 0.750000 0.934987
O O16 0.642192 0.750000 0.302279
O O17 0.628977 0.476548 0.203596
O O18 0.349506 0.250000 0.855216
O O19 0.169010 0.459658 0.610070
O O20 0.047953 0.750000 0.468018
O O21 0.000000 0.000000 0.500000
#
# Coordination Sequence:
#
# PCOD9164443 Si02
#       8
#     4   4   4   4   4   4   4   4
#     4  11  22  36  52  68  91 127 170 208 244 286
#     4   9  16  30  51  75 101 127 157 193 238 288
#     4  10  21  35  50  69  98 131 162 198 241 286
#     4   8  14  25  46  73 100 128 153 185 233 286
#     4   9  17  30  48  75 105 128 155 192 236 289
#     4   9  20  35  51  72  96 125 163 207 244 284
#     4  11  21  35  53  72  97 125 159 204 252 296
#     4  11  21  33  50  72  98 128 161 199 242 288
#
# _framework density 20.927432
#
# number of rings (size 3 to 8) (size 9 to 14) (size 15 to 20)
#    0.000    2.250    1.250    2.250    0.000    1.000 
#    0.000    3.750    0.000    0.750    0.000    0.000 
#    0.000    0.000    0.000    0.000    0.000    0.125 
#
# Total GULP energy -178532.336317 kJ/mol
# GULP energy per Si atom -5579.135510 kJ/mol
# Density = 2.087980 g / cm^3
# Si number density = 20.927432 Si / 1000 Ang^3
#
#
#
# Elastic Constant Matrix: (Units=GPa)
#
#
# Indices 1 2 3 4 5 6 
#
# 1 117.3345 -6.6620 16.8031 0.0000 -23.9360 0.0000
# 2 -6.6620 49.9983 -7.7331 0.0000 -3.6218 0.0000
# 3 16.8031 -7.7331 23.8861 0.0000 -2.3436 0.0000
# 4 0.0000 0.0000 0.0000 11.7026 0.0000 -1.5208
# 5 -23.9360 -3.6218 -2.3436 0.0000 33.7336 0.0000
# 6 0.0000 0.0000 0.0000 -1.5208 0.0000 -3.7585
#
#
#
# Elastic Compliance Matrix: (Units=1/GPa)
#
#
# Indices 1 2 3 4 5 6 
#
# 1 0.011071 0.000976 -0.006737 0.000000 0.007492 0.000000
# 2 0.000976 0.021398 0.006579 0.000000 0.003447 0.000000
# 3 -0.006737 0.006579 0.048667 0.000000 -0.000693 0.000000
# 4 0.000000 0.000000 0.000000 0.081182 0.000000 -0.032849
# 5 0.007492 0.003447 -0.000693 0.000000 0.035282 0.000000
# 6 0.000000 0.000000 0.000000 -0.032849 0.000000 -0.252772
#
#
# Mechanical properties :
#
#
# Convention : Reuss Voigt Hill
#
# Bulk Modulus (GPa) = 12.08137 21.78165 16.93151
# Shear Modulus (GPa) = -171.13677 20.92294 -75.10692
#
# Velocity S-wave (km/s) = -9.05283 3.16537 -5.99726
# Velocity P-wave (km/s) = 10.17282 4.87752 6.31253
#
# Compressibility (1/GPa) = 0.08277205
#
# Stress axis : x y z
#
# Youngs Moduli (GPa) = 90.32355 46.73331 20.54791
#
# Poissons Ratio (x) = -0.04561 0.13844
# Poissons Ratio (y) = -0.08815 -0.13519
# Poissons Ratio (z) = 0.60853 -0.30747
#
# Static dielectric constant tensor:
#      x y z
#    x 1.791900 0.000000 -0.029430 
#    y 0.000000 1.799660 0.000000 
#    z -0.029430 0.000000 1.732050 
# 
# From -- ./inp_files/61786.got.cif
#   From: 2010.05.17/outbox.cif.g08.bks.cpg/sg11_31_cif.got.tgz:61786.got - 2010.06.03 12:22:45.
