data_PCOD9164498
_publ_section_title
;
Structure prediction by ZEFSAII (Michael W. Deem and Ramdas Pophale) SiO2 
 PCOD9164498
Probable space group: P 21/M
;
_chemical_formula_sum "Si O2"
_cell_formula_units_Z 32
_cell_length_a 5.674562
_cell_length_b 24.797371
_cell_length_c 11.077367
_cell_angle_alpha 90.000000
_cell_angle_beta 75.736380
_cell_angle_gamma 90.000000
_cell_volume 1510.690691
_symmetry_space_group_name_H-M "P 21/M"
_symmetry_group_IT_number 11
_symmetry_cell_setting 'monoclinic'
loop_
_space_group_symop_operation_xyz
x,y,z
-x,1/2+y,-z
-x,-y,-z
x,1/2-y,z
loop_
_atom_site_type_symbol
_atom_site_label
_atom_site_fract_x
_atom_site_fract_y
_atom_site_fract_z
Si Si1 0.560819 0.994578 0.132869
Si Si2 0.543261 0.687310 0.119345
Si Si3 0.161073 0.456990 0.554808
Si Si4 0.026761 0.632629 0.778854
Si Si5 0.505116 0.688134 0.835462
Si Si6 0.068360 0.406928 0.954552
Si Si7 0.781323 0.099801 0.763157
Si Si8 0.611569 0.443778 0.343775
O O1 0.813093 0.962766 0.100393
O O2 0.384840 0.953113 0.224754
O O3 0.557408 0.049754 0.207857
O O4 0.500000 0.000000 0.000000
O O5 0.590651 0.750000 0.144213
O O6 0.769285 0.645853 0.095941
O O7 0.350261 0.657341 0.231154
O O8 0.473250 0.686785 0.985522
O O9 0.367649 0.430523 0.445573
O O10 0.301565 0.497029 0.627840
O O11 0.000000 0.500000 0.500000
O O12 0.005217 0.413325 0.648040
O O13 0.253769 0.667975 0.804397
O O14 0.165865 0.596776 0.662452
O O15 0.770016 0.660143 0.777319
O O16 0.960867 0.593858 0.899362
O O17 0.535852 0.750000 0.795598
O O18 0.840172 0.401213 0.898246
#
# Coordination Sequence:
#
# PCOD9164498 Si02
#       8
#     4   4   4   4   4   4   4   4
#     4  11  23  34  57  88 131 164 195 253 315 386
#     4   9  20  35  56  88 123 157 202 256 316 377
#     4  11  24  42  61  83 120 169 215 262 308 373
#     4  11  23  37  62  94 128 164 209 256 320 388
#     4  10  21  39  61  92 129 165 204 257 324 391
#     4  10  21  35  54  89 124 164 195 250 313 382
#     4  11  20  37  59  84 118 159 209 253 309 373
#     4  11  25  38  58  90 122 165 213 255 312 376
#
# _framework density 21.182365000000001
#
# number of rings (size 3 to 8) (size 9 to 14) (size 15 to 20)
#    0.000    1.500    3.750    1.125    7.000    2.000 
#    0.000    0.000    0.000    1.500    0.000    0.000 
#    0.000    0.000    0.000    0.000    0.000    0.000 
#
# Total GULP energy -178444.377683 kJ/mol
# GULP energy per Si atom -5576.386803 kJ/mol
# Density = 2.113415 g / cm^3
# Si number density = 21.182365 Si / 1000 Ang^3
#
#
#
# Elastic Constant Matrix: (Units=GPa)
#
#
# Indices 1 2 3 4 5 6 
#
# 1 73.0848 26.4284 18.1962 0.0000 -16.5988 0.0000
# 2 26.4284 87.5952 26.2836 0.0000 -26.0766 0.0000
# 3 18.1962 26.2836 67.7282 0.0000 -30.1015 0.0000
# 4 0.0000 0.0000 0.0000 21.2128 0.0000 -3.5842
# 5 -16.5988 -26.0766 -30.1015 0.0000 47.9575 0.0000
# 6 0.0000 0.0000 0.0000 -3.5842 0.0000 30.3446
#
#
#
# Elastic Compliance Matrix: (Units=1/GPa)
#
#
# Indices 1 2 3 4 5 6 
#
# 1 0.015976 -0.003540 -0.001825 0.000000 0.002459 0.000000
# 2 -0.003540 0.014790 -0.002439 0.000000 0.005285 0.000000
# 3 -0.001825 -0.002439 0.021263 0.000000 0.011388 0.000000
# 4 0.000000 0.000000 0.000000 0.048101 0.000000 0.005682
# 5 0.002459 0.005285 0.011388 0.000000 0.031725 0.000000
# 6 0.000000 0.000000 0.000000 0.005682 0.000000 0.033626
#
#
# Mechanical properties :
#
#
# Convention : Reuss Voigt Hill
#
# Bulk Modulus (GPa) = 27.45846 41.13606 34.29726
# Shear Modulus (GPa) = 25.87580 30.40298 28.13939
#
# Velocity S-wave (km/s) = 3.49889 3.79264 3.64872
# Velocity P-wave (km/s) = 5.41424 6.21618 5.82902
#
# Compressibility (1/GPa) = 0.03641865
#
# Stress axis : x y z
#
# Youngs Moduli (GPa) = 62.59428 67.61468 47.02918
#
# Poissons Ratio (x) = 0.23939 0.08585
# Poissons Ratio (y) = 0.22161 0.11472
# Poissons Ratio (z) = 0.11427 0.16493
#
# Static dielectric constant tensor:
#      x y z
#    x 1.838200 0.000000 0.008570 
#    y 0.000000 1.790790 0.000000 
#    z 0.008570 0.000000 1.809290 
# 
# From -- ./inp_files/5482.got.cif
#   From: 2010.05.17/outbox.cif.g08.bks.cpg/sg11_3_cif.got.tgz:5482.got - 2010.06.03 12:22:45.
