data_PCOD9164215
_publ_section_title
;
Structure prediction by ZEFSAII (Michael W. Deem and Ramdas Pophale) SiO2 
 PCOD9164215
Probable space group: P 21/M
;
_chemical_formula_sum "Si O2"
_cell_formula_units_Z 28
_cell_length_a 18.533966
_cell_length_b 9.200919
_cell_length_c 22.358344
_cell_angle_alpha 90.000000
_cell_angle_beta 19.745586
_cell_angle_gamma 90.000000
_cell_volume 1288.118102
_symmetry_space_group_name_H-M "P 21/M"
_symmetry_group_IT_number 11
_symmetry_cell_setting 'monoclinic'
loop_
_space_group_symop_operation_xyz
x,y,z
-x,1/2+y,-z
-x,-y,-z
x,1/2-y,z
loop_
_atom_site_type_symbol
_atom_site_label
_atom_site_fract_x
_atom_site_fract_y
_atom_site_fract_z
Si Si1 0.130858 0.080123 0.030879
Si Si2 0.863934 0.427025 0.442452
Si Si3 0.476636 0.922550 0.686949
Si Si4 0.316453 0.922348 0.679574
Si Si5 0.743160 0.510004 0.938246
Si Si6 0.616969 0.407263 0.858220
Si Si7 0.291155 0.413601 0.316391
O O1 0.176663 0.250000 0.980963
O O2 0.912598 0.036321 0.168425
O O3 0.129421 0.063958 0.103408
O O4 0.313580 0.975471 0.864316
O O5 0.888490 0.250000 0.424261
O O6 0.684762 0.479238 0.534843
O O7 0.782786 0.488940 0.569720
O O8 0.079291 0.508401 0.251945
O O9 0.526199 0.750000 0.652403
O O10 0.358753 0.951811 0.716162
O O11 0.334895 0.750000 0.656705
O O12 0.500000 0.000000 0.500000
O O13 0.573930 0.615910 0.040091
O O14 0.553757 0.401979 0.108056
O O15 0.697191 0.250000 0.815560
O O16 0.500000 0.500000 0.000000
O O17 0.768991 0.509696 0.699966
O O18 0.207941 0.250000 0.386079
#
# Coordination Sequence:
#
# PCOD9164215 Si02
#       7
#     4   4   4   4   4   4   4
#     4  11  21  39  63  85 116 161 210 257 310 376
#     4  12  23  39  66  95 126 168 215 262 312 376
#     4  11  23  38  56  87 124 160 205 261 319 373
#     4  10  23  39  57  84 118 157 206 259 314 376
#     4  10  24  39  66  91 125 161 213 256 316 370
#     4  10  20  39  66  95 129 169 211 257 314 377
#     4  10  23  41  63  93 129 165 207 260 314 370
#
# _framework density 21.737136
#
# number of rings (size 3 to 8) (size 9 to 14) (size 15 to 20)
#    0.857    0.571    1.429    4.286    0.000    4.000 
#    0.000    0.714    0.000    0.000    0.000    0.000 
#    0.000    0.000    0.000    0.000    0.000    0.000 
#
# Total GULP energy -155935.291414 kJ/mol
# GULP energy per Si atom -5569.117551 kJ/mol
# Density = 2.168766 g / cm^3
# Si number density = 21.737136 Si / 1000 Ang^3
#
#
#
# Elastic Constant Matrix: (Units=GPa)
#
#
# Indices 1 2 3 4 5 6 
#
# 1 61.0059 41.5944 16.2000 0.0000 15.7342 0.0000
# 2 41.5944 88.2805 30.4802 0.0000 12.3799 0.0000
# 3 16.2000 30.4802 119.6028 0.0000 13.8262 0.0000
# 4 0.0000 0.0000 0.0000 148.6539 0.0000 132.9480
# 5 15.7342 12.3799 13.8262 0.0000 36.6524 0.0000
# 6 0.0000 0.0000 0.0000 132.9480 0.0000 153.0690
#
#
#
# Elastic Compliance Matrix: (Units=1/GPa)
#
#
# Indices 1 2 3 4 5 6 
#
# 1 0.025911 -0.011243 0.000212 0.000000 -0.007406 0.000000
# 2 -0.011243 0.017654 -0.002974 0.000000 -0.000014 0.000000
# 3 0.000212 -0.002974 0.009394 0.000000 -0.002630 0.000000
# 4 0.000000 0.000000 0.000000 0.030137 0.000000 -0.026175
# 5 -0.007406 -0.000014 -0.002630 0.000000 0.031459 0.000000
# 6 0.000000 0.000000 0.000000 -0.026175 0.000000 0.029268
#
#
# Mechanical properties :
#
#
# Convention : Reuss Voigt Hill
#
# Bulk Modulus (GPa) = 40.08358 49.49317 44.78838
# Shear Modulus (GPa) = 27.75458 79.71605 53.73532
#
# Velocity S-wave (km/s) = 3.57715 6.06237 4.97737
# Velocity P-wave (km/s) = 5.96167 8.47476 7.32677
#
# Compressibility (1/GPa) = 0.02494787
#
# Stress axis : x y z
#
# Youngs Moduli (GPa) = 38.59337 56.64513 106.44647
#
# Poissons Ratio (x) = 0.63686 -0.02253
# Poissons Ratio (y) = 0.43390 0.31662
# Poissons Ratio (z) = -0.00817 0.16849
#
# Static dielectric constant tensor:
#      x y z
#    x 1.874890 0.000000 -0.024440 
#    y 0.000000 1.500060 0.000000 
#    z -0.024440 0.000000 1.838520 
# 
# From -- ./inp_files/69792.got.cif
#   From: 2010.05.17/outbox.cif.g08.bks.cpg/sg11_35_cif.got.tgz:69792.got - 2010.06.03 12:22:45.
