data_PCOD9164766
_publ_section_title
;
Structure prediction by ZEFSAII (Michael W. Deem and Ramdas Pophale) SiO2 
 PCOD9164766
Probable space group: P 21/M
;
_chemical_formula_sum "Si O2"
_cell_formula_units_Z 24
_cell_length_a 12.105865
_cell_length_b 8.747085
_cell_length_c 21.398341
_cell_angle_alpha 90.000000
_cell_angle_beta 141.358159
_cell_angle_gamma 90.000000
_cell_volume 1414.936822
_symmetry_space_group_name_H-M "P 21/M"
_symmetry_group_IT_number 11
_symmetry_cell_setting 'monoclinic'
loop_
_space_group_symop_operation_xyz
x,y,z
-x,1/2+y,-z
-x,-y,-z
x,1/2-y,z
loop_
_atom_site_type_symbol
_atom_site_label
_atom_site_fract_x
_atom_site_fract_y
_atom_site_fract_z
Si Si1 0.843816 0.566648 0.739509
Si Si2 0.100181 0.931916 0.362224
Si Si3 0.908737 0.068754 0.397397
Si Si4 0.864549 0.932938 0.890713
Si Si5 0.458115 0.931596 0.707121
Si Si6 0.547242 0.569313 0.427893
O O1 0.845944 0.750000 0.736773
O O2 0.948763 0.496725 0.727614
O O3 0.901669 0.519630 0.835148
O O4 0.642203 0.507754 0.644959
O O5 0.100915 0.750000 0.361664
O O6 0.296787 0.993873 0.463928
O O7 0.981525 0.991960 0.366919
O O8 0.946544 0.250000 0.412049
O O9 0.697559 0.047886 0.312014
O O10 0.000000 0.000000 0.500000
O O11 0.877427 0.750000 0.898253
O O12 0.658853 0.971536 0.814343
O O13 0.000000 0.000000 0.000000
O O14 0.458018 0.750000 0.689066
O O15 0.410629 0.031434 0.625728
O O16 0.538942 0.750000 0.435535
#
# Coordination Sequence:
#
# PCOD9164766 Si02
#       6
#     4   4   4   4   4   4
#     4  10  21  37  53  74 105 138 176 218 268 320
#     4  12  23  34  49  73 108 145 180 218 261 311
#     4  11  21  34  53  76 107 147 186 219 256 307
#     4   9  19  36  59  83 105 132 167 218 274 322
#     4   9  19  35  53  76 108 142 178 218 262 311
#     4  11  20  31  50  75 105 141 179 217 261 312
#
# _framework density 16.961888999999999
#
# number of rings (size 3 to 8) (size 9 to 14) (size 15 to 20)
#    0.000    1.667    1.667    5.500    0.000    4.000 
#    0.000    0.000    0.000    1.000    0.000    0.000 
#    0.000    0.000    0.000    0.000    0.000    0.000 
#
# Total GULP energy -133970.650690 kJ/mol
# GULP energy per Si atom -5582.110445 kJ/mol
# Density = 1.692328 g / cm^3
# Si number density = 16.961889 Si / 1000 Ang^3
#
#
#
# Elastic Constant Matrix: (Units=GPa)
#
#
# Indices 1 2 3 4 5 6 
#
# 1 120.2087 45.9761 60.3808 0.0000 -28.0850 0.0000
# 2 45.9761 88.1302 40.8815 0.0000 -13.7708 0.0000
# 3 60.3808 40.8815 110.8422 0.0000 -17.1050 0.0000
# 4 0.0000 0.0000 0.0000 27.2446 0.0000 -3.0798
# 5 -28.0850 -13.7708 -17.1050 0.0000 14.9652 0.0000
# 6 0.0000 0.0000 0.0000 -3.0798 0.0000 29.9696
#
#
#
# Elastic Compliance Matrix: (Units=1/GPa)
#
#
# Indices 1 2 3 4 5 6 
#
# 1 0.017693 -0.003187 -0.004603 0.000000 0.025011 0.000000
# 2 -0.003187 0.015165 -0.003189 0.000000 0.004329 0.000000
# 3 -0.004603 -0.003189 0.013258 0.000000 0.003580 0.000000
# 4 0.000000 0.000000 0.000000 0.037136 0.000000 0.003816
# 5 0.025011 0.004329 0.003580 0.000000 0.121834 0.000000
# 6 0.000000 0.000000 0.000000 0.003816 0.000000 0.033759
#
#
# Mechanical properties :
#
#
# Convention : Reuss Voigt Hill
#
# Bulk Modulus (GPa) = 41.39460 68.18424 54.78942
# Shear Modulus (GPa) = 18.59719 25.89873 22.24796
#
# Velocity S-wave (km/s) = 3.31480 3.91177 3.62559
# Velocity P-wave (km/s) = 6.25364 7.79027 7.06386
#
# Compressibility (1/GPa) = 0.02415774
#
# Stress axis : x y z
#
# Youngs Moduli (GPa) = 56.51815 65.94035 75.42462
#
# Poissons Ratio (x) = 0.21015 0.34721
# Poissons Ratio (y) = 0.18012 0.24055
# Poissons Ratio (z) = 0.26017 0.21030
#
# Static dielectric constant tensor:
#      x y z
#    x 1.614920 0.000000 -0.004210 
#    y 0.000000 1.566690 0.000000 
#    z -0.004210 0.000000 1.557270 
# 
# From -- ./inp_files/36973.got.cif
#   From: 2010.05.17/outbox.cif.g08.bks.cpg/sg11_19_cif.got.tgz:36973.got - 2010.06.03 12:22:45.
