data_PCOD9164126
_publ_section_title
;
Structure prediction by ZEFSAII (Michael W. Deem and Ramdas Pophale) SiO2 
 PCOD9164126
Probable space group: P 21/M
;
_chemical_formula_sum "Si O2"
_cell_formula_units_Z 28
_cell_length_a 12.118312
_cell_length_b 17.474496
_cell_length_c 14.898989
_cell_angle_alpha 90.000000
_cell_angle_beta 150.325450
_cell_angle_gamma 90.000000
_cell_volume 1561.969831
_symmetry_space_group_name_H-M "P 21/M"
_symmetry_group_IT_number 11
_symmetry_cell_setting 'monoclinic'
loop_
_space_group_symop_operation_xyz
x,y,z
-x,1/2+y,-z
-x,-y,-z
x,1/2-y,z
loop_
_atom_site_type_symbol
_atom_site_label
_atom_site_fract_x
_atom_site_fract_y
_atom_site_fract_z
Si Si1 0.384227 0.050591 0.994376
Si Si2 0.279526 0.948506 0.337478
Si Si3 0.224757 0.839165 0.670708
Si Si4 0.136536 0.092308 0.449976
Si Si5 0.109324 0.584252 0.410697
Si Si6 0.107512 0.937019 0.909447
Si Si7 0.374537 0.658947 0.237299
O O1 0.555436 0.114193 0.147048
O O2 0.155116 0.085418 0.794198
O O3 0.500000 0.000000 0.000000
O O4 0.306108 0.992857 0.017349
O O5 0.227960 0.911318 0.397988
O O6 0.310985 0.885614 0.283459
O O7 0.500000 0.000000 0.500000
O O8 0.076221 0.007400 0.175642
O O9 0.249874 0.750000 0.706720
O O10 0.178539 0.855440 0.533644
O O11 0.020031 0.872124 0.584693
O O12 0.374103 0.133177 0.610538
O O13 0.008693 0.095264 0.263324
O O14 0.163721 0.001331 0.485737
O O15 0.206169 0.872522 0.042626
O O16 0.362937 0.750000 0.238257
#
# Coordination Sequence:
#
# PCOD9164126 Si02
#       7
#     4   4   4   4   4   4   4
#     4  10  20  39  62  86 117 163 206 239 286 366
#     4  10  20  44  66  85 114 164 208 248 290 359
#     4  12  24  37  59  94 130 158 194 255 308 349
#     4  10  21  41  62  90 121 159 204 244 293 373
#     4  10  22  39  68  85 114 163 212 243 291 367
#     4  10  22  40  66  89 115 158 212 246 293 365
#     4  12  24  38  63  95 125 155 195 258 314 347
#
# _framework density 17.926082999999998
#
# number of rings (size 3 to 8) (size 9 to 14) (size 15 to 20)
#    0.000    1.714    5.714    2.143    2.000    2.286 
#    0.000    2.143    0.000    0.000    0.000    0.000 
#    0.000    0.000    0.000    0.000    0.000    0.000 
#
# Total GULP energy -156364.539852 kJ/mol
# GULP energy per Si atom -5584.447852 kJ/mol
# Density = 1.788528 g / cm^3
# Si number density = 17.926083 Si / 1000 Ang^3
#
#
#
# Elastic Constant Matrix: (Units=GPa)
#
#
# Indices 1 2 3 4 5 6 
#
# 1 76.5389 31.0633 41.1474 0.0000 26.2323 0.0000
# 2 31.0633 72.0603 31.6002 0.0000 1.0718 0.0000
# 3 41.1474 31.6002 61.8207 0.0000 11.6850 0.0000
# 4 0.0000 0.0000 0.0000 2.2945 0.0000 3.6964
# 5 26.2323 1.0718 11.6850 0.0000 26.3060 0.0000
# 6 0.0000 0.0000 0.0000 3.6964 0.0000 8.6023
#
#
#
# Elastic Compliance Matrix: (Units=1/GPa)
#
#
# Indices 1 2 3 4 5 6 
#
# 1 0.031688 -0.007954 -0.012132 0.000000 -0.025886 0.000000
# 2 -0.007954 0.020208 -0.006963 0.000000 0.010202 0.000000
# 3 -0.012132 -0.006963 0.027805 0.000000 0.000032 0.000000
# 4 0.000000 0.000000 0.000000 1.416187 0.000000 -0.608535
# 5 -0.025886 0.010202 0.000032 0.000000 0.063398 0.000000
# 6 0.000000 0.000000 0.000000 -0.608535 0.000000 0.377735
#
#
# Mechanical properties :
#
#
# Convention : Reuss Voigt Hill
#
# Bulk Modulus (GPa) = 39.06265 46.44907 42.75586
# Shear Modulus (GPa) = 2.50043 14.54782 8.52412
#
# Velocity S-wave (km/s) = 1.18232 2.85185 2.18300
# Velocity P-wave (km/s) = 4.86848 6.06727 5.50063
#
# Compressibility (1/GPa) = 0.02559990
#
# Stress axis : x y z
#
# Youngs Moduli (GPa) = 31.55772 49.48491 35.96530
#
# Poissons Ratio (x) = 0.39363 0.43635
# Poissons Ratio (y) = 0.25103 0.25044
# Poissons Ratio (z) = 0.38287 0.34459
#
# Static dielectric constant tensor:
#      x y z
#    x 1.613640 0.000000 -0.005080 
#    y 0.000000 1.575510 0.000000 
#    z -0.005080 0.000000 1.618740 
# 
# From -- ./inp_files/50553.got.cif
#   From: 2010.05.17/outbox.cif.g08.bks.cpg/sg11_26_cif.got.tgz:50553.got - 2010.06.03 12:22:45.
