data_PCOD9164371
_publ_section_title
;
Structure prediction by ZEFSAII (Michael W. Deem and Ramdas Pophale) SiO2 
 PCOD9164371
Probable space group: P 21/M
;
_chemical_formula_sum "Si O2"
_cell_formula_units_Z 26
_cell_length_a 9.022805
_cell_length_b 19.213591
_cell_length_c 11.947506
_cell_angle_alpha 90.000000
_cell_angle_beta 37.861243
_cell_angle_gamma 90.000000
_cell_volume 1271.217290
_symmetry_space_group_name_H-M "P 21/M"
_symmetry_group_IT_number 11
_symmetry_cell_setting 'monoclinic'
loop_
_space_group_symop_operation_xyz
x,y,z
-x,1/2+y,-z
-x,-y,-z
x,1/2-y,z
loop_
_atom_site_type_symbol
_atom_site_label
_atom_site_fract_x
_atom_site_fract_y
_atom_site_fract_z
Si Si1 0.019142 0.750000 0.680458
Si Si2 0.921882 0.518799 0.421481
Si Si3 0.642892 0.465125 0.210459
Si Si4 0.691832 0.877783 0.251650
Si Si5 0.182209 0.607877 0.678025
Si Si6 0.473687 0.750000 0.985769
Si Si7 0.830286 0.115942 0.894128
Si Si8 0.508560 0.250000 0.758479
O O1 0.050372 0.680692 0.736288
O O2 0.233406 0.750000 0.460512
O O3 0.754561 0.750000 0.784997
O O4 0.641238 0.541151 0.592535
O O5 0.930727 0.452029 0.333604
O O6 0.000000 0.500000 0.500000
O O7 0.087205 0.578350 0.268935
O O8 0.710649 0.545576 0.187459
O O9 0.791709 0.419759 0.211871
O O10 0.698229 0.438798 0.053957
O O11 0.455716 0.881456 0.471165
O O12 0.634834 0.818139 0.196750
O O13 0.925533 0.862848 0.186407
O O14 0.338725 0.681566 0.023760
O O15 0.461395 0.750000 0.127558
#
# Coordination Sequence:
#
# PCOD9164371 Si02
#       8
#     2   4   4   4   4   2   4   2
#     4  10  26  45  66  97 136 185 225 275 349 403
#     4  11  25  43  69 103 141 175 224 283 341 408
#     4  11  23  42  72 105 132 175 235 282 330 402
#     4  10  20  45  70 102 126 178 236 278 335 394
#     4  10  21  45  73  97 133 179 231 284 328 401
#     4  12  31  44  61 104 143 178 226 269 349 428
#     4  12  26  43  68 101 139 181 219 282 341 399
#     4  10  25  45  73  87 139 187 221 284 342 403
#
# _framework density 20.452838
#
# number of rings (size 3 to 8) (size 9 to 14) (size 15 to 20)
#    0.000    1.231    3.077    1.846   10.769    1.231 
#    0.000    0.000    0.000    0.000    0.000    0.000 
#    0.000    0.000    0.000    0.000    0.000    0.000 
#
# Total GULP energy -145502.031454 kJ/mol
# GULP energy per Si atom -5596.231979 kJ/mol
# Density = 2.040629 g / cm^3
# Si number density = 20.452838 Si / 1000 Ang^3
#
#
#
# Elastic Constant Matrix: (Units=GPa)
#
#
# Indices 1 2 3 4 5 6 
#
# 1 100.7199 56.3039 24.9119 0.0000 3.7874 0.0000
# 2 56.3039 90.2709 37.0541 0.0000 -22.6091 0.0000
# 3 24.9119 37.0541 74.4403 0.0000 0.8678 0.0000
# 4 0.0000 0.0000 0.0000 -1.2768 0.0000 8.0408
# 5 3.7874 -22.6091 0.8678 0.0000 34.0990 0.0000
# 6 0.0000 0.0000 0.0000 8.0408 0.0000 29.3889
#
#
#
# Elastic Compliance Matrix: (Units=1/GPa)
#
#
# Indices 1 2 3 4 5 6 
#
# 1 0.018529 -0.015240 0.001527 0.000000 -0.012201 0.000000
# 2 -0.015240 0.030311 -0.010245 0.000000 0.022051 0.000000
# 3 0.001527 -0.010245 0.018109 0.000000 -0.007423 0.000000
# 4 0.000000 0.000000 0.000000 -0.287624 0.000000 0.078694
# 5 -0.012201 0.022051 -0.007423 0.000000 0.045491 0.000000
# 6 0.000000 0.000000 0.000000 0.078694 0.000000 0.012496
#
#
# Mechanical properties :
#
#
# Convention : Reuss Voigt Hill
#
# Bulk Modulus (GPa) = 52.53776 55.77454 54.15615
# Shear Modulus (GPa) = -46.11324 22.25299 -11.93013
#
# Velocity S-wave (km/s) = -4.75343 3.30209 -2.41778
# Velocity P-wave (km/s) = 2.09374 6.47050 4.32918
#
# Compressibility (1/GPa) = 0.01903393
#
# Stress axis : x y z
#
# Youngs Moduli (GPa) = 53.97005 32.99092 55.22214
#
# Poissons Ratio (x) = 0.50277 -0.08434
# Poissons Ratio (y) = 0.82249 0.56576
# Poissons Ratio (z) = -0.08243 0.33800
#
# Static dielectric constant tensor:
#      x y z
#    x 1.692240 0.000000 -0.014440 
#    y 0.000000 1.714250 0.000000 
#    z -0.014440 0.000000 1.743430 
# 
# From -- ./inp_files/32788.got.cif
#   From: 2010.05.17/outbox.cif.g08.bks.cpg/sg11_17_cif.got.tgz:32788.got - 2010.06.03 12:22:45.
