data_PCOD9164878
_publ_section_title
;
Structure prediction by ZEFSAII (Michael W. Deem and Ramdas Pophale) SiO2 
 PCOD9164878
Probable space group: P 21/M
;
_chemical_formula_sum "Si O2"
_cell_formula_units_Z 28
_cell_length_a 7.781444
_cell_length_b 17.464974
_cell_length_c 13.410454
_cell_angle_alpha 90.000000
_cell_angle_beta 127.505032
_cell_angle_gamma 90.000000
_cell_volume 1445.802613
_symmetry_space_group_name_H-M "P 21/M"
_symmetry_group_IT_number 11
_symmetry_cell_setting 'monoclinic'
loop_
_space_group_symop_operation_xyz
x,y,z
-x,1/2+y,-z
-x,-y,-z
x,1/2-y,z
loop_
_atom_site_type_symbol
_atom_site_label
_atom_site_fract_x
_atom_site_fract_y
_atom_site_fract_z
Si Si1 0.037354 0.586912 0.979658
Si Si2 0.737258 0.340944 0.524814
Si Si3 0.520578 0.439656 0.597137
Si Si4 0.194234 0.339619 0.589861
Si Si5 0.510524 0.339165 0.891193
Si Si6 0.390733 0.415418 0.256861
Si Si7 0.689134 0.839702 0.968100
O O1 0.867251 0.601008 0.828788
O O2 0.938161 0.640019 0.031978
O O3 0.279426 0.608494 0.041727
O O4 0.000000 0.500000 0.000000
O O5 0.741583 0.250000 0.538614
O O6 0.699241 0.380957 0.618356
O O7 0.537880 0.366943 0.383921
O O8 0.958745 0.364026 0.546971
O O9 0.500000 0.500000 0.500000
O O10 0.303042 0.392743 0.544641
O O11 0.575009 0.495033 0.708574
O O12 0.182538 0.250000 0.554882
O O13 0.358278 0.344732 0.741212
O O14 0.580253 0.250000 0.923603
O O15 0.377574 0.357896 0.943816
O O16 0.437702 0.389664 0.159816
O O17 0.650873 0.750000 0.935923
#
# Coordination Sequence:
#
# PCOD9164878 Si02
#       7
#     4   4   4   4   4   4   4
#     4  10  21  37  57  87 123 155 194 240 294 356
#     4  10  21  40  64  86 117 160 203 254 303 349
#     4  10  21  40  58  87 121 155 197 243 303 358
#     4  10  22  39  61  89 118 155 205 249 294 361
#     4  10  21  38  61  87 117 158 201 242 297 358
#     4   9  21  38  60  89 123 155 197 248 302 358
#     4   9  20  39  59  87 120 156 201 247 299 353
#
# _framework density 19.366406999999999
#
# number of rings (size 3 to 8) (size 9 to 14) (size 15 to 20)
#    0.857    1.429    0.000    2.143    0.000    5.143 
#    7.714    2.857    0.000    0.000    0.000    0.000 
#    0.000    0.000    0.000    0.000    0.000    0.000 
#
# Total GULP energy -155971.161363 kJ/mol
# GULP energy per Si atom -5570.398620 kJ/mol
# Density = 1.932233 g / cm^3
# Si number density = 19.366407 Si / 1000 Ang^3
#
#
#
# Elastic Constant Matrix: (Units=GPa)
#
#
# Indices 1 2 3 4 5 6 
#
# 1 107.7771 55.8457 10.9984 0.0000 2.2694 0.0000
# 2 55.8457 68.1591 21.8481 0.0000 -11.0530 0.0000
# 3 10.9984 21.8481 39.6363 0.0000 10.8710 0.0000
# 4 0.0000 0.0000 0.0000 18.4823 0.0000 -12.2332
# 5 2.2694 -11.0530 10.8710 0.0000 26.2791 0.0000
# 6 0.0000 0.0000 0.0000 -12.2332 0.0000 30.6910
#
#
#
# Elastic Compliance Matrix: (Units=1/GPa)
#
#
# Indices 1 2 3 4 5 6 
#
# 1 0.020343 -0.022949 0.011431 0.000000 -0.016138 0.000000
# 2 -0.022949 0.048801 -0.030123 0.000000 0.034969 0.000000
# 3 0.011431 -0.030123 0.047834 0.000000 -0.033445 0.000000
# 4 0.000000 0.000000 0.000000 0.073495 0.000000 0.029295
# 5 -0.016138 0.034969 -0.033445 0.000000 0.067990 0.000000
# 6 0.000000 0.000000 0.000000 0.029295 0.000000 0.044259
#
#
# Mechanical properties :
#
#
# Convention : Reuss Voigt Hill
#
# Bulk Modulus (GPa) = 29.67603 43.66188 36.66895
# Shear Modulus (GPa) = 12.58693 23.54917 18.06805
#
# Velocity S-wave (km/s) = 2.55215 3.49087 3.05775
# Velocity P-wave (km/s) = 4.90320 6.23236 5.60730
#
# Compressibility (1/GPa) = 0.03369723
#
# Stress axis : x y z
#
# Youngs Moduli (GPa) = 49.15690 20.49125 20.90543
#
# Poissons Ratio (x) = 0.47026 -0.23898
# Poissons Ratio (y) = 1.12811 0.62973
# Poissons Ratio (z) = -0.56193 0.61726
#
# Static dielectric constant tensor:
#      x y z
#    x 1.665350 0.000000 -0.012040 
#    y 0.000000 1.704520 0.000000 
#    z -0.012040 0.000000 1.704320 
# 
# From -- ./inp_files/46092.got.cif
#   From: 2010.05.17/outbox.cif.g08.bks.cpg/sg11_24_cif.got.tgz:46092.got - 2010.06.03 12:22:45.
