data_PCOD9164322
_publ_section_title
;
Structure prediction by ZEFSAII (Michael W. Deem and Ramdas Pophale) SiO2 
 PCOD9164322
Probable space group: P 21/M
;
_chemical_formula_sum "Si O2"
_cell_formula_units_Z 28
_cell_length_a 9.005184
_cell_length_b 30.082727
_cell_length_c 9.491651
_cell_angle_alpha 90.000000
_cell_angle_beta 146.901166
_cell_angle_gamma 90.000000
_cell_volume 1404.144273
_symmetry_space_group_name_H-M "P 21/M"
_symmetry_group_IT_number 11
_symmetry_cell_setting 'monoclinic'
loop_
_space_group_symop_operation_xyz
x,y,z
-x,1/2+y,-z
-x,-y,-z
x,1/2-y,z
loop_
_atom_site_type_symbol
_atom_site_label
_atom_site_fract_x
_atom_site_fract_y
_atom_site_fract_z
Si Si1 0.621363 0.799898 0.597149
Si Si2 0.089999 0.111665 0.683649
Si Si3 0.038365 0.830412 0.173204
Si Si4 0.017599 0.087313 0.039984
Si Si5 0.436668 0.524301 0.302765
Si Si6 0.496843 0.434089 0.217132
Si Si7 0.243454 0.382505 0.484548
O O1 0.689685 0.750000 0.604507
O O2 0.308765 0.801882 0.397980
O O3 0.641644 0.836753 0.489777
O O4 0.819790 0.812577 0.885895
O O5 0.078890 0.156561 0.768392
O O6 0.795660 0.087213 0.453625
O O7 0.163266 0.121589 0.581696
O O8 0.318261 0.081395 0.941664
O O9 0.123420 0.878840 0.178990
O O10 0.872063 0.040715 0.934276
O O11 0.317717 0.082895 0.209778
O O12 0.001495 0.108286 0.181384
O O13 0.500000 0.500000 0.500000
O O14 0.502091 0.487319 0.237919
O O15 0.591938 0.570936 0.401392
#
# Coordination Sequence:
#
# PCOD9164322 Si02
#       7
#     4   4   4   4   4   4   4
#     4  11  23  44  71  97 118 159 218 270 316 388
#     4  11  25  42  61  94 136 173 204 260 327 380
#     4  10  20  41  67  90 125 163 206 256 322 385
#     4  10  21  39  63  89 125 170 226 260 308 363
#     4  12  22  38  65  95 127 176 229 266 307 366
#     4  11  24  39  62  89 133 178 221 255 300 385
#     4  11  25  40  65  94 131 168 212 270 327 373
#
# _framework density 19.940971999999999
#
# number of rings (size 3 to 8) (size 9 to 14) (size 15 to 20)
#    0.000    1.143    2.857    5.143    4.000    1.143 
#    0.000    1.429    0.000    0.000    0.000    0.000 
#    0.000    0.000    0.000    0.000    0.000    0.000 
#
# Total GULP energy -156159.622959 kJ/mol
# GULP energy per Si atom -5577.129391 kJ/mol
# Density = 1.989559 g / cm^3
# Si number density = 19.940972 Si / 1000 Ang^3
#
#
#
# Elastic Constant Matrix: (Units=GPa)
#
#
# Indices 1 2 3 4 5 6 
#
# 1 115.6144 60.0244 66.7108 0.0000 -32.5591 0.0000
# 2 60.0244 139.2238 35.9862 0.0000 -3.9873 0.0000
# 3 66.7108 35.9862 108.9129 0.0000 -8.3609 0.0000
# 4 0.0000 0.0000 0.0000 14.2850 0.0000 0.3778
# 5 -32.5591 -3.9873 -8.3609 0.0000 38.2206 0.0000
# 6 0.0000 0.0000 0.0000 0.3778 0.0000 14.0327
#
#
#
# Elastic Compliance Matrix: (Units=1/GPa)
#
#
# Indices 1 2 3 4 5 6 
#
# 1 0.022772 -0.006635 -0.010496 0.000000 0.016411 0.000000
# 2 -0.006635 0.009789 0.000482 0.000000 -0.004525 0.000000
# 3 -0.010496 0.000482 0.015021 0.000000 -0.005605 0.000000
# 4 0.000000 0.000000 0.000000 0.070053 0.000000 -0.001886
# 5 0.016411 -0.004525 -0.005605 0.000000 0.038445 0.000000
# 6 0.000000 0.000000 0.000000 -0.001886 0.000000 0.071313
#
#
# Mechanical properties :
#
#
# Convention : Reuss Voigt Hill
#
# Bulk Modulus (GPa) = 70.00660 76.57710 73.29185
# Shear Modulus (GPa) = 18.83571 26.70963 22.77267
#
# Velocity S-wave (km/s) = 3.07673 3.66380 3.38302
# Velocity P-wave (km/s) = 6.91410 7.50887 7.21762
#
# Compressibility (1/GPa) = 0.01428437
#
# Stress axis : x y z
#
# Youngs Moduli (GPa) = 43.91349 102.15569 66.57292
#
# Poissons Ratio (x) = 0.67779 0.69876
# Poissons Ratio (y) = 0.29136 -0.03210
# Poissons Ratio (z) = 0.46092 -0.04925
#
# Static dielectric constant tensor:
#      x y z
#    x 1.717260 0.000000 0.031140 
#    y 0.000000 1.733880 0.000000 
#    z 0.031140 0.000000 1.779670 
# 
# From -- ./inp_files/15407.got.cif
#   From: 2010.05.17/outbox.cif.g08.bks.cpg/sg11_8_cif.got.tgz:15407.got - 2010.06.03 12:22:45.
