data_PCOD9164369
_publ_section_title
;
Structure prediction by ZEFSAII (Michael W. Deem and Ramdas Pophale) SiO2 
 PCOD9164369
Probable space group: P 21/M
;
_chemical_formula_sum "Si O2"
_cell_formula_units_Z 20
_cell_length_a 9.730570
_cell_length_b 13.866349
_cell_length_c 9.018598
_cell_angle_alpha 90.000000
_cell_angle_beta 45.624804
_cell_angle_gamma 90.000000
_cell_volume 869.779360
_symmetry_space_group_name_H-M "P 21/M"
_symmetry_group_IT_number 11
_symmetry_cell_setting 'monoclinic'
loop_
_space_group_symop_operation_xyz
x,y,z
-x,1/2+y,-z
-x,-y,-z
x,1/2-y,z
loop_
_atom_site_type_symbol
_atom_site_label
_atom_site_fract_x
_atom_site_fract_y
_atom_site_fract_z
Si Si1 0.558598 0.750000 0.836319
Si Si2 0.888019 0.750000 0.826403
Si Si3 0.154878 0.750000 0.046090
Si Si4 0.749863 0.750000 0.272705
Si Si5 0.984953 0.038128 0.345121
Si Si6 0.193615 0.540438 0.927453
Si Si7 0.392469 0.080410 0.441505
O O1 0.690941 0.750000 0.879795
O O2 0.326681 0.750000 0.034961
O O3 0.601884 0.654405 0.704817
O O4 0.000694 0.652518 0.694862
O O5 0.829368 0.750000 0.045171
O O6 0.180363 0.655291 0.930172
O O7 0.930797 0.750000 0.253274
O O8 0.634225 0.655059 0.402939
O O9 0.787969 0.990716 0.434249
O O10 0.000000 0.000000 0.500000
O O11 0.163502 0.993233 0.118730
O O12 0.407912 0.522815 0.711819
O O13 0.000000 0.500000 0.000000
#
# Coordination Sequence:
#
# PCOD9164369 Si02
#       7
#     2   2   2   2   4   4   4
#     4   9  20  44  73 108 149 197 262 304 381 459
#     4  12  26  46  74 123 154 190 270 344 361 455
#     4  10  20  44  75 101 142 207 244 303 379 465
#     4  11  22  46  82 112 155 198 264 317 391 457
#     4  12  26  47  76 108 157 201 257 316 388 456
#     4  11  25  47  76 110 150 195 262 314 378 465
#     4  10  23  47  79 106 147 217 243 304 406 471
#
# _framework density 22.994337999999999
#
# number of rings (size 3 to 8) (size 9 to 14) (size 15 to 20)
#    0.000    1.200    4.000    1.800    0.000    2.400 
#    0.000    2.000    0.000    0.000    0.000    0.000 
#    0.000    0.000    0.000    0.000    0.000    0.000 
#
# Total GULP energy -111784.867794 kJ/mol
# GULP energy per Si atom -5589.243390 kJ/mol
# Density = 2.294200 g / cm^3
# Si number density = 22.994338 Si / 1000 Ang^3
#
#
#
# Elastic Constant Matrix: (Units=GPa)
#
#
# Indices 1 2 3 4 5 6 
#
# 1 132.5386 73.8872 68.7831 0.0000 -18.5334 0.0000
# 2 73.8872 201.1994 81.7469 0.0000 -10.9288 0.0000
# 3 68.7831 81.7469 173.4674 0.0000 -14.0292 0.0000
# 4 0.0000 0.0000 0.0000 14.0919 0.0000 -10.5799
# 5 -18.5334 -10.9288 -14.0292 0.0000 50.9248 0.0000
# 6 0.0000 0.0000 0.0000 -10.5799 0.0000 38.0095
#
#
#
# Elastic Compliance Matrix: (Units=1/GPa)
#
#
# Indices 1 2 3 4 5 6 
#
# 1 0.010887 -0.002706 -0.002831 0.000000 0.002601 0.000000
# 2 -0.002706 0.006834 -0.002157 0.000000 -0.000112 0.000000
# 3 -0.002831 -0.002157 0.007960 0.000000 0.000700 0.000000
# 4 0.000000 0.000000 0.000000 0.089710 0.000000 0.024971
# 5 0.002601 -0.000112 0.000700 0.000000 0.020752 0.000000
# 6 0.000000 0.000000 0.000000 0.024971 0.000000 0.033260
#
#
# Mechanical properties :
#
#
# Convention : Reuss Voigt Hill
#
# Bulk Modulus (GPa) = 97.15238 106.22663 101.68951
# Shear Modulus (GPa) = 26.56435 39.45780 33.01108
#
# Velocity S-wave (km/s) = 3.40259 4.14693 3.79306
# Velocity P-wave (km/s) = 7.60126 8.32025 7.96887
#
# Compressibility (1/GPa) = 0.01029311
#
# Stress axis : x y z
#
# Youngs Moduli (GPa) = 91.85535 146.32306 125.62508
#
# Poissons Ratio (x) = 0.39601 0.35564
# Poissons Ratio (y) = 0.24860 0.27092
# Poissons Ratio (z) = 0.26004 0.31556
#
# Static dielectric constant tensor:
#      x y z
#    x 1.924540 0.000000 0.030560 
#    y 0.000000 1.877060 0.000000 
#    z 0.030560 0.000000 1.923700 
# 
# From -- ./inp_files/17355.got.cif
#   From: 2010.05.17/outbox.cif.g08.bks.cpg/sg11_9_cif.got.tgz:17355.got - 2010.06.03 12:22:45.
