data_PCOD9164753
_publ_section_title
;
Structure prediction by ZEFSAII (Michael W. Deem and Ramdas Pophale) SiO2 
 PCOD9164753
Probable space group: P 21/M
;
_chemical_formula_sum "Si O2"
_cell_formula_units_Z 32
_cell_length_a 20.476760
_cell_length_b 13.331622
_cell_length_c 14.748008
_cell_angle_alpha 90.000000
_cell_angle_beta 19.775752
_cell_angle_gamma 90.000000
_cell_volume 1362.167639
_symmetry_space_group_name_H-M "P 21/M"
_symmetry_group_IT_number 11
_symmetry_cell_setting 'monoclinic'
loop_
_space_group_symop_operation_xyz
x,y,z
-x,1/2+y,-z
-x,-y,-z
x,1/2-y,z
loop_
_atom_site_type_symbol
_atom_site_label
_atom_site_fract_x
_atom_site_fract_y
_atom_site_fract_z
Si Si1 0.835041 0.993156 0.603442
Si Si2 0.540456 0.562845 0.659632
Si Si3 0.184829 0.631104 0.211134
Si Si4 0.776743 0.866316 0.518941
Si Si5 0.412088 0.129217 0.598756
Si Si6 0.757484 0.134114 0.393261
Si Si7 0.957047 0.632525 0.807869
Si Si8 0.154217 0.870139 0.920864
O O1 0.739925 0.062331 0.804017
O O2 0.971673 0.069413 0.369864
O O3 0.715035 0.935089 0.683667
O O4 0.969379 0.908267 0.473850
O O5 0.641554 0.623378 0.608686
O O6 0.630822 0.592516 0.445972
O O7 0.585476 0.446369 0.620033
O O8 0.320168 0.599601 0.950313
O O9 0.193168 0.750000 0.215516
O O10 0.790271 0.750000 0.528721
O O11 0.985243 0.904205 0.208586
O O12 0.409610 0.250000 0.599462
O O13 0.627728 0.097036 0.343541
O O14 0.249859 0.100591 0.882868
O O15 0.690674 0.250000 0.473035
O O16 0.878350 0.111298 0.143527
O O17 0.890508 0.125308 0.307915
O O18 0.946826 0.750000 0.796268
O O19 0.151586 0.750000 0.935013
#
# Coordination Sequence:
#
# PCOD9164753 Si02
#       8
#     4   4   4   4   4   4   4   4
#     4  11  24  44  70  95 122 171 217 261 337 382
#     4  12  24  40  67  95 131 176 221 261 325 386
#     4  11  26  48  70  96 131 166 215 272 322 388
#     4  11  22  39  64  96 133 170 220 270 320 387
#     4  10  21  36  61  96 134 174 220 267 320 385
#     4  10  22  40  59  91 136 178 218 264 318 380
#     4  10  21  40  64  95 133 172 218 271 325 385
#     4   9  20  37  59  92 136 179 213 260 318 376
#
# _framework density 23.491968
#
# number of rings (size 3 to 8) (size 9 to 14) (size 15 to 20)
#    0.000    1.500    1.250    3.375    3.500    5.000 
#    0.000    3.125    0.000    0.000    0.000    0.000 
#    0.000    0.000    0.000    0.000    0.000    0.000 
#
# Total GULP energy -179126.562899 kJ/mol
# GULP energy per Si atom -5597.705091 kJ/mol
# Density = 2.343850 g / cm^3
# Si number density = 23.491968 Si / 1000 Ang^3
#
#
#
# Elastic Constant Matrix: (Units=GPa)
#
#
# Indices 1 2 3 4 5 6 
#
# 1 71.3622 10.1141 0.9588 0.0000 8.9052 0.0000
# 2 10.1141 143.4666 18.8670 0.0000 9.2562 0.0000
# 3 0.9588 18.8670 51.4959 0.0000 1.3049 0.0000
# 4 0.0000 0.0000 0.0000 33.1620 0.0000 2.0338
# 5 8.9052 9.2562 1.3049 0.0000 31.6782 0.0000
# 6 0.0000 0.0000 0.0000 2.0338 0.0000 34.8163
#
#
#
# Elastic Compliance Matrix: (Units=1/GPa)
#
#
# Indices 1 2 3 4 5 6 
#
# 1 0.014608 -0.000795 0.000118 0.000000 -0.003879 0.000000
# 2 -0.000795 0.007499 -0.002686 0.000000 -0.001857 0.000000
# 3 0.000118 -0.002686 0.020403 0.000000 -0.000089 0.000000
# 4 0.000000 0.000000 0.000000 0.030263 0.000000 -0.001768
# 5 -0.003879 -0.001857 -0.000089 0.000000 0.033204 0.000000
# 6 0.000000 0.000000 0.000000 -0.001768 0.000000 0.028825
#
#
# Mechanical properties :
#
#
# Convention : Reuss Voigt Hill
#
# Bulk Modulus (GPa) = 27.94526 36.24493 32.09509
# Shear Modulus (GPa) = 32.58218 35.69028 34.13623
#
# Velocity S-wave (km/s) = 3.72822 3.90199 3.81609
# Velocity P-wave (km/s) = 5.51854 5.98020 5.75400
#
# Compressibility (1/GPa) = 0.03578425
#
# Stress axis : x y z
#
# Youngs Moduli (GPa) = 68.45472 133.34529 49.01219
#
# Poissons Ratio (x) = 0.10602 -0.00576
# Poissons Ratio (y) = 0.05442 0.13163
# Poissons Ratio (z) = -0.00805 0.35813
#
# Static dielectric constant tensor:
#      x y z
#    x 1.881460 0.000000 -0.030380 
#    y 0.000000 1.900050 0.000000 
#    z -0.030380 0.000000 1.864540 
# 
# From -- ./inp_files/55000.got.cif
#   From: 2010.05.17/outbox.cif.g08.bks.cpg/sg11_28_cif.got.tgz:55000.got - 2010.06.03 12:22:45.
