data_PCOD9164390
_publ_section_title
;
Structure prediction by ZEFSAII (Michael W. Deem and Ramdas Pophale) SiO2 
 PCOD9164390
Probable space group: P 21/M
;
_chemical_formula_sum "Si O2"
_cell_formula_units_Z 20
_cell_length_a 4.994874
_cell_length_b 20.281815
_cell_length_c 10.399601
_cell_angle_alpha 90.000000
_cell_angle_beta 104.066398
_cell_angle_gamma 90.000000
_cell_volume 1021.942254
_symmetry_space_group_name_H-M "P 21/M"
_symmetry_group_IT_number 11
_symmetry_cell_setting 'monoclinic'
loop_
_space_group_symop_operation_xyz
x,y,z
-x,1/2+y,-z
-x,-y,-z
x,1/2-y,z
loop_
_atom_site_type_symbol
_atom_site_label
_atom_site_fract_x
_atom_site_fract_y
_atom_site_fract_z
Si Si1 0.269139 0.911542 0.966937
Si Si2 0.129152 0.056120 0.869137
Si Si3 0.064171 0.671967 0.718031
Si Si4 0.498434 0.400704 0.390053
Si Si5 0.257675 0.034540 0.605060
O O1 0.216986 0.851525 0.865310
O O2 0.128557 0.976639 0.886827
O O3 0.591423 0.922198 0.026754
O O4 0.123129 0.909485 0.088512
O O5 0.150266 0.068693 0.720426
O O6 0.049519 0.750000 0.705075
O O7 0.232072 0.640321 0.617979
O O8 0.763373 0.639342 0.689698
O O9 0.543162 0.473260 0.333771
O O10 0.427375 0.418736 0.529093
O O11 0.000000 0.000000 0.500000
#
# Coordination Sequence:
#
# PCOD9164390 Si02
#       5
#     4   4   4   4   4
#     4  10  21  35  55  89 117 153 200 235 311 350
#     4  10  21  33  59  87 123 148 186 259 298 364
#     4  12  24  42  62  85 124 163 209 252 292 375
#     4  11  23  37  61  94 118 157 208 244 315 360
#     4  11  22  37  64  91 134 152 195 266 318 363
#
# _framework density 19.570578000000001
#
# number of rings (size 3 to 8) (size 9 to 14) (size 15 to 20)
#    0.000    1.200    4.000    1.800   11.200    0.000 
#    0.000    0.000    0.000    7.200    0.000    0.000 
#    0.000    0.000    0.000    0.000    0.000    0.000 
#
# Total GULP energy -111750.654662 kJ/mol
# GULP energy per Si atom -5587.532733 kJ/mol
# Density = 1.952603 g / cm^3
# Si number density = 19.570578 Si / 1000 Ang^3
#
#
#
# Elastic Constant Matrix: (Units=GPa)
#
#
# Indices 1 2 3 4 5 6 
#
# 1 83.6284 24.3661 5.4128 0.0000 -13.0528 0.0000
# 2 24.3661 89.9563 28.5221 0.0000 -0.0022 0.0000
# 3 5.4128 28.5221 68.3732 0.0000 -28.7493 0.0000
# 4 0.0000 0.0000 0.0000 22.5067 0.0000 -0.4339
# 5 -13.0528 -0.0022 -28.7493 0.0000 41.6530 0.0000
# 6 0.0000 0.0000 0.0000 -0.4339 0.0000 19.8233
#
#
#
# Elastic Compliance Matrix: (Units=1/GPa)
#
#
# Indices 1 2 3 4 5 6 
#
# 1 0.014349 -0.005191 0.004114 0.000000 0.007336 0.000000
# 2 -0.005191 0.015540 -0.009517 0.000000 -0.008195 0.000000
# 3 0.004114 -0.009517 0.026504 0.000000 0.019582 0.000000
# 4 0.000000 0.000000 0.000000 0.044450 0.000000 0.000973
# 5 0.007336 -0.008195 0.019582 0.000000 0.039822 0.000000
# 6 0.000000 0.000000 0.000000 0.000973 0.000000 0.050467
#
#
# Mechanical properties :
#
#
# Convention : Reuss Voigt Hill
#
# Bulk Modulus (GPa) = 28.40581 39.84000 34.12290
# Shear Modulus (GPa) = 22.31603 29.04038 25.67821
#
# Velocity S-wave (km/s) = 3.38047 3.85630 3.62620
# Velocity P-wave (km/s) = 5.45737 6.34266 5.91659
#
# Compressibility (1/GPa) = 0.03520407
#
# Stress axis : x y z
#
# Youngs Moduli (GPa) = 69.69258 64.35045 37.73048
#
# Poissons Ratio (x) = 0.33403 -0.15522
# Poissons Ratio (y) = 0.36176 0.35909
# Poissons Ratio (z) = -0.28671 0.61244
#
# Static dielectric constant tensor:
#      x y z
#    x 1.728050 0.000000 -0.006120 
#    y 0.000000 1.649670 0.000000 
#    z -0.006120 0.000000 1.730600 
# 
# From -- ./inp_files/10272.got.cif
#   From: 2010.05.17/outbox.cif.g08.bks.cpg/sg11_6_cif.got.tgz:10272.got - 2010.06.03 12:22:45.
