data_PCOD9164861
_publ_section_title
;
Structure prediction by ZEFSAII (Michael W. Deem and Ramdas Pophale) SiO2 
 PCOD9164861
Probable space group: P 21/M
;
_chemical_formula_sum "Si O2"
_cell_formula_units_Z 32
_cell_length_a 18.884864
_cell_length_b 14.190981
_cell_length_c 14.062904
_cell_angle_alpha 90.000000
_cell_angle_beta 160.686819
_cell_angle_gamma 90.000000
_cell_volume 1246.455741
_symmetry_space_group_name_H-M "P 21/M"
_symmetry_group_IT_number 11
_symmetry_cell_setting 'monoclinic'
loop_
_space_group_symop_operation_xyz
x,y,z
-x,1/2+y,-z
-x,-y,-z
x,1/2-y,z
loop_
_atom_site_type_symbol
_atom_site_label
_atom_site_fract_x
_atom_site_fract_y
_atom_site_fract_z
Si Si1 0.288038 0.859803 0.932718
Si Si2 0.623232 0.351655 0.635902
Si Si3 0.547092 0.456845 0.253263
Si Si4 0.891891 0.644017 0.572717
Si Si5 0.931318 0.141513 0.855541
Si Si6 0.411546 0.643494 0.883287
Si Si7 0.888544 0.500819 0.036846
Si Si8 0.754446 0.645257 0.001429
O O1 0.355489 0.750000 0.032517
O O2 0.259816 0.870677 0.782638
O O3 0.466499 0.939308 0.180363
O O4 0.073634 0.875281 0.722693
O O5 0.603211 0.250000 0.659234
O O6 0.838270 0.354634 0.843173
O O7 0.434238 0.355715 0.319044
O O8 0.671232 0.438689 0.764916
O O9 0.740066 0.407520 0.554388
O O10 0.344019 0.392073 0.026571
O O11 0.594217 0.435700 0.203691
O O12 0.932788 0.750000 0.659150
O O13 0.926339 0.573193 0.703559
O O14 0.654643 0.642695 0.230886
O O15 0.977468 0.250000 0.885164
O O16 0.114474 0.066579 0.061113
O O17 0.373117 0.750000 0.795616
O O18 0.912917 0.573395 0.154395
O O19 0.836041 0.750000 0.114333
#
# Coordination Sequence:
#
# PCOD9164861 Si02
#       8
#     4   4   4   4   4   4   4   4
#     4  10  21  38  57  86 121 154 202 257 296 346
#     4   9  20  38  60  83 112 155 193 235 295 361
#     4  11  20  40  62  81 112 163 199 234 303 364
#     4  10  22  39  58  89 125 157 203 257 297 349
#     4  10  22  38  59  88 120 149 195 252 296 350
#     4  10  21  38  61  84 118 164 204 247 301 356
#     4  12  20  36  59  87 115 156 194 238 304 360
#     4  10  21  37  57  84 117 148 193 245 290 351
#
# _framework density 25.672792000000001
#
# number of rings (size 3 to 8) (size 9 to 14) (size 15 to 20)
#    0.000    1.750    1.250    4.500    0.000    0.500 
#    2.250    0.625    0.000    3.000    0.000    0.000 
#    0.000    0.000    0.000    0.000    0.000    0.000 
#
# Total GULP energy -178885.097963 kJ/mol
# GULP energy per Si atom -5590.159311 kJ/mol
# Density = 2.561436 g / cm^3
# Si number density = 25.672792 Si / 1000 Ang^3
#
#
#
# Elastic Constant Matrix: (Units=GPa)
#
#
# Indices 1 2 3 4 5 6 
#
# 1 91.3755 32.1316 7.7552 0.0000 9.3677 0.0000
# 2 32.1316 184.3795 15.8834 0.0000 2.8964 0.0000
# 3 7.7552 15.8834 59.8793 0.0000 3.6965 0.0000
# 4 0.0000 0.0000 0.0000 23.5052 0.0000 -0.1004
# 5 9.3677 2.8964 3.6965 0.0000 30.3236 0.0000
# 6 0.0000 0.0000 0.0000 -0.1004 0.0000 32.9291
#
#
#
# Elastic Compliance Matrix: (Units=1/GPa)
#
#
# Indices 1 2 3 4 5 6 
#
# 1 0.012061 -0.001977 -0.000826 0.000000 -0.003437 0.000000
# 2 -0.001977 0.005878 -0.001316 0.000000 0.000210 0.000000
# 3 -0.000826 -0.001316 0.017263 0.000000 -0.001724 0.000000
# 4 0.000000 0.000000 0.000000 0.042544 0.000000 0.000130
# 5 -0.003437 0.000210 -0.001724 0.000000 0.034229 0.000000
# 6 0.000000 0.000000 0.000000 0.000130 0.000000 0.030369
#
#
# Mechanical properties :
#
#
# Convention : Reuss Voigt Hill
#
# Bulk Modulus (GPa) = 37.08492 49.68606 43.38549
# Shear Modulus (GPa) = 31.33420 36.00919 33.67170
#
# Velocity S-wave (km/s) = 3.49739 3.74922 3.62549
# Velocity P-wave (km/s) = 5.54847 6.17558 5.87041
#
# Compressibility (1/GPa) = 0.02696514
#
# Stress axis : x y z
#
# Youngs Moduli (GPa) = 82.90937 170.12068 57.92832
#
# Poissons Ratio (x) = 0.33630 0.04783
# Poissons Ratio (y) = 0.16390 0.07624
# Poissons Ratio (z) = 0.06845 0.22390
#
# Static dielectric constant tensor:
#      x y z
#    x 2.065060 0.000000 0.063880 
#    y 0.000000 2.094910 0.000000 
#    z 0.063880 0.000000 2.073110 
# 
# From -- ./inp_files/55052.got.cif
#   From: 2010.05.17/outbox.cif.g08.bks.cpg/sg11_28_cif.got.tgz:55052.got - 2010.06.03 12:22:45.
