data_PCOD9164342
_publ_section_title
;
Structure prediction by ZEFSAII (Michael W. Deem and Ramdas Pophale) SiO2 
 PCOD9164342
Probable space group: P 21/M
;
_chemical_formula_sum "Si O2"
_cell_formula_units_Z 22
_cell_length_a 8.153289
_cell_length_b 21.051193
_cell_length_c 8.270277
_cell_angle_alpha 90.000000
_cell_angle_beta 44.615306
_cell_angle_gamma 90.000000
_cell_volume 996.962932
_symmetry_space_group_name_H-M "P 21/M"
_symmetry_group_IT_number 11
_symmetry_cell_setting 'monoclinic'
loop_
_space_group_symop_operation_xyz
x,y,z
-x,1/2+y,-z
-x,-y,-z
x,1/2-y,z
loop_
_atom_site_type_symbol
_atom_site_label
_atom_site_fract_x
_atom_site_fract_y
_atom_site_fract_z
Si Si1 0.693213 0.143931 0.695935
Si Si2 0.041944 0.358751 0.937837
Si Si3 0.822020 0.820026 0.519561
Si Si4 0.587756 0.086222 0.114647
Si Si5 0.718569 0.750000 0.047637
Si Si6 0.449089 0.041186 0.693054
O O1 0.486552 0.195000 0.832440
O O2 0.650340 0.092688 0.586051
O O3 0.947055 0.174719 0.533321
O O4 0.665222 0.104822 0.881611
O O5 0.113069 0.326444 0.715132
O O6 0.091835 0.306284 0.037309
O O7 0.212351 0.418708 0.842539
O O8 0.780824 0.383782 0.099223
O O9 0.714593 0.750000 0.625557
O O10 0.651552 0.877132 0.681835
O O11 0.570464 0.011468 0.153908
O O12 0.500000 0.000000 0.500000
#
# Coordination Sequence:
#
# PCOD9164342 Si02
#       6
#     4   4   4   4   2   4
#     4  10  24  43  65  89 133 165 205 266 309 375
#     4  10  22  41  66  90 131 163 205 271 308 369
#     4  11  22  40  65  95 125 166 211 255 312 380
#     4  11  24  41  65  95 124 171 209 253 321 380
#     4  10  20  42  62  92 126 166 202 260 326 352
#     4  11  22  45  65  94 126 168 214 260 315 368
#
# _framework density 22.067018000000001
#
# number of rings (size 3 to 8) (size 9 to 14) (size 15 to 20)
#    0.000    1.455    3.636    1.091    2.545    0.727 
#    9.818    1.818    0.000    0.000    0.000    0.000 
#    0.000    0.000    0.000    0.000    0.000    0.000 
#
# Total GULP energy -122529.536494 kJ/mol
# GULP energy per Si atom -5569.524386 kJ/mol
# Density = 2.201679 g / cm^3
# Si number density = 22.067018 Si / 1000 Ang^3
#
#
#
# Elastic Constant Matrix: (Units=GPa)
#
#
# Indices 1 2 3 4 5 6 
#
# 1 85.6604 58.1434 7.8947 0.0000 -17.0688 0.0000
# 2 58.1434 150.4508 -2.9413 0.0000 0.8151 0.0000
# 3 7.8947 -2.9413 17.1859 0.0000 7.2348 0.0000
# 4 0.0000 0.0000 0.0000 6.0987 0.0000 -9.4429
# 5 -17.0688 0.8151 7.2348 0.0000 35.2344 0.0000
# 6 0.0000 0.0000 0.0000 -9.4429 0.0000 26.6039
#
#
#
# Elastic Compliance Matrix: (Units=1/GPa)
#
#
# Indices 1 2 3 4 5 6 
#
# 1 0.022500 -0.009130 -0.018144 0.000000 0.014837 0.000000
# 2 -0.009130 0.010380 0.008685 0.000000 -0.006446 0.000000
# 3 -0.018144 0.008685 0.078586 0.000000 -0.025127 0.000000
# 4 0.000000 0.000000 0.000000 0.364038 0.000000 0.129213
# 5 0.014837 -0.006446 -0.025127 0.000000 0.040877 0.000000
# 6 0.000000 0.000000 0.000000 0.129213 0.000000 0.083452
#
#
# Mechanical properties :
#
#
# Convention : Reuss Voigt Hill
#
# Bulk Modulus (GPa) = 13.46154 42.16563 27.81359
# Shear Modulus (GPa) = 7.55543 26.26742 16.91142
#
# Velocity S-wave (km/s) = 1.85237 3.45388 2.77134
# Velocity P-wave (km/s) = 3.26934 5.92074 4.78246
#
# Compressibility (1/GPa) = 0.07428568
#
# Stress axis : x y z
#
# Youngs Moduli (GPa) = 44.44432 96.33929 12.72489
#
# Poissons Ratio (x) = 0.87963 0.23088
# Poissons Ratio (y) = 0.40580 -0.11051
# Poissons Ratio (z) = 0.80641 -0.83666
#
# Static dielectric constant tensor:
#      x y z
#    x 1.836680 0.000000 0.062700 
#    y 0.000000 1.759920 0.000000 
#    z 0.062700 0.000000 1.840790 
# 
# From -- ./inp_files/2329.got.cif
#   From: 2010.05.17/outbox.cif.g08.bks.cpg/sg11_2_cif.got.tgz:2329.got - 2010.06.03 12:22:45.
