data_PCOD9164620
_publ_section_title
;
Structure prediction by ZEFSAII (Michael W. Deem and Ramdas Pophale) SiO2 
 PCOD9164620
Probable space group: P 21/M
;
_chemical_formula_sum "Si O2"
_cell_formula_units_Z 24
_cell_length_a 10.829668
_cell_length_b 14.876595
_cell_length_c 13.448628
_cell_angle_alpha 90.000000
_cell_angle_beta 34.335794
_cell_angle_gamma 90.000000
_cell_volume 1222.103884
_symmetry_space_group_name_H-M "P 21/M"
_symmetry_group_IT_number 11
_symmetry_cell_setting 'monoclinic'
loop_
_space_group_symop_operation_xyz
x,y,z
-x,1/2+y,-z
-x,-y,-z
x,1/2-y,z
loop_
_atom_site_type_symbol
_atom_site_label
_atom_site_fract_x
_atom_site_fract_y
_atom_site_fract_z
Si Si1 0.543300 0.642393 0.453494
Si Si2 0.188078 0.431339 0.908576
Si Si3 0.748938 0.645775 0.526699
Si Si4 0.480298 0.549726 0.855221
Si Si5 0.957667 0.145127 0.248689
Si Si6 0.845143 0.480972 0.760121
O O1 0.537317 0.750000 0.458609
O O2 0.704977 0.611744 0.259398
O O3 0.631635 0.614804 0.502651
O O4 0.293481 0.614166 0.599727
O O5 0.376095 0.484089 0.842990
O O6 0.000000 0.500000 0.000000
O O7 0.079658 0.364934 0.061481
O O8 0.812403 0.750000 0.474886
O O9 0.581347 0.632602 0.728753
O O10 0.955560 0.581252 0.405184
O O11 0.674426 0.501485 0.786529
O O12 0.289285 0.567864 0.061826
O O13 0.963900 0.250000 0.276056
O O14 0.069927 0.075485 0.250209
#
# Coordination Sequence:
#
# PCOD9164620 Si02
#       6
#     4   4   4   4   4   4
#     4  10  21  36  55  84 118 148 188 240 287 340
#     4  11  21  36  60  83 112 153 193 241 297 347
#     4  11  23  38  59  87 119 156 196 237 288 349
#     4  10  22  39  59  84 114 151 195 243 290 344
#     4  10  21  37  60  87 115 153 198 241 291 350
#     4  10  22  41  60  84 120 155 193 242 292 343
#
# _framework density 19.638265000000001
#
# number of rings (size 3 to 8) (size 9 to 14) (size 15 to 20)
#    0.000    1.667    0.000    5.000    0.000    3.333 
#    0.000   13.333    0.000    0.000    0.000    0.000 
#    0.000    0.000    0.000    0.000    0.000    0.000 
#
# Total GULP energy -134104.291865 kJ/mol
# GULP energy per Si atom -5587.678828 kJ/mol
# Density = 1.959357 g / cm^3
# Si number density = 19.638265 Si / 1000 Ang^3
#
#
#
# Elastic Constant Matrix: (Units=GPa)
#
#
# Indices 1 2 3 4 5 6 
#
# 1 63.8562 5.8315 2.8485 0.0000 -10.4050 0.0000
# 2 5.8315 56.7459 17.5985 0.0000 -7.9738 0.0000
# 3 2.8485 17.5985 83.2260 0.0000 -3.7128 0.0000
# 4 0.0000 0.0000 0.0000 32.2519 0.0000 6.9719
# 5 -10.4050 -7.9738 -3.7128 0.0000 31.7330 0.0000
# 6 0.0000 0.0000 0.0000 6.9719 0.0000 5.7297
#
#
#
# Elastic Compliance Matrix: (Units=1/GPa)
#
#
# Indices 1 2 3 4 5 6 
#
# 1 0.016598 -0.000933 -0.000139 0.000000 0.005191 0.000000
# 2 -0.000933 0.019512 -0.003909 0.000000 0.004140 0.000000
# 3 -0.000139 -0.003909 0.012868 0.000000 0.000478 0.000000
# 4 0.000000 0.000000 0.000000 0.042072 0.000000 -0.051194
# 5 0.005191 0.004140 0.000478 0.000000 0.034311 0.000000
# 6 0.000000 0.000000 0.000000 -0.051194 0.000000 0.236823
#
#
# Mechanical properties :
#
#
# Convention : Reuss Voigt Hill
#
# Bulk Modulus (GPa) = 25.63115 28.48725 27.05920
# Shear Modulus (GPa) = 12.98184 25.77956 19.38070
#
# Velocity S-wave (km/s) = 2.57388 3.62708 3.14488
# Velocity P-wave (km/s) = 4.68114 5.66378 5.19574
#
# Compressibility (1/GPa) = 0.03901502
#
# Stress axis : x y z
#
# Youngs Moduli (GPa) = 60.24991 51.24943 77.71090
#
# Poissons Ratio (x) = 0.04782 0.01082
# Poissons Ratio (y) = 0.05621 0.30380
# Poissons Ratio (z) = 0.00839 0.20035
#
# Static dielectric constant tensor:
#      x y z
#    x 1.675010 0.000000 0.005990 
#    y 0.000000 1.662470 0.000000 
#    z 0.005990 0.000000 1.696550 
# 
# From -- ./inp_files/39732.got.cif
#   From: 2010.05.17/outbox.cif.g08.bks.cpg/sg11_20_cif.got.tgz:39732.got - 2010.06.03 12:22:45.
