data_PCOD9164595
_publ_section_title
;
Structure prediction by ZEFSAII (Michael W. Deem and Ramdas Pophale) SiO2 
 PCOD9164595
Probable space group: P 21/M
;
_chemical_formula_sum "Si O2"
_cell_formula_units_Z 28
_cell_length_a 7.239307
_cell_length_b 9.392813
_cell_length_c 25.157678
_cell_angle_alpha 90.000000
_cell_angle_beta 128.539135
_cell_angle_gamma 90.000000
_cell_volume 1338.047320
_symmetry_space_group_name_H-M "P 21/M"
_symmetry_group_IT_number 11
_symmetry_cell_setting 'monoclinic'
loop_
_space_group_symop_operation_xyz
x,y,z
-x,1/2+y,-z
-x,-y,-z
x,1/2-y,z
loop_
_atom_site_type_symbol
_atom_site_label
_atom_site_fract_x
_atom_site_fract_y
_atom_site_fract_z
Si Si1 0.321619 0.089217 0.040105
Si Si2 0.436362 0.081371 0.435360
Si Si3 0.165959 0.909396 0.919656
Si Si4 0.540778 0.418314 0.341146
Si Si5 0.463690 0.087368 0.824937
Si Si6 0.895230 0.417779 0.307439
Si Si7 0.176652 0.911532 0.210172
O O1 0.232205 0.250000 0.033202
O O2 0.561679 0.103558 0.048405
O O3 0.408996 0.008113 0.108048
O O4 0.152529 0.993559 0.972881
O O5 0.456574 0.250000 0.448789
O O6 0.593315 0.044471 0.411665
O O7 0.166941 0.052550 0.368992
O O8 0.500000 0.000000 0.500000
O O9 0.064979 0.750000 0.904963
O O10 0.040806 0.999796 0.851454
O O11 0.481214 0.250000 0.329296
O O12 0.748600 0.440711 0.335912
O O13 0.316929 0.507092 0.281005
O O14 0.426191 0.250000 0.836706
O O15 0.640056 0.092439 0.806346
O O16 0.226978 0.013339 0.759738
O O17 0.871101 0.250000 0.288683
O O18 0.115387 0.750000 0.213309
#
# Coordination Sequence:
#
# PCOD9164595 Si02
#       7
#     4   4   4   4   4   4   4
#     4  10  21  36  54  77 107 144 186 231 280 332
#     4  10  22  38  58  86 115 146 187 226 274 338
#     4  10  21  36  54  77 107 144 186 231 280 332
#     4   9  19  37  58  81 113 150 187 231 279 330
#     4  10  21  36  55  81 110 142 183 229 279 334
#     4   9  19  37  58  81 113 150 187 231 279 330
#     4  10  21  36  55  81 110 142 183 229 279 334
#
# _framework density 20.926017999999999
#
# number of rings (size 3 to 8) (size 9 to 14) (size 15 to 20)
#    0.000    2.286    0.000    1.714    2.000    5.714 
#    0.000    0.000    0.000    0.000    0.000    0.000 
#    0.000    0.000    0.000    0.000    0.000    0.000 
#
# Total GULP energy -156469.725151 kJ/mol
# GULP energy per Si atom -5588.204470 kJ/mol
# Density = 2.087839 g / cm^3
# Si number density = 20.926018 Si / 1000 Ang^3
#
#
#
# Elastic Constant Matrix: (Units=GPa)
#
#
# Indices 1 2 3 4 5 6 
#
# 1 47.3763 24.4801 19.5172 0.0000 -13.2606 0.0000
# 2 24.4801 115.7435 55.5327 0.0000 -22.8725 0.0000
# 3 19.5172 55.5327 88.7890 0.0000 -34.6499 0.0000
# 4 0.0000 0.0000 0.0000 40.8101 0.0000 -3.2910
# 5 -13.2606 -22.8725 -34.6499 0.0000 37.4152 0.0000
# 6 0.0000 0.0000 0.0000 -3.2910 0.0000 20.5312
#
#
#
# Elastic Compliance Matrix: (Units=1/GPa)
#
#
# Indices 1 2 3 4 5 6 
#
# 1 0.025014 -0.003705 -0.000948 0.000000 0.005723 0.000000
# 2 -0.003705 0.012902 -0.007344 0.000000 -0.000227 0.000000
# 3 -0.000948 -0.007344 0.022207 0.000000 0.015740 0.000000
# 4 0.000000 0.000000 0.000000 0.024825 0.000000 0.003979
# 5 0.005723 -0.000227 0.015740 0.000000 0.043194 0.000000
# 6 0.000000 0.000000 0.000000 0.003979 0.000000 0.049344
#
#
# Mechanical properties :
#
#
# Convention : Reuss Voigt Hill
#
# Bulk Modulus (GPa) = 27.67788 50.10764 38.89276
# Shear Modulus (GPa) = 23.41684 29.90987 26.66335
#
# Velocity S-wave (km/s) = 3.34882 3.78473 3.57343
# Velocity P-wave (km/s) = 5.31112 6.56476 5.97093
#
# Compressibility (1/GPa) = 0.03612993
#
# Stress axis : x y z
#
# Youngs Moduli (GPa) = 39.97713 77.50764 45.03162
#
# Poissons Ratio (x) = 0.28715 0.04269
# Poissons Ratio (y) = 0.14811 0.33069
# Poissons Ratio (z) = 0.03790 0.56918
#
# Static dielectric constant tensor:
#      x y z
#    x 1.827870 0.000000 -0.001310 
#    y 0.000000 1.737720 0.000000 
#    z -0.001310 0.000000 1.689370 
# 
# From -- ./inp_files/70933.got.cif
#   From: 2010.05.17/outbox.cif.g08.bks.cpg/sg11_36_cif.got.tgz:70933.got - 2010.06.03 12:22:45.
