data_PCOD9164155
_publ_section_title
;
Structure prediction by ZEFSAII (Michael W. Deem and Ramdas Pophale) SiO2 
 PCOD9164155
Probable space group: P 21/M
;
_chemical_formula_sum "Si O2"
_cell_formula_units_Z 32
_cell_length_a 11.264305
_cell_length_b 17.814485
_cell_length_c 14.391730
_cell_angle_alpha 90.000000
_cell_angle_beta 32.142976
_cell_angle_gamma 90.000000
_cell_volume 1536.490667
_symmetry_space_group_name_H-M "P 21/M"
_symmetry_group_IT_number 11
_symmetry_cell_setting 'monoclinic'
loop_
_space_group_symop_operation_xyz
x,y,z
-x,1/2+y,-z
-x,-y,-z
x,1/2-y,z
loop_
_atom_site_type_symbol
_atom_site_label
_atom_site_fract_x
_atom_site_fract_y
_atom_site_fract_z
Si Si1 0.490704 0.337790 0.538858
Si Si2 0.989916 0.663474 0.806265
Si Si3 0.437118 0.920408 0.994396
Si Si4 0.071615 0.422515 0.342614
Si Si5 0.355642 0.338909 0.431535
Si Si6 0.784567 0.903195 0.123374
Si Si7 0.766708 0.073968 0.067460
Si Si8 0.907025 0.397702 0.641324
O O1 0.442921 0.250000 0.586107
O O2 0.749677 0.344866 0.339792
O O3 0.352650 0.364730 0.541065
O O4 0.425862 0.379393 0.675878
O O5 0.953134 0.750000 0.802651
O O6 0.959888 0.608028 0.739529
O O7 0.837317 0.642753 0.995036
O O8 0.677570 0.895198 0.797888
O O9 0.268388 0.926500 0.020200
O O10 0.315979 0.874653 0.156265
O O11 0.500000 0.000000 0.000000
O O12 0.904505 0.391508 0.531741
O O13 0.058938 0.513035 0.358606
O O14 0.399700 0.250000 0.402171
O O15 0.559404 0.380608 0.246836
O O16 0.121216 0.355982 0.539227
O O17 0.758185 0.988892 0.109563
O O18 0.999903 0.894627 0.048386
#
# Coordination Sequence:
#
# PCOD9164155 Si02
#       8
#     4   4   4   4   4   4   4   4
#     4  10  23  40  62  90 124 170 208 254 325 385
#     4  11  24  42  62  93 132 169 211 263 323 384
#     4  10  20  39  63  92 128 158 206 257 317 375
#     4  10  22  38  62  93 122 169 209 257 313 371
#     4  11  23  42  65  92 129 167 210 266 329 385
#     4  11  23  40  66  95 128 163 217 266 316 389
#     4  11  23  40  64 100 124 165 216 267 321 384
#     4  10  21  39  65  89 122 163 208 260 311 373
#
# _framework density 20.826682000000002
#
# number of rings (size 3 to 8) (size 9 to 14) (size 15 to 20)
#    0.000    1.500    2.500    2.625    1.750    3.500 
#    0.000    1.250    0.000    0.000    0.000    0.000 
#    0.000    0.000    0.000    0.000    0.000    0.000 
#
# Total GULP energy -178683.345950 kJ/mol
# GULP energy per Si atom -5583.854561 kJ/mol
# Density = 2.077928 g / cm^3
# Si number density = 20.826682 Si / 1000 Ang^3
#
#
#
# Elastic Constant Matrix: (Units=GPa)
#
#
# Indices 1 2 3 4 5 6 
#
# 1 76.9931 2.5840 0.3658 0.0000 25.7830 0.0000
# 2 2.5840 25.8685 16.0979 0.0000 7.1128 0.0000
# 3 0.3658 16.0979 93.8852 0.0000 27.4610 0.0000
# 4 0.0000 0.0000 0.0000 17.8544 0.0000 -4.4388
# 5 25.7830 7.1128 27.4610 0.0000 37.0771 0.0000
# 6 0.0000 0.0000 0.0000 -4.4388 0.0000 19.7899
#
#
#
# Elastic Compliance Matrix: (Units=1/GPa)
#
#
# Indices 1 2 3 4 5 6 
#
# 1 0.018421 -0.000318 0.004738 0.000000 -0.016258 0.000000
# 2 -0.000318 0.043656 -0.006509 0.000000 -0.003332 0.000000
# 3 0.004738 -0.006509 0.015762 0.000000 -0.013720 0.000000
# 4 0.000000 0.000000 0.000000 0.059316 0.000000 0.013304
# 5 -0.016258 -0.003332 -0.013720 0.000000 0.049077 0.000000
# 6 0.000000 0.000000 0.000000 0.013304 0.000000 0.053515
#
#
# Mechanical properties :
#
#
# Convention : Reuss Voigt Hill
#
# Bulk Modulus (GPa) = 13.57598 26.09358 19.83478
# Shear Modulus (GPa) = 18.62337 26.79087 22.70712
#
# Velocity S-wave (km/s) = 2.99357 3.59049 3.30554
# Velocity P-wave (km/s) = 4.29899 5.45390 4.91052
#
# Compressibility (1/GPa) = 0.07365948
#
# Stress axis : x y z
#
# Youngs Moduli (GPa) = 54.28688 22.90637 63.44333
#
# Poissons Ratio (x) = 0.00729 -0.30060
# Poissons Ratio (y) = 0.01728 0.41298
# Poissons Ratio (z) = -0.25722 0.14911
#
# Static dielectric constant tensor:
#      x y z
#    x 1.774080 0.000000 0.004460 
#    y 0.000000 1.725940 0.000000 
#    z 0.004460 0.000000 1.786950 
# 
# From -- ./inp_files/50637.got.cif
#   From: 2010.05.17/outbox.cif.g08.bks.cpg/sg11_26_cif.got.tgz:50637.got - 2010.06.03 12:22:45.
