data_PCOD9164108
_publ_section_title
;
Structure prediction by ZEFSAII (Michael W. Deem and Ramdas Pophale) SiO2 
 PCOD9164108
Probable space group: P 21/M
;
_chemical_formula_sum "Si O2"
_cell_formula_units_Z 32
_cell_length_a 14.619927
_cell_length_b 17.469917
_cell_length_c 7.005824
_cell_angle_alpha 90.000000
_cell_angle_beta 94.700358
_cell_angle_gamma 90.000000
_cell_volume 1783.332073
_symmetry_space_group_name_H-M "P 21/M"
_symmetry_group_IT_number 11
_symmetry_cell_setting 'monoclinic'
loop_
_space_group_symop_operation_xyz
x,y,z
-x,1/2+y,-z
-x,-y,-z
x,1/2-y,z
loop_
_atom_site_type_symbol
_atom_site_label
_atom_site_fract_x
_atom_site_fract_y
_atom_site_fract_z
Si Si1 0.532744 0.159290 0.564835
Si Si2 0.888774 0.068006 0.330488
Si Si3 0.045867 0.104947 0.658784
Si Si4 0.992488 0.840091 0.929232
Si Si5 0.673702 0.077939 0.323640
Si Si6 0.175404 0.162045 0.365673
Si Si7 0.357849 0.062678 0.409910
Si Si8 0.418431 0.952511 0.086190
O O1 0.520917 0.250000 0.584335
O O2 0.618161 0.139645 0.439757
O O3 0.444018 0.118726 0.454926
O O4 0.548643 0.116204 0.769783
O O5 0.783164 0.084233 0.355948
O O6 0.955432 0.093368 0.514340
O O7 0.925416 0.113159 0.152643
O O8 0.907875 0.978056 0.304006
O O9 0.118660 0.154311 0.552002
O O10 0.018615 0.142286 0.851959
O O11 0.005019 0.750000 0.895831
O O12 0.897989 0.863495 0.806728
O O13 0.645019 0.996964 0.414904
O O14 0.643507 0.077730 0.098020
O O15 0.200849 0.250000 0.335199
O O16 0.264173 0.109605 0.385950
O O17 0.369484 0.011982 0.221636
O O18 0.500000 0.000000 0.000000
#
# Coordination Sequence:
#
# PCOD9164108 Si02
#       8
#     4   4   4   4   4   4   4   4
#     4  11  24  41  62  90 123 158 202 249 300 356
#     4  10  22  37  61  87 112 153 203 240 284 346
#     4  10  20  39  60  84 117 157 197 238 289 348
#     4  10  22  38  57  86 123 156 192 244 297 349
#     4  11  22  41  63  90 120 158 200 251 294 353
#     4  10  21  36  57  91 124 152 191 242 300 356
#     4  11  21  38  64  88 120 158 200 241 302 360
#     4  11  21  41  64  86 117 161 200 243 297 358
#
# _framework density 17.943937999999999
#
# number of rings (size 3 to 8) (size 9 to 14) (size 15 to 20)
#    0.000    1.500    3.750    1.875    1.750    3.500 
#    0.000    1.250    0.000    0.000    0.000    0.000 
#    0.000    0.000    0.000    0.000    0.000    0.000 
#
# Total GULP energy -178697.468747 kJ/mol
# GULP energy per Si atom -5584.295898 kJ/mol
# Density = 1.790310 g / cm^3
# Si number density = 17.943938 Si / 1000 Ang^3
#
#
#
# Elastic Constant Matrix: (Units=GPa)
#
#
# Indices 1 2 3 4 5 6 
#
# 1 88.7722 26.2721 20.7997 0.0000 -8.7527 0.0000
# 2 26.2721 69.4526 19.6336 0.0000 -2.2126 0.0000
# 3 20.7997 19.6336 91.5823 0.0000 -7.3939 0.0000
# 4 0.0000 0.0000 0.0000 17.7398 0.0000 -7.6493
# 5 -8.7527 -2.2126 -7.3939 0.0000 12.2558 0.0000
# 6 0.0000 0.0000 0.0000 -7.6493 0.0000 15.1455
#
#
#
# Elastic Compliance Matrix: (Units=1/GPa)
#
#
# Indices 1 2 3 4 5 6 
#
# 1 0.013753 -0.004520 -0.001500 0.000000 0.008101 0.000000
# 2 -0.004520 0.016821 -0.002728 0.000000 -0.001837 0.000000
# 3 -0.001500 -0.002728 0.012318 0.000000 0.005868 0.000000
# 4 0.000000 0.000000 0.000000 0.072064 0.000000 0.036396
# 5 0.008101 -0.001837 0.005868 0.000000 0.090588 0.000000
# 6 0.000000 0.000000 0.000000 0.036396 0.000000 0.084408
#
#
# Mechanical properties :
#
#
# Convention : Reuss Voigt Hill
#
# Bulk Modulus (GPa) = 39.37738 42.57977 40.97857
# Shear Modulus (GPa) = 15.82709 21.23501 18.53105
#
# Velocity S-wave (km/s) = 2.97312 3.44380 3.21708
# Velocity P-wave (km/s) = 5.81191 6.29237 6.05690
#
# Compressibility (1/GPa) = 0.02539529
#
# Stress axis : x y z
#
# Youngs Moduli (GPa) = 72.71269 59.45036 81.17917
#
# Poissons Ratio (x) = 0.26872 0.12180
# Poissons Ratio (y) = 0.32867 0.22144
# Poissons Ratio (z) = 0.10910 0.16217
#
# Static dielectric constant tensor:
#      x y z
#    x 1.595370 0.000000 0.008370 
#    y 0.000000 1.602250 0.000000 
#    z 0.008370 0.000000 1.604540 
# 
# From -- ./inp_files/6833.got.cif
#   From: 2010.05.17/outbox.cif.g08.bks.cpg/sg11_4_cif.got.tgz:6833.got - 2010.06.03 12:22:45.
