data_PCOD9164133
_publ_section_title
;
Structure prediction by ZEFSAII (Michael W. Deem and Ramdas Pophale) SiO2 
 PCOD9164133
Probable space group: P 21/M
;
_chemical_formula_sum "Si O2"
_cell_formula_units_Z 22
_cell_length_a 8.484655
_cell_length_b 15.006699
_cell_length_c 7.434761
_cell_angle_alpha 90.000000
_cell_angle_beta 81.154511
_cell_angle_gamma 90.000000
_cell_volume 935.384515
_symmetry_space_group_name_H-M "P 21/M"
_symmetry_group_IT_number 11
_symmetry_cell_setting 'monoclinic'
loop_
_space_group_symop_operation_xyz
x,y,z
-x,1/2+y,-z
-x,-y,-z
x,1/2-y,z
loop_
_atom_site_type_symbol
_atom_site_label
_atom_site_fract_x
_atom_site_fract_y
_atom_site_fract_z
Si Si1 0.350174 0.750000 0.397571
Si Si2 0.373359 0.935640 0.419720
Si Si3 0.802171 0.592815 0.738758
Si Si4 0.722640 0.250000 0.016686
Si Si5 0.588629 0.750000 0.655496
Si Si6 0.108716 0.927805 0.867252
Si Si7 0.620285 0.946428 0.108686
O O1 0.288765 0.844646 0.495547
O O2 0.309111 0.750000 0.192500
O O3 0.518814 0.750000 0.470373
O O4 0.499034 0.894296 0.252255
O O5 0.500000 0.000000 0.500000
O O6 0.250250 0.998784 0.336662
O O7 0.703011 0.665675 0.651712
O O8 0.990163 0.597724 0.727813
O O9 0.732720 0.605552 0.953503
O O10 0.557611 0.250000 0.168976
O O11 0.824652 0.339473 0.045872
O O12 0.266961 0.985866 0.800182
O O13 0.000000 0.000000 0.000000
O O14 0.500000 0.000000 0.000000
#
# Coordination Sequence:
#
# PCOD9164133 Si02
#       7
#     2   4   4   2   2   4   4
#     4  12  24  38  64  96 126 158 228 272 322 382
#     4  11  21  38  61  90 128 164 213 277 320 379
#     4  10  20  39  62  92 129 166 209 270 335 379
#     4  12  23  41  69  95 129 176 223 269 325 390
#     4  12  23  39  69  97 125 172 223 269 325 392
#     4  10  21  38  66  94 128 171 216 268 333 391
#     4   9  18  35  61  89 116 162 220 249 311 393
#
# _framework density 23.519739000000001
#
# number of rings (size 3 to 8) (size 9 to 14) (size 15 to 20)
#    0.000    1.455    1.818    7.091    0.000    0.000 
#    0.000    1.818    8.000    2.182    0.000    0.000 
#    0.000    0.000    0.000    0.000    0.000    0.000 
#
# Total GULP energy -122509.237092 kJ/mol
# GULP energy per Si atom -5568.601686 kJ/mol
# Density = 2.346621 g / cm^3
# Si number density = 23.519739 Si / 1000 Ang^3
#
#
#
# Elastic Constant Matrix: (Units=GPa)
#
#
# Indices 1 2 3 4 5 6 
#
# 1 173.5755 63.0363 54.0667 0.0000 33.5531 0.0000
# 2 63.0363 168.2368 35.0107 0.0000 26.8679 0.0000
# 3 54.0667 35.0107 74.1292 0.0000 35.7868 0.0000
# 4 0.0000 0.0000 0.0000 42.0401 0.0000 19.9606
# 5 33.5531 26.8679 35.7868 0.0000 48.4086 0.0000
# 6 0.0000 0.0000 0.0000 19.9606 0.0000 40.3313
#
#
#
# Elastic Compliance Matrix: (Units=1/GPa)
#
#
# Indices 1 2 3 4 5 6 
#
# 1 0.008061 -0.001906 -0.004342 0.000000 -0.001319 0.000000
# 2 -0.001906 0.007184 -0.001113 0.000000 -0.001844 0.000000
# 3 -0.004342 -0.001113 0.023995 0.000000 -0.014111 0.000000
# 4 0.000000 0.000000 0.000000 0.031093 0.000000 -0.015389
# 5 -0.001319 -0.001844 -0.014111 0.000000 0.033027 0.000000
# 6 0.000000 0.000000 0.000000 -0.015389 0.000000 0.032411
#
#
# Mechanical properties :
#
#
# Convention : Reuss Voigt Hill
#
# Bulk Modulus (GPa) = 40.78637 80.01877 60.40257
# Shear Modulus (GPa) = 31.51269 43.74452 37.62861
#
# Velocity S-wave (km/s) = 3.66435 4.31734 4.00418
# Velocity P-wave (km/s) = 5.93989 7.67779 6.86406
#
# Compressibility (1/GPa) = 0.02451799
#
# Stress axis : x y z
#
# Youngs Moduli (GPa) = 124.05478 139.19467 41.67530
#
# Poissons Ratio (x) = 0.26531 0.18096
# Poissons Ratio (y) = 0.23645 0.04638
# Poissons Ratio (z) = 0.53867 0.15490
#
# Static dielectric constant tensor:
#      x y z
#    x 2.021560 0.000000 -0.286750 
#    y 0.000000 1.989540 0.000000 
#    z -0.286750 0.000000 2.453430 
# 
# From -- ./inp_files/12293.got.cif
#   From: 2010.05.17/outbox.cif.g08.bks.cpg/sg11_7_cif.got.tgz:12293.got - 2010.06.03 12:22:45.
