data_PCOD9164521
_publ_section_title
;
Structure prediction by ZEFSAII (Michael W. Deem and Ramdas Pophale) SiO2 
 PCOD9164521
Probable space group: P 21/M
;
_chemical_formula_sum "Si O2"
_cell_formula_units_Z 32
_cell_length_a 20.979415
_cell_length_b 14.873468
_cell_length_c 14.255742
_cell_angle_alpha 90.000000
_cell_angle_beta 157.927284
_cell_angle_gamma 90.000000
_cell_volume 1671.600864
_symmetry_space_group_name_H-M "P 21/M"
_symmetry_group_IT_number 11
_symmetry_cell_setting 'monoclinic'
loop_
_space_group_symop_operation_xyz
x,y,z
-x,1/2+y,-z
-x,-y,-z
x,1/2-y,z
loop_
_atom_site_type_symbol
_atom_site_label
_atom_site_fract_x
_atom_site_fract_y
_atom_site_fract_z
Si Si1 0.474412 0.997964 0.353028
Si Si2 0.187015 0.853490 0.937326
Si Si3 0.793711 0.848897 0.042885
Si Si4 0.119376 0.143364 0.355368
Si Si5 0.917468 0.594494 0.409404
Si Si6 0.818242 0.001372 0.702816
Si Si7 0.863444 0.359025 0.592838
Si Si8 0.305524 0.485885 0.751008
O O1 0.654180 0.004785 0.545417
O O2 0.500000 0.000000 0.500000
O O3 0.356116 0.081261 0.164814
O O4 0.353663 0.914186 0.158645
O O5 0.235927 0.750000 0.010264
O O6 0.073723 0.878039 0.874779
O O7 0.048963 0.862886 0.663882
O O8 0.724962 0.750000 0.934148
O O9 0.884145 0.853774 0.268123
O O10 0.936915 0.866646 0.159530
O O11 0.139061 0.250000 0.384693
O O12 0.234300 0.090583 0.585659
O O13 0.176994 0.096249 0.339732
O O14 0.741243 0.560172 0.214454
O O15 0.000000 0.500000 0.500000
O O16 0.817988 0.082705 0.624347
O O17 0.000000 0.000000 0.000000
O O18 0.823871 0.250000 0.541561
O O19 0.779945 0.418575 0.394370
O O20 0.500000 0.500000 0.000000
#
# Coordination Sequence:
#
# PCOD9164521 Si02
#       8
#     4   4   4   4   4   4   4   4
#     4  12  25  42  65  92 124 159 206 263 312 369
#     4  10  21  40  65  92 124 163 207 255 306 365
#     4  11  23  41  65  94 127 165 211 261 313 367
#     4   9  20  39  61  86 118 158 203 246 299 360
#     4  11  19  36  63  91 128 166 204 250 308 360
#     4  11  24  42  64  87 119 163 204 250 313 370
#     4  10  22  41  61  87 122 163 206 251 305 366
#     4  10  21  35  57  88 127 165 199 244 301 360
#
# _framework density 19.143325000000001
#
# number of rings (size 3 to 8) (size 9 to 14) (size 15 to 20)
#    0.000    1.500    2.500    3.375    3.500    3.000 
#    0.000    0.000    0.000    0.000    0.000    0.000 
#    0.000    0.000    0.000    0.000    0.000    0.000 
#
# Total GULP energy -178250.027403 kJ/mol
# GULP energy per Si atom -5570.313356 kJ/mol
# Density = 1.909975 g / cm^3
# Si number density = 19.143325 Si / 1000 Ang^3
#
#
#
# Elastic Constant Matrix: (Units=GPa)
#
#
# Indices 1 2 3 4 5 6 
#
# 1 106.8276 40.9493 45.6894 0.0000 27.5753 0.0000
# 2 40.9493 131.6003 49.9585 0.0000 19.7746 0.0000
# 3 45.6894 49.9585 98.6957 0.0000 27.4635 0.0000
# 4 0.0000 0.0000 0.0000 -9.8012 0.0000 5.5312
# 5 27.5753 19.7746 27.4635 0.0000 30.7290 0.0000
# 6 0.0000 0.0000 0.0000 5.5312 0.0000 14.1584
#
#
#
# Elastic Compliance Matrix: (Units=1/GPa)
#
#
# Indices 1 2 3 4 5 6 
#
# 1 0.013472 -0.001805 -0.003038 0.000000 -0.008213 0.000000
# 2 -0.001805 0.009782 -0.003747 0.000000 -0.001327 0.000000
# 3 -0.003038 -0.003747 0.015980 0.000000 -0.009144 0.000000
# 4 0.000000 0.000000 0.000000 -0.083598 0.000000 0.032659
# 5 -0.008213 -0.001327 -0.009144 0.000000 0.048939 0.000000
# 6 0.000000 0.000000 0.000000 0.032659 0.000000 0.057871
#
#
# Mechanical properties :
#
#
# Convention : Reuss Voigt Hill
#
# Bulk Modulus (GPa) = 45.34123 67.81312 56.57717
# Shear Modulus (GPa) = 57.48708 20.38566 38.93637
#
# Velocity S-wave (km/s) = 5.48589 3.26682 4.51481
# Velocity P-wave (km/s) = 7.99145 7.05197 7.53636
#
# Compressibility (1/GPa) = 0.02205498
#
# Stress axis : x y z
#
# Youngs Moduli (GPa) = 74.22884 102.22744 62.57981
#
# Poissons Ratio (x) = 0.18449 0.19010
# Poissons Ratio (y) = 0.13396 0.23448
# Poissons Ratio (z) = 0.22548 0.38304
#
# Static dielectric constant tensor:
#      x y z
#    x 1.778080 0.000000 0.003350 
#    y 0.000000 1.600800 0.000000 
#    z 0.003350 0.000000 1.678150 
# 
# From -- ./inp_files/55014.got.cif
#   From: 2010.05.17/outbox.cif.g08.bks.cpg/sg11_28_cif.got.tgz:55014.got - 2010.06.03 12:22:45.
