data_PCOD9164778
_publ_section_title
;
Structure prediction by ZEFSAII (Michael W. Deem and Ramdas Pophale) SiO2 
 PCOD9164778
Probable space group: P 21/M
;
_chemical_formula_sum "Si O2"
_cell_formula_units_Z 32
_cell_length_a 29.454741
_cell_length_b 8.006686
_cell_length_c 21.771397
_cell_angle_alpha 90.000000
_cell_angle_beta 20.323595
_cell_angle_gamma 90.000000
_cell_volume 1783.308230
_symmetry_space_group_name_H-M "P 21/M"
_symmetry_group_IT_number 11
_symmetry_cell_setting 'monoclinic'
loop_
_space_group_symop_operation_xyz
x,y,z
-x,1/2+y,-z
-x,-y,-z
x,1/2-y,z
loop_
_atom_site_type_symbol
_atom_site_label
_atom_site_fract_x
_atom_site_fract_y
_atom_site_fract_z
Si Si1 0.870884 0.047761 0.364617
Si Si2 0.376217 0.545026 0.405401
Si Si3 0.870367 0.446636 0.504230
Si Si4 0.637067 0.553312 0.009691
Si Si5 0.615550 0.049195 0.898985
Si Si6 0.974832 0.049744 0.942875
Si Si7 0.782258 0.444138 0.282766
Si Si8 0.067877 0.556513 0.350470
O O1 0.873099 0.250000 0.361567
O O2 0.737183 0.995596 0.499289
O O3 0.875007 0.985106 0.429250
O O4 0.992270 0.988068 0.169157
O O5 0.375757 0.750000 0.406585
O O6 0.332091 0.484380 0.529095
O O7 0.517920 0.490109 0.202828
O O8 0.843240 0.250000 0.531596
O O9 0.750885 0.513110 0.696940
O O10 0.001359 0.466670 0.377235
O O11 0.653112 0.750000 0.000761
O O12 0.597713 0.526831 0.988782
O O13 0.777440 0.470870 0.841763
O O14 0.620923 0.250000 0.899031
O O15 0.500000 0.000000 0.000000
O O16 0.985308 0.250000 0.939403
O O17 0.090932 0.960653 0.833629
O O18 0.838555 0.991003 0.146529
O O19 0.750337 0.250000 0.313601
O O20 0.039074 0.750000 0.379477
O O21 0.000000 0.500000 0.500000
#
# Coordination Sequence:
#
# PCOD9164778 Si02
#       8
#     4   4   4   4   4   4   4   4
#     4   9  17  31  49  70 101 135 164 197 242 296
#     4   8  15  29  49  72  99 133 165 196 239 296
#     4  10  21  37  55  73  96 131 170 207 247 296
#     4  11  21  35  55  76  98 127 167 210 253 296
#     4  11  22  35  52  73 101 132 165 201 244 299
#     4   9  15  23  40  67  97 129 165 201 237 282
#     4   8  14  26  42  62  94 134 168 196 234 287
#     4  12  24  39  57  75  96 126 165 211 257 298
#
# _framework density 17.944178000000001
#
# number of rings (size 3 to 8) (size 9 to 14) (size 15 to 20)
#    0.000    2.250    1.250    3.750    0.000    3.500 
#    0.000    7.500    0.000    0.000    0.000    0.875 
#    0.000    0.000    0.000    0.000    0.000    0.000 
#
# Total GULP energy -178353.650882 kJ/mol
# GULP energy per Si atom -5573.551590 kJ/mol
# Density = 1.790334 g / cm^3
# Si number density = 17.944178 Si / 1000 Ang^3
#
#
#
# Elastic Constant Matrix: (Units=GPa)
#
#
# Indices 1 2 3 4 5 6 
#
# 1 26.2918 -3.3957 47.1914 0.0000 11.7017 0.0000
# 2 -3.3957 19.4577 -4.8836 0.0000 7.8030 0.0000
# 3 47.1914 -4.8836 135.3114 0.0000 31.1004 0.0000
# 4 0.0000 0.0000 0.0000 20.2257 0.0000 1.1426
# 5 11.7017 7.8030 31.1004 0.0000 34.3729 0.0000
# 6 0.0000 0.0000 0.0000 1.1426 0.0000 20.1492
#
#
#
# Elastic Compliance Matrix: (Units=1/GPa)
#
#
# Indices 1 2 3 4 5 6 
#
# 1 0.104511 0.012606 -0.034290 0.000000 -0.007415 0.000000
# 2 0.012606 0.062663 0.002678 0.000000 -0.020940 0.000000
# 3 -0.034290 0.002678 0.021341 0.000000 -0.008243 0.000000
# 4 0.000000 0.000000 0.000000 0.049601 0.000000 -0.002813
# 5 -0.007415 -0.020940 -0.008243 0.000000 0.043829 0.000000
# 6 0.000000 0.000000 0.000000 -0.002813 0.000000 0.049789
#
#
# Mechanical properties :
#
#
# Convention : Reuss Voigt Hill
#
# Bulk Modulus (GPa) = 6.64440 28.76500 17.70470
# Shear Modulus (GPa) = 11.90723 24.42614 18.16669
#
# Velocity S-wave (km/s) = 2.57878 3.69349 3.18528
# Velocity P-wave (km/s) = 3.54650 5.85271 4.83900
#
# Compressibility (1/GPa) = 0.15050274
#
# Stress axis : x y z
#
# Youngs Moduli (GPa) = 9.56841 15.95839 46.85877
#
# Poissons Ratio (x) = -0.20118 1.60678
# Poissons Ratio (y) = -0.12062 -0.12548
# Poissons Ratio (z) = 0.32810 -0.04273
#
# Static dielectric constant tensor:
#      x y z
#    x 1.599750 0.000000 0.044450 
#    y 0.000000 1.574980 0.000000 
#    z 0.044450 0.000000 1.646880 
# 
# From -- ./inp_files/40642.got.cif
#   From: 2010.05.17/outbox.cif.g08.bks.cpg/sg11_21_cif.got.tgz:40642.got - 2010.06.03 12:22:45.
