data_PCOD9164024
_publ_section_title
;
Structure prediction by ZEFSAII (Michael W. Deem and Ramdas Pophale) SiO2 
 PCOD9164024
Probable space group: P 21/M
;
_chemical_formula_sum "Si O2"
_cell_formula_units_Z 32
_cell_length_a 11.241974
_cell_length_b 12.286321
_cell_length_c 11.633508
_cell_angle_alpha 90.000000
_cell_angle_beta 65.684604
_cell_angle_gamma 90.000000
_cell_volume 1464.309911
_symmetry_space_group_name_H-M "P 21/M"
_symmetry_group_IT_number 11
_symmetry_cell_setting 'monoclinic'
loop_
_space_group_symop_operation_xyz
x,y,z
-x,1/2+y,-z
-x,-y,-z
x,1/2-y,z
loop_
_atom_site_type_symbol
_atom_site_label
_atom_site_fract_x
_atom_site_fract_y
_atom_site_fract_z
Si Si1 0.313740 0.432487 0.771721
Si Si2 0.849516 0.122855 0.242380
Si Si3 0.570384 0.511564 0.734140
Si Si4 0.532466 0.370631 0.025579
Si Si5 0.785222 0.438950 0.822898
Si Si6 0.323729 0.132639 0.508889
Si Si7 0.127021 0.128149 0.044749
Si Si8 0.047927 0.041406 0.604417
O O1 0.271944 0.556684 0.759830
O O2 0.449460 0.428654 0.784906
O O3 0.330639 0.377756 0.642534
O O4 0.198011 0.385789 0.895219
O O5 0.825304 0.250000 0.272938
O O6 0.971189 0.111864 0.105438
O O7 0.898704 0.058360 0.336834
O O8 0.698677 0.466024 0.744976
O O9 0.600943 0.540814 0.591224
O O10 0.521615 0.616395 0.824520
O O11 0.485303 0.250000 0.000726
O O12 0.687840 0.369119 0.940502
O O13 0.500000 0.500000 0.000000
O O14 0.811908 0.545642 0.888580
O O15 0.927323 0.404196 0.721492
O O16 0.372712 0.250000 0.453327
O O17 0.171249 0.118894 0.539533
O O18 0.148114 0.250000 0.079296
O O19 0.000000 0.000000 0.500000
#
# Coordination Sequence:
#
# PCOD9164024 Si02
#       8
#     4   4   4   4   4   4   4   4
#     4  11  22  40  61  89 128 168 210 262 319 381
#     4   9  21  38  61  89 121 165 216 262 319 388
#     4  11  22  41  64  90 128 172 215 263 321 397
#     4  10  22  40  62  93 130 169 213 265 324 387
#     4  10  21  40  64  95 126 162 213 273 330 384
#     4  11  24  40  63  93 124 168 218 262 319 391
#     4  10  20  38  63  92 124 163 211 269 328 386
#     4  10  20  40  65  89 125 161 210 271 327 387
#
# _framework density 21.853297000000001
#
# number of rings (size 3 to 8) (size 9 to 14) (size 15 to 20)
#    0.000    1.750    2.500    1.500    0.000    4.500 
#    0.000    0.625    0.000    0.750    0.000    0.000 
#    0.000    0.000    0.000    0.000    0.000    0.000 
#
# Total GULP energy -178369.451961 kJ/mol
# GULP energy per Si atom -5574.045374 kJ/mol
# Density = 2.180356 g / cm^3
# Si number density = 21.853297 Si / 1000 Ang^3
#
#
#
# Elastic Constant Matrix: (Units=GPa)
#
#
# Indices 1 2 3 4 5 6 
#
# 1 59.4496 10.8552 -2.5288 0.0000 -3.1336 0.0000
# 2 10.8552 88.0764 -3.3648 0.0000 -2.9505 0.0000
# 3 -2.5288 -3.3648 79.2935 0.0000 -2.6093 0.0000
# 4 0.0000 0.0000 0.0000 7.0550 0.0000 -0.4501
# 5 -3.1336 -2.9505 -2.6093 0.0000 31.1162 0.0000
# 6 0.0000 0.0000 0.0000 -0.4501 0.0000 0.8969
#
#
#
# Elastic Compliance Matrix: (Units=1/GPa)
#
#
# Indices 1 2 3 4 5 6 
#
# 1 0.017303 -0.002059 0.000517 0.000000 0.001591 0.000000
# 2 -0.002059 0.011657 0.000460 0.000000 0.000936 0.000000
# 3 0.000517 0.000460 0.012686 0.000000 0.001159 0.000000
# 4 0.000000 0.000000 0.000000 0.146432 0.000000 0.073484
# 5 0.001591 0.000936 0.001159 0.000000 0.032484 0.000000
# 6 0.000000 0.000000 0.000000 0.073484 0.000000 1.151824
#
#
# Mechanical properties :
#
#
# Convention : Reuss Voigt Hill
#
# Bulk Modulus (GPa) = 25.32995 26.30475 25.81735
# Shear Modulus (GPa) = 3.60306 22.60415 13.10360
#
# Velocity S-wave (km/s) = 1.28543 3.21963 2.45136
# Velocity P-wave (km/s) = 3.71741 5.08768 4.45554
#
# Compressibility (1/GPa) = 0.03947895
#
# Stress axis : x y z
#
# Youngs Moduli (GPa) = 57.79402 85.78878 78.83002
#
# Poissons Ratio (x) = 0.17668 -0.04074
# Poissons Ratio (y) = 0.11903 -0.03624
# Poissons Ratio (z) = -0.02987 -0.03944
#
# Static dielectric constant tensor:
#      x y z
#    x 1.817390 0.000000 -0.001120 
#    y 0.000000 1.824410 0.000000 
#    z -0.001120 0.000000 1.830230 
# 
# From -- ./inp_files/35049.got.cif
#   From: 2010.05.17/outbox.cif.g08.bks.cpg/sg11_18_cif.got.tgz:35049.got - 2010.06.03 12:22:45.
