data_PCOD9164329
_publ_section_title
;
Structure prediction by ZEFSAII (Michael W. Deem and Ramdas Pophale) SiO2 
 PCOD9164329
Probable space group: P 21/M
;
_chemical_formula_sum "Si O2"
_cell_formula_units_Z 28
_cell_length_a 25.878906
_cell_length_b 8.486299
_cell_length_c 9.652674
_cell_angle_alpha 90.000000
_cell_angle_beta 140.157813
_cell_angle_gamma 90.000000
_cell_volume 1358.156463
_symmetry_space_group_name_H-M "P 21/M"
_symmetry_group_IT_number 11
_symmetry_cell_setting 'monoclinic'
loop_
_space_group_symop_operation_xyz
x,y,z
-x,1/2+y,-z
-x,-y,-z
x,1/2-y,z
loop_
_atom_site_type_symbol
_atom_site_label
_atom_site_fract_x
_atom_site_fract_y
_atom_site_fract_z
Si Si1 0.817705 0.561522 0.439092
Si Si2 0.918163 0.933869 0.395964
Si Si3 0.077770 0.064195 0.081673
Si Si4 0.338642 0.440651 0.505181
Si Si5 0.173586 0.933329 0.036800
Si Si6 0.641394 0.940945 0.132261
Si Si7 0.493822 0.061469 0.644168
O O1 0.814058 0.750000 0.405107
O O2 0.883985 0.495734 0.469101
O O3 0.849286 0.543838 0.659577
O O4 0.726569 0.502003 0.243292
O O5 0.933036 0.750000 0.446416
O O6 0.000000 0.000000 0.500000
O O7 0.846637 0.964299 0.139308
O O8 0.069725 0.250000 0.033411
O O9 0.100758 0.968071 0.993380
O O10 0.000000 0.000000 0.000000
O O11 0.329578 0.250000 0.485242
O O12 0.255895 0.514751 0.279943
O O13 0.359307 0.486440 0.706404
O O14 0.411048 0.486009 0.551067
O O15 0.175610 0.750000 0.004805
O O16 0.640325 0.750000 0.126170
O O17 0.567337 0.002947 0.890690
O O18 0.495215 0.250000 0.642848
O O19 0.500000 0.000000 0.500000
#
# Coordination Sequence:
#
# PCOD9164329 Si02
#       7
#     4   4   4   4   4   4   4
#     4   9  20  38  63  89 119 160 206 254 311 373
#     4  11  23  41  63  90 125 167 212 261 321 380
#     4  11  21  39  64  93 127 164 209 261 317 373
#     4  10  22  43  68  91 123 166 209 254 317 376
#     4  12  25  40  61  93 128 167 215 261 310 371
#     4  10  20  41  68  93 122 161 205 256 315 372
#     4  11  25  42  64  97 130 165 204 250 308 373
#
# _framework density 20.616181999999998
#
# number of rings (size 3 to 8) (size 9 to 14) (size 15 to 20)
#    0.000    1.429    1.429    3.857    2.000    2.857 
#    0.000    2.857    0.000    0.000    0.000    0.000 
#    0.000    0.000    0.000    0.000    0.000    0.000 
#
# Total GULP energy -156499.527918 kJ/mol
# GULP energy per Si atom -5589.268854 kJ/mol
# Density = 2.056926 g / cm^3
# Si number density = 20.616182 Si / 1000 Ang^3
#
#
#
# Elastic Constant Matrix: (Units=GPa)
#
#
# Indices 1 2 3 4 5 6 
#
# 1 118.0473 18.9901 26.0119 0.0000 -0.4885 0.0000
# 2 18.9901 24.8481 5.8134 0.0000 5.1486 0.0000
# 3 26.0119 5.8134 71.9827 0.0000 7.2089 0.0000
# 4 0.0000 0.0000 0.0000 31.9940 0.0000 4.4684
# 5 -0.4885 5.1486 7.2089 0.0000 35.6096 0.0000
# 6 0.0000 0.0000 0.0000 4.4684 0.0000 25.9435
#
#
#
# Elastic Compliance Matrix: (Units=1/GPa)
#
#
# Indices 1 2 3 4 5 6 
#
# 1 0.010439 -0.007591 -0.003351 0.000000 0.001919 0.000000
# 2 -0.007591 0.047571 -0.000408 0.000000 -0.006900 0.000000
# 3 -0.003351 -0.000408 0.015448 0.000000 -0.003114 0.000000
# 4 0.000000 0.000000 0.000000 0.032026 0.000000 -0.005516
# 5 0.001919 -0.006900 -0.003114 0.000000 0.029737 0.000000
# 6 0.000000 0.000000 0.000000 -0.005516 0.000000 0.039495
#
#
# Mechanical properties :
#
#
# Convention : Reuss Voigt Hill
#
# Bulk Modulus (GPa) = 19.70161 35.16767 27.43464
# Shear Modulus (GPa) = 23.32783 29.64695 26.48739
#
# Velocity S-wave (km/s) = 3.36747 3.79627 3.58828
# Velocity P-wave (km/s) = 4.96960 6.02585 5.52303
#
# Compressibility (1/GPa) = 0.05075728
#
# Stress axis : x y z
#
# Youngs Moduli (GPa) = 95.79629 21.02113 64.73293
#
# Poissons Ratio (x) = 0.15958 0.21694
# Poissons Ratio (y) = 0.72723 0.02639
# Poissons Ratio (z) = 0.32104 0.00857
#
# Static dielectric constant tensor:
#      x y z
#    x 1.771250 0.000000 -0.012860 
#    y 0.000000 1.709970 0.000000 
#    z -0.012860 0.000000 1.740940 
# 
# From -- ./inp_files/28560.got.cif
#   From: 2010.05.17/outbox.cif.g08.bks.cpg/sg11_15_cif.got.tgz:28560.got - 2010.06.03 12:22:45.
