data_PCOD9164463
_publ_section_title
;
Structure prediction by ZEFSAII (Michael W. Deem and Ramdas Pophale) SiO2 
 PCOD9164463
Probable space group: P 21/M
;
_chemical_formula_sum "Si O2"
_cell_formula_units_Z 32
_cell_length_a 12.733077
_cell_length_b 8.821447
_cell_length_c 24.326725
_cell_angle_alpha 90.000000
_cell_angle_beta 133.517708
_cell_angle_gamma 90.000000
_cell_volume 1981.488854
_symmetry_space_group_name_H-M "P 21/M"
_symmetry_group_IT_number 11
_symmetry_cell_setting 'monoclinic'
loop_
_space_group_symop_operation_xyz
x,y,z
-x,1/2+y,-z
-x,-y,-z
x,1/2-y,z
loop_
_atom_site_type_symbol
_atom_site_label
_atom_site_fract_x
_atom_site_fract_y
_atom_site_fract_z
Si Si1 0.868117 0.431508 0.682614
Si Si2 0.444056 0.430937 0.422252
Si Si3 0.832820 0.568228 0.155117
Si Si4 0.052035 0.431460 0.406205
Si Si5 0.617196 0.068928 0.000141
Si Si6 0.397830 0.432158 0.832262
Si Si7 0.724090 0.431050 0.320969
Si Si8 0.328605 0.069065 0.580182
O O1 0.849842 0.250000 0.677295
O O2 0.719386 0.511910 0.645034
O O3 0.909489 0.482489 0.635892
O O4 0.003939 0.472874 0.770226
O O5 0.500000 0.500000 0.500000
O O6 0.448627 0.250000 0.427355
O O7 0.548329 0.490487 0.411940
O O8 0.822805 0.750000 0.146395
O O9 0.728395 0.526051 0.169096
O O10 0.768355 0.494708 0.076815
O O11 0.055169 0.250000 0.396562
O O12 0.174340 0.464842 0.495510
O O13 0.891960 0.472035 0.369165
O O14 0.616032 0.250000 0.004487
O O15 0.551024 0.030547 0.916663
O O16 0.500000 0.000000 0.000000
O O17 0.390110 0.250000 0.822027
O O18 0.367210 0.513936 0.764330
O O19 0.715699 0.250000 0.323549
O O20 0.674242 0.509095 0.359001
O O21 0.349148 0.250000 0.586373
#
# Coordination Sequence:
#
# PCOD9164463 Si02
#       8
#     4   4   4   4   4   4   4   4
#     4  11  21  34  55  79 105 140 176 217 264 310
#     4  12  24  39  57  78 103 134 176 222 266 312
#     4   9  18  31  48  74 105 136 173 212 258 311
#     4  10  21  35  52  76 105 138 177 216 260 313
#     4   9  17  28  45  69 101 138 173 210 255 308
#     4   9  17  31  47  70 103 140 174 208 255 309
#     4  11  22  34  51  78 107 139 178 218 261 311
#     4  11  23  39  56  74 101 140 180 221 265 309
#
# _framework density 16.149473
#
# number of rings (size 3 to 8) (size 9 to 14) (size 15 to 20)
#    0.000    1.750    2.500    3.750    0.000    4.500 
#    0.000    0.000    0.000    0.000    0.000    0.875 
#    0.000    0.000    0.000    0.000    0.000    0.000 
#
# Total GULP energy -178611.097762 kJ/mol
# GULP energy per Si atom -5581.596805 kJ/mol
# Density = 1.611272 g / cm^3
# Si number density = 16.149473 Si / 1000 Ang^3
#
#
#
# Elastic Constant Matrix: (Units=GPa)
#
#
# Indices 1 2 3 4 5 6 
#
# 1 84.1009 44.6054 69.8541 0.0000 -7.2752 0.0000
# 2 44.6054 63.8986 66.4465 0.0000 -0.3778 0.0000
# 3 69.8541 66.4465 161.5972 0.0000 8.9430 0.0000
# 4 0.0000 0.0000 0.0000 29.5116 0.0000 -1.7262
# 5 -7.2752 -0.3778 8.9430 0.0000 13.8313 0.0000
# 6 0.0000 0.0000 0.0000 -1.7262 0.0000 24.9209
#
#
#
# Elastic Compliance Matrix: (Units=1/GPa)
#
#
# Indices 1 2 3 4 5 6 
#
# 1 0.024888 -0.008798 -0.008143 0.000000 0.018116 0.000000
# 2 -0.008798 0.031404 -0.009231 0.000000 0.002198 0.000000
# 3 -0.008143 -0.009231 0.014265 0.000000 -0.013759 0.000000
# 4 0.000000 0.000000 0.000000 0.034023 0.000000 0.002357
# 5 0.018116 0.002198 -0.013759 0.000000 0.090785 0.000000
# 6 0.000000 0.000000 0.000000 0.002357 0.000000 0.040290
#
#
# Mechanical properties :
#
#
# Convention : Reuss Voigt Hill
#
# Bulk Modulus (GPa) = 54.90961 74.60099 64.75530
# Shear Modulus (GPa) = 17.00268 22.23213 19.61741
#
# Velocity S-wave (km/s) = 3.24826 3.71435 3.48909
# Velocity P-wave (km/s) = 6.93851 8.04298 7.51107
#
# Compressibility (1/GPa) = 0.01821175
#
# Stress axis : x y z
#
# Youngs Moduli (GPa) = 40.18053 31.84313 70.09939
#
# Poissons Ratio (x) = 0.28017 0.57082
# Poissons Ratio (y) = 0.35352 0.64710
# Poissons Ratio (z) = 0.32719 0.29395
#
# Static dielectric constant tensor:
#      x y z
#    x 1.511210 0.000000 0.020580 
#    y 0.000000 1.537820 0.000000 
#    z 0.020580 0.000000 1.556500 
# 
# From -- ./inp_files/42781.got.cif
#   From: 2010.05.17/outbox.cif.g08.bks.cpg/sg11_22_cif.got.tgz:42781.got - 2010.06.03 12:22:45.
