data_PCOD9164244
_publ_section_title
;
Structure prediction by ZEFSAII (Michael W. Deem and Ramdas Pophale) SiO2 
 PCOD9164244
Probable space group: P 21/M
;
_chemical_formula_sum "Si O2"
_cell_formula_units_Z 28
_cell_length_a 28.776986
_cell_length_b 7.728332
_cell_length_c 9.796110
_cell_angle_alpha 90.000000
_cell_angle_beta 34.039987
_cell_angle_gamma 90.000000
_cell_volume 1219.538180
_symmetry_space_group_name_H-M "P 21/M"
_symmetry_group_IT_number 11
_symmetry_cell_setting 'monoclinic'
loop_
_space_group_symop_operation_xyz
x,y,z
-x,1/2+y,-z
-x,-y,-z
x,1/2-y,z
loop_
_atom_site_type_symbol
_atom_site_label
_atom_site_fract_x
_atom_site_fract_y
_atom_site_fract_z
Si Si1 0.725381 0.048797 0.431736
Si Si2 0.387028 0.545388 0.067084
Si Si3 0.165909 0.456424 0.253783
Si Si4 0.893869 0.950055 0.884953
Si Si5 0.647006 0.540976 0.159003
Si Si6 0.023664 0.955693 0.788157
Si Si7 0.431303 0.460568 0.370104
O O1 0.749759 0.250000 0.385221
O O2 0.691682 0.976042 0.657708
O O3 0.803323 0.955520 0.175217
O O4 0.644301 0.032166 0.533917
O O5 0.388023 0.750000 0.094845
O O6 0.378529 0.522335 0.927036
O O7 0.477018 0.476248 0.892978
O O8 0.172304 0.250000 0.218198
O O9 0.114150 0.488975 0.516340
O O10 0.117668 0.528302 0.238059
O O11 0.259834 0.522075 0.033828
O O12 0.918523 0.750000 0.805399
O O13 0.958858 0.029298 0.833603
O O14 0.648283 0.750000 0.151347
O O15 0.586624 0.490651 0.429049
O O16 0.020150 0.750000 0.789279
O O17 0.000000 0.000000 0.000000
O O18 0.428779 0.250000 0.367102
#
# Coordination Sequence:
#
# PCOD9164244 Si02
#       7
#     4   4   4   4   4   4   4
#     4  11  23  37  58  91 122 154 201 252 298 349
#     4  10  23  38  56  86 124 160 200 252 302 351
#     4  10  21  41  65  90 120 155 202 249 293 355
#     4  10  22  43  66  87 118 161 202 240 296 361
#     4  10  21  37  61  88 116 158 204 246 298 356
#     4  11  25  42  65  95 125 159 195 240 298 356
#     4  10  20  40  62  83 118 162 203 247 301 357
#
# _framework density 22.959510000000002
#
# number of rings (size 3 to 8) (size 9 to 14) (size 15 to 20)
#    0.000    1.714    1.429    2.143    2.000    4.571 
#    0.000    0.000    0.000    0.000    0.000    0.000 
#    0.000    0.000    0.000    0.000    0.000    0.000 
#
# Total GULP energy -156545.217354 kJ/mol
# GULP energy per Si atom -5590.900620 kJ/mol
# Density = 2.290725 g / cm^3
# Si number density = 22.959510 Si / 1000 Ang^3
#
#
#
# Elastic Constant Matrix: (Units=GPa)
#
#
# Indices 1 2 3 4 5 6 
#
# 1 59.8870 -6.0181 7.0097 0.0000 1.0723 0.0000
# 2 -6.0181 35.6826 -1.6232 0.0000 -4.3096 0.0000
# 3 7.0097 -1.6232 108.8998 0.0000 9.1155 0.0000
# 4 0.0000 0.0000 0.0000 13.3442 0.0000 5.3407
# 5 1.0723 -4.3096 9.1155 0.0000 28.7751 0.0000
# 6 0.0000 0.0000 0.0000 5.3407 0.0000 17.4961
#
#
#
# Elastic Compliance Matrix: (Units=1/GPa)
#
#
# Indices 1 2 3 4 5 6 
#
# 1 0.017108 0.002852 -0.001069 0.000000 0.000128 0.000000
# 2 0.002852 0.029017 -0.000109 0.000000 0.004274 0.000000
# 3 -0.001069 -0.000109 0.009500 0.000000 -0.002986 0.000000
# 4 0.000000 0.000000 0.000000 0.085368 0.000000 -0.026059
# 5 0.000128 0.004274 -0.002986 0.000000 0.036334 0.000000
# 6 0.000000 0.000000 0.000000 -0.026059 0.000000 0.065110
#
#
# Mechanical properties :
#
#
# Convention : Reuss Voigt Hill
#
# Bulk Modulus (GPa) = 16.95705 22.57845 19.76775
# Shear Modulus (GPa) = 19.32395 25.59648 22.46021
#
# Velocity S-wave (km/s) = 2.90427 3.34256 3.13110
# Velocity P-wave (km/s) = 4.31834 4.97517 4.65835
#
# Compressibility (1/GPa) = 0.05897252
#
# Stress axis : x y z
#
# Youngs Moduli (GPa) = 58.45354 34.46235 105.26419
#
# Poissons Ratio (x) = -0.09829 0.11257
# Poissons Ratio (y) = -0.16672 0.01146
# Poissons Ratio (z) = 0.06251 0.00375
#
# Static dielectric constant tensor:
#      x y z
#    x 1.864120 0.000000 0.001030 
#    y 0.000000 1.835370 0.000000 
#    z 0.001030 0.000000 1.797990 
# 
# From -- ./inp_files/26179.got.cif
#   From: 2010.05.17/outbox.cif.g08.bks.cpg/sg11_14_cif.got.tgz:26179.got - 2010.06.03 12:22:45.
