data_PCOD9164530
_publ_section_title
;
Structure prediction by ZEFSAII (Michael W. Deem and Ramdas Pophale) SiO2 
 PCOD9164530
Probable space group: P 21/M
;
_chemical_formula_sum "Si O2"
_cell_formula_units_Z 30
_cell_length_a 14.275475
_cell_length_b 9.744564
_cell_length_c 11.948875
_cell_angle_alpha 90.000000
_cell_angle_beta 66.552515
_cell_angle_gamma 90.000000
_cell_volume 1524.932595
_symmetry_space_group_name_H-M "P 21/M"
_symmetry_group_IT_number 11
_symmetry_cell_setting 'monoclinic'
loop_
_space_group_symop_operation_xyz
x,y,z
-x,1/2+y,-z
-x,-y,-z
x,1/2-y,z
loop_
_atom_site_type_symbol
_atom_site_label
_atom_site_fract_x
_atom_site_fract_y
_atom_site_fract_z
Si Si1 0.207534 0.096986 0.044376
Si Si2 0.900777 0.408911 0.069295
Si Si3 0.754879 0.409861 0.342715
Si Si4 0.866915 0.588906 0.458366
Si Si5 0.445812 0.092256 0.933881
Si Si6 0.544342 0.998518 0.327987
Si Si7 0.519235 0.750000 0.511452
Si Si8 0.935973 0.593358 0.672622
O O1 0.187218 0.250000 0.004161
O O2 0.133860 0.081990 0.185525
O O3 0.325409 0.092805 0.018907
O O4 0.183126 0.976330 0.970672
O O5 0.920361 0.250000 0.034475
O O6 0.854846 0.416299 0.215754
O O7 0.000000 0.500000 0.000000
O O8 0.734809 0.250000 0.380734
O O9 0.778849 0.504796 0.437252
O O10 0.658964 0.462253 0.316576
O O11 0.863084 0.750000 0.429989
O O12 0.868968 0.577368 0.591896
O O13 0.973945 0.517533 0.372397
O O14 0.482237 0.250000 0.919673
O O15 0.456982 0.035808 0.802284
O O16 0.500000 0.000000 0.000000
O O17 0.512527 0.869002 0.416904
O O18 0.477875 0.129041 0.393723
O O19 0.979266 0.750000 0.648655
#
# Coordination Sequence:
#
# PCOD9164530 Si02
#       8
#     4   4   4   4   4   4   2   4
#     4  10  21  40  62  88 119 160 205 256 308 370
#     4  11  23  37  58  91 126 165 205 252 307 371
#     4  11  23  39  61  89 126 163 203 255 320 381
#     4  10  21  35  58  88 122 165 208 254 304 368
#     4  11  25  44  68  96 130 171 218 273 336 400
#     4  11  22  46  66  98 127 166 215 270 339 395
#     4  10  24  42  72  94 126 164 206 272 328 392
#     4   9  19  39  58  82 122 163 207 253 308 367
#
# _framework density 19.673000999999999
#
# number of rings (size 3 to 8) (size 9 to 14) (size 15 to 20)
#    0.000    1.600    2.667    1.600    1.867    5.867 
#    4.800    0.000    0.000    0.000    0.000    0.000 
#    0.000    0.000    0.000    0.000    0.000    0.000 
#
# Total GULP energy -167051.220686 kJ/mol
# GULP energy per Si atom -5568.374023 kJ/mol
# Density = 1.962822 g / cm^3
# Si number density = 19.673001 Si / 1000 Ang^3
#
#
#
# Elastic Constant Matrix: (Units=GPa)
#
#
# Indices 1 2 3 4 5 6 
#
# 1 61.7048 46.5244 16.1245 0.0000 26.8240 0.0000
# 2 46.5244 180.3741 39.4073 0.0000 23.1917 0.0000
# 3 16.1245 39.4073 53.8357 0.0000 16.8801 0.0000
# 4 0.0000 0.0000 0.0000 18.8887 0.0000 18.1420
# 5 26.8240 23.1917 16.8801 0.0000 29.9953 0.0000
# 6 0.0000 0.0000 0.0000 18.1420 0.0000 11.9470
#
#
#
# Elastic Compliance Matrix: (Units=1/GPa)
#
#
# Indices 1 2 3 4 5 6 
#
# 1 0.029962 -0.005139 0.002359 0.000000 -0.024149 0.000000
# 2 -0.005139 0.007694 -0.004455 0.000000 0.001153 0.000000
# 3 0.002359 -0.004455 0.025148 0.000000 -0.012818 0.000000
# 4 0.000000 0.000000 0.000000 -0.115464 0.000000 0.175337
# 5 -0.024149 0.001153 -0.012818 0.000000 0.061256 0.000000
# 6 0.000000 0.000000 0.000000 0.175337 0.000000 -0.182553
#
#
# Mechanical properties :
#
#
# Convention : Reuss Voigt Hill
#
# Bulk Modulus (GPa) = 20.68830 55.55854 38.12342
# Shear Modulus (GPa) = -34.87345 25.09010 -4.89168
#
# Velocity S-wave (km/s) = -4.21486 3.57509 -1.57857
# Velocity P-wave (km/s) = 3.62599 6.73379 4.01224
#
# Compressibility (1/GPa) = 0.04833649
#
# Stress axis : x y z
#
# Youngs Moduli (GPa) = 33.37561 129.96384 39.76417
#
# Poissons Ratio (x) = 0.66784 -0.09382
# Poissons Ratio (y) = 0.17151 0.17714
# Poissons Ratio (z) = -0.07874 0.57895
#
# Static dielectric constant tensor:
#      x y z
#    x 1.737190 0.000000 -0.023610 
#    y 0.000000 1.584640 0.000000 
#    z -0.023610 0.000000 1.685940 
# 
# From -- ./inp_files/37990.got.cif
#   From: 2010.05.17/outbox.cif.g08.bks.cpg/sg11_19_cif.got.tgz:37990.got - 2010.06.03 12:22:45.
