data_PCOD9164291
_publ_section_title
;
Structure prediction by ZEFSAII (Michael W. Deem and Ramdas Pophale) SiO2 
 PCOD9164291
Probable space group: P 21/M
;
_chemical_formula_sum "Si O2"
_cell_formula_units_Z 32
_cell_length_a 11.005115
_cell_length_b 19.694937
_cell_length_c 14.099740
_cell_angle_alpha 90.000000
_cell_angle_beta 149.654410
_cell_angle_gamma 90.000000
_cell_volume 1543.960058
_symmetry_space_group_name_H-M "P 21/M"
_symmetry_group_IT_number 11
_symmetry_cell_setting 'monoclinic'
loop_
_space_group_symop_operation_xyz
x,y,z
-x,1/2+y,-z
-x,-y,-z
x,1/2-y,z
loop_
_atom_site_type_symbol
_atom_site_label
_atom_site_fract_x
_atom_site_fract_y
_atom_site_fract_z
Si Si1 0.861598 0.671455 0.802792
Si Si2 0.845005 0.327803 0.826099
Si Si3 0.516230 0.171319 0.980401
Si Si4 0.431606 0.927448 0.497699
Si Si5 0.731380 0.919616 0.333029
Si Si6 0.931072 0.673303 0.624903
Si Si7 0.368879 0.327851 0.083670
Si Si8 0.754443 0.067450 0.422435
O O1 0.786205 0.750000 0.774088
O O2 0.662396 0.615023 0.690054
O O3 0.902654 0.667471 0.718424
O O4 0.100327 0.659578 0.026250
O O5 0.756276 0.250000 0.754245
O O6 0.681524 0.380712 0.660940
O O7 0.110597 0.332948 0.958821
O O8 0.490807 0.250000 0.931920
O O9 0.460999 0.119530 0.859958
O O10 0.346137 0.158762 0.956065
O O11 0.785630 0.163069 0.201280
O O12 0.258764 0.936346 0.472307
O O13 0.500000 0.000000 0.500000
O O14 0.781008 0.879201 0.463220
O O15 0.980026 0.919176 0.439952
O O16 0.671721 0.996232 0.320737
O O17 0.865664 0.750000 0.552468
O O18 0.452145 0.250000 0.148865
O O19 0.567766 0.375889 0.262577
#
# Coordination Sequence:
#
# PCOD9164291 Si02
#       8
#     4   4   4   4   4   4   4   4
#     4  10  22  41  64  90 124 166 211 262 314 366
#     4  10  22  42  68  93 121 160 207 260 317 369
#     4  10  21  38  64  94 119 158 207 252 309 368
#     4  12  25  42  63  93 128 165 213 261 311 378
#     4  11  23  41  61  90 130 165 205 253 312 380
#     4  10  21  39  62  91 125 161 206 258 308 366
#     4  10  20  40  67  95 123 155 205 263 313 367
#     4  11  24  41  61  93 125 168 208 249 318 374
#
# _framework density 20.725925
#
# number of rings (size 3 to 8) (size 9 to 14) (size 15 to 20)
#    0.000    1.500    2.500    2.250    0.000    4.000 
#    4.500    2.500    0.000    0.000    0.000    0.000 
#    0.000    0.000    0.000    0.000    0.000    0.000 
#
# Total GULP energy -178883.956843 kJ/mol
# GULP energy per Si atom -5590.123651 kJ/mol
# Density = 2.067875 g / cm^3
# Si number density = 20.725925 Si / 1000 Ang^3
#
#
#
# Elastic Constant Matrix: (Units=GPa)
#
#
# Indices 1 2 3 4 5 6 
#
# 1 69.6031 27.2931 12.6560 0.0000 -18.0996 0.0000
# 2 27.2931 124.1941 64.7440 0.0000 -19.2834 0.0000
# 3 12.6560 64.7440 65.2290 0.0000 -21.2237 0.0000
# 4 0.0000 0.0000 0.0000 -37.9512 0.0000 16.9499
# 5 -18.0996 -19.2834 -21.2237 0.0000 24.8315 0.0000
# 6 0.0000 0.0000 0.0000 16.9499 0.0000 21.1180
#
#
#
# Elastic Compliance Matrix: (Units=1/GPa)
#
#
# Indices 1 2 3 4 5 6 
#
# 1 0.019271 -0.005199 0.006480 0.000000 0.015547 0.000000
# 2 -0.005199 0.018138 -0.018901 0.000000 -0.005859 0.000000
# 3 0.006480 -0.018901 0.040995 0.000000 0.025085 0.000000
# 4 0.000000 0.000000 0.000000 -0.019397 0.000000 0.015568
# 5 0.015547 -0.005859 0.025085 0.000000 0.068494 0.000000
# 6 0.000000 0.000000 0.000000 0.015568 0.000000 0.034857
#
#
# Mechanical properties :
#
#
# Convention : Reuss Voigt Hill
#
# Bulk Modulus (GPa) = 23.16707 52.04583 37.60645
# Shear Modulus (GPa) = 23.58643 11.88853 17.73748
#
# Velocity S-wave (km/s) = 3.37711 2.39761 2.92860
# Velocity P-wave (km/s) = 5.13893 5.72981 5.44239
#
# Compressibility (1/GPa) = 0.04316472
#
# Stress axis : x y z
#
# Youngs Moduli (GPa) = 51.89270 55.13310 24.39308
#
# Poissons Ratio (x) = 0.28665 -0.15807
# Poissons Ratio (y) = 0.26980 0.46104
# Poissons Ratio (z) = -0.33628 1.04205
#
# Static dielectric constant tensor:
#      x y z
#    x 1.802030 0.000000 0.005560 
#    y 0.000000 1.746230 0.000000 
#    z 0.005560 0.000000 1.715400 
# 
# From -- ./inp_files/40000.got.cif
#   From: 2010.05.17/outbox.cif.g08.bks.cpg/sg11_20_cif.got.tgz:40000.got - 2010.06.03 12:22:45.
