data_PCOD9164018
_publ_section_title
;
Structure prediction by ZEFSAII (Michael W. Deem and Ramdas Pophale) SiO2 
 PCOD9164018
Probable space group: P 21/M
;
_chemical_formula_sum "Si O2"
_cell_formula_units_Z 32
_cell_length_a 20.620398
_cell_length_b 8.781652
_cell_length_c 27.613422
_cell_angle_alpha 90.000000
_cell_angle_beta 19.275545
_cell_angle_gamma 90.000000
_cell_volume 1650.646931
_symmetry_space_group_name_H-M "P 21/M"
_symmetry_group_IT_number 11
_symmetry_cell_setting 'monoclinic'
loop_
_space_group_symop_operation_xyz
x,y,z
-x,1/2+y,-z
-x,-y,-z
x,1/2-y,z
loop_
_atom_site_type_symbol
_atom_site_label
_atom_site_fract_x
_atom_site_fract_y
_atom_site_fract_z
Si Si1 0.650965 0.932732 0.854403
Si Si2 0.390418 0.928982 0.374768
Si Si3 0.029391 0.567061 0.307247
Si Si4 0.655407 0.068101 0.111925
Si Si5 0.401304 0.928771 0.686790
Si Si6 0.677746 0.434289 0.985660
Si Si7 0.678505 0.570896 0.404345
Si Si8 0.049736 0.569013 0.860150
O O1 0.664476 0.750000 0.848905
O O2 0.854193 0.007484 0.727337
O O3 0.537996 0.969531 0.884237
O O4 0.500000 0.000000 0.000000
O O5 0.363700 0.750000 0.389749
O O6 0.465442 0.998030 0.271412
O O7 0.558974 0.968949 0.295142
O O8 0.189848 0.005033 0.534618
O O9 0.028577 0.750000 0.307310
O O10 0.153456 0.515239 0.171752
O O11 0.640306 0.250000 0.122428
O O12 0.687900 0.013002 0.033768
O O13 0.846027 0.017405 0.007984
O O14 0.381581 0.750000 0.713807
O O15 0.598764 0.942387 0.514723
O O16 0.213770 0.969715 0.785389
O O17 0.695274 0.250000 0.974154
O O18 0.500000 0.500000 0.500000
O O19 0.704850 0.750000 0.375436
O O20 0.862632 0.481072 0.253863
O O21 0.022873 0.750000 0.880496
#
# Coordination Sequence:
#
# PCOD9164018 Si02
#       8
#     4   4   4   4   4   4   4   4
#     4   9  16  32  58  91 124 153 190 237 285 340
#     4  12  26  41  57  84 118 154 197 248 298 351
#     4  10  20  38  63  91 121 154 192 238 290 350
#     4  11  23  41  61  83 115 159 199 241 296 351
#     4   9  20  38  58  79 110 153 196 240 293 351
#     4   8  18  36  62  91 118 151 192 236 284 342
#     4   9  17  31  53  81 111 142 181 233 289 343
#     4  10  21  37  57  84 115 149 193 245 296 348
#
# _framework density 19.386339
#
# number of rings (size 3 to 8) (size 9 to 14) (size 15 to 20)
#    0.000    2.250    0.000    4.500    1.750    3.500 
#    0.000    7.500    0.000    0.000    0.000    0.000 
#    0.000    0.000    0.000    0.000    0.000    0.000 
#
# Total GULP energy -178427.948996 kJ/mol
# GULP energy per Si atom -5575.873406 kJ/mol
# Density = 1.934222 g / cm^3
# Si number density = 19.386339 Si / 1000 Ang^3
#
#
#
# Elastic Constant Matrix: (Units=GPa)
#
#
# Indices 1 2 3 4 5 6 
#
# 1 92.6481 41.7615 58.5421 0.0000 -7.7721 0.0000
# 2 41.7615 72.1011 39.1374 0.0000 1.3297 0.0000
# 3 58.5421 39.1374 86.3761 0.0000 3.0889 0.0000
# 4 0.0000 0.0000 0.0000 32.5444 0.0000 -4.3195
# 5 -7.7721 1.3297 3.0889 0.0000 20.5698 0.0000
# 6 0.0000 0.0000 0.0000 -4.3195 0.0000 21.0236
#
#
#
# Elastic Compliance Matrix: (Units=1/GPa)
#
#
# Indices 1 2 3 4 5 6 
#
# 1 0.022747 -0.006360 -0.012926 0.000000 0.010947 0.000000
# 2 -0.006360 0.020172 -0.004722 0.000000 -0.002998 0.000000
# 3 -0.012926 -0.004722 0.022764 0.000000 -0.007997 0.000000
# 4 0.000000 0.000000 0.000000 0.031589 0.000000 0.006490
# 5 0.010947 -0.002998 -0.007997 0.000000 0.054146 0.000000
# 6 0.000000 0.000000 0.000000 0.006490 0.000000 0.048899
#
#
# Mechanical properties :
#
#
# Convention : Reuss Voigt Hill
#
# Bulk Modulus (GPa) = 56.60921 58.88971 57.74946
# Shear Modulus (GPa) = 19.66790 22.27316 20.97053
#
# Velocity S-wave (km/s) = 3.18861 3.39323 3.29251
# Velocity P-wave (km/s) = 6.54372 6.76719 6.65640
#
# Compressibility (1/GPa) = 0.01766497
#
# Stress axis : x y z
#
# Youngs Moduli (GPa) = 43.96256 49.57422 43.92954
#
# Poissons Ratio (x) = 0.31531 0.56785
# Poissons Ratio (y) = 0.27962 0.20743
# Poissons Ratio (z) = 0.56827 0.23409
#
# Static dielectric constant tensor:
#      x y z
#    x 1.720120 0.000000 0.005930 
#    y 0.000000 1.646100 0.000000 
#    z 0.005930 0.000000 1.684210 
# 
# From -- ./inp_files/72030.got.cif
#   From: 2010.05.17/outbox.cif.g08.bks.cpg/sg11_37_cif.got.tgz:72030.got - 2010.06.03 12:22:45.
