data_PCOD9164815
_publ_section_title
;
Structure prediction by ZEFSAII (Michael W. Deem and Ramdas Pophale) SiO2 
 PCOD9164815
Probable space group: P 21/M
;
_chemical_formula_sum "Si O2"
_cell_formula_units_Z 24
_cell_length_a 23.647360
_cell_length_b 7.551876
_cell_length_c 12.159751
_cell_angle_alpha 90.000000
_cell_angle_beta 153.052552
_cell_angle_gamma 90.000000
_cell_volume 984.070679
_symmetry_space_group_name_H-M "P 21/M"
_symmetry_group_IT_number 11
_symmetry_cell_setting 'monoclinic'
loop_
_space_group_symop_operation_xyz
x,y,z
-x,1/2+y,-z
-x,-y,-z
x,1/2-y,z
loop_
_atom_site_type_symbol
_atom_site_label
_atom_site_fract_x
_atom_site_fract_y
_atom_site_fract_z
Si Si1 0.465950 0.457233 0.092883
Si Si2 0.085597 0.968515 0.387054
Si Si3 0.292002 0.550597 0.597518
Si Si4 0.459510 0.039636 0.552874
Si Si5 0.806191 0.543851 0.945418
Si Si6 0.854264 0.039641 0.270902
O O1 0.462136 0.250000 0.055535
O O2 0.605733 0.528744 0.307300
O O3 0.449777 0.472864 0.194568
O O4 0.370271 0.554024 0.847746
O O5 0.086164 0.750000 0.389193
O O6 0.161216 0.029203 0.410659
O O7 0.156949 0.025625 0.623049
O O8 0.941906 0.028688 0.147295
O O9 0.266457 0.750000 0.514621
O O10 0.456236 0.250000 0.559203
O O11 0.319052 0.964560 0.322316
O O12 0.500000 0.000000 0.500000
O O13 0.810234 0.750000 0.921729
O O14 0.790767 0.534869 0.051428
O O15 0.831016 0.250000 0.230236
O O16 0.000000 0.000000 0.500000
#
# Coordination Sequence:
#
# PCOD9164815 Si02
#       6
#     4   4   4   4   4   4
#     4  10  21  37  56  82 113 145 184 227 271 323
#     4   8  15  30  53  79 104 136 176 219 271 319
#     4   9  18  35  60  84 109 143 183 227 273 322
#     4  11  24  40  58  79 109 147 186 227 275 334
#     4   9  19  35  52  75 106 139 179 226 273 323
#     4   9  16  27  46  73 106 141 175 214 262 316
#
# _framework density 24.388491999999999
#
# number of rings (size 3 to 8) (size 9 to 14) (size 15 to 20)
#    0.000    2.667    0.000    2.500    2.333    2.000 
#    0.000    4.167    0.000    0.000    0.000    0.000 
#    0.000    0.000    0.000    0.000    0.000    0.000 
#
# Total GULP energy -133925.800451 kJ/mol
# GULP energy per Si atom -5580.241685 kJ/mol
# Density = 2.433298 g / cm^3
# Si number density = 24.388492 Si / 1000 Ang^3
#
#
#
# Elastic Constant Matrix: (Units=GPa)
#
#
# Indices 1 2 3 4 5 6 
#
# 1 87.0390 -8.3468 0.8357 0.0000 14.1153 0.0000
# 2 -8.3468 78.2596 -4.6645 0.0000 3.2436 0.0000
# 3 0.8357 -4.6645 77.8658 0.0000 1.5407 0.0000
# 4 0.0000 0.0000 0.0000 7.3423 0.0000 -2.5670
# 5 14.1153 3.2436 1.5407 0.0000 39.2053 0.0000
# 6 0.0000 0.0000 0.0000 -2.5670 0.0000 13.6800
#
#
#
# Elastic Compliance Matrix: (Units=1/GPa)
#
#
# Indices 1 2 3 4 5 6 
#
# 1 0.012377 0.001513 0.000048 0.000000 -0.004583 0.000000
# 2 0.001513 0.013056 0.000799 0.000000 -0.001656 0.000000
# 3 0.000048 0.000799 0.012902 0.000000 -0.000591 0.000000
# 4 0.000000 0.000000 0.000000 0.145759 0.000000 0.027351
# 5 -0.004583 -0.001656 -0.000591 0.000000 0.027317 0.000000
# 6 0.000000 0.000000 0.000000 0.027351 0.000000 0.078232
#
#
# Mechanical properties :
#
#
# Convention : Reuss Voigt Hill
#
# Bulk Modulus (GPa) = 23.22648 24.31254 23.76951
# Shear Modulus (GPa) = 16.70710 29.06817 22.88764
#
# Velocity S-wave (km/s) = 2.62017 3.45611 3.06675
# Velocity P-wave (km/s) = 4.32411 5.09085 4.72306
#
# Compressibility (1/GPa) = 0.04305431
#
# Stress axis : x y z
#
# Youngs Moduli (GPa) = 80.79497 76.59549 77.50964
#
# Poissons Ratio (x) = -0.11588 -0.00376
# Poissons Ratio (y) = -0.12224 -0.06190
# Poissons Ratio (z) = -0.00392 -0.06117
#
# Static dielectric constant tensor:
#      x y z
#    x 1.993820 0.000000 0.053760 
#    y 0.000000 1.924260 0.000000 
#    z 0.053760 0.000000 1.953070 
# 
# From -- ./inp_files/43884.got.cif
#   From: 2010.05.17/outbox.cif.g08.bks.cpg/sg11_22_cif.got.tgz:43884.got - 2010.06.03 12:22:45.
