data_PCOD9164359
_publ_section_title
;
Structure prediction by ZEFSAII (Michael W. Deem and Ramdas Pophale) SiO2 
 PCOD9164359
Probable space group: P 21/M
;
_chemical_formula_sum "Si O2"
_cell_formula_units_Z 32
_cell_length_a 6.997753
_cell_length_b 17.355152
_cell_length_c 14.123617
_cell_angle_alpha 90.000000
_cell_angle_beta 83.275490
_cell_angle_gamma 90.000000
_cell_volume 1703.471903
_symmetry_space_group_name_H-M "P 21/M"
_symmetry_group_IT_number 11
_symmetry_cell_setting 'monoclinic'
loop_
_space_group_symop_operation_xyz
x,y,z
-x,1/2+y,-z
-x,-y,-z
x,1/2-y,z
loop_
_atom_site_type_symbol
_atom_site_label
_atom_site_fract_x
_atom_site_fract_y
_atom_site_fract_z
Si Si1 0.212310 0.160647 0.130582
Si Si2 0.580796 0.944433 0.210575
Si Si3 0.381261 0.088701 0.306248
Si Si4 0.465327 0.591752 0.018501
Si Si5 0.316247 0.158179 0.618279
Si Si6 0.953815 0.911139 0.519802
Si Si7 0.644181 0.341082 0.443952
Si Si8 0.879575 0.052566 0.080334
O O1 0.159385 0.250000 0.130137
O O2 0.324331 0.140821 0.220622
O O3 0.027961 0.105373 0.129262
O O4 0.362227 0.138398 0.039161
O O5 0.477024 0.899784 0.130395
O O6 0.659561 0.887785 0.285931
O O7 0.430023 0.004104 0.264963
O O8 0.751028 0.997105 0.154842
O O9 0.206069 0.092226 0.389346
O O10 0.564590 0.117610 0.354958
O O11 0.500000 0.500000 0.000000
O O12 0.266622 0.604318 0.974279
O O13 0.304576 0.250000 0.632905
O O14 0.135251 0.127806 0.568509
O O15 0.500066 0.141383 0.539658
O O16 0.144740 0.868359 0.541930
O O17 0.000000 0.000000 0.500000
O O18 0.637470 0.250000 0.428610
O O19 0.000000 0.000000 0.000000
#
# Coordination Sequence:
#
# PCOD9164359 Si02
#       8
#     4   4   4   4   4   4   4   4
#     4  12  25  40  63  97 127 158 207 265 318 371
#     4  11  21  41  68  89 125 168 212 254 313 378
#     4  11  23  40  61  93 125 161 209 258 305 376
#     4  10  20  43  65  86 123 167 202 255 316 374
#     4  10  23  42  62  91 128 162 207 269 316 365
#     4  11  23  39  64  91 120 163 214 255 308 377
#     4  10  22  42  61  85 127 166 199 255 323 368
#     4  11  21  42  66  90 125 167 208 255 311 373
#
# _framework density 18.785164000000002
#
# number of rings (size 3 to 8) (size 9 to 14) (size 15 to 20)
#    0.000    1.250    5.000    2.250    3.500    4.500 
#    2.250    0.000    0.000    0.000    0.000    0.000 
#    0.000    0.000    0.000    0.000    0.000    0.000 
#
# Total GULP energy -178773.655690 kJ/mol
# GULP energy per Si atom -5586.676740 kJ/mol
# Density = 1.874241 g / cm^3
# Si number density = 18.785164 Si / 1000 Ang^3
#
#
#
# Elastic Constant Matrix: (Units=GPa)
#
#
# Indices 1 2 3 4 5 6 
#
# 1 97.2996 12.4396 44.1359 0.0000 18.4683 0.0000
# 2 12.4396 59.0115 45.8816 0.0000 1.2702 0.0000
# 3 44.1359 45.8816 134.9332 0.0000 29.0823 0.0000
# 4 0.0000 0.0000 0.0000 21.5410 0.0000 -1.3952
# 5 18.4683 1.2702 29.0823 0.0000 14.4843 0.0000
# 6 0.0000 0.0000 0.0000 -1.3952 0.0000 26.8150
#
#
#
# Elastic Compliance Matrix: (Units=1/GPa)
#
#
# Indices 1 2 3 4 5 6 
#
# 1 0.013938 -0.002768 0.000283 0.000000 -0.018097 0.000000
# 2 -0.002768 0.029646 -0.016528 0.000000 0.034115 0.000000
# 3 0.000283 -0.016528 0.022396 0.000000 -0.043878 0.000000
# 4 0.000000 0.000000 0.000000 0.046580 0.000000 0.002424
# 5 -0.018097 0.034115 -0.043878 0.000000 0.177223 0.000000
# 6 0.000000 0.000000 0.000000 0.002424 0.000000 0.037419
#
#
# Mechanical properties :
#
#
# Convention : Reuss Voigt Hill
#
# Bulk Modulus (GPa) = 35.77536 55.12875 45.45205
# Shear Modulus (GPa) = 13.34950 25.15388 19.25169
#
# Velocity S-wave (km/s) = 2.66868 3.66324 3.20478
# Velocity P-wave (km/s) = 5.34618 6.87773 6.15974
#
# Compressibility (1/GPa) = 0.02795220
#
# Stress axis : x y z
#
# Youngs Moduli (GPa) = 71.74557 33.73190 44.65135
#
# Poissons Ratio (x) = 0.09338 -0.01262
# Poissons Ratio (y) = 0.19862 0.73799
# Poissons Ratio (z) = -0.02028 0.55752
#
# Static dielectric constant tensor:
#      x y z
#    x 1.653470 0.000000 0.000540 
#    y 0.000000 1.617950 0.000000 
#    z 0.000540 0.000000 1.656750 
# 
# From -- ./inp_files/46055.got.cif
#   From: 2010.05.17/outbox.cif.g08.bks.cpg/sg11_24_cif.got.tgz:46055.got - 2010.06.03 12:22:45.
