data_PCOD9164975
_publ_section_title
;
Structure prediction by ZEFSAII (Michael W. Deem and Ramdas Pophale) SiO2 
 PCOD9164975
Probable space group: P 21/M
;
_chemical_formula_sum "Si O2"
_cell_formula_units_Z 24
_cell_length_a 9.759328
_cell_length_b 7.651718
_cell_length_c 15.372092
_cell_angle_alpha 90.000000
_cell_angle_beta 100.190565
_cell_angle_gamma 90.000000
_cell_volume 1129.811861
_symmetry_space_group_name_H-M "P 21/M"
_symmetry_group_IT_number 11
_symmetry_cell_setting 'monoclinic'
loop_
_space_group_symop_operation_xyz
x,y,z
-x,1/2+y,-z
-x,-y,-z
x,1/2-y,z
loop_
_atom_site_type_symbol
_atom_site_label
_atom_site_fract_x
_atom_site_fract_y
_atom_site_fract_z
Si Si1 0.383444 0.960073 0.415143
Si Si2 0.840169 0.535111 0.248447
Si Si3 0.105346 0.056764 0.938094
Si Si4 0.475541 0.036500 0.747250
Si Si5 0.068570 0.540154 0.414620
Si Si6 0.383871 0.958322 0.057338
O O1 0.372810 0.750000 0.407800
O O2 0.445173 0.023953 0.330172
O O3 0.227757 0.025457 0.421125
O O4 0.500000 0.000000 0.500000
O O5 0.835476 0.750000 0.248017
O O6 0.871754 0.470612 0.153777
O O7 0.685606 0.479843 0.261926
O O8 0.962022 0.479217 0.327674
O O9 0.058610 0.250000 0.908941
O O10 0.249760 0.051689 0.005074
O O11 0.000000 0.000000 0.000000
O O12 0.473157 0.250000 0.745642
O O13 0.560895 0.984994 0.842570
O O14 0.074909 0.750000 0.408022
O O15 0.000000 0.500000 0.500000
O O16 0.356957 0.750000 0.057547
O O17 0.500000 0.000000 0.000000
#
# Coordination Sequence:
#
# PCOD9164975 Si02
#       6
#     4   4   4   4   4   4
#     4  10  21  37  60  87 113 145 190 236 284 342
#     4   9  18  35  58  82 111 151 193 231 280 348
#     4  11  23  39  59  86 119 157 200 243 291 346
#     4   9  18  34  58  84 111 150 193 231 280 346
#     4  10  21  37  60  86 113 148 190 234 283 342
#     4  11  21  37  61  88 119 157 198 241 288 343
#
# _framework density 21.242474000000001
#
# number of rings (size 3 to 8) (size 9 to 14) (size 15 to 20)
#    0.000    2.000    1.667    2.000    2.333    2.000 
#    0.000    3.333    0.000    0.000    0.000    0.000 
#    0.000    0.000    0.000    0.000    0.000    0.000 
#
# Total GULP energy -133961.353718 kJ/mol
# GULP energy per Si atom -5581.723072 kJ/mol
# Density = 2.119413 g / cm^3
# Si number density = 21.242474 Si / 1000 Ang^3
#
#
#
# Elastic Constant Matrix: (Units=GPa)
#
#
# Indices 1 2 3 4 5 6 
#
# 1 201.9123 -4.2555 126.9918 0.0000 -21.9226 0.0000
# 2 -4.2555 37.3406 -0.5347 0.0000 -5.4675 0.0000
# 3 126.9918 -0.5347 223.9355 0.0000 -11.0404 0.0000
# 4 0.0000 0.0000 0.0000 21.1781 0.0000 -1.0937
# 5 -21.9226 -5.4675 -11.0404 0.0000 40.7298 0.0000
# 6 0.0000 0.0000 0.0000 -1.0937 0.0000 21.1726
#
#
#
# Elastic Compliance Matrix: (Units=1/GPa)
#
#
# Indices 1 2 3 4 5 6 
#
# 1 0.008145 0.001356 -0.004450 0.000000 0.003360 0.000000
# 2 0.001356 0.027557 -0.000492 0.000000 0.004296 0.000000
# 3 -0.004450 -0.000492 0.006960 0.000000 -0.000575 0.000000
# 4 0.000000 0.000000 0.000000 0.047345 0.000000 0.002446
# 5 0.003360 0.004296 -0.000575 0.000000 0.026781 0.000000
# 6 0.000000 0.000000 0.000000 0.002446 0.000000 0.047357
#
#
# Mechanical properties :
#
#
# Convention : Reuss Voigt Hill
#
# Bulk Modulus (GPa) = 28.17597 78.62127 53.39862
# Shear Modulus (GPa) = 27.30070 39.34857 33.32464
#
# Velocity S-wave (km/s) = 3.58885 4.30857 3.96507
# Velocity P-wave (km/s) = 5.51959 7.86406 6.79372
#
# Compressibility (1/GPa) = 0.03549124
#
# Stress axis : x y z
#
# Youngs Moduli (GPa) = 122.77771 36.28827 143.68646
#
# Poissons Ratio (x) = -0.04922 0.63940
# Poissons Ratio (y) = -0.16654 0.07064
# Poissons Ratio (z) = 0.54636 0.01784
#
# Static dielectric constant tensor:
#      x y z
#    x 1.719090 0.000000 -0.023830 
#    y 0.000000 1.828670 0.000000 
#    z -0.023830 0.000000 1.753950 
# 
# From -- ./inp_files/29138.got.cif
#   From: 2010.05.17/outbox.cif.g08.bks.cpg/sg11_15_cif.got.tgz:29138.got - 2010.06.03 12:22:45.
