data_PCOD9164490
_publ_section_title
;
Structure prediction by ZEFSAII (Michael W. Deem and Ramdas Pophale) SiO2 
 PCOD9164490
Probable space group: P 21/M
;
_chemical_formula_sum "Si O2"
_cell_formula_units_Z 32
_cell_length_a 15.425302
_cell_length_b 9.217110
_cell_length_c 24.621545
_cell_angle_alpha 90.000000
_cell_angle_beta 151.536521
_cell_angle_gamma 90.000000
_cell_volume 1668.385528
_symmetry_space_group_name_H-M "P 21/M"
_symmetry_group_IT_number 11
_symmetry_cell_setting 'monoclinic'
loop_
_space_group_symop_operation_xyz
x,y,z
-x,1/2+y,-z
-x,-y,-z
x,1/2-y,z
loop_
_atom_site_type_symbol
_atom_site_label
_atom_site_fract_x
_atom_site_fract_y
_atom_site_fract_z
Si Si1 0.022920 0.414531 0.455554
Si Si2 0.013388 0.919071 0.949716
Si Si3 0.386752 0.077882 0.485472
Si Si4 0.601359 0.408995 0.204106
Si Si5 0.938570 0.424871 0.633662
Si Si6 0.628736 0.921636 0.114233
Si Si7 0.681644 0.417781 0.741735
Si Si8 0.583475 0.418138 0.811602
O O1 0.101704 0.250000 0.505264
O O2 0.816872 0.395562 0.322495
O O3 0.000000 0.500000 0.500000
O O4 0.105202 0.505895 0.450319
O O5 0.977372 0.750000 0.938127
O O6 0.224198 0.934654 0.050966
O O7 0.858852 0.986671 0.827047
O O8 0.000000 0.000000 0.000000
O O9 0.357280 0.250000 0.458046
O O10 0.519854 0.066534 0.610694
O O11 0.500000 0.000000 0.500000
O O12 0.199698 0.997986 0.399510
O O13 0.519304 0.250000 0.149444
O O14 0.557436 0.523108 0.133253
O O15 0.551104 0.472367 0.234598
O O16 0.915608 0.250000 0.618903
O O17 0.152113 0.453136 0.766858
O O18 0.609599 0.750000 0.098418
O O19 0.500000 0.000000 0.000000
O O20 0.740626 0.250000 0.775474
O O21 0.613724 0.452063 0.765114
O O22 0.527609 0.250000 0.785197
#
# Coordination Sequence:
#
# PCOD9164490 Si02
#       8
#     4   4   4   4   4   4   4   4
#     4  10  21  36  56  86 122 159 198 240 290 355
#     4   9  17  31  52  78 109 146 187 231 283 341
#     4  11  24  43  64  89 120 160 206 257 305 358
#     4  10  21  35  53  84 118 150 192 237 284 344
#     4  10  22  41  64  91 121 157 199 250 307 361
#     4  10  21  40  65  89 118 155 195 242 296 354
#     4   9  20  37  57  81 111 151 195 241 298 353
#     4   9  18  33  53  81 116 150 187 235 293 352
#
# _framework density 19.180219000000001
#
# number of rings (size 3 to 8) (size 9 to 14) (size 15 to 20)
#    0.000    2.250    0.000    3.000    1.750    6.500 
#    2.250    0.000    0.000    0.000    0.000    0.000 
#    0.000    0.000    0.000    0.000    0.000    0.000 
#
# Total GULP energy -178324.180210 kJ/mol
# GULP energy per Si atom -5572.630632 kJ/mol
# Density = 1.913656 g / cm^3
# Si number density = 19.180219 Si / 1000 Ang^3
#
#
#
# Elastic Constant Matrix: (Units=GPa)
#
#
# Indices 1 2 3 4 5 6 
#
# 1 95.7520 75.9193 31.3165 0.0000 6.3220 0.0000
# 2 75.9193 103.8237 41.5077 0.0000 8.3302 0.0000
# 3 31.3165 41.5077 58.0440 0.0000 -2.5919 0.0000
# 4 0.0000 0.0000 0.0000 30.7066 0.0000 2.6931
# 5 6.3220 8.3302 -2.5919 0.0000 23.8897 0.0000
# 6 0.0000 0.0000 0.0000 2.6931 0.0000 26.2850
#
#
#
# Elastic Compliance Matrix: (Units=1/GPa)
#
#
# Indices 1 2 3 4 5 6 
#
# 1 0.024870 -0.017898 -0.000637 0.000000 -0.000410 0.000000
# 2 -0.017898 0.027212 -0.010064 0.000000 -0.005844 0.000000
# 3 -0.000637 -0.010064 0.025054 0.000000 0.006396 0.000000
# 4 0.000000 0.000000 0.000000 0.032862 0.000000 -0.003367
# 5 -0.000410 -0.005844 0.006396 0.000000 0.044699 0.000000
# 6 0.000000 0.000000 0.000000 -0.003367 0.000000 0.038389
#
#
# Mechanical properties :
#
#
# Convention : Reuss Voigt Hill
#
# Bulk Modulus (GPa) = 50.15585 61.67854 55.91720
# Shear Modulus (GPa) = 19.46049 23.43467 21.44758
#
# Velocity S-wave (km/s) = 3.18875 3.49924 3.34760
# Velocity P-wave (km/s) = 6.30588 6.96803 6.64520
#
# Compressibility (1/GPa) = 0.01993785
#
# Stress axis : x y z
#
# Youngs Moduli (GPa) = 40.20887 36.74892 39.91315
#
# Poissons Ratio (x) = 0.65774 0.02544
# Poissons Ratio (y) = 0.71967 0.40167
# Poissons Ratio (z) = 0.02563 0.36983
#
# Static dielectric constant tensor:
#      x y z
#    x 1.684420 0.000000 0.022530 
#    y 0.000000 1.681080 0.000000 
#    z 0.022530 0.000000 1.723100 
# 
# From -- ./inp_files/69069.got.cif
#   From: 2010.05.17/outbox.cif.g08.bks.cpg/sg11_35_cif.got.tgz:69069.got - 2010.06.03 12:22:45.
