data_PCOD9164680
_publ_section_title
;
Structure prediction by ZEFSAII (Michael W. Deem and Ramdas Pophale) SiO2 
 PCOD9164680
Probable space group: P 21/M
;
_chemical_formula_sum "Si O2"
_cell_formula_units_Z 28
_cell_length_a 26.039288
_cell_length_b 9.069479
_cell_length_c 9.702139
_cell_angle_alpha 90.000000
_cell_angle_beta 142.723289
_cell_angle_gamma 90.000000
_cell_volume 1387.750603
_symmetry_space_group_name_H-M "P 21/M"
_symmetry_group_IT_number 11
_symmetry_cell_setting 'monoclinic'
loop_
_space_group_symop_operation_xyz
x,y,z
-x,1/2+y,-z
-x,-y,-z
x,1/2-y,z
loop_
_atom_site_type_symbol
_atom_site_label
_atom_site_fract_x
_atom_site_fract_y
_atom_site_fract_z
Si Si1 0.994290 0.421494 0.634293
Si Si2 0.531188 0.425590 0.425088
Si Si3 0.707899 0.423770 0.924886
Si Si4 0.927105 0.925894 0.751176
Si Si5 0.379547 0.572721 0.973234
Si Si6 0.254982 0.427213 0.498521
Si Si7 0.809625 0.920880 0.930209
O O1 0.969948 0.250000 0.569826
O O2 0.000000 0.500000 0.500000
O O3 0.936129 0.505836 0.618681
O O4 0.091342 0.427659 0.895616
O O5 0.500000 0.500000 0.500000
O O6 0.516051 0.250000 0.393879
O O7 0.631681 0.449214 0.651746
O O8 0.473142 0.502567 0.186925
O O9 0.722179 0.250000 0.966759
O O10 0.788238 0.498527 0.026691
O O11 0.673830 0.473097 0.002134
O O12 0.940299 0.750000 0.776688
O O13 0.834120 0.954808 0.613949
O O14 0.000000 0.000000 0.000000
O O15 0.385406 0.750000 0.986236
O O16 0.329099 0.511393 0.735502
O O17 0.269417 0.250000 0.531635
O O18 0.241160 0.476040 0.311528
O O19 0.787621 0.750000 0.903728
#
# Coordination Sequence:
#
# PCOD9164680 Si02
#       7
#     4   4   4   4   4   4   4
#     4  11  24  42  60  86 118 152 196 244 291 347
#     4   9  17  33  56  83 115 149 186 232 282 335
#     4   9  20  36  56  85 116 145 185 233 281 334
#     4  11  22  40  63  86 114 154 196 239 291 346
#     4  10  21  36  57  88 116 145 190 237 281 336
#     4  10  22  40  58  81 114 151 191 234 283 340
#     4  10  22  40  58  80 114 152 189 231 285 342
#
# _framework density 20.176535999999999
#
# number of rings (size 3 to 8) (size 9 to 14) (size 15 to 20)
#    0.000    2.000    1.429    2.571    2.000    6.286 
#    0.000    0.714    0.000    0.000    0.000    0.000 
#    0.000    0.000    0.000    0.000    0.000    0.000 
#
# Total GULP energy -156314.216038 kJ/mol
# GULP energy per Si atom -5582.650573 kJ/mol
# Density = 2.013061 g / cm^3
# Si number density = 20.176536 Si / 1000 Ang^3
#
#
#
# Elastic Constant Matrix: (Units=GPa)
#
#
# Indices 1 2 3 4 5 6 
#
# 1 40.7407 11.0020 -20.9263 0.0000 -14.9649 0.0000
# 2 11.0020 43.8001 16.7129 0.0000 -0.0144 0.0000
# 3 -20.9263 16.7129 78.5090 0.0000 -16.7157 0.0000
# 4 0.0000 0.0000 0.0000 31.7617 0.0000 -0.5291
# 5 -14.9649 -0.0144 -16.7157 0.0000 25.2670 0.0000
# 6 0.0000 0.0000 0.0000 -0.5291 0.0000 25.8596
#
#
#
# Elastic Compliance Matrix: (Units=1/GPa)
#
#
# Indices 1 2 3 4 5 6 
#
# 1 0.110608 -0.051945 0.063414 0.000000 0.107432 0.000000
# 2 -0.051945 0.049607 -0.036025 0.000000 -0.054570 0.000000
# 3 0.063414 -0.036025 0.052729 0.000000 0.072421 0.000000
# 4 0.000000 0.000000 0.000000 0.031495 0.000000 0.000644
# 5 0.107432 -0.054570 0.072421 0.000000 0.151086 0.000000
# 6 0.000000 0.000000 0.000000 0.000644 0.000000 0.038684
#
#
# Mechanical properties :
#
#
# Convention : Reuss Voigt Hill
#
# Bulk Modulus (GPa) = 6.10381 19.62521 12.86451
# Shear Modulus (GPa) = 9.29488 26.99505 18.14497
#
# Velocity S-wave (km/s) = 2.14867 3.66176 3.00210
# Velocity P-wave (km/s) = 3.03108 5.25603 4.29030
#
# Compressibility (1/GPa) = 0.16383205
#
# Stress axis : x y z
#
# Youngs Moduli (GPa) = 9.04096 20.15846 18.96505
#
# Poissons Ratio (x) = 1.04713 -1.20265
# Poissons Ratio (y) = 0.46963 0.68321
# Poissons Ratio (z) = -0.57332 0.72620
#
# Static dielectric constant tensor:
#      x y z
#    x 1.727810 0.000000 0.044910 
#    y 0.000000 1.674940 0.000000 
#    z 0.044910 0.000000 1.794780 
# 
# From -- ./inp_files/28556.got.cif
#   From: 2010.05.17/outbox.cif.g08.bks.cpg/sg11_15_cif.got.tgz:28556.got - 2010.06.03 12:22:45.
