data_PCOD9164001
_publ_section_title
;
Structure prediction by ZEFSAII (Michael W. Deem and Ramdas Pophale) SiO2 
 PCOD9164001
Probable space group: P 21/M
;
_chemical_formula_sum "Si O2"
_cell_formula_units_Z 28
_cell_length_a 12.683821
_cell_length_b 7.870014
_cell_length_c 17.730755
_cell_angle_alpha 90.000000
_cell_angle_beta 133.217270
_cell_angle_gamma 90.000000
_cell_volume 1289.848526
_symmetry_space_group_name_H-M "P 21/M"
_symmetry_group_IT_number 11
_symmetry_cell_setting 'monoclinic'
loop_
_space_group_symop_operation_xyz
x,y,z
-x,1/2+y,-z
-x,-y,-z
x,1/2-y,z
loop_
_atom_site_type_symbol
_atom_site_label
_atom_site_fract_x
_atom_site_fract_y
_atom_site_fract_z
Si Si1 0.658694 0.552508 0.670559
Si Si2 0.369808 0.541138 0.614416
Si Si3 0.161119 0.546629 0.103464
Si Si4 0.324859 0.955497 0.034979
Si Si5 0.355635 0.546756 0.779292
Si Si6 0.172071 0.946509 0.386918
Si Si7 0.146619 0.548787 0.804622
O O1 0.635570 0.750000 0.641400
O O2 0.517581 0.486233 0.645344
O O3 0.789507 0.534274 0.794116
O O4 0.704425 0.462681 0.616183
O O5 0.372640 0.750000 0.616177
O O6 0.359255 0.480720 0.695242
O O7 0.237064 0.484889 0.496795
O O8 0.172412 0.750000 0.116684
O O9 0.266430 0.486675 0.087750
O O10 0.000000 0.500000 0.000000
O O11 0.320628 0.750000 0.034023
O O12 0.489788 0.011206 0.106848
O O13 0.220365 0.019012 0.917119
O O14 0.338407 0.750000 0.764403
O O15 0.229103 0.479345 0.771267
O O16 0.138649 0.750000 0.382214
O O17 0.024370 0.027028 0.285372
O O18 0.175489 0.750000 0.820112
#
# Coordination Sequence:
#
# PCOD9164001 Si02
#       7
#     4   4   4   4   4   4   4
#     4  11  21  38  61  84 116 153 195 245 299 354
#     4   9  20  38  60  87 117 152 194 246 296 347
#     4  11  22  35  55  85 121 159 197 240 290 347
#     4  10  21  37  56  84 119 150 190 242 288 340
#     4  10  20  38  63  87 115 154 197 237 289 353
#     4  11  23  39  59  85 118 154 198 245 295 354
#     4  10  22  39  59  86 120 156 194 239 292 347
#
# _framework density 21.707977
#
# number of rings (size 3 to 8) (size 9 to 14) (size 15 to 20)
#    0.000    1.714    1.429    3.000    0.000    3.429 
#    0.000    3.571    0.000    0.000    0.000    0.000 
#    0.000    0.000    0.000    0.000    0.000    0.000 
#
# Total GULP energy -156511.976115 kJ/mol
# GULP energy per Si atom -5589.713433 kJ/mol
# Density = 2.165857 g / cm^3
# Si number density = 21.707977 Si / 1000 Ang^3
#
#
#
# Elastic Constant Matrix: (Units=GPa)
#
#
# Indices 1 2 3 4 5 6 
#
# 1 60.4149 0.5692 12.9438 0.0000 -0.9247 0.0000
# 2 0.5692 17.5435 -4.6214 0.0000 -2.0695 0.0000
# 3 12.9438 -4.6214 120.1518 0.0000 -17.1917 0.0000
# 4 0.0000 0.0000 0.0000 -8.4584 0.0000 -5.0302
# 5 -0.9247 -2.0695 -17.1917 0.0000 15.1238 0.0000
# 6 0.0000 0.0000 0.0000 -5.0302 0.0000 9.1073
#
#
#
# Elastic Compliance Matrix: (Units=1/GPa)
#
#
# Indices 1 2 3 4 5 6 
#
# 1 0.016990 -0.001283 -0.002097 0.000000 -0.001521 0.000000
# 2 -0.001283 0.059703 0.004290 0.000000 0.012968 0.000000
# 3 -0.002097 0.004290 0.010485 0.000000 0.012377 0.000000
# 4 0.000000 0.000000 0.000000 -0.088994 0.000000 -0.049154
# 5 -0.001521 0.012968 0.012377 0.000000 0.081872 0.000000
# 6 0.000000 0.000000 0.000000 -0.049154 0.000000 0.082653
#
#
# Mechanical properties :
#
#
# Convention : Reuss Voigt Hill
#
# Bulk Modulus (GPa) = 11.23633 23.98816 17.61224
# Shear Modulus (GPa) = 26.23918 15.76913 21.00415
#
# Velocity S-wave (km/s) = 3.48046 2.69814 3.11397
# Velocity P-wave (km/s) = 4.61939 4.55862 4.58911
#
# Compressibility (1/GPa) = 0.08899707
#
# Stress axis : x y z
#
# Youngs Moduli (GPa) = 58.85688 16.74964 95.37694
#
# Poissons Ratio (x) = 0.02149 0.20004
# Poissons Ratio (y) = 0.07552 -0.40918
# Poissons Ratio (z) = 0.12344 -0.07186
#
# Static dielectric constant tensor:
#      x y z
#    x 1.783270 0.000000 -0.013290 
#    y 0.000000 1.778420 0.000000 
#    z -0.013290 0.000000 1.779300 
# 
# From -- ./inp_files/60129.got.cif
#   From: 2010.05.17/outbox.cif.g08.bks.cpg/sg11_31_cif.got.tgz:60129.got - 2010.06.03 12:22:45.
