data_PCOD9164519
_publ_section_title
;
Structure prediction by ZEFSAII (Michael W. Deem and Ramdas Pophale) SiO2 
 PCOD9164519
Probable space group: P 21/M
;
_chemical_formula_sum "Si O2"
_cell_formula_units_Z 32
_cell_length_a 11.725402
_cell_length_b 22.801168
_cell_length_c 9.103908
_cell_angle_alpha 90.000000
_cell_angle_beta 134.240907
_cell_angle_gamma 90.000000
_cell_volume 1743.716822
_symmetry_space_group_name_H-M "P 21/M"
_symmetry_group_IT_number 11
_symmetry_cell_setting 'monoclinic'
loop_
_space_group_symop_operation_xyz
x,y,z
-x,1/2+y,-z
-x,-y,-z
x,1/2-y,z
loop_
_atom_site_type_symbol
_atom_site_label
_atom_site_fract_x
_atom_site_fract_y
_atom_site_fract_z
Si Si1 0.898270 0.058162 0.601354
Si Si2 0.191588 0.515999 0.803997
Si Si3 0.094930 0.819136 0.250484
Si Si4 0.446498 0.597933 0.140890
Si Si5 0.439010 0.819093 0.404578
Si Si6 0.408347 0.091899 0.032340
Si Si7 0.413934 0.510577 0.577449
Si Si8 0.736754 0.680795 0.881631
O O1 0.855073 0.044938 0.392446
O O2 0.914534 0.127615 0.641451
O O3 0.766187 0.031925 0.591706
O O4 0.053019 0.018307 0.762251
O O5 0.279496 0.563703 0.981252
O O6 0.313675 0.463401 0.882247
O O7 0.096988 0.750000 0.301320
O O8 0.265742 0.829353 0.324477
O O9 0.924904 0.826005 0.010806
O O10 0.440979 0.649640 0.250652
O O11 0.567245 0.549742 0.316337
O O12 0.490766 0.614991 0.014302
O O13 0.451654 0.750000 0.396854
O O14 0.597576 0.836330 0.640474
O O15 0.507195 0.061648 0.252302
O O16 0.300264 0.141496 0.008732
O O17 0.500000 0.500000 0.500000
O O18 0.713362 0.750000 0.891165
#
# Coordination Sequence:
#
# PCOD9164519 Si02
#       8
#     4   4   4   4   4   4   4   4
#     4  11  19  37  58  88 122 162 196 249 307 360
#     4  10  21  35  57  84 126 159 195 241 303 365
#     4  10  21  39  64  88 116 154 207 259 299 358
#     4  11  21  39  57  86 120 158 201 247 300 365
#     4  10  23  43  64  87 120 162 202 253 313 362
#     4  11  19  38  57  85 120 157 197 248 297 358
#     4  11  21  35  58  85 120 156 197 244 297 356
#     4  10  21  39  64  89 115 156 206 254 304 360
#
# _framework density 18.351603999999998
#
# number of rings (size 3 to 8) (size 9 to 14) (size 15 to 20)
#    0.000    1.500    3.750    3.000    0.000    0.500 
#    4.500    2.500    0.000    0.000    0.000    0.000 
#    0.000    0.000    0.000    0.000    0.000    0.000 
#
# Total GULP energy -178213.575611 kJ/mol
# GULP energy per Si atom -5569.174238 kJ/mol
# Density = 1.830983 g / cm^3
# Si number density = 18.351604 Si / 1000 Ang^3
#
#
#
# Elastic Constant Matrix: (Units=GPa)
#
#
# Indices 1 2 3 4 5 6 
#
# 1 97.6184 40.3072 54.0289 0.0000 3.1044 0.0000
# 2 40.3072 53.9763 43.0254 0.0000 -5.4985 0.0000
# 3 54.0289 43.0254 81.5906 0.0000 4.6482 0.0000
# 4 0.0000 0.0000 0.0000 21.9153 0.0000 -6.7699
# 5 3.1044 -5.4985 4.6482 0.0000 31.2885 0.0000
# 6 0.0000 0.0000 0.0000 -6.7699 0.0000 24.7667
#
#
#
# Elastic Compliance Matrix: (Units=1/GPa)
#
#
# Indices 1 2 3 4 5 6 
#
# 1 0.017525 -0.007083 -0.007765 0.000000 -0.001830 0.000000
# 2 -0.007083 0.037050 -0.015389 0.000000 0.009500 0.000000
# 3 -0.007765 -0.015389 0.025842 0.000000 -0.005773 0.000000
# 4 0.000000 0.000000 0.000000 0.049839 0.000000 0.013623
# 5 -0.001830 0.009500 -0.005773 0.000000 0.034669 0.000000
# 6 0.000000 0.000000 0.000000 0.013623 0.000000 0.044101
#
#
# Mechanical properties :
#
#
# Convention : Reuss Voigt Hill
#
# Bulk Modulus (GPa) = 50.14281 56.43426 53.28853
# Shear Modulus (GPa) = 18.10623 21.98234 20.04429
#
# Velocity S-wave (km/s) = 3.14447 3.46474 3.30849
# Velocity P-wave (km/s) = 6.36917 6.84283 6.61024
#
# Compressibility (1/GPa) = 0.01994304
#
# Stress axis : x y z
#
# Youngs Moduli (GPa) = 57.06211 26.99032 38.69634
#
# Poissons Ratio (x) = 0.19118 0.30049
# Poissons Ratio (y) = 0.40419 0.59548
# Poissons Ratio (z) = 0.44311 0.41534
#
# Static dielectric constant tensor:
#      x y z
#    x 1.641470 0.000000 0.020760 
#    y 0.000000 1.617700 0.000000 
#    z 0.020760 0.000000 1.658780 
# 
# From -- ./inp_files/19394.got.cif
#   From: 2010.05.17/outbox.cif.g08.bks.cpg/sg11_10_cif.got.tgz:19394.got - 2010.06.03 12:22:45.
