data_PCOD9164220
_publ_section_title
;
Structure prediction by ZEFSAII (Michael W. Deem and Ramdas Pophale) SiO2 
 PCOD9164220
Probable space group: P 21/M
;
_chemical_formula_sum "Si O2"
_cell_formula_units_Z 28
_cell_length_a 11.386405
_cell_length_b 14.409957
_cell_length_c 9.398369
_cell_angle_alpha 90.000000
_cell_angle_beta 111.994876
_cell_angle_gamma 90.000000
_cell_volume 1429.826542
_symmetry_space_group_name_H-M "P 21/M"
_symmetry_group_IT_number 11
_symmetry_cell_setting 'monoclinic'
loop_
_space_group_symop_operation_xyz
x,y,z
-x,1/2+y,-z
-x,-y,-z
x,1/2-y,z
loop_
_atom_site_type_symbol
_atom_site_label
_atom_site_fract_x
_atom_site_fract_y
_atom_site_fract_z
Si Si1 0.016949 0.639326 0.963532
Si Si2 0.850861 0.997305 0.448498
Si Si3 0.657072 0.860190 0.244587
Si Si4 0.771311 0.358663 0.180690
Si Si5 0.538801 0.013910 0.681823
Si Si6 0.829936 0.013738 0.773728
Si Si7 0.511494 0.640692 0.903646
O O1 0.996916 0.750000 0.961787
O O2 0.125340 0.618771 0.893134
O O3 0.892643 0.580692 0.864540
O O4 0.075669 0.595293 0.133010
O O5 0.796020 0.081274 0.331250
O O6 0.787398 0.905833 0.353540
O O7 0.820913 0.004826 0.600547
O O8 0.000000 0.000000 0.500000
O O9 0.657481 0.750000 0.257579
O O10 0.548470 0.905684 0.292695
O O11 0.621013 0.884443 0.065412
O O12 0.786916 0.250000 0.218823
O O13 0.623437 0.373065 0.077342
O O14 0.688210 0.032551 0.761944
O O15 0.513316 0.922686 0.765762
O O16 0.500000 0.000000 0.500000
O O17 0.521701 0.750000 0.873645
#
# Coordination Sequence:
#
# PCOD9164220 Si02
#       7
#     4   4   4   4   4   4   4
#     4  10  23  42  65  92 126 168 214 263 317 377
#     4  12  24  42  65  93 129 166 212 265 313 378
#     4  11  25  43  67  97 130 171 212 258 320 381
#     4  10  20  39  67  93 121 167 215 261 314 369
#     4  12  23  40  64  97 134 168 207 263 322 377
#     4  11  24  40  64  95 127 168 212 258 326 374
#     4  10  22  40  66  96 125 167 218 264 313 375
#
# _framework density 19.582794
#
# number of rings (size 3 to 8) (size 9 to 14) (size 15 to 20)
#    0.000    1.143    4.286    1.286    2.000    4.571 
#    0.000    1.429    0.000    0.000    0.000    0.000 
#    0.000    0.000    0.000    0.000    0.000    0.000 
#
# Total GULP energy -156468.720608 kJ/mol
# GULP energy per Si atom -5588.168593 kJ/mol
# Density = 1.953822 g / cm^3
# Si number density = 19.582794 Si / 1000 Ang^3
#
#
#
# Elastic Constant Matrix: (Units=GPa)
#
#
# Indices 1 2 3 4 5 6 
#
# 1 74.6339 32.5058 24.9403 0.0000 19.3734 0.0000
# 2 32.5058 97.4689 63.4201 0.0000 4.6938 0.0000
# 3 24.9403 63.4201 131.4134 0.0000 8.1606 0.0000
# 4 0.0000 0.0000 0.0000 2.0685 0.0000 0.2980
# 5 19.3734 4.6938 8.1606 0.0000 27.3169 0.0000
# 6 0.0000 0.0000 0.0000 0.2980 0.0000 24.9122
#
#
#
# Elastic Compliance Matrix: (Units=1/GPa)
#
#
# Indices 1 2 3 4 5 6 
#
# 1 0.019199 -0.005735 -0.000093 0.000000 -0.012603 0.000000
# 2 -0.005735 0.016674 -0.007166 0.000000 0.003343 0.000000
# 3 -0.000093 -0.007166 0.011213 0.000000 -0.002052 0.000000
# 4 0.000000 0.000000 0.000000 0.484282 0.000000 -0.005793
# 5 -0.012603 0.003343 -0.002052 0.000000 0.045584 0.000000
# 6 0.000000 0.000000 0.000000 -0.005793 0.000000 0.040210
#
#
# Mechanical properties :
#
#
# Convention : Reuss Voigt Hill
#
# Bulk Modulus (GPa) = 47.39964 60.58318 53.99141
# Shear Modulus (GPa) = 7.69012 23.03620 15.36316
#
# Velocity S-wave (km/s) = 1.98381 3.43352 2.80397
# Velocity P-wave (km/s) = 5.43182 6.83541 6.17363
#
# Compressibility (1/GPa) = 0.02109721
#
# Stress axis : x y z
#
# Youngs Moduli (GPa) = 52.08514 59.97300 89.18169
#
# Poissons Ratio (x) = 0.34397 0.00831
# Poissons Ratio (y) = 0.29873 0.63908
# Poissons Ratio (z) = 0.00486 0.42977
#
# Static dielectric constant tensor:
#      x y z
#    x 1.716640 0.000000 0.012250 
#    y 0.000000 1.595200 0.000000 
#    z 0.012250 0.000000 1.698490 
# 
# From -- ./inp_files/17939.got.cif
#   From: 2010.05.17/outbox.cif.g08.bks.cpg/sg11_9_cif.got.tgz:17939.got - 2010.06.03 12:22:45.
