data_PCOD9164499
_publ_section_title
;
Structure prediction by ZEFSAII (Michael W. Deem and Ramdas Pophale) SiO2 
 PCOD9164499
Probable space group: P 21/M
;
_chemical_formula_sum "Si O2"
_cell_formula_units_Z 24
_cell_length_a 11.918076
_cell_length_b 9.109249
_cell_length_c 10.650224
_cell_angle_alpha 90.000000
_cell_angle_beta 83.535158
_cell_angle_gamma 90.000000
_cell_volume 1148.886239
_symmetry_space_group_name_H-M "P 21/M"
_symmetry_group_IT_number 11
_symmetry_cell_setting 'monoclinic'
loop_
_space_group_symop_operation_xyz
x,y,z
-x,1/2+y,-z
-x,-y,-z
x,1/2-y,z
loop_
_atom_site_type_symbol
_atom_site_label
_atom_site_fract_x
_atom_site_fract_y
_atom_site_fract_z
Si Si1 0.337780 0.423505 0.454497
Si Si2 0.842949 0.081808 0.862674
Si Si3 0.891356 0.922541 0.617763
Si Si4 0.922273 0.582358 0.265171
Si Si5 0.465336 0.422422 0.702643
Si Si6 0.727489 0.423248 0.143285
O O1 0.343964 0.250000 0.426155
O O2 0.206109 0.464511 0.468117
O O3 0.392919 0.446230 0.583671
O O4 0.413436 0.510474 0.345240
O O5 0.814957 0.250000 0.823814
O O6 0.980019 0.082433 0.855475
O O7 0.825460 0.960647 0.757612
O O8 0.777950 0.051871 0.998390
O O9 0.918588 0.750000 0.606132
O O10 0.003441 0.019178 0.628301
O O11 0.887600 0.750000 0.293898
O O12 0.818867 0.488982 0.228688
O O13 0.473935 0.250000 0.725241
O O14 0.392618 0.500984 0.818501
O O15 0.717209 0.250000 0.164884
#
# Coordination Sequence:
#
# PCOD9164499 Si02
#       6
#     4   4   4   4   4   4
#     4   9  19  38  57  75  99 129 169 211 253 301
#     4   8  18  32  49  75 105 136 166 204 247 296
#     4   9  17  31  54  77  99 132 169 205 248 300
#     4   9  18  32  50  76 106 136 168 203 248 298
#     4  10  21  35  55  78 100 130 167 211 256 297
#     4  11  20  33  51  76 107 135 169 207 249 297
#
# _framework density 20.889796
#
# number of rings (size 3 to 8) (size 9 to 14) (size 15 to 20)
#    1.000    1.667    0.000    2.000    0.000    3.333 
#    0.000    1.667    0.000    0.000    0.000    0.000 
#    0.000    0.000    0.000    0.000    0.000    0.000 
#
# Total GULP energy -133816.411929 kJ/mol
# GULP energy per Si atom -5575.683830 kJ/mol
# Density = 2.084225 g / cm^3
# Si number density = 20.889796 Si / 1000 Ang^3
#
#
#
# Elastic Constant Matrix: (Units=GPa)
#
#
# Indices 1 2 3 4 5 6 
#
# 1 92.4038 27.6337 12.5096 0.0000 -24.9078 0.0000
# 2 27.6337 40.5556 20.2671 0.0000 -16.4966 0.0000
# 3 12.5096 20.2671 44.0929 0.0000 -27.2619 0.0000
# 4 0.0000 0.0000 0.0000 26.1922 0.0000 -4.7036
# 5 -24.9078 -16.4966 -27.2619 0.0000 37.8080 0.0000
# 6 0.0000 0.0000 0.0000 -4.7036 0.0000 31.1695
#
#
#
# Elastic Compliance Matrix: (Units=1/GPa)
#
#
# Indices 1 2 3 4 5 6 
#
# 1 0.015775 -0.009641 0.006822 0.000000 0.011105 0.000000
# 2 -0.009641 0.038690 -0.015406 0.000000 -0.000579 0.000000
# 3 0.006822 -0.015406 0.047725 0.000000 0.032184 0.000000
# 4 0.000000 0.000000 0.000000 0.039243 0.000000 0.005922
# 5 0.011105 -0.000579 0.032184 0.000000 0.056720 0.000000
# 6 0.000000 0.000000 0.000000 0.005922 0.000000 0.032976
#
#
# Mechanical properties :
#
#
# Convention : Reuss Voigt Hill
#
# Bulk Modulus (GPa) = 15.21164 33.09700 24.15432
# Shear Modulus (GPa) = 17.27161 26.81007 22.04084
#
# Velocity S-wave (km/s) = 2.87853 3.58635 3.25176
# Velocity P-wave (km/s) = 4.28317 5.74693 5.06817
#
# Compressibility (1/GPa) = 0.06573914
#
# Stress axis : x y z
#
# Youngs Moduli (GPa) = 63.39126 25.84629 20.95360
#
# Poissons Ratio (x) = 0.24918 -0.14294
# Poissons Ratio (y) = 0.61114 0.32282
# Poissons Ratio (z) = -0.43245 0.39820
#
# Static dielectric constant tensor:
#      x y z
#    x 1.737330 0.000000 -0.002000 
#    y 0.000000 1.698260 0.000000 
#    z -0.002000 0.000000 1.830300 
# 
# From -- ./inp_files/36970.got.cif
#   From: 2010.05.17/outbox.cif.g08.bks.cpg/sg11_19_cif.got.tgz:36970.got - 2010.06.03 12:22:45.
