data_PCOD9164048
_publ_section_title
;
Structure prediction by ZEFSAII (Michael W. Deem and Ramdas Pophale) SiO2 
 PCOD9164048
Probable space group: P 21/M
;
_chemical_formula_sum "Si O2"
_cell_formula_units_Z 32
_cell_length_a 15.468018
_cell_length_b 16.493057
_cell_length_c 11.841537
_cell_angle_alpha 90.000000
_cell_angle_beta 28.422684
_cell_angle_gamma 90.000000
_cell_volume 1437.890142
_symmetry_space_group_name_H-M "P 21/M"
_symmetry_group_IT_number 11
_symmetry_cell_setting 'monoclinic'
loop_
_space_group_symop_operation_xyz
x,y,z
-x,1/2+y,-z
-x,-y,-z
x,1/2-y,z
loop_
_atom_site_type_symbol
_atom_site_label
_atom_site_fract_x
_atom_site_fract_y
_atom_site_fract_z
Si Si1 0.754638 0.659260 0.148197
Si Si2 0.234958 0.654509 0.236421
Si Si3 0.838045 0.902267 0.440497
Si Si4 0.102666 0.905203 0.616680
Si Si5 0.424181 0.072543 0.448660
Si Si6 0.520915 0.106261 0.709054
Si Si7 0.633248 0.845283 0.888308
Si Si8 0.220322 0.844722 0.996317
O O1 0.782690 0.750000 0.162013
O O2 0.710070 0.593976 0.295807
O O3 0.582384 0.660263 0.262368
O O4 0.926607 0.630119 0.878619
O O5 0.190662 0.750000 0.284778
O O6 0.111672 0.614283 0.473598
O O7 0.219950 0.623321 0.126387
O O8 0.441849 0.645685 0.041902
O O9 0.666219 0.885961 0.557480
O O10 0.786867 0.873654 0.625062
O O11 0.016761 0.858509 0.188999
O O12 0.878484 0.998115 0.391916
O O13 0.283164 0.867249 0.468194
O O14 0.450269 0.979768 0.384571
O O15 0.620925 0.108892 0.249725
O O16 0.392857 0.103491 0.967583
O O17 0.656963 0.750000 0.889304
O O18 0.264889 0.750000 0.946104
#
# Coordination Sequence:
#
# PCOD9164048 Si02
#       8
#     4   4   4   4   4   4   4   4
#     4  12  26  44  68  94 129 175 224 271 323 388
#     4   9  19  36  60  88 130 169 205 265 325 381
#     4  11  24  39  66  98 131 173 214 264 327 393
#     4  10  24  42  64  97 131 168 217 269 325 381
#     4  11  25  45  67  94 132 172 221 273 324 383
#     4  10  24  43  69  95 130 172 218 271 326 388
#     4  10  20  38  64  97 137 170 211 268 328 392
#     4  11  23  38  60  93 131 170 212 265 326 387
#
# _framework density 22.254829000000001
#
# number of rings (size 3 to 8) (size 9 to 14) (size 15 to 20)
#    0.000    1.500    1.250    2.625    3.500    8.000 
#    0.000    0.000    0.000    0.000    0.000    0.000 
#    0.000    0.000    0.000    0.000    0.000    0.000 
#
# Total GULP energy -178956.373256 kJ/mol
# GULP energy per Si atom -5592.386664 kJ/mol
# Density = 2.220418 g / cm^3
# Si number density = 22.254829 Si / 1000 Ang^3
#
#
#
# Elastic Constant Matrix: (Units=GPa)
#
#
# Indices 1 2 3 4 5 6 
#
# 1 36.2048 1.2548 4.1059 0.0000 -0.6464 0.0000
# 2 1.2548 40.9356 21.4334 0.0000 -11.9673 0.0000
# 3 4.1059 21.4334 109.4579 0.0000 -7.1035 0.0000
# 4 0.0000 0.0000 0.0000 47.2503 0.0000 12.5916
# 5 -0.6464 -11.9673 -7.1035 0.0000 14.5179 0.0000
# 6 0.0000 0.0000 0.0000 12.5916 0.0000 30.5730
#
#
#
# Elastic Compliance Matrix: (Units=1/GPa)
#
#
# Indices 1 2 3 4 5 6 
#
# 1 0.027747 -0.000159 -0.000969 0.000000 0.000630 0.000000
# 2 -0.000159 0.034746 -0.005101 0.000000 0.026138 0.000000
# 3 -0.000969 -0.005101 0.010220 0.000000 0.000752 0.000000
# 4 0.000000 0.000000 0.000000 0.023773 0.000000 -0.009791
# 5 0.000630 0.026138 0.000752 0.000000 0.090823 0.000000
# 6 0.000000 0.000000 0.000000 -0.009791 0.000000 0.036741
#
#
# Mechanical properties :
#
#
# Convention : Reuss Voigt Hill
#
# Bulk Modulus (GPa) = 16.59622 26.68740 21.64181
# Shear Modulus (GPa) = 19.48607 29.12185 24.30396
#
# Velocity S-wave (km/s) = 2.96224 3.62133 3.30824
# Velocity P-wave (km/s) = 4.37874 5.43168 4.93338
#
# Compressibility (1/GPa) = 0.06025470
#
# Stress axis : x y z
#
# Youngs Moduli (GPa) = 36.03953 28.78035 97.84707
#
# Poissons Ratio (x) = 0.00458 0.09479
# Poissons Ratio (y) = 0.00573 0.49916
# Poissons Ratio (z) = 0.03492 0.14682
#
# Static dielectric constant tensor:
#      x y z
#    x 1.841660 0.000000 -0.014630 
#    y 0.000000 1.783430 0.000000 
#    z -0.014630 0.000000 1.795460 
# 
# From -- ./inp_files/39959.got.cif
#   From: 2010.05.17/outbox.cif.g08.bks.cpg/sg11_20_cif.got.tgz:39959.got - 2010.06.03 12:22:45.
