data_PCOD9164363
_publ_section_title
;
Structure prediction by ZEFSAII (Michael W. Deem and Ramdas Pophale) SiO2 
 PCOD9164363
Probable space group: P 21/M
;
_chemical_formula_sum "Si O2"
_cell_formula_units_Z 30
_cell_length_a 9.700122
_cell_length_b 14.182060
_cell_length_c 9.320465
_cell_angle_alpha 90.000000
_cell_angle_beta 73.245819
_cell_angle_gamma 90.000000
_cell_volume 1227.766288
_symmetry_space_group_name_H-M "P 21/M"
_symmetry_group_IT_number 11
_symmetry_cell_setting 'monoclinic'
loop_
_space_group_symop_operation_xyz
x,y,z
-x,1/2+y,-z
-x,-y,-z
x,1/2-y,z
loop_
_atom_site_type_symbol
_atom_site_label
_atom_site_fract_x
_atom_site_fract_y
_atom_site_fract_z
Si Si1 0.218001 0.857161 0.490614
Si Si2 0.358013 0.506176 0.859736
Si Si3 0.985354 0.250000 0.926726
Si Si4 0.385283 0.137143 0.113054
Si Si5 0.947003 0.079431 0.711668
Si Si6 0.062708 0.592103 0.825766
Si Si7 0.797232 0.642550 0.554457
Si Si8 0.542783 0.858557 0.405908
O O1 0.209072 0.750000 0.442099
O O2 0.111576 0.867856 0.655900
O O3 0.378379 0.872631 0.500155
O O4 0.187099 0.916448 0.356520
O O5 0.466716 0.591284 0.868662
O O6 0.207231 0.549400 0.854448
O O7 0.419590 0.440104 0.715620
O O8 0.349021 0.430835 0.991716
O O9 0.961893 0.168600 0.810098
O O10 0.999877 0.168293 0.048013
O O11 0.403067 0.250000 0.075894
O O12 0.259653 0.128943 0.268856
O O13 0.082993 0.080874 0.560733
O O14 0.958919 0.992012 0.812998
O O15 0.852063 0.750000 0.528030
O O16 0.653913 0.635454 0.501664
O O17 0.556594 0.750000 0.343396
#
# Coordination Sequence:
#
# PCOD9164363 Si02
#       8
#     4   4   2   4   4   4   4   4
#     4  11  24  48  76 114 152 200 250 305 375 445
#     4  11  24  45  72 111 150 197 248 299 387 442
#     4  12  28  52  74 106 154 196 252 312 388 456
#     4  10  24  43  67 109 153 194 245 317 374 443
#     4  12  25  50  77 110 147 201 253 311 375 447
#     4  12  27  49  78 110 146 202 253 310 375 460
#     4  10  20  43  73 105 143 192 249 309 368 434
#     4  10  22  41  75 109 151 194 242 306 368 447
#
# _framework density 24.434619000000001
#
# number of rings (size 3 to 8) (size 9 to 14) (size 15 to 20)
#    0.000    1.067    3.333    2.000    2.800    4.267 
#    6.000    0.000    0.000    0.000    0.000    0.000 
#    0.000    0.000    0.000    0.000    0.000    0.000 
#
# Total GULP energy -167605.329300 kJ/mol
# GULP energy per Si atom -5586.844310 kJ/mol
# Density = 2.437900 g / cm^3
# Si number density = 24.434619 Si / 1000 Ang^3
#
#
#
# Elastic Constant Matrix: (Units=GPa)
#
#
# Indices 1 2 3 4 5 6 
#
# 1 93.9278 45.1827 8.6905 0.0000 16.0247 0.0000
# 2 45.1827 165.7573 42.7404 0.0000 12.6215 0.0000
# 3 8.6905 42.7404 93.0433 0.0000 13.9565 0.0000
# 4 0.0000 0.0000 0.0000 43.6138 0.0000 18.0282
# 5 16.0247 12.6215 13.9565 0.0000 29.8753 0.0000
# 6 0.0000 0.0000 0.0000 18.0282 0.0000 12.8658
#
#
#
# Elastic Compliance Matrix: (Units=1/GPa)
#
#
# Indices 1 2 3 4 5 6 
#
# 1 0.013264 -0.003473 0.001294 0.000000 -0.006252 0.000000
# 2 -0.003473 0.007819 -0.003281 0.000000 0.000093 0.000000
# 3 0.001294 -0.003281 0.012937 0.000000 -0.005352 0.000000
# 4 0.000000 0.000000 0.000000 0.054490 0.000000 -0.076354
# 5 -0.006252 0.000093 -0.005352 0.000000 0.039287 0.000000
# 6 0.000000 0.000000 0.000000 -0.076354 0.000000 0.184717
#
#
# Mechanical properties :
#
#
# Convention : Reuss Voigt Hill
#
# Bulk Modulus (GPa) = 43.29081 60.66172 51.97627
# Shear Modulus (GPa) = 15.09967 34.34532 24.72249
#
# Velocity S-wave (km/s) = 2.48858 3.75320 3.18430
# Velocity P-wave (km/s) = 5.10028 6.60773 5.90233
#
# Compressibility (1/GPa) = 0.02309959
#
# Stress axis : x y z
#
# Youngs Moduli (GPa) = 75.39130 127.89953 77.29941
#
# Poissons Ratio (x) = 0.44423 -0.10006
# Poissons Ratio (y) = 0.26186 0.25362
# Poissons Ratio (z) = -0.09759 0.41964
#
# Static dielectric constant tensor:
#      x y z
#    x 1.944320 0.000000 -0.002220 
#    y 0.000000 1.961970 0.000000 
#    z -0.002220 0.000000 1.896460 
# 
# From -- ./inp_files/18009.got.cif
#   From: 2010.05.17/outbox.cif.g08.bks.cpg/sg11_10_cif.got.tgz:18009.got - 2010.06.03 12:22:45.
