data_PCOD9164106
_publ_section_title
;
Structure prediction by ZEFSAII (Michael W. Deem and Ramdas Pophale) SiO2 
 PCOD9164106
Probable space group: P 21/M
;
_chemical_formula_sum "Si O2"
_cell_formula_units_Z 32
_cell_length_a 15.364981
_cell_length_b 7.577987
_cell_length_c 26.804563
_cell_angle_alpha 90.000000
_cell_angle_beta 26.933381
_cell_angle_gamma 90.000000
_cell_volume 1413.672816
_symmetry_space_group_name_H-M "P 21/M"
_symmetry_group_IT_number 11
_symmetry_cell_setting 'monoclinic'
loop_
_space_group_symop_operation_xyz
x,y,z
-x,1/2+y,-z
-x,-y,-z
x,1/2-y,z
loop_
_atom_site_type_symbol
_atom_site_label
_atom_site_fract_x
_atom_site_fract_y
_atom_site_fract_z
Si Si1 0.645174 0.540099 0.470518
Si Si2 0.034478 0.961837 0.424883
Si Si3 0.088743 0.455534 0.236962
Si Si4 0.657850 0.049176 0.802145
Si Si5 0.927013 0.958133 0.960407
Si Si6 0.748263 0.533153 0.951574
Si Si7 0.702487 0.463448 0.168435
Si Si8 0.632153 0.965572 0.588311
O O1 0.500000 0.500000 0.500000
O O2 0.663806 0.750000 0.463956
O O3 0.576642 0.479375 0.560591
O O4 0.859181 0.469446 0.351838
O O5 0.041245 0.750000 0.415257
O O6 0.847978 0.025466 0.489955
O O7 0.233445 0.033637 0.300646
O O8 0.000000 0.000000 0.500000
O O9 0.140184 0.250000 0.216264
O O10 0.180356 0.550294 0.237572
O O11 0.181519 0.524779 0.138356
O O12 0.604696 0.250000 0.815702
O O13 0.465000 0.972359 0.924359
O O14 0.960819 0.750000 0.937935
O O15 0.113398 0.029896 0.893725
O O16 0.885136 0.026241 0.926775
O O17 0.744610 0.982084 0.090199
O O18 0.751106 0.750000 0.948607
O O19 0.702960 0.250000 0.168296
O O20 0.512790 0.524015 0.294164
O O21 0.629919 0.750000 0.590659
#
# Coordination Sequence:
#
# PCOD9164106 Si02
#       8
#     4   4   4   4   4   4   4   4
#     4  11  23  41  63  88 119 156 195 238 289 346
#     4  10  21  37  57  83 113 150 191 234 289 347
#     4  11  22  38  60  86 114 148 193 239 286 343
#     4  10  20  39  60  80 114 153 190 236 292 346
#     4   9  18  34  54  78 107 142 182 226 277 336
#     4   9  20  35  57  84 110 147 192 234 285 345
#     4   9  18  33  55  77 105 142 181 224 276 333
#     4   9  19  37  59  81 110 150 187 227 287 349
#
# _framework density 22.636073
#
# number of rings (size 3 to 8) (size 9 to 14) (size 15 to 20)
#    0.000    2.250    1.250    1.125    3.500    0.500 
#    0.000    3.750    0.000    0.000    0.000    0.000 
#    0.000    0.000    0.000    0.000    0.000    0.000 
#
# Total GULP energy -178763.914674 kJ/mol
# GULP energy per Si atom -5586.372334 kJ/mol
# Density = 2.258455 g / cm^3
# Si number density = 22.636073 Si / 1000 Ang^3
#
#
#
# Elastic Constant Matrix: (Units=GPa)
#
#
# Indices 1 2 3 4 5 6 
#
# 1 46.0413 -7.0047 -17.9523 0.0000 18.4336 0.0000
# 2 -7.0047 57.0753 -5.9631 0.0000 0.5681 0.0000
# 3 -17.9523 -5.9631 84.8831 0.0000 20.8581 0.0000
# 4 0.0000 0.0000 0.0000 17.0106 0.0000 3.8443
# 5 18.4336 0.5681 20.8581 0.0000 38.0395 0.0000
# 6 0.0000 0.0000 0.0000 3.8443 0.0000 13.2214
#
#
#
# Elastic Compliance Matrix: (Units=1/GPa)
#
#
# Indices 1 2 3 4 5 6 
#
# 1 0.040434 0.006922 0.016039 0.000000 -0.028492 0.000000
# 2 0.006922 0.018874 0.004257 0.000000 -0.005970 0.000000
# 3 0.016039 0.004257 0.020107 0.000000 -0.018861 0.000000
# 4 0.000000 0.000000 0.000000 0.062921 0.000000 -0.018295
# 5 -0.028492 -0.005970 -0.018861 0.000000 0.050527 0.000000
# 6 0.000000 0.000000 0.000000 -0.018295 0.000000 0.080955
#
#
# Mechanical properties :
#
#
# Convention : Reuss Voigt Hill
#
# Bulk Modulus (GPa) = 7.47103 14.01772 10.74437
# Shear Modulus (GPa) = 18.93946 28.24895 23.59421
#
# Velocity S-wave (km/s) = 2.89570 3.53648 3.23201
# Velocity P-wave (km/s) = 3.80628 4.78348 4.32259
#
# Compressibility (1/GPa) = 0.13385040
#
# Stress axis : x y z
#
# Youngs Moduli (GPa) = 24.73175 52.98181 49.73438
#
# Poissons Ratio (x) = -0.36673 -0.79769
# Poissons Ratio (y) = -0.17119 -0.21172
# Poissons Ratio (z) = -0.39667 -0.22554
#
# Static dielectric constant tensor:
#      x y z
#    x 1.936140 0.000000 0.003450 
#    y 0.000000 1.862090 0.000000 
#    z 0.003450 0.000000 1.841080 
# 
# From -- ./inp_files/51730.got.cif
#   From: 2010.05.17/outbox.cif.g08.bks.cpg/sg11_26_cif.got.tgz:51730.got - 2010.06.03 12:22:45.
