data_PCOD9164542
_publ_section_title
;
Structure prediction by ZEFSAII (Michael W. Deem and Ramdas Pophale) SiO2 
 PCOD9164542
Probable space group: P 21/M
;
_chemical_formula_sum "Si O2"
_cell_formula_units_Z 32
_cell_length_a 18.338127
_cell_length_b 13.921772
_cell_length_c 12.109332
_cell_angle_alpha 90.000000
_cell_angle_beta 29.903743
_cell_angle_gamma 90.000000
_cell_volume 1541.251444
_symmetry_space_group_name_H-M "P 21/M"
_symmetry_group_IT_number 11
_symmetry_cell_setting 'monoclinic'
loop_
_space_group_symop_operation_xyz
x,y,z
-x,1/2+y,-z
-x,-y,-z
x,1/2-y,z
loop_
_atom_site_type_symbol
_atom_site_label
_atom_site_fract_x
_atom_site_fract_y
_atom_site_fract_z
Si Si1 0.979469 0.362211 0.375185
Si Si2 0.561186 0.529268 0.038268
Si Si3 0.866606 0.636020 0.598213
Si Si4 0.730157 0.136527 0.550985
Si Si5 0.074440 0.951549 0.148046
Si Si6 0.492188 0.358542 0.562836
Si Si7 0.166485 0.861542 0.810974
Si Si8 0.393774 0.555582 0.798483
O O1 0.008736 0.250000 0.313526
O O2 0.021917 0.380709 0.445813
O O3 0.069970 0.435844 0.181970
O O4 0.811672 0.382145 0.559739
O O5 0.431277 0.597900 0.249829
O O6 0.572643 0.447043 0.116145
O O7 0.500000 0.500000 0.000000
O O8 0.715522 0.582805 0.824350
O O9 0.842102 0.750000 0.621370
O O10 0.941288 0.595411 0.390025
O O11 0.723194 0.250000 0.546476
O O12 0.831136 0.101146 0.317461
O O13 0.079412 0.923360 0.013957
O O14 0.227279 0.912497 0.997412
O O15 0.437984 0.250000 0.653998
O O16 0.661860 0.362916 0.379162
O O17 0.410300 0.445471 0.731678
O O18 0.501457 0.383681 0.419903
O O19 0.117962 0.750000 0.879140
#
# Coordination Sequence:
#
# PCOD9164542 Si02
#       8
#     4   4   4   4   4   4   4   4
#     4  10  22  38  59  87 122 166 209 254 306 366
#     4  12  24  39  63  90 125 166 208 258 316 367
#     4  11  24  42  64  89 123 169 213 253 306 372
#     4  10  21  39  61  87 118 154 207 259 307 364
#     4  11  21  37  61  88 124 159 206 257 308 371
#     4   9  18  36  60  89 123 160 202 258 316 369
#     4   9  18  34  60  89 117 156 203 255 315 373
#     4  10  21  35  60  93 123 158 210 255 307 378
#
# _framework density 20.762349
#
# number of rings (size 3 to 8) (size 9 to 14) (size 15 to 20)
#    0.000    1.750    2.500    1.875    1.750    2.000 
#    0.000    1.250    0.000    0.000    0.000    0.000 
#    0.000    0.000    0.000    0.000    0.000    0.000 
#
# Total GULP energy -178622.111784 kJ/mol
# GULP energy per Si atom -5581.940993 kJ/mol
# Density = 2.071509 g / cm^3
# Si number density = 20.762349 Si / 1000 Ang^3
#
#
#
# Elastic Constant Matrix: (Units=GPa)
#
#
# Indices 1 2 3 4 5 6 
#
# 1 93.0742 -1.9197 27.2925 0.0000 10.1351 0.0000
# 2 -1.9197 57.5611 10.2662 0.0000 11.4066 0.0000
# 3 27.2925 10.2662 78.1297 0.0000 11.7992 0.0000
# 4 0.0000 0.0000 0.0000 23.7875 0.0000 1.2281
# 5 10.1351 11.4066 11.7992 0.0000 30.6436 0.0000
# 6 0.0000 0.0000 0.0000 1.2281 0.0000 23.0413
#
#
#
# Elastic Compliance Matrix: (Units=1/GPa)
#
#
# Indices 1 2 3 4 5 6 
#
# 1 0.012314 0.001762 -0.004055 0.000000 -0.003167 0.000000
# 2 0.001762 0.019175 -0.002091 0.000000 -0.006915 0.000000
# 3 -0.004055 -0.002091 0.015045 0.000000 -0.003674 0.000000
# 4 0.000000 0.000000 0.000000 0.042155 0.000000 -0.002247
# 5 -0.003167 -0.006915 -0.003674 0.000000 0.037669 0.000000
# 6 0.000000 0.000000 0.000000 -0.002247 0.000000 0.043520
#
#
# Mechanical properties :
#
#
# Convention : Reuss Voigt Hill
#
# Bulk Modulus (GPa) = 26.47839 33.33810 29.90824
# Shear Modulus (GPa) = 26.14579 28.36955 27.25767
#
# Velocity S-wave (km/s) = 3.55250 3.70049 3.62725
# Velocity P-wave (km/s) = 5.44130 5.86089 5.65499
#
# Compressibility (1/GPa) = 0.03776665
#
# Stress axis : x y z
#
# Youngs Moduli (GPa) = 81.20600 52.15176 66.46640
#
# Poissons Ratio (x) = -0.09187 0.26951
# Poissons Ratio (y) = -0.14305 0.13895
# Poissons Ratio (z) = 0.32928 0.10903
#
# Static dielectric constant tensor:
#      x y z
#    x 1.781470 0.000000 0.021590 
#    y 0.000000 1.751960 0.000000 
#    z 0.021590 0.000000 1.742090 
# 
# From -- ./inp_files/41621.got.cif
#   From: 2010.05.17/outbox.cif.g08.bks.cpg/sg11_21_cif.got.tgz:41621.got - 2010.06.03 12:22:45.
