data_PCOD9164081
_publ_section_title
;
Structure prediction by ZEFSAII (Michael W. Deem and Ramdas Pophale) SiO2 
 PCOD9164081
Probable space group: P 21/M
;
_chemical_formula_sum "Si O2"
_cell_formula_units_Z 32
_cell_length_a 8.449211
_cell_length_b 14.056793
_cell_length_c 22.117648
_cell_angle_alpha 90.000000
_cell_angle_beta 32.745302
_cell_angle_gamma 90.000000
_cell_volume 1420.897503
_symmetry_space_group_name_H-M "P 21/M"
_symmetry_group_IT_number 11
_symmetry_cell_setting 'monoclinic'
loop_
_space_group_symop_operation_xyz
x,y,z
-x,1/2+y,-z
-x,-y,-z
x,1/2-y,z
loop_
_atom_site_type_symbol
_atom_site_label
_atom_site_fract_x
_atom_site_fract_y
_atom_site_fract_z
Si Si1 0.581271 0.858794 0.992080
Si Si2 0.656110 0.059915 0.634395
Si Si3 0.303172 0.553243 0.192469
Si Si4 0.178409 0.146989 0.413252
Si Si5 0.409531 0.640691 0.906598
Si Si6 0.247256 0.139447 0.863086
Si Si7 0.837639 0.354489 0.249917
Si Si8 0.324645 0.020999 0.616572
O O1 0.556371 0.750000 0.023121
O O2 0.467914 0.857922 0.959866
O O3 0.925963 0.883919 0.876244
O O4 0.402643 0.929215 0.091498
O O5 0.374153 0.085361 0.764285
O O6 0.533360 0.052920 0.604773
O O7 0.919015 0.135996 0.546092
O O8 0.802477 0.963353 0.614855
O O9 0.393305 0.445084 0.182095
O O10 0.507535 0.621287 0.165861
O O11 0.963764 0.580980 0.306390
O O12 0.127580 0.250000 0.397881
O O13 0.508962 0.152185 0.331720
O O14 0.451770 0.750000 0.870177
O O15 0.069751 0.612001 0.009586
O O16 0.220943 0.250000 0.855352
O O17 0.934314 0.250000 0.239139
O O18 0.825645 0.426364 0.308375
O O19 0.500000 0.000000 0.500000
#
# Coordination Sequence:
#
# PCOD9164081 Si02
#       8
#     4   4   4   4   4   4   4   4
#     4  10  20  38  66  99 129 167 216 268 326 396
#     4  10  22  41  67  88 128 178 217 264 330 387
#     4  12  24  39  67  96 131 171 218 270 333 382
#     4   9  19  36  62  93 121 163 219 262 307 378
#     4  10  22  41  64  92 129 169 213 264 325 393
#     4  11  25  43  63  93 132 173 216 268 327 396
#     4   9  19  38  65  94 127 167 213 267 326 388
#     4  11  25  42  64  96 131 165 219 273 326 390
#
# _framework density 22.520976999999998
#
# number of rings (size 3 to 8) (size 9 to 14) (size 15 to 20)
#    0.000    1.750    1.250    2.250    8.750    0.000 
#    0.000    4.375    0.000    0.000    0.000    0.000 
#    0.000    0.000    0.000    0.000    0.000    0.000 
#
# Total GULP energy -178411.280814 kJ/mol
# GULP energy per Si atom -5575.352525 kJ/mol
# Density = 2.246972 g / cm^3
# Si number density = 22.520977 Si / 1000 Ang^3
#
#
#
# Elastic Constant Matrix: (Units=GPa)
#
#
# Indices 1 2 3 4 5 6 
#
# 1 59.7441 -11.0801 29.0183 0.0000 -12.9381 0.0000
# 2 -11.0801 79.3733 12.9317 0.0000 -4.7629 0.0000
# 3 29.0183 12.9317 91.5621 0.0000 -29.4107 0.0000
# 4 0.0000 0.0000 0.0000 23.1803 0.0000 -5.7172
# 5 -12.9381 -4.7629 -29.4107 0.0000 39.3289 0.0000
# 6 0.0000 0.0000 0.0000 -5.7172 0.0000 18.9609
#
#
#
# Elastic Compliance Matrix: (Units=1/GPa)
#
#
# Indices 1 2 3 4 5 6 
#
# 1 0.021227 0.004176 -0.006464 0.000000 0.002655 0.000000
# 2 0.004176 0.013719 -0.003009 0.000000 0.000785 0.000000
# 3 -0.006464 -0.003009 0.016577 0.000000 0.009906 0.000000
# 4 0.000000 0.000000 0.000000 0.046606 0.000000 0.014053
# 5 0.002655 0.000785 0.009906 0.000000 0.033802 0.000000
# 6 0.000000 0.000000 0.000000 0.014053 0.000000 0.056978
#
#
# Mechanical properties :
#
#
# Convention : Reuss Voigt Hill
#
# Bulk Modulus (GPa) = 24.43314 32.49103 28.46209
# Shear Modulus (GPa) = 23.45797 29.61465 26.53631
#
# Velocity S-wave (km/s) = 3.23089 3.63020 3.43635
# Velocity P-wave (km/s) = 4.97904 5.65946 5.33012
#
# Compressibility (1/GPa) = 0.04092801
#
# Stress axis : x y z
#
# Youngs Moduli (GPa) = 47.10938 72.89211 60.32460
#
# Poissons Ratio (x) = -0.30438 0.38997
# Poissons Ratio (y) = -0.19671 0.18150
# Poissons Ratio (z) = 0.30454 0.21932
#
# Static dielectric constant tensor:
#      x y z
#    x 1.909180 0.000000 0.014290 
#    y 0.000000 1.959880 0.000000 
#    z 0.014290 0.000000 1.873690 
# 
# From -- ./inp_files/68124.got.cif
#   From: 2010.05.17/outbox.cif.g08.bks.cpg/sg11_35_cif.got.tgz:68124.got - 2010.06.03 12:22:45.
