data_PCOD9164210
_publ_section_title
;
Structure prediction by ZEFSAII (Michael W. Deem and Ramdas Pophale) SiO2 
 PCOD9164210
Probable space group: P 21/M
;
_chemical_formula_sum "Si O2"
_cell_formula_units_Z 30
_cell_length_a 17.700805
_cell_length_b 15.015543
_cell_length_c 11.953671
_cell_angle_alpha 90.000000
_cell_angle_beta 155.651800
_cell_angle_gamma 90.000000
_cell_volume 1309.871235
_symmetry_space_group_name_H-M "P 21/M"
_symmetry_group_IT_number 11
_symmetry_cell_setting 'monoclinic'
loop_
_space_group_symop_operation_xyz
x,y,z
-x,1/2+y,-z
-x,-y,-z
x,1/2-y,z
loop_
_atom_site_type_symbol
_atom_site_label
_atom_site_fract_x
_atom_site_fract_y
_atom_site_fract_z
Si Si1 0.222801 0.461432 0.838974
Si Si2 0.371962 0.540161 0.613510
Si Si3 0.991674 0.350282 0.867053
Si Si4 0.962252 0.153388 0.096235
Si Si5 0.301909 0.403327 0.704394
Si Si6 0.293242 0.489306 0.262684
Si Si7 0.884574 0.150055 0.361751
Si Si8 0.411237 0.750000 0.895512
O O1 0.216893 0.451234 0.696321
O O2 0.189617 0.567283 0.815121
O O3 0.063333 0.393861 0.659552
O O4 0.424553 0.429191 0.145614
O O5 0.210699 0.608901 0.426216
O O6 0.395465 0.473626 0.747895
O O7 0.299572 0.489931 0.406079
O O8 0.994044 0.250000 0.827274
O O9 0.006547 0.348823 0.023085
O O10 0.162514 0.407372 0.053381
O O11 0.880944 0.250000 0.010541
O O12 0.142288 0.139032 0.412681
O O13 0.819375 0.075924 0.925090
O O14 0.439019 0.328101 0.931522
O O15 0.500000 0.500000 0.500000
O O16 0.925915 0.250000 0.366236
O O17 0.728685 0.174031 0.240191
#
# Coordination Sequence:
#
# PCOD9164210 Si02
#       8
#     4   4   4   4   4   4   4   2
#     4  11  24  39  66  93 130 176 214 257 318 394
#     4  11  21  42  63  90 125 167 210 261 310 371
#     4  10  21  41  65  90 121 162 210 262 315 369
#     4  10  20  39  66  90 118 156 210 273 313 361
#     4  12  21  38  67  97 121 165 222 262 312 375
#     4  11  23  40  64  90 127 165 204 262 325 380
#     4   9  22  43  56  85 134 172 207 264 320 365
#     4  10  22  38  62  92 124 168 214 272 310 364
#
# _framework density 22.903013999999999
#
# number of rings (size 3 to 8) (size 9 to 14) (size 15 to 20)
#    0.400    1.067    4.667    1.200    0.933    3.200 
#    0.000    0.667    0.000    0.000    0.000    0.000 
#    0.000    0.000    0.000    0.000    0.000    0.000 
#
# Total GULP energy -167044.003326 kJ/mol
# GULP energy per Si atom -5568.133444 kJ/mol
# Density = 2.285089 g / cm^3
# Si number density = 22.903014 Si / 1000 Ang^3
#
#
#
# Elastic Constant Matrix: (Units=GPa)
#
#
# Indices 1 2 3 4 5 6 
#
# 1 53.4636 24.8469 8.8338 0.0000 -4.9584 0.0000
# 2 24.8469 180.0908 56.6055 0.0000 35.0812 0.0000
# 3 8.8338 56.6055 119.6929 0.0000 34.3623 0.0000
# 4 0.0000 0.0000 0.0000 22.6748 0.0000 10.1511
# 5 -4.9584 35.0812 34.3623 0.0000 47.5927 0.0000
# 6 0.0000 0.0000 0.0000 10.1511 0.0000 11.4860
#
#
#
# Elastic Compliance Matrix: (Units=1/GPa)
#
#
# Indices 1 2 3 4 5 6 
#
# 1 0.021194 -0.003595 -0.001588 0.000000 0.006004 0.000000
# 2 -0.003595 0.007558 -0.002021 0.000000 -0.004486 0.000000
# 3 -0.001588 -0.002021 0.011413 0.000000 -0.006916 0.000000
# 4 0.000000 0.000000 0.000000 0.072974 0.000000 -0.064494
# 5 0.006004 -0.004486 -0.006916 0.000000 0.029938 0.000000
# 6 0.000000 0.000000 0.000000 -0.064494 0.000000 0.144061
#
#
# Mechanical properties :
#
#
# Convention : Reuss Voigt Hill
#
# Bulk Modulus (GPa) = 38.82290 59.31328 49.06809
# Shear Modulus (GPa) = 16.12217 33.88142 25.00180
#
# Velocity S-wave (km/s) = 2.65605 3.85040 3.30758
# Velocity P-wave (km/s) = 5.13750 6.76175 6.00480
#
# Compressibility (1/GPa) = 0.02575799
#
# Stress axis : x y z
#
# Youngs Moduli (GPa) = 47.18285 132.31248 87.61744
#
# Poissons Ratio (x) = 0.47561 0.13914
# Poissons Ratio (y) = 0.16960 0.17708
# Poissons Ratio (z) = 0.07493 0.26741
#
# Static dielectric constant tensor:
#      x y z
#    x 1.878620 0.000000 -0.019790 
#    y 0.000000 2.019340 0.000000 
#    z -0.019790 0.000000 1.880930 
# 
# From -- ./inp_files/47582.got.cif
#   From: 2010.05.17/outbox.cif.g08.bks.cpg/sg11_24_cif.got.tgz:47582.got - 2010.06.03 12:22:45.
