data_PCOD9164071
_publ_section_title
;
Structure prediction by ZEFSAII (Michael W. Deem and Ramdas Pophale) SiO2 
 PCOD9164071
Probable space group: P 21/M
;
_chemical_formula_sum "Si O2"
_cell_formula_units_Z 20
_cell_length_a 17.018081
_cell_length_b 10.881465
_cell_length_c 12.343593
_cell_angle_alpha 90.000000
_cell_angle_beta 159.694915
_cell_angle_gamma 90.000000
_cell_volume 793.218187
_symmetry_space_group_name_H-M "P 21/M"
_symmetry_group_IT_number 11
_symmetry_cell_setting 'monoclinic'
loop_
_space_group_symop_operation_xyz
x,y,z
-x,1/2+y,-z
-x,-y,-z
x,1/2-y,z
loop_
_atom_site_type_symbol
_atom_site_label
_atom_site_fract_x
_atom_site_fract_y
_atom_site_fract_z
Si Si1 0.578322 0.250000 0.481538
Si Si2 0.647677 0.750000 0.574538
Si Si3 0.257021 0.250000 0.617025
Si Si4 0.250269 0.501870 0.232112
Si Si5 0.826793 0.008556 0.525361
Si Si6 0.811435 0.250000 0.151206
Si Si7 0.000000 0.000000 0.500000
Si Si8 0.465770 0.750000 0.808935
O O1 0.426549 0.250000 0.393415
O O2 0.733242 0.370577 0.683284
O O3 0.436234 0.250000 0.186356
O O4 0.430787 0.750000 0.218053
O O5 0.769066 0.880500 0.719616
O O6 0.314663 0.381750 0.642133
O O7 0.985641 0.250000 0.274622
O O8 0.500000 0.500000 0.500000
O O9 0.054148 0.496178 0.890423
O O10 0.681193 0.127878 0.365738
O O11 0.898359 0.012783 0.492459
O O12 0.345470 0.250000 0.854918
O O13 0.866314 0.371962 0.289764
#
# Coordination Sequence:
#
# PCOD9164071 Si02
#       8
#     2   2   2   4   4   2   2   2
#     4  10  22  39  61  89 127 168 202 243 310 365
#     4  10  21  39  64  96 126 156 206 263 308 358
#     4  10  22  41  59  79 123 169 198 242 299 361
#     4  10  20  39  66  92 122 159 205 260 310 360
#     4  11  23  41  64  91 122 160 207 256 306 366
#     4  10  21  37  62  92 123 162 203 253 309 359
#     4  10  20  38  66  92 120 154 204 262 312 354
#     4  12  26  40  58  90 127 165 207 247 300 373
#
# _framework density 25.213744999999999
#
# number of rings (size 3 to 8) (size 9 to 14) (size 15 to 20)
#    0.000    1.600    0.000    7.200    0.000   10.400 
#    0.000    3.000    0.000    0.000    0.000    0.000 
#    0.000    0.000    0.000    0.000    0.000    0.000 
#
# Total GULP energy -111500.526261 kJ/mol
# GULP energy per Si atom -5575.026313 kJ/mol
# Density = 2.515636 g / cm^3
# Si number density = 25.213745 Si / 1000 Ang^3
#
#
#
# Elastic Constant Matrix: (Units=GPa)
#
#
# Indices 1 2 3 4 5 6 
#
# 1 136.3676 28.5800 31.3438 0.0000 -14.6061 0.0000
# 2 28.5800 233.2914 46.1893 0.0000 -27.0729 0.0000
# 3 31.3438 46.1893 110.8117 0.0000 -17.1244 0.0000
# 4 0.0000 0.0000 0.0000 22.2889 0.0000 -20.2663
# 5 -14.6061 -27.0729 -17.1244 0.0000 36.4849 0.0000
# 6 0.0000 0.0000 0.0000 -20.2663 0.0000 -6.4543
#
#
#
# Elastic Compliance Matrix: (Units=1/GPa)
#
#
# Indices 1 2 3 4 5 6 
#
# 1 0.008051 -0.000389 -0.001792 0.000000 0.002094 0.000000
# 2 -0.000389 0.004962 -0.001524 0.000000 0.002811 0.000000
# 3 -0.001792 -0.001524 0.010653 0.000000 0.003152 0.000000
# 4 0.000000 0.000000 0.000000 0.011638 0.000000 -0.036543
# 5 0.002094 0.002811 0.003152 0.000000 0.031812 0.000000
# 6 0.000000 0.000000 0.000000 -0.036543 0.000000 -0.040190
#
#
# Mechanical properties :
#
#
# Convention : Reuss Voigt Hill
#
# Bulk Modulus (GPa) = 61.50929 76.96632 69.23781
# Shear Modulus (GPa) = 125.77435 35.42108 80.59771
#
# Velocity S-wave (km/s) = 7.07047 3.75218 5.65996
# Velocity P-wave (km/s) = 9.54481 7.02592 8.38054
#
# Compressibility (1/GPa) = 0.01625771
#
# Stress axis : x y z
#
# Youngs Moduli (GPa) = 124.21415 201.52985 93.86626
#
# Poissons Ratio (x) = 0.07831 0.16818
# Poissons Ratio (y) = 0.04827 0.14305
# Poissons Ratio (z) = 0.22255 0.30713
#
# Static dielectric constant tensor:
#      x y z
#    x 1.987610 0.000000 0.031300 
#    y 0.000000 2.137830 0.000000 
#    z 0.031300 0.000000 1.944980 
# 
# From -- ./inp_files/39300.got.cif
#   From: 2010.05.17/outbox.cif.g08.bks.cpg/sg11_20_cif.got.tgz:39300.got - 2010.06.03 12:22:45.
