data_PCOD9164196
_publ_section_title
;
Structure prediction by ZEFSAII (Michael W. Deem and Ramdas Pophale) SiO2 
 PCOD9164196
Probable space group: P 21/M
;
_chemical_formula_sum "Si O2"
_cell_formula_units_Z 32
_cell_length_a 14.554724
_cell_length_b 16.951479
_cell_length_c 12.191306
_cell_angle_alpha 90.000000
_cell_angle_beta 146.889918
_cell_angle_gamma 90.000000
_cell_volume 1643.057433
_symmetry_space_group_name_H-M "P 21/M"
_symmetry_group_IT_number 11
_symmetry_cell_setting 'monoclinic'
loop_
_space_group_symop_operation_xyz
x,y,z
-x,1/2+y,-z
-x,-y,-z
x,1/2-y,z
loop_
_atom_site_type_symbol
_atom_site_label
_atom_site_fract_x
_atom_site_fract_y
_atom_site_fract_z
Si Si1 0.127091 0.654414 0.641043
Si Si2 0.003183 0.154416 0.253190
Si Si3 0.196059 0.154807 0.821104
Si Si4 0.490974 0.593192 0.005125
Si Si5 0.400728 0.154785 0.650733
Si Si6 0.872907 0.154414 0.886873
Si Si7 0.803947 0.845193 0.928978
Si Si8 0.509024 0.406809 0.523188
O O1 0.131976 0.750000 0.645816
O O2 0.084098 0.627524 0.722065
O O3 0.973763 0.628632 0.410158
O O4 0.307695 0.623138 0.786232
O O5 0.993687 0.250000 0.243694
O O6 0.201407 0.135690 0.451414
O O7 0.915902 0.127523 0.053884
O O8 0.192041 0.250000 0.818577
O O9 0.358980 0.129808 0.916162
O O10 0.202487 0.126054 0.952495
O O11 0.519068 0.620360 0.158761
O O12 0.500000 0.500000 0.000000
O O13 0.419664 0.250000 0.669663
O O14 0.480932 0.120353 0.620641
O O15 0.868027 0.250000 0.881883
O O16 0.692300 0.123140 0.670851
O O17 0.026231 0.128631 0.962639
O O18 0.807973 0.750000 0.934496
O O19 0.641027 0.870189 0.698191
O O20 0.500000 0.500000 0.500000
#
# Coordination Sequence:
#
# PCOD9164196 Si02
#       8
#     4   4   4   4   4   4   4   4
#     4  10  20  39  65  92 118 161 216 265 312 377
#     4   9  17  35  67  96 117 151 215 275 313 357
#     4  10  22  42  65  89 122 167 216 261 309 378
#     4  12  26  40  62  97 136 168 206 263 332 383
#     4  11  21  43  71  94 124 171 223 269 312 379
#     4  10  20  39  65  92 118 161 216 265 312 377
#     4  10  22  42  65  89 122 167 216 261 309 378
#     4  12  26  40  62  97 136 168 206 263 332 383
#
# _framework density 19.475885999999999
#
# number of rings (size 3 to 8) (size 9 to 14) (size 15 to 20)
#    0.000    1.500    2.500    3.000    1.750    3.000 
#    0.000    2.500    0.000    0.000    0.000    0.000 
#    0.000    0.000    0.000    0.000    0.000    0.000 
#
# Total GULP energy -178870.785154 kJ/mol
# GULP energy per Si atom -5589.712036 kJ/mol
# Density = 1.943156 g / cm^3
# Si number density = 19.475886 Si / 1000 Ang^3
#
#
#
# Elastic Constant Matrix: (Units=GPa)
#
#
# Indices 1 2 3 4 5 6 
#
# 1 133.5096 29.5690 119.0938 0.0000 -8.4152 0.0000
# 2 29.5690 37.7677 26.1192 0.0000 -4.1334 0.0000
# 3 119.0938 26.1192 143.0674 0.0000 19.9359 0.0000
# 4 0.0000 0.0000 0.0000 -22.4804 0.0000 -25.7499
# 5 -8.4152 -4.1334 19.9359 0.0000 37.7397 0.0000
# 6 0.0000 0.0000 0.0000 -25.7499 0.0000 -1.0374
#
#
#
# Elastic Compliance Matrix: (Units=1/GPa)
#
#
# Indices 1 2 3 4 5 6 
#
# 1 0.061289 -0.004441 -0.056180 0.000000 0.042857 0.000000
# 2 -0.004441 0.032300 -0.002758 0.000000 0.004004 0.000000
# 3 -0.056180 -0.002758 0.060500 0.000000 -0.044788 0.000000
# 4 0.000000 0.000000 0.000000 0.001622 0.000000 -0.040251
# 5 0.042857 0.004004 -0.044788 0.000000 0.060151 0.000000
# 6 0.000000 0.000000 0.000000 -0.040251 0.000000 0.035140
#
#
# Mechanical properties :
#
#
# Convention : Reuss Voigt Hill
#
# Bulk Modulus (GPa) = 36.58803 73.76765 55.17784
# Shear Modulus (GPa) = 12.92425 12.14855 12.53640
#
# Velocity S-wave (km/s) = 2.57884 2.50026 2.53985
# Velocity P-wave (km/s) = 5.26254 6.80395 6.08227
#
# Compressibility (1/GPa) = 0.02733134
#
# Stress axis : x y z
#
# Youngs Moduli (GPa) = 16.31626 30.95949 16.52894
#
# Poissons Ratio (x) = 0.13750 0.92859
# Poissons Ratio (y) = 0.07246 0.04559
# Poissons Ratio (z) = 0.91664 0.08538
#
# Static dielectric constant tensor:
#      x y z
#    x 1.671340 0.000000 -0.005360 
#    y 0.000000 1.678670 0.000000 
#    z -0.005360 0.000000 1.666870 
# 
# From -- ./inp_files/40054.got.cif
#   From: 2010.05.17/outbox.cif.g08.bks.cpg/sg11_21_cif.got.tgz:40054.got - 2010.06.03 12:22:45.
