data_PCOD9164600
_publ_section_title
;
Structure prediction by ZEFSAII (Michael W. Deem and Ramdas Pophale) SiO2 
 PCOD9164600
Probable space group: P 21/M
;
_chemical_formula_sum "Si O2"
_cell_formula_units_Z 32
_cell_length_a 13.537223
_cell_length_b 7.706593
_cell_length_c 30.698086
_cell_angle_alpha 90.000000
_cell_angle_beta 28.119913
_cell_angle_gamma 90.000000
_cell_volume 1509.446522
_symmetry_space_group_name_H-M "P 21/M"
_symmetry_group_IT_number 11
_symmetry_cell_setting 'monoclinic'
loop_
_space_group_symop_operation_xyz
x,y,z
-x,1/2+y,-z
-x,-y,-z
x,1/2-y,z
loop_
_atom_site_type_symbol
_atom_site_label
_atom_site_fract_x
_atom_site_fract_y
_atom_site_fract_z
Si Si1 0.930200 0.959399 0.392460
Si Si2 0.762596 0.954875 0.214223
Si Si3 0.608951 0.957087 0.891015
Si Si4 0.619484 0.454884 0.785784
Si Si5 0.215297 0.040505 0.892351
Si Si6 0.500039 0.040601 0.607540
Si Si7 0.827049 0.542924 0.890988
Si Si8 0.718204 0.957651 0.390898
O O1 0.937821 0.750000 0.387025
O O2 0.886279 0.025466 0.360094
O O3 0.157626 0.025138 0.317828
O O4 0.731651 0.000003 0.499999
O O5 0.724938 0.750000 0.223521
O O6 0.785061 0.027515 0.157053
O O7 0.571054 0.025144 0.317832
O O8 0.972913 0.973315 0.161084
O O9 0.628255 0.750000 0.881069
O O10 0.781563 0.022057 0.859219
O O11 0.617239 0.026637 0.838924
O O12 0.383227 0.000048 0.000008
O O13 0.619009 0.250000 0.776500
O O14 0.413274 0.527514 0.842947
O O15 0.227802 0.250000 0.886099
O O16 0.000000 0.000000 0.000000
O O17 0.485915 0.250000 0.612979
O O18 0.326655 0.974535 0.639906
O O19 0.847643 0.750000 0.880993
O O20 0.744594 0.750000 0.377703
O O21 0.500000 0.000000 0.500000
#
# Coordination Sequence:
#
# PCOD9164600 Si02
#       8
#     4   4   4   4   4   4   4   4
#     4   9  18  32  51  76 107 144 182 223 268 320
#     4  10  21  36  57  81 109 145 186 229 276 328
#     4  10  21  36  54  80 112 143 177 222 277 336
#     4  10  21  36  57  81 109 145 186 229 276 328
#     4  10  22  40  59  82 108 140 183 232 281 328
#     4   9  18  32  51  76 107 144 182 223 268 320
#     4  10  21  36  54  80 112 143 177 222 277 336
#     4   8  14  26  44  68  97 132 173 210 253 306
#
# _framework density 21.199824
#
# number of rings (size 3 to 8) (size 9 to 14) (size 15 to 20)
#    0.000    2.500    0.000    1.500    1.750    5.500 
#    0.000    0.625    0.000    0.000    0.000    0.000 
#    0.000    0.000    0.000    0.000    0.000    0.000 
#
# Total GULP energy -178526.524107 kJ/mol
# GULP energy per Si atom -5578.953878 kJ/mol
# Density = 2.115157 g / cm^3
# Si number density = 21.199824 Si / 1000 Ang^3
#
#
#
# Elastic Constant Matrix: (Units=GPa)
#
#
# Indices 1 2 3 4 5 6 
#
# 1 161.5652 2.2768 107.5833 0.0000 2.3555 0.0000
# 2 2.2768 41.9971 -2.3413 0.0000 -0.3311 0.0000
# 3 107.5833 -2.3413 147.4147 0.0000 -3.3637 0.0000
# 4 0.0000 0.0000 0.0000 21.4043 0.0000 1.3885
# 5 2.3555 -0.3311 -3.3637 0.0000 42.9776 0.0000
# 6 0.0000 0.0000 0.0000 1.3885 0.0000 2.0925
#
#
#
# Elastic Compliance Matrix: (Units=1/GPa)
#
#
# Indices 1 2 3 4 5 6 
#
# 1 0.012177 -0.001169 -0.008936 0.000000 -0.001376 0.000000
# 2 -0.001169 0.023946 0.001241 0.000000 0.000346 0.000000
# 3 -0.008936 0.001241 0.013360 0.000000 0.001545 0.000000
# 4 0.000000 0.000000 0.000000 0.048821 0.000000 -0.032396
# 5 -0.001376 0.000346 0.001545 0.000000 0.023467 0.000000
# 6 0.000000 0.000000 0.000000 -0.032396 0.000000 0.499391
#
#
# Mechanical properties :
#
#
# Convention : Reuss Voigt Hill
#
# Bulk Modulus (GPa) = 31.49091 62.89051 47.19071
# Shear Modulus (GPa) = 7.69851 29.52542 18.61197
#
# Velocity S-wave (km/s) = 1.90769 3.73597 2.96620
# Velocity P-wave (km/s) = 4.44285 6.95269 5.83433
#
# Compressibility (1/GPa) = 0.03175519
#
# Stress axis : x y z
#
# Youngs Moduli (GPa) = 82.12463 41.75977 74.84810
#
# Poissons Ratio (x) = 0.04882 0.66888
# Poissons Ratio (y) = 0.09602 -0.09292
# Poissons Ratio (z) = 0.73390 -0.05184
#
# Static dielectric constant tensor:
#      x y z
#    x 1.792480 0.000000 -0.002090 
#    y 0.000000 1.792990 0.000000 
#    z -0.002090 0.000000 1.763310 
# 
# From -- ./inp_files/73124.got.cif
#   From: 2010.05.17/outbox.cif.g08.bks.cpg/sg11_37_cif.got.tgz:73124.got - 2010.06.03 12:22:45.
