data_PCOD9164313
_publ_section_title
;
Structure prediction by ZEFSAII (Michael W. Deem and Ramdas Pophale) SiO2 
 PCOD9164313
Probable space group: P 21/M
;
_chemical_formula_sum "Si O2"
_cell_formula_units_Z 20
_cell_length_a 10.781906
_cell_length_b 14.634987
_cell_length_c 11.404444
_cell_angle_alpha 90.000000
_cell_angle_beta 34.211216
_cell_angle_gamma 90.000000
_cell_volume 1011.784011
_symmetry_space_group_name_H-M "P 21/M"
_symmetry_group_IT_number 11
_symmetry_cell_setting 'monoclinic'
loop_
_space_group_symop_operation_xyz
x,y,z
-x,1/2+y,-z
-x,-y,-z
x,1/2-y,z
loop_
_atom_site_type_symbol
_atom_site_label
_atom_site_fract_x
_atom_site_fract_y
_atom_site_fract_z
Si Si1 0.626091 0.075816 0.549717
Si Si2 0.300129 0.750000 0.125781
Si Si3 0.921734 0.250000 0.942295
Si Si4 0.867571 0.250000 0.255867
Si Si5 0.834268 0.937666 0.207058
Si Si6 0.896668 0.401530 0.557137
Si Si7 0.810246 0.750000 0.801511
O O1 0.744097 0.162609 0.401289
O O2 0.370692 0.079864 0.718886
O O3 0.686153 0.079960 0.638590
O O4 0.736784 0.990830 0.395592
O O5 0.181558 0.839732 0.272934
O O6 0.260110 0.750000 0.017755
O O7 0.552886 0.750000 0.972110
O O8 0.061384 0.343529 0.829086
O O9 0.840186 0.250000 0.139200
O O10 0.113000 0.250000 0.121697
O O11 0.000000 0.000000 0.000000
O O12 0.000000 0.500000 0.500000
O O13 0.070968 0.338105 0.350060
#
# Coordination Sequence:
#
# PCOD9164313 Si02
#       7
#     4   2   2   2   4   4   2
#     4  10  22  40  63  92 121 163 210 249 308 371
#     4  11  25  41  61  94 126 162 206 262 314 363
#     4  12  24  39  62  91 127 159 204 262 313 355
#     4  10  20  41  64  89 121 163 204 254 307 367
#     4  11  23  39  61  96 125 159 205 259 305 368
#     4  10  22  42  64  88 125 168 205 256 313 375
#     4   9  23  41  63  92 120 158 220 248 304 385
#
# _framework density 19.767064999999999
#
# number of rings (size 3 to 8) (size 9 to 14) (size 15 to 20)
#    0.000    1.600    2.000    2.400    2.800    2.400 
#    7.200    0.000    0.000    0.000    0.000    0.000 
#    0.000    0.000    0.000    0.000    0.000    0.000 
#
# Total GULP energy -111663.401764 kJ/mol
# GULP energy per Si atom -5583.170088 kJ/mol
# Density = 1.972207 g / cm^3
# Si number density = 19.767065 Si / 1000 Ang^3
#
#
#
# Elastic Constant Matrix: (Units=GPa)
#
#
# Indices 1 2 3 4 5 6 
#
# 1 164.4623 52.8570 52.2124 0.0000 -3.7854 0.0000
# 2 52.8570 125.1690 14.4038 0.0000 -13.6899 0.0000
# 3 52.2124 14.4038 46.4804 0.0000 -14.5942 0.0000
# 4 0.0000 0.0000 0.0000 15.3774 0.0000 -3.2779
# 5 -3.7854 -13.6899 -14.5942 0.0000 34.6910 0.0000
# 6 0.0000 0.0000 0.0000 -3.2779 0.0000 28.8129
#
#
#
# Elastic Compliance Matrix: (Units=1/GPa)
#
#
# Indices 1 2 3 4 5 6 
#
# 1 0.011546 -0.003967 -0.013638 0.000000 -0.006043 0.000000
# 2 -0.003967 0.009844 0.002869 0.000000 0.004659 0.000000
# 3 -0.013638 0.002869 0.041287 0.000000 0.017013 0.000000
# 4 0.000000 0.000000 0.000000 0.066647 0.000000 0.007582
# 5 -0.006043 0.004659 0.017013 0.000000 0.037162 0.000000
# 6 0.000000 0.000000 0.000000 0.007582 0.000000 0.035569
#
#
# Mechanical properties :
#
#
# Convention : Reuss Voigt Hill
#
# Bulk Modulus (GPa) = 30.11672 63.89535 47.00604
# Shear Modulus (GPa) = 20.61036 30.21883 25.41459
#
# Velocity S-wave (km/s) = 3.23253 3.91416 3.58956
# Velocity P-wave (km/s) = 5.40381 7.26786 6.40402
#
# Compressibility (1/GPa) = 0.03320415
#
# Stress axis : x y z
#
# Youngs Moduli (GPa) = 86.60930 101.58550 24.22058
#
# Poissons Ratio (x) = 0.40302 0.33032
# Poissons Ratio (y) = 0.34361 -0.06948
# Poissons Ratio (z) = 1.18118 -0.29143
#
# Static dielectric constant tensor:
#      x y z
#    x 1.710020 0.000000 0.023620 
#    y 0.000000 1.701360 0.000000 
#    z 0.023620 0.000000 1.702630 
# 
# From -- ./inp_files/4384.got.cif
#   From: 2010.05.17/outbox.cif.g08.bks.cpg/sg11_3_cif.got.tgz:4384.got - 2010.06.03 12:22:45.
