data_PCOD9164307
_publ_section_title
;
Structure prediction by ZEFSAII (Michael W. Deem and Ramdas Pophale) SiO2 
 PCOD9164307
Probable space group: P 21/M
;
_chemical_formula_sum "Si O2"
_cell_formula_units_Z 28
_cell_length_a 17.633020
_cell_length_b 12.072237
_cell_length_c 20.190854
_cell_angle_alpha 90.000000
_cell_angle_beta 161.927216
_cell_angle_gamma 90.000000
_cell_volume 1333.354965
_symmetry_space_group_name_H-M "P 21/M"
_symmetry_group_IT_number 11
_symmetry_cell_setting 'monoclinic'
loop_
_space_group_symop_operation_xyz
x,y,z
-x,1/2+y,-z
-x,-y,-z
x,1/2-y,z
loop_
_atom_site_type_symbol
_atom_site_label
_atom_site_fract_x
_atom_site_fract_y
_atom_site_fract_z
Si Si1 0.601574 0.129675 0.767199
Si Si2 0.036944 0.130552 0.769854
Si Si3 0.549414 0.455631 0.869028
Si Si4 0.431530 0.121302 0.908753
Si Si5 0.888476 0.373868 0.493137
Si Si6 0.124233 0.065552 0.163144
Si Si7 0.398846 0.935232 0.505112
O O1 0.512267 0.250000 0.671491
O O2 0.525147 0.106228 0.779253
O O3 0.495304 0.036439 0.630613
O O4 0.897139 0.127715 0.007456
O O5 0.158836 0.250000 0.881457
O O6 0.977916 0.117954 0.643523
O O7 0.784759 0.129577 0.600507
O O8 0.211235 0.032289 0.937072
O O9 0.559093 0.382586 0.943086
O O10 0.319251 0.536524 0.689517
O O11 0.476951 0.250000 0.974591
O O12 0.137391 0.114646 0.658458
O O13 0.500000 0.000000 0.000000
O O14 0.790620 0.250000 0.400888
O O15 0.362175 0.122365 0.327822
O O16 0.239206 0.982526 0.312178
O O17 0.000000 0.000000 0.000000
#
# Coordination Sequence:
#
# PCOD9164307 Si02
#       7
#     4   4   4   4   4   4   4
#     4  11  23  38  61  91 126 170 210 252 317 383
#     4  11  22  38  64  94 122 163 213 264 322 380
#     4  12  22  41  64  93 127 167 212 269 317 387
#     4  11  24  43  67  97 133 172 219 271 325 389
#     4  10  22  41  64  92 125 165 211 263 324 385
#     4   9  20  39  64  86 122 162 207 260 315 374
#     4  10  20  41  62  89 126 160 205 267 312 378
#
# _framework density 20.999661
#
# number of rings (size 3 to 8) (size 9 to 14) (size 15 to 20)
#    0.000    1.429    4.286    1.286    0.000    1.714 
#    0.000    8.571    0.000    0.000    0.000    0.000 
#    0.000    0.000    0.000    0.000    0.000    0.000 
#
# Total GULP energy -156108.131435 kJ/mol
# GULP energy per Si atom -5575.290408 kJ/mol
# Density = 2.095186 g / cm^3
# Si number density = 20.999661 Si / 1000 Ang^3
#
#
#
# Elastic Constant Matrix: (Units=GPa)
#
#
# Indices 1 2 3 4 5 6 
#
# 1 103.2760 20.0132 16.3578 0.0000 7.8064 0.0000
# 2 20.0132 119.6983 30.5079 0.0000 1.0913 0.0000
# 3 16.3578 30.5079 69.5340 0.0000 10.0765 0.0000
# 4 0.0000 0.0000 0.0000 -73.0774 0.0000 -83.7138
# 5 7.8064 1.0913 10.0765 0.0000 36.7927 0.0000
# 6 0.0000 0.0000 0.0000 -83.7138 0.0000 -78.3298
#
#
#
# Elastic Compliance Matrix: (Units=1/GPa)
#
#
# Indices 1 2 3 4 5 6 
#
# 1 0.010319 -0.001299 -0.001610 0.000000 -0.001710 0.000000
# 2 -0.001299 0.009598 -0.004065 0.000000 0.001104 0.000000
# 3 -0.001610 -0.004065 0.017158 0.000000 -0.004237 0.000000
# 4 0.000000 0.000000 0.000000 0.061011 0.000000 -0.065205
# 5 -0.001710 0.001104 -0.004237 0.000000 0.028670 0.000000
# 6 0.000000 0.000000 0.000000 -0.065205 0.000000 0.056920
#
#
# Mechanical properties :
#
#
# Convention : Reuss Voigt Hill
#
# Bulk Modulus (GPa) = 43.24212 47.36288 45.30250
# Shear Modulus (GPa) = 24.35074 -7.88093 8.23490
#
# Velocity S-wave (km/s) = 3.40895 -1.93934 1.98241
# Velocity P-wave (km/s) = 6.01092 4.19385 5.18264
#
# Compressibility (1/GPa) = 0.02312560
#
# Stress axis : x y z
#
# Youngs Moduli (GPa) = 96.91052 104.19194 58.28272
#
# Poissons Ratio (x) = 0.13539 0.09381
# Poissons Ratio (y) = 0.12593 0.23694
# Poissons Ratio (z) = 0.15598 0.42357
#
# Static dielectric constant tensor:
#      x y z
#    x 1.762820 0.000000 0.019840 
#    y 0.000000 1.800120 0.000000 
#    z 0.019840 0.000000 1.738110 
# 
# From -- ./inp_files/66210.got.cif
#   From: 2010.05.17/outbox.cif.g08.bks.cpg/sg11_34_cif.got.tgz:66210.got - 2010.06.03 12:22:45.
