data_PCOD9164102
_publ_section_title
;
Structure prediction by ZEFSAII (Michael W. Deem and Ramdas Pophale) SiO2 
 PCOD9164102
Probable space group: P 21/M
;
_chemical_formula_sum "Si O2"
_cell_formula_units_Z 20
_cell_length_a 6.218999
_cell_length_b 27.593293
_cell_length_c 5.062738
_cell_angle_alpha 90.000000
_cell_angle_beta 107.815815
_cell_angle_gamma 90.000000
_cell_volume 827.116984
_symmetry_space_group_name_H-M "P 21/M"
_symmetry_group_IT_number 11
_symmetry_cell_setting 'monoclinic'
loop_
_space_group_symop_operation_xyz
x,y,z
-x,1/2+y,-z
-x,-y,-z
x,1/2-y,z
loop_
_atom_site_type_symbol
_atom_site_label
_atom_site_fract_x
_atom_site_fract_y
_atom_site_fract_z
Si Si1 0.938527 0.886312 0.461022
Si Si2 0.848389 0.026644 0.661441
Si Si3 0.627218 0.937322 0.755078
Si Si4 0.369777 0.639902 0.933287
Si Si5 0.222301 0.806528 0.397143
O O1 0.734428 0.905989 0.557711
O O2 0.021074 0.922691 0.261460
O O3 0.141269 0.887176 0.756462
O O4 0.977922 0.832073 0.365167
O O5 0.610482 0.042555 0.443153
O O6 0.775886 0.986309 0.850284
O O7 0.000000 0.000000 0.500000
O O8 0.565905 0.899645 0.964893
O O9 0.375815 0.681517 0.710712
O O10 0.336066 0.664840 0.199018
O O11 0.201077 0.750000 0.339405
#
# Coordination Sequence:
#
# PCOD9164102 Si02
#       5
#     4   4   4   4   4
#     4   8  18  33  56  82 115 149 192 233 289 339
#     4   8  14  28  58  88 120 154 186 230 288 348
#     4   9  15  32  58  87 120 149 192 233 284 346
#     4   9  20  36  58  82 113 149 188 236 290 340
#     4  10  20  39  59  78 113 152 191 243 294 335
#
# _framework density 24.180375999999999
#
# number of rings (size 3 to 8) (size 9 to 14) (size 15 to 20)
#    1.200    2.000    0.000    0.600    0.000    0.000 
#    3.600    3.000    0.000   16.800    0.000    0.000 
#    0.000    0.000    0.000    0.000    0.000    0.000 
#
# Total GULP energy -111526.099037 kJ/mol
# GULP energy per Si atom -5576.304952 kJ/mol
# Density = 2.412534 g / cm^3
# Si number density = 24.180376 Si / 1000 Ang^3
#
#
#
# Elastic Constant Matrix: (Units=GPa)
#
#
# Indices 1 2 3 4 5 6 
#
# 1 132.3443 77.9162 28.2193 0.0000 -14.5223 0.0000
# 2 77.9162 163.1204 25.0918 0.0000 -13.5205 0.0000
# 3 28.2193 25.0918 84.2223 0.0000 -29.2386 0.0000
# 4 0.0000 0.0000 0.0000 28.0858 0.0000 -5.8889
# 5 -14.5223 -13.5205 -29.2386 0.0000 30.0084 0.0000
# 6 0.0000 0.0000 0.0000 -5.8889 0.0000 35.5008
#
#
#
# Elastic Compliance Matrix: (Units=1/GPa)
#
#
# Indices 1 2 3 4 5 6 
#
# 1 0.010928 -0.004836 -0.001724 0.000000 0.001429 0.000000
# 2 -0.004836 0.008613 -0.000621 0.000000 0.000935 0.000000
# 3 -0.001724 -0.000621 0.018511 0.000000 0.016921 0.000000
# 4 0.000000 0.000000 0.000000 0.036888 0.000000 0.006119
# 5 0.001429 0.000935 0.016921 0.000000 0.050924 0.000000
# 6 0.000000 0.000000 0.000000 0.006119 0.000000 0.029183
#
#
# Mechanical properties :
#
#
# Convention : Reuss Voigt Hill
#
# Bulk Modulus (GPa) = 42.21433 71.34908 56.78170
# Shear Modulus (GPa) = 28.19962 35.28297 31.74130
#
# Velocity S-wave (km/s) = 3.41870 3.82404 3.62703
# Velocity P-wave (km/s) = 5.75146 7.00491 6.40890
#
# Compressibility (1/GPa) = 0.02368864
#
# Stress axis : x y z
#
# Youngs Moduli (GPa) = 91.51023 116.09699 54.02307
#
# Poissons Ratio (x) = 0.56145 0.09316
# Poissons Ratio (y) = 0.44255 0.03355
# Poissons Ratio (z) = 0.15781 0.07211
#
# Static dielectric constant tensor:
#      x y z
#    x 1.988610 0.000000 0.092750 
#    y 0.000000 1.929320 0.000000 
#    z 0.092750 0.000000 1.983650 
# 
# From -- ./inp_files/847.got.cif
#   From: 2010.05.17/outbox.cif.g08.bks.cpg/sg11_1_cif.got.tgz:847.got - 2010.06.03 12:22:45.
