data_PCOD9164954
_publ_section_title
;
Structure prediction by ZEFSAII (Michael W. Deem and Ramdas Pophale) SiO2 
 PCOD9164954
Probable space group: P 21/M
;
_chemical_formula_sum "Si O2"
_cell_formula_units_Z 32
_cell_length_a 30.664897
_cell_length_b 9.118277
_cell_length_c 11.106286
_cell_angle_alpha 90.000000
_cell_angle_beta 147.923132
_cell_angle_gamma 90.000000
_cell_volume 1649.164191
_symmetry_space_group_name_H-M "P 21/M"
_symmetry_group_IT_number 11
_symmetry_cell_setting 'monoclinic'
loop_
_space_group_symop_operation_xyz
x,y,z
-x,1/2+y,-z
-x,-y,-z
x,1/2-y,z
loop_
_atom_site_type_symbol
_atom_site_label
_atom_site_fract_x
_atom_site_fract_y
_atom_site_fract_z
Si Si1 0.391862 0.920805 0.526591
Si Si2 0.991039 0.076376 0.108572
Si Si3 0.544948 0.579373 0.714103
Si Si4 0.828747 0.923797 0.378096
Si Si5 0.239994 0.426130 0.047573
Si Si6 0.664796 0.579843 0.373818
Si Si7 0.153065 0.419608 0.087269
Si Si8 0.311826 0.575809 0.820254
O O1 0.371274 0.750000 0.499641
O O2 0.480857 0.927993 0.674481
O O3 0.323759 0.990414 0.277590
O O4 0.386914 0.010658 0.638598
O O5 0.982506 0.250000 0.070516
O O6 0.074890 0.049993 0.379141
O O7 0.000000 0.000000 0.000000
O O8 0.913938 0.015353 0.002040
O O9 0.500000 0.500000 0.500000
O O10 0.562067 0.750000 0.727354
O O11 0.627274 0.494816 0.939738
O O12 0.813490 0.750000 0.363269
O O13 0.777948 0.015901 0.356415
O O14 0.795861 0.959472 0.167561
O O15 0.255005 0.250000 0.090713
O O16 0.174784 0.462485 0.000760
O O17 0.643266 0.750000 0.302367
O O18 0.759390 0.573617 0.640045
O O19 0.659908 0.487234 0.241513
O O20 0.125820 0.250000 0.024458
O O21 0.314710 0.750000 0.829346
#
# Coordination Sequence:
#
# PCOD9164954 Si02
#       8
#     4   4   4   4   4   4   4   4
#     4  10  21  37  59  88 117 146 186 234 281 334
#     4  11  23  37  56  82 112 149 190 235 287 340
#     4  11  24  41  61  86 118 154 192 236 286 339
#     4  10  22  40  59  81 113 152 194 237 285 342
#     4   9  19  37  60  83 112 152 190 228 280 339
#     4  10  21  39  62  85 114 154 192 230 283 341
#     4   9  19  36  58  84 113 146 185 229 281 340
#     4  12  25  39  59  87 116 149 192 240 289 339
#
# _framework density 19.403766999999998
#
# number of rings (size 3 to 8) (size 9 to 14) (size 15 to 20)
#    0.000    1.750    0.000    4.875    0.000   12.000 
#    0.000    0.000    0.000    0.000    0.000    0.000 
#    0.000    0.000    0.000    0.000    0.000    0.000 
#
# Total GULP energy -178902.535815 kJ/mol
# GULP energy per Si atom -5590.704244 kJ/mol
# Density = 1.935960 g / cm^3
# Si number density = 19.403767 Si / 1000 Ang^3
#
#
#
# Elastic Constant Matrix: (Units=GPa)
#
#
# Indices 1 2 3 4 5 6 
#
# 1 60.1172 33.0043 8.0576 0.0000 -0.4583 0.0000
# 2 33.0043 89.1841 18.5130 0.0000 4.7234 0.0000
# 3 8.0576 18.5130 20.5658 0.0000 -0.4394 0.0000
# 4 0.0000 0.0000 0.0000 30.8014 0.0000 2.1296
# 5 -0.4583 4.7234 -0.4394 0.0000 31.2712 0.0000
# 6 0.0000 0.0000 0.0000 2.1296 0.0000 34.9569
#
#
#
# Elastic Compliance Matrix: (Units=1/GPa)
#
#
# Indices 1 2 3 4 5 6 
#
# 1 0.020976 -0.007549 -0.001392 0.000000 0.001428 0.000000
# 2 -0.007549 0.016668 -0.012106 0.000000 -0.002798 0.000000
# 3 -0.001392 -0.012106 0.060124 0.000000 0.002653 0.000000
# 4 0.000000 0.000000 0.000000 0.032603 0.000000 -0.001986
# 5 0.001428 -0.002798 0.002653 0.000000 0.032459 0.000000
# 6 0.000000 0.000000 0.000000 -0.001986 0.000000 0.028728
#
#
# Mechanical properties :
#
#
# Convention : Reuss Voigt Hill
#
# Bulk Modulus (GPa) = 17.96199 32.11301 25.03750
# Shear Modulus (GPa) = 19.82469 26.75872 23.29170
#
# Velocity S-wave (km/s) = 3.19986 3.71758 3.46839
# Velocity P-wave (km/s) = 4.78844 5.91718 5.38248
#
# Compressibility (1/GPa) = 0.05567312
#
# Stress axis : x y z
#
# Youngs Moduli (GPa) = 47.67303 59.99614 16.63228
#
# Poissons Ratio (x) = 0.45293 0.02315
# Poissons Ratio (y) = 0.35990 0.20135
# Poissons Ratio (z) = 0.06637 0.72631
#
# Static dielectric constant tensor:
#      x y z
#    x 1.675300 0.000000 -0.015970 
#    y 0.000000 1.649590 0.000000 
#    z -0.015970 0.000000 1.692870 
# 
# From -- ./inp_files/45315.got.cif
#   From: 2010.05.17/outbox.cif.g08.bks.cpg/sg11_23_cif.got.tgz:45315.got - 2010.06.03 12:22:45.
