data_PCOD9164176
_publ_section_title
;
Structure prediction by ZEFSAII (Michael W. Deem and Ramdas Pophale) SiO2 
 PCOD9164176
Probable space group: P 21/M
;
_chemical_formula_sum "Si O2"
_cell_formula_units_Z 20
_cell_length_a 7.509704
_cell_length_b 18.550089
_cell_length_c 7.796791
_cell_angle_alpha 90.000000
_cell_angle_beta 61.957348
_cell_angle_gamma 90.000000
_cell_volume 958.622421
_symmetry_space_group_name_H-M "P 21/M"
_symmetry_group_IT_number 11
_symmetry_cell_setting 'monoclinic'
loop_
_space_group_symop_operation_xyz
x,y,z
-x,1/2+y,-z
-x,-y,-z
x,1/2-y,z
loop_
_atom_site_type_symbol
_atom_site_label
_atom_site_fract_x
_atom_site_fract_y
_atom_site_fract_z
Si Si1 0.692074 0.019657 0.300630
Si Si2 0.794764 0.333851 0.741987
Si Si3 0.984157 0.890871 0.678663
Si Si4 0.766776 0.171251 0.143968
Si Si5 0.597444 0.928957 0.035642
O O1 0.890775 0.036901 0.323085
O O2 0.500000 0.000000 0.500000
O O3 0.719848 0.958314 0.145737
O O4 0.645987 0.097615 0.233627
O O5 0.768814 0.250000 0.708111
O O6 0.857849 0.337023 0.912853
O O7 0.580358 0.375077 0.829287
O O8 0.950720 0.369266 0.540207
O O9 0.751955 0.898052 0.827482
O O10 0.072740 0.833258 0.775150
O O11 0.664233 0.250000 0.194658
O O12 0.500000 0.000000 0.000000
#
# Coordination Sequence:
#
# PCOD9164176 Si02
#       5
#     4   4   4   4   4
#     4  10  20  39  64  91 129 167 213 266 320 379
#     4  11  23  41  65  94 128 170 216 264 322 384
#     4  10  23  39  65  88 129 166 213 259 323 375
#     4   9  20  40  62  88 128 169 211 264 319 380
#     4  12  22  42  63  97 128 169 212 267 319 374
#
# _framework density 20.863271999999998
#
# number of rings (size 3 to 8) (size 9 to 14) (size 15 to 20)
#    1.200    0.400    4.000    1.200    0.000    2.400 
#    3.600    0.000    0.000    2.400    0.000    0.000 
#    0.000    0.000    0.000    0.000    0.000    0.000 
#
# Total GULP energy -111504.981582 kJ/mol
# GULP energy per Si atom -5575.249079 kJ/mol
# Density = 2.081579 g / cm^3
# Si number density = 20.863272 Si / 1000 Ang^3
#
#
#
# Elastic Constant Matrix: (Units=GPa)
#
#
# Indices 1 2 3 4 5 6 
#
# 1 10.8891 8.8091 15.6711 0.0000 5.5516 0.0000
# 2 8.8091 82.9784 63.9960 0.0000 -6.1145 0.0000
# 3 15.6711 63.9960 167.3440 0.0000 -10.9431 0.0000
# 4 0.0000 0.0000 0.0000 31.6662 0.0000 9.1665
# 5 5.5516 -6.1145 -10.9431 0.0000 32.2609 0.0000
# 6 0.0000 0.0000 0.0000 9.1665 0.0000 21.0507
#
#
#
# Elastic Compliance Matrix: (Units=1/GPa)
#
#
# Indices 1 2 3 4 5 6 
#
# 1 0.127014 -0.007001 -0.010976 0.000000 -0.026907 0.000000
# 2 -0.007001 0.017513 -0.005876 0.000000 0.002531 0.000000
# 3 -0.010976 -0.005876 0.009513 0.000000 0.004002 0.000000
# 4 0.000000 0.000000 0.000000 0.036134 0.000000 -0.015734
# 5 -0.026907 0.002531 0.004002 0.000000 0.037465 0.000000
# 6 0.000000 0.000000 0.000000 -0.015734 0.000000 0.054356
#
#
# Mechanical properties :
#
#
# Convention : Reuss Voigt Hill
#
# Bulk Modulus (GPa) = 9.40451 48.68484 29.04468
# Shear Modulus (GPa) = 13.69314 28.51126 21.10220
#
# Velocity S-wave (km/s) = 2.56467 3.70073 3.18378
# Velocity P-wave (km/s) = 3.64520 6.45340 5.24089
#
# Compressibility (1/GPa) = 0.10633195
#
# Stress axis : x y z
#
# Youngs Moduli (GPa) = 7.87313 57.10034 105.12473
#
# Poissons Ratio (x) = 0.39977 1.15390
# Poissons Ratio (y) = 0.05512 0.61774
# Poissons Ratio (z) = 0.08642 0.33553
#
# Static dielectric constant tensor:
#      x y z
#    x 1.808590 0.000000 0.050510 
#    y 0.000000 1.769530 0.000000 
#    z 0.050510 0.000000 1.722140 
# 
# From -- ./inp_files/13414.got.cif
#   From: 2010.05.17/outbox.cif.g08.bks.cpg/sg11_7_cif.got.tgz:13414.got - 2010.06.03 12:22:45.
