data_PCOD9164649
_publ_section_title
;
Structure prediction by ZEFSAII (Michael W. Deem and Ramdas Pophale) SiO2 
 PCOD9164649
Probable space group: P 21/M
;
_chemical_formula_sum "Si O2"
_cell_formula_units_Z 32
_cell_length_a 31.475540
_cell_length_b 9.193924
_cell_length_c 5.456601
_cell_angle_alpha 90.000000
_cell_angle_beta 86.198012
_cell_angle_gamma 90.000000
_cell_volume 1575.576283
_symmetry_space_group_name_H-M "P 21/M"
_symmetry_group_IT_number 11
_symmetry_cell_setting 'monoclinic'
loop_
_space_group_symop_operation_xyz
x,y,z
-x,1/2+y,-z
-x,-y,-z
x,1/2-y,z
loop_
_atom_site_type_symbol
_atom_site_label
_atom_site_fract_x
_atom_site_fract_y
_atom_site_fract_z
Si Si1 0.045869 0.425210 0.981671
Si Si2 0.812192 0.075000 0.565485
Si Si3 0.472845 0.412395 0.709502
Si Si4 0.390579 0.405810 0.410277
Si Si5 0.672260 0.917699 0.173776
Si Si6 0.096140 0.074859 0.462387
Si Si7 0.589925 0.413978 0.997010
Si Si8 0.238267 0.575096 0.915775
O O1 0.040987 0.250000 0.983723
O O2 0.070905 0.464886 0.721740
O O3 0.071131 0.464980 0.221600
O O4 0.000000 0.500000 0.000000
O O5 0.817411 0.250000 0.565108
O O6 0.787939 0.036898 0.321300
O O7 0.857914 0.999326 0.553789
O O8 0.786092 0.036119 0.822622
O O9 0.500000 0.500000 0.500000
O O10 0.489520 0.250000 0.759193
O O11 0.426537 0.391889 0.601726
O O12 0.455788 0.510476 0.938631
O O13 0.395255 0.250000 0.266348
O O14 0.343485 0.412729 0.537782
O O15 0.402630 0.559431 0.290963
O O16 0.674559 0.750000 0.091632
O O17 0.632943 0.004716 0.069381
O O18 0.716246 0.997597 0.114299
O O19 0.100911 0.250000 0.460557
O O20 0.589072 0.250000 0.082664
O O21 0.244070 0.750000 0.913583
#
# Coordination Sequence:
#
# PCOD9164649 Si02
#       8
#     4   4   4   4   4   4   4   4
#     4  10  21  36  56  85 117 152 196 246 295 352
#     4  10  22  39  59  85 118 156 200 246 297 359
#     4  10  21  38  58  81 112 146 185 232 279 338
#     4   9  20  38  57  80 110 144 185 231 281 342
#     4  10  22  39  59  83 112 147 188 238 290 347
#     4  10  21  37  57  82 116 153 195 245 296 352
#     4  11  22  36  58  84 111 146 185 229 287 347
#     4  10  22  39  58  86 119 152 197 248 298 357
#
# _framework density 20.310029
#
# number of rings (size 3 to 8) (size 9 to 14) (size 15 to 20)
#    0.000    2.000    0.000    3.750    1.750    5.500 
#    0.000    0.000    0.000    0.000    0.000    0.000 
#    0.000    0.000    0.000    0.000    0.000    0.000 
#
# Total GULP energy -178334.802886 kJ/mol
# GULP energy per Si atom -5572.962590 kJ/mol
# Density = 2.026380 g / cm^3
# Si number density = 20.310029 Si / 1000 Ang^3
#
#
#
# Elastic Constant Matrix: (Units=GPa)
#
#
# Indices 1 2 3 4 5 6 
#
# 1 168.9725 54.9183 66.0201 0.0000 -18.7593 0.0000
# 2 54.9183 64.8799 30.3799 0.0000 -11.0632 0.0000
# 3 66.0201 30.3799 113.0647 0.0000 -14.2580 0.0000
# 4 0.0000 0.0000 0.0000 14.7299 0.0000 -2.3354
# 5 -18.7593 -11.0632 -14.2580 0.0000 37.2723 0.0000
# 6 0.0000 0.0000 0.0000 -2.3354 0.0000 35.2466
#
#
#
# Elastic Compliance Matrix: (Units=1/GPa)
#
#
# Indices 1 2 3 4 5 6 
#
# 1 0.009514 -0.006036 -0.003735 0.000000 0.001568 0.000000
# 2 -0.006036 0.021932 -0.002028 0.000000 0.002696 0.000000
# 3 -0.003735 -0.002028 0.011828 0.000000 0.002043 0.000000
# 4 0.000000 0.000000 0.000000 0.068610 0.000000 0.004546
# 5 0.001568 0.002696 0.002043 0.000000 0.029200 0.000000
# 6 0.000000 0.000000 0.000000 0.004546 0.000000 0.028673
#
#
# Mechanical properties :
#
#
# Convention : Reuss Voigt Hill
#
# Bulk Modulus (GPa) = 50.82981 72.17262 61.50121
# Shear Modulus (GPa) = 25.01059 30.48967 27.75013
#
# Velocity S-wave (km/s) = 3.51300 3.87875 3.70040
# Velocity P-wave (km/s) = 6.44485 7.46138 6.97167
#
# Compressibility (1/GPa) = 0.01967350
#
# Stress axis : x y z
#
# Youngs Moduli (GPa) = 105.11295 45.59517 84.54312
#
# Poissons Ratio (x) = 0.27523 0.31581
# Poissons Ratio (y) = 0.63451 0.17148
# Poissons Ratio (z) = 0.39265 0.09248
#
# Static dielectric constant tensor:
#      x y z
#    x 1.662480 0.000000 0.021550 
#    y 0.000000 2.003100 0.000000 
#    z 0.021550 0.000000 1.878020 
# 
# From -- ./inp_files/9667.got.cif
#   From: 2010.05.17/outbox.cif.g08.bks.cpg/sg11_5_cif.got.tgz:9667.got - 2010.06.03 12:22:45.
