data_PCOD9164761
_publ_section_title
;
Structure prediction by ZEFSAII (Michael W. Deem and Ramdas Pophale) SiO2 
 PCOD9164761
Probable space group: P 21/M
;
_chemical_formula_sum "Si O2"
_cell_formula_units_Z 28
_cell_length_a 11.979076
_cell_length_b 15.056093
_cell_length_c 8.459722
_cell_angle_alpha 90.000000
_cell_angle_beta 57.819986
_cell_angle_gamma 90.000000
_cell_volume 1291.387495
_symmetry_space_group_name_H-M "P 21/M"
_symmetry_group_IT_number 11
_symmetry_cell_setting 'monoclinic'
loop_
_space_group_symop_operation_xyz
x,y,z
-x,1/2+y,-z
-x,-y,-z
x,1/2-y,z
loop_
_atom_site_type_symbol
_atom_site_label
_atom_site_fract_x
_atom_site_fract_y
_atom_site_fract_z
Si Si1 0.707587 0.508350 0.643011
Si Si2 0.967773 0.607951 0.928682
Si Si3 0.842831 0.653427 0.701713
Si Si4 0.877975 0.351302 0.638082
Si Si5 0.178368 0.576534 0.982239
Si Si6 0.561824 0.969556 0.286835
Si Si7 0.740662 0.850731 0.332318
O O1 0.739724 0.573726 0.765227
O O2 0.807586 0.426155 0.584721
O O3 0.559606 0.471443 0.742070
O O4 0.729887 0.574874 0.477167
O O5 0.917577 0.655813 0.811368
O O6 0.118440 0.619316 0.867930
O O7 0.922548 0.506894 0.924678
O O8 0.881477 0.640575 0.142003
O O9 0.783182 0.750000 0.716431
O O10 0.963993 0.636197 0.490087
O O11 0.850450 0.250000 0.609648
O O12 0.831348 0.366380 0.852914
O O13 0.323214 0.537793 0.847601
O O14 0.636132 0.878237 0.274096
O O15 0.500000 0.000000 0.500000
O O16 0.718991 0.750000 0.402557
#
# Coordination Sequence:
#
# PCOD9164761 Si02
#       7
#     4   4   4   4   4   4   4
#     4  11  22  41  66  90 132 172 211 260 325 383
#     4  10  21  36  67  94 123 159 210 268 329 370
#     4  11  23  38  62  98 128 164 216 270 326 382
#     4  11  25  41  61  93 131 172 217 267 323 378
#     4  10  21  40  63  90 123 166 210 259 319 383
#     4   9  22  40  66  92 123 168 214 253 314 381
#     4  10  21  40  66  97 127 166 217 267 322 385
#
# _framework density 21.682106999999998
#
# number of rings (size 3 to 8) (size 9 to 14) (size 15 to 20)
#    0.000    1.714    1.429    2.143    8.000    3.429 
#    0.000    3.571    0.000    0.000    0.000    0.000 
#    0.000    0.000    0.000    0.000    0.000    0.000 
#
# Total GULP energy -156336.401112 kJ/mol
# GULP energy per Si atom -5583.442897 kJ/mol
# Density = 2.163276 g / cm^3
# Si number density = 21.682107 Si / 1000 Ang^3
#
#
#
# Elastic Constant Matrix: (Units=GPa)
#
#
# Indices 1 2 3 4 5 6 
#
# 1 111.5584 58.9032 6.6518 0.0000 8.9582 0.0000
# 2 58.9032 134.4137 4.2865 0.0000 3.4886 0.0000
# 3 6.6518 4.2865 56.7551 0.0000 9.9668 0.0000
# 4 0.0000 0.0000 0.0000 5.7302 0.0000 -19.1716
# 5 8.9582 3.4886 9.9668 0.0000 28.6130 0.0000
# 6 0.0000 0.0000 0.0000 -19.1716 0.0000 -17.3456
#
#
#
# Elastic Compliance Matrix: (Units=1/GPa)
#
#
# Indices 1 2 3 4 5 6 
#
# 1 0.011945 -0.005142 -0.000495 0.000000 -0.002940 0.000000
# 2 -0.005142 0.009687 -0.000218 0.000000 0.000505 0.000000
# 3 -0.000495 -0.000218 0.018813 0.000000 -0.006372 0.000000
# 4 0.000000 0.000000 0.000000 0.037147 0.000000 -0.041058
# 5 -0.002940 0.000505 -0.006372 0.000000 0.038027 0.000000
# 6 0.000000 0.000000 0.000000 -0.041058 0.000000 -0.012272
#
#
# Mechanical properties :
#
#
# Convention : Reuss Voigt Hill
#
# Bulk Modulus (GPa) = 34.80147 49.15668 41.97908
# Shear Modulus (GPa) = 40.11687 18.92525 29.52106
#
# Velocity S-wave (km/s) = 4.30610 2.95761 3.69391
# Velocity P-wave (km/s) = 6.38818 5.86379 6.13160
#
# Compressibility (1/GPa) = 0.02873441
#
# Stress axis : x y z
#
# Youngs Moduli (GPa) = 83.71903 103.23055 53.15494
#
# Poissons Ratio (x) = 0.53085 0.02632
# Poissons Ratio (y) = 0.43051 0.01156
# Poissons Ratio (z) = 0.04146 0.02246
#
# Static dielectric constant tensor:
#      x y z
#    x 1.860380 0.000000 0.064700 
#    y 0.000000 1.760360 0.000000 
#    z 0.064700 0.000000 1.838070 
# 
# From -- ./inp_files/17968.got.cif
#   From: 2010.05.17/outbox.cif.g08.bks.cpg/sg11_9_cif.got.tgz:17968.got - 2010.06.03 12:22:45.
