data_PCOD9164338
_publ_section_title
;
Structure prediction by ZEFSAII (Michael W. Deem and Ramdas Pophale) SiO2 
 PCOD9164338
Probable space group: P 21/M
;
_chemical_formula_sum "Si O2"
_cell_formula_units_Z 24
_cell_length_a 7.003221
_cell_length_b 16.893876
_cell_length_c 7.733570
_cell_angle_alpha 90.000000
_cell_angle_beta 85.070835
_cell_angle_gamma 90.000000
_cell_volume 911.586785
_symmetry_space_group_name_H-M "P 21/M"
_symmetry_group_IT_number 11
_symmetry_cell_setting 'monoclinic'
loop_
_space_group_symop_operation_xyz
x,y,z
-x,1/2+y,-z
-x,-y,-z
x,1/2-y,z
loop_
_atom_site_type_symbol
_atom_site_label
_atom_site_fract_x
_atom_site_fract_y
_atom_site_fract_z
Si Si1 0.252901 0.154838 0.759207
Si Si2 0.229382 0.154877 0.344429
Si Si3 0.089150 0.838731 0.019513
Si Si4 0.871948 0.053301 0.384176
Si Si5 0.329047 0.663251 0.338869
Si Si6 0.575923 0.052697 0.151312
O O1 0.228148 0.250000 0.788258
O O2 0.221890 0.145756 0.554462
O O3 0.476998 0.140754 0.771592
O O4 0.115674 0.122234 0.921871
O O5 0.246987 0.250000 0.306555
O O6 0.402528 0.101250 0.255249
O O7 0.028920 0.115321 0.294521
O O8 0.080423 0.750000 0.948061
O O9 0.160728 0.832952 0.214641
O O10 0.263929 0.885252 0.923452
O O11 0.728119 0.102817 0.512401
O O12 0.278883 0.992822 0.726055
O O13 0.000000 0.000000 0.500000
O O14 0.357895 0.750000 0.416142
O O15 0.500000 0.000000 0.000000
#
# Coordination Sequence:
#
# PCOD9164338 Si02
#       6
#     4   4   4   4   4   4
#     4   9  18  37  74 112 142 187 251 314 379 455
#     4  11  24  46  80 118 151 203 271 328 385 475
#     4  10  22  43  73 113 151 189 249 328 397 457
#     4  12  28  48  80 113 157 211 266 320 386 469
#     4  10  20  41  76 112 145 193 258 317 377 465
#     4  12  30  51  75 112 166 211 257 321 406 471
#
# _framework density 26.327719999999999
#
# number of rings (size 3 to 8) (size 9 to 14) (size 15 to 20)
#    0.000    1.333    3.333    1.000    2.333    6.000 
#    0.000    1.667    0.000    1.000    0.000    0.000 
#    0.000    0.000    0.000    0.000    0.000    0.000 
#
# Total GULP energy -134259.124734 kJ/mol
# GULP energy per Si atom -5594.130197 kJ/mol
# Density = 2.626780 g / cm^3
# Si number density = 26.327720 Si / 1000 Ang^3
#
#
#
# Elastic Constant Matrix: (Units=GPa)
#
#
# Indices 1 2 3 4 5 6 
#
# 1 166.9998 43.6550 34.2016 0.0000 -10.2258 0.0000
# 2 43.6550 108.8263 31.4435 0.0000 -7.7526 0.0000
# 3 34.2016 31.4435 107.6379 0.0000 -38.2598 0.0000
# 4 0.0000 0.0000 0.0000 51.6001 0.0000 -9.2082
# 5 -10.2258 -7.7526 -38.2598 0.0000 59.8713 0.0000
# 6 0.0000 0.0000 0.0000 -9.2082 0.0000 33.6987
#
#
#
# Elastic Compliance Matrix: (Units=1/GPa)
#
#
# Indices 1 2 3 4 5 6 
#
# 1 0.006909 -0.002330 -0.001556 0.000000 -0.000116 0.000000
# 2 -0.002330 0.010848 -0.002679 0.000000 -0.000705 0.000000
# 3 -0.001556 -0.002679 0.013391 0.000000 0.007945 0.000000
# 4 0.000000 0.000000 0.000000 0.020373 0.000000 0.005567
# 5 -0.000116 -0.000705 0.007945 0.000000 0.021668 0.000000
# 6 0.000000 0.000000 0.000000 0.005567 0.000000 0.031196
#
#
# Mechanical properties :
#
#
# Convention : Reuss Voigt Hill
#
# Bulk Modulus (GPa) = 55.50145 66.89602 61.19874
# Shear Modulus (GPa) = 40.47892 47.31161 43.89526
#
# Velocity S-wave (km/s) = 3.92535 4.24373 4.08764
# Velocity P-wave (km/s) = 6.45533 7.03395 6.75084
#
# Compressibility (1/GPa) = 0.01801755
#
# Stress axis : x y z
#
# Youngs Moduli (GPa) = 144.74594 92.18701 74.67476
#
# Poissons Ratio (x) = 0.21481 0.11617
# Poissons Ratio (y) = 0.33728 0.20007
# Poissons Ratio (z) = 0.22518 0.24699
#
# Static dielectric constant tensor:
#      x y z
#    x 2.113820 0.000000 0.125820 
#    y 0.000000 2.040320 0.000000 
#    z 0.125820 0.000000 2.091260 
# 
# From -- ./inp_files/32456.got.cif
#   From: 2010.05.17/outbox.cif.g08.bks.cpg/sg11_17_cif.got.tgz:32456.got - 2010.06.03 12:22:45.
