data_PCOD9164087
_publ_section_title
;
Structure prediction by ZEFSAII (Michael W. Deem and Ramdas Pophale) SiO2 
 PCOD9164087
Probable space group: P 21/M
;
_chemical_formula_sum "Si O2"
_cell_formula_units_Z 24
_cell_length_a 14.474940
_cell_length_b 14.590414
_cell_length_c 8.861783
_cell_angle_alpha 90.000000
_cell_angle_beta 140.144060
_cell_angle_gamma 90.000000
_cell_volume 1199.411818
_symmetry_space_group_name_H-M "P 21/M"
_symmetry_group_IT_number 11
_symmetry_cell_setting 'monoclinic'
loop_
_space_group_symop_operation_xyz
x,y,z
-x,1/2+y,-z
-x,-y,-z
x,1/2-y,z
loop_
_atom_site_type_symbol
_atom_site_label
_atom_site_fract_x
_atom_site_fract_y
_atom_site_fract_z
Si Si1 0.608262 0.056815 0.294947
Si Si2 0.909201 0.080683 0.812319
Si Si3 0.522679 0.750000 0.998359
Si Si4 0.093628 0.750000 0.971606
Si Si5 0.070034 0.427430 0.702130
Si Si6 0.685421 0.250000 0.996540
Si Si7 0.134106 0.250000 0.587752
Si Si8 0.322267 0.541230 0.953886
O O1 0.739434 0.065021 0.574011
O O2 0.486894 0.985629 0.198753
O O3 0.538596 0.156967 0.161278
O O4 0.676112 0.018618 0.223058
O O5 0.925798 0.163980 0.946059
O O6 0.976965 0.094950 0.731493
O O7 0.000000 0.000000 0.000000
O O8 0.465133 0.750000 0.099475
O O9 0.694472 0.750000 0.223530
O O10 0.253562 0.750000 0.096812
O O11 0.972295 0.750000 0.689009
O O12 0.098618 0.337639 0.643026
O O13 0.000000 0.500000 0.500000
O O14 0.221207 0.476995 0.927087
O O15 0.731697 0.146308 0.102323
#
# Coordination Sequence:
#
# PCOD9164087 Si02
#       8
#     4   4   2   2   4   2   2   4
#     4  10  21  39  67  96 134 170 223 282 341 396
#     4  12  26  44  67  99 144 181 218 278 353 413
#     4  10  21  41  70 100 125 172 234 300 326 389
#     4  12  28  45  63  99 141 180 220 279 352 411
#     4  12  23  42  71 104 131 176 235 283 333 407
#     4  10  22  39  63  96 134 175 225 271 340 404
#     4  12  25  43  72 101 132 173 237 294 328 404
#     4  10  20  38  68 102 127 170 234 285 328 387
#
# _framework density 20.009808
#
# number of rings (size 3 to 8) (size 9 to 14) (size 15 to 20)
#    0.000    1.000    3.333    4.000    2.333    0.000 
#    0.000    5.000    0.000    0.000    0.000    0.000 
#    0.000    0.000    0.000    0.000    0.000    0.000 
#
# Total GULP energy -133794.197759 kJ/mol
# GULP energy per Si atom -5574.758240 kJ/mol
# Density = 1.996427 g / cm^3
# Si number density = 20.009808 Si / 1000 Ang^3
#
#
#
# Elastic Constant Matrix: (Units=GPa)
#
#
# Indices 1 2 3 4 5 6 
#
# 1 121.1191 46.1528 43.8183 0.0000 5.0221 0.0000
# 2 46.1528 125.3642 45.4947 0.0000 4.3847 0.0000
# 3 43.8183 45.4947 116.1947 0.0000 12.1402 0.0000
# 4 0.0000 0.0000 0.0000 17.4454 0.0000 6.2870
# 5 5.0221 4.3847 12.1402 0.0000 25.0934 0.0000
# 6 0.0000 0.0000 0.0000 6.2870 0.0000 27.5006
#
#
#
# Elastic Compliance Matrix: (Units=1/GPa)
#
#
# Indices 1 2 3 4 5 6 
#
# 1 0.010334 -0.002787 -0.002781 0.000000 -0.000236 0.000000
# 2 -0.002787 0.010050 -0.002906 0.000000 0.000207 0.000000
# 3 -0.002781 -0.002906 0.011250 0.000000 -0.004379 0.000000
# 4 0.000000 0.000000 0.000000 0.062468 0.000000 -0.014281
# 5 -0.000236 0.000207 -0.004379 0.000000 0.041980 0.000000
# 6 0.000000 0.000000 0.000000 -0.014281 0.000000 0.039628
#
#
# Mechanical properties :
#
#
# Convention : Reuss Voigt Hill
#
# Bulk Modulus (GPa) = 68.08908 70.40109 69.24509
# Shear Modulus (GPa) = 25.30946 29.15534 27.23240
#
# Velocity S-wave (km/s) = 3.56033 3.82128 3.69311
# Velocity P-wave (km/s) = 7.14164 7.39792 7.27091
#
# Compressibility (1/GPa) = 0.01468664
#
# Stress axis : x y z
#
# Youngs Moduli (GPa) = 96.76484 99.50257 88.88679
#
# Poissons Ratio (x) = 0.27731 0.24723
# Poissons Ratio (y) = 0.26968 0.25827
# Poissons Ratio (z) = 0.26914 0.28912
#
# Static dielectric constant tensor:
#      x y z
#    x 1.725310 0.000000 0.058840 
#    y 0.000000 1.712320 0.000000 
#    z 0.058840 0.000000 1.785950 
# 
# From -- ./inp_files/22363.got.cif
#   From: 2010.05.17/outbox.cif.g08.bks.cpg/sg11_12_cif.got.tgz:22363.got - 2010.06.03 12:22:45.
