data_PCOD9164523
_publ_section_title
;
Structure prediction by ZEFSAII (Michael W. Deem and Ramdas Pophale) SiO2 
 PCOD9164523
Probable space group: P 21/M
;
_chemical_formula_sum "Si O2"
_cell_formula_units_Z 24
_cell_length_a 12.952107
_cell_length_b 16.453394
_cell_length_c 11.216198
_cell_angle_alpha 90.000000
_cell_angle_beta 156.404193
_cell_angle_gamma 90.000000
_cell_volume 956.770150
_symmetry_space_group_name_H-M "P 21/M"
_symmetry_group_IT_number 11
_symmetry_cell_setting 'monoclinic'
loop_
_space_group_symop_operation_xyz
x,y,z
-x,1/2+y,-z
-x,-y,-z
x,1/2-y,z
loop_
_atom_site_type_symbol
_atom_site_label
_atom_site_fract_x
_atom_site_fract_y
_atom_site_fract_z
Si Si1 0.400427 0.839544 0.335744
Si Si2 0.275468 0.056032 0.455719
Si Si3 0.676435 0.497763 0.070713
Si Si4 0.067182 0.841667 0.744845
Si Si5 0.096032 0.615755 0.241224
Si Si6 0.347864 0.339788 0.060487
O O1 0.502004 0.750000 0.471152
O O2 0.616956 0.908123 0.552956
O O3 0.179964 0.861133 0.196605
O O4 0.278240 0.836606 0.074431
O O5 0.505837 0.015033 0.772255
O O6 0.177179 0.127680 0.437648
O O7 0.076586 0.982310 0.230800
O O8 0.766327 0.589907 0.145123
O O9 0.500000 0.500000 0.000000
O O10 0.859280 0.418664 0.260768
O O11 0.040939 0.750000 0.667344
O O12 0.351662 0.645463 0.586211
O O13 0.839872 0.654521 0.023736
O O14 0.329185 0.250000 0.987974
#
# Coordination Sequence:
#
# PCOD9164523 Si02
#       6
#     4   4   4   4   4   4
#     4  10  21  35  57  90 126 169 208 249 305 376
#     4  10  21  39  60  89 122 163 208 264 314 374
#     4  10  23  43  65  87 121 162 211 270 326 382
#     4  10  21  39  61  90 126 161 209 260 312 376
#     4  11  23  40  64  92 130 172 211 256 315 376
#     4  11  23  42  64  95 130 165 211 265 319 380
#
# _framework density 25.084396000000002
#
# number of rings (size 3 to 8) (size 9 to 14) (size 15 to 20)
#    0.000    1.667    1.667    2.500    2.333    2.667 
#    0.000    0.000    0.000    0.000    0.000    0.000 
#    0.000    0.000    0.000    0.000    0.000    0.000 
#
# Total GULP energy -134156.709327 kJ/mol
# GULP energy per Si atom -5589.862889 kJ/mol
# Density = 2.502730 g / cm^3
# Si number density = 25.084396 Si / 1000 Ang^3
#
#
#
# Elastic Constant Matrix: (Units=GPa)
#
#
# Indices 1 2 3 4 5 6 
#
# 1 110.4235 51.8953 5.8887 0.0000 15.2178 0.0000
# 2 51.8953 208.9735 16.7974 0.0000 5.4201 0.0000
# 3 5.8887 16.7974 67.3522 0.0000 -3.6414 0.0000
# 4 0.0000 0.0000 0.0000 3.1508 0.0000 66.0793
# 5 15.2178 5.4201 -3.6414 0.0000 35.6639 0.0000
# 6 0.0000 0.0000 0.0000 66.0793 0.0000 -225.4244
#
#
#
# Elastic Compliance Matrix: (Units=1/GPa)
#
#
# Indices 1 2 3 4 5 6 
#
# 1 0.010875 -0.002545 -0.000549 0.000000 -0.004310 0.000000
# 2 -0.002545 0.005506 -0.001143 0.000000 0.000132 0.000000
# 3 -0.000549 -0.001143 0.015287 0.000000 0.001969 0.000000
# 4 0.000000 0.000000 0.000000 0.044403 0.000000 0.013016
# 5 -0.004310 0.000132 0.001969 0.000000 0.030059 0.000000
# 6 0.000000 0.000000 0.000000 0.013016 0.000000 -0.000621
#
#
# Mechanical properties :
#
#
# Convention : Reuss Voigt Hill
#
# Bulk Modulus (GPa) = 43.11630 59.54580 51.33105
# Shear Modulus (GPa) = 41.07923 -16.51076 12.28424
#
# Velocity S-wave (km/s) = 4.05117 -2.56834 2.21535
# Velocity P-wave (km/s) = 6.25367 3.87228 5.20110
#
# Compressibility (1/GPa) = 0.02319308
#
# Stress axis : x y z
#
# Youngs Moduli (GPa) = 91.95199 181.62900 65.41522
#
# Poissons Ratio (x) = 0.46220 0.03593
# Poissons Ratio (y) = 0.23400 0.07480
# Poissons Ratio (z) = 0.05050 0.20769
#
# Static dielectric constant tensor:
#      x y z
#    x 1.943190 0.000000 -0.018010 
#    y 0.000000 2.033460 0.000000 
#    z -0.018010 0.000000 2.052310 
# 
# From -- ./inp_files/29775.got.cif
#   From: 2010.05.17/outbox.cif.g08.bks.cpg/sg11_15_cif.got.tgz:29775.got - 2010.06.03 12:22:45.
