data_PCOD9164147
_publ_section_title
;
Structure prediction by ZEFSAII (Michael W. Deem and Ramdas Pophale) SiO2 
 PCOD9164147
Probable space group: P 21/M
;
_chemical_formula_sum "Si O2"
_cell_formula_units_Z 24
_cell_length_a 9.574439
_cell_length_b 14.161499
_cell_length_c 16.608077
_cell_angle_alpha 90.000000
_cell_angle_beta 30.575167
_cell_angle_gamma 90.000000
_cell_volume 1145.451201
_symmetry_space_group_name_H-M "P 21/M"
_symmetry_group_IT_number 11
_symmetry_cell_setting 'monoclinic'
loop_
_space_group_symop_operation_xyz
x,y,z
-x,1/2+y,-z
-x,-y,-z
x,1/2-y,z
loop_
_atom_site_type_symbol
_atom_site_label
_atom_site_fract_x
_atom_site_fract_y
_atom_site_fract_z
Si Si1 0.994686 0.250000 0.873115
Si Si2 0.351731 0.956449 0.408854
Si Si3 0.661956 0.750000 0.794693
Si Si4 0.658850 0.957059 0.087858
Si Si5 0.889887 0.955155 0.226096
Si Si6 0.302948 0.250000 0.893433
Si Si7 0.191551 0.750000 0.449285
Si Si8 0.171256 0.460737 0.241301
O O1 0.078649 0.342933 0.781970
O O2 0.156011 0.250000 0.878662
O O3 0.665763 0.250000 0.052796
O O4 0.490174 0.975733 0.253842
O O5 0.301218 0.843740 0.437615
O O6 0.579605 0.983258 0.360879
O O7 0.049987 0.992245 0.580012
O O8 0.748416 0.849433 0.793415
O O9 0.861900 0.750000 0.616290
O O10 0.759804 0.849272 0.035049
O O11 0.445712 0.981294 0.122979
O O12 0.921505 0.022524 0.945483
O O13 0.021096 0.011969 0.233929
O O14 0.636966 0.250000 0.718094
#
# Coordination Sequence:
#
# PCOD9164147 Si02
#       8
#     2   4   2   4   4   2   2   4
#     4  12  22  39  64  88 124 166 201 247 314 375
#     4  10  20  39  63  88 124 164 208 245 299 368
#     4  10  22  37  60  85 129 159 200 242 309 366
#     4  11  22  39  63  92 123 162 207 251 304 359
#     4  12  23  39  64  95 122 163 207 251 308 363
#     4  10  22  40  62  90 124 161 204 256 305 359
#     4   8  16  36  58  85 115 166 195 237 302 362
#     4  11  24  40  62  94 125 164 202 255 306 360
#
# _framework density 20.952442000000001
#
# number of rings (size 3 to 8) (size 9 to 14) (size 15 to 20)
#    0.000    1.333    5.000    2.000    0.000    1.333 
#    0.000    0.000    0.000    4.000    0.000    0.000 
#    0.000    0.000    0.000    0.000    0.000    0.000 
#
# Total GULP energy -133849.845334 kJ/mol
# GULP energy per Si atom -5577.076889 kJ/mol
# Density = 2.090475 g / cm^3
# Si number density = 20.952442 Si / 1000 Ang^3
#
#
#
# Elastic Constant Matrix: (Units=GPa)
#
#
# Indices 1 2 3 4 5 6 
#
# 1 62.1198 3.5763 3.9698 0.0000 -9.3109 0.0000
# 2 3.5763 72.4153 -11.3154 0.0000 -0.1559 0.0000
# 3 3.9698 -11.3154 82.4669 0.0000 -18.6229 0.0000
# 4 0.0000 0.0000 0.0000 16.9224 0.0000 -1.4666
# 5 -9.3109 -0.1559 -18.6229 0.0000 31.8817 0.0000
# 6 0.0000 0.0000 0.0000 -1.4666 0.0000 22.5874
#
#
#
# Elastic Compliance Matrix: (Units=1/GPa)
#
#
# Indices 1 2 3 4 5 6 
#
# 1 0.016887 -0.000789 0.000221 0.000000 0.005057 0.000000
# 2 -0.000789 0.014202 0.002247 0.000000 0.001151 0.000000
# 3 0.000221 0.002247 0.014331 0.000000 0.008447 0.000000
# 4 0.000000 0.000000 0.000000 0.059428 0.000000 0.003859
# 5 0.005057 0.001151 0.008447 0.000000 0.037782 0.000000
# 6 0.000000 0.000000 0.000000 0.003859 0.000000 0.044523
#
#
# Mechanical properties :
#
#
# Convention : Reuss Voigt Hill
#
# Bulk Modulus (GPa) = 20.50112 23.27371 21.88742
# Shear Modulus (GPa) = 24.99316 28.99637 26.99477
#
# Velocity S-wave (km/s) = 3.45752 3.72413 3.59330
# Velocity P-wave (km/s) = 5.07396 5.44281 5.26162
#
# Compressibility (1/GPa) = 0.04877781
#
# Stress axis : x y z
#
# Youngs Moduli (GPa) = 59.21646 70.41406 69.77805
#
# Poissons Ratio (x) = 0.05553 -0.01541
# Poissons Ratio (y) = 0.04670 -0.15676
# Poissons Ratio (z) = -0.01308 -0.15819
#
# Static dielectric constant tensor:
#      x y z
#    x 1.762510 0.000000 0.054210 
#    y 0.000000 1.790040 0.000000 
#    z 0.054210 0.000000 1.809870 
# 
# From -- ./inp_files/22374.got.cif
#   From: 2010.05.17/outbox.cif.g08.bks.cpg/sg11_12_cif.got.tgz:22374.got - 2010.06.03 12:22:45.
