data_PCOD9164457
_publ_section_title
;
Structure prediction by ZEFSAII (Michael W. Deem and Ramdas Pophale) SiO2 
 PCOD9164457
Probable space group: P 21/M
;
_chemical_formula_sum "Si O2"
_cell_formula_units_Z 32
_cell_length_a 10.632804
_cell_length_b 20.295381
_cell_length_c 10.277960
_cell_angle_alpha 90.000000
_cell_angle_beta 134.428882
_cell_angle_gamma 90.000000
_cell_volume 1583.882917
_symmetry_space_group_name_H-M "P 21/M"
_symmetry_group_IT_number 11
_symmetry_cell_setting 'monoclinic'
loop_
_space_group_symop_operation_xyz
x,y,z
-x,1/2+y,-z
-x,-y,-z
x,1/2-y,z
loop_
_atom_site_type_symbol
_atom_site_label
_atom_site_fract_x
_atom_site_fract_y
_atom_site_fract_z
Si Si1 0.517946 0.677659 0.806213
Si Si2 0.516824 0.177297 0.521833
Si Si3 0.962402 0.573759 0.320126
Si Si4 0.948023 0.824497 0.103698
Si Si5 0.513330 0.455574 0.640835
Si Si6 0.086727 0.174272 0.215712
Si Si7 0.119271 0.429452 0.446924
Si Si8 0.578971 0.540462 0.938345
O O1 0.464531 0.750000 0.820316
O O2 0.452423 0.673198 0.610418
O O3 0.471704 0.608811 0.840919
O O4 0.733224 0.677600 0.961377
O O5 0.570792 0.250000 0.608838
O O6 0.593305 0.114547 0.653200
O O7 0.301675 0.174741 0.372976
O O8 0.032112 0.628954 0.272777
O O9 0.931076 0.595036 0.445884
O O10 0.064526 0.505382 0.395033
O O11 0.773294 0.557288 0.124215
O O12 0.010538 0.750000 0.166314
O O13 0.974723 0.844529 0.973497
O O14 0.500000 0.500000 0.500000
O O15 0.326419 0.433716 0.567309
O O16 0.592502 0.500419 0.812785
O O17 0.032639 0.250000 0.203504
O O18 0.032723 0.119560 0.280251
O O19 0.500000 0.500000 0.000000
#
# Coordination Sequence:
#
# PCOD9164457 Si02
#       8
#     4   4   4   4   4   4   4   4
#     4   8  14  27  48  72  98 131 168 208 253 299
#     4   8  14  27  48  73  99 128 168 212 250 298
#     4  10  21  35  51  76 108 139 172 211 256 311
#     4   8  15  29  50  75 101 130 170 215 255 301
#     4  11  20  34  54  80 104 136 175 214 264 310
#     4   8  15  29  50  75 101 130 170 216 257 298
#     4  10  21  35  51  77 106 138 174 212 258 306
#     4  11  20  34  52  78 107 137 173 214 261 307
#
# _framework density 20.203513999999998
#
# number of rings (size 3 to 8) (size 9 to 14) (size 15 to 20)
#    0.000    2.750    2.500    1.500    1.750    1.000 
#    0.000    0.625    0.000    3.000    0.000    0.000 
#    0.000    0.000    0.000    0.000    0.000    0.000 
#
# Total GULP energy -178318.571838 kJ/mol
# GULP energy per Si atom -5572.455370 kJ/mol
# Density = 2.015753 g / cm^3
# Si number density = 20.203514 Si / 1000 Ang^3
#
#
#
# Elastic Constant Matrix: (Units=GPa)
#
#
# Indices 1 2 3 4 5 6 
#
# 1 31.5617 24.5657 28.0629 0.0000 -14.1473 0.0000
# 2 24.5657 136.6422 71.0132 0.0000 -35.7873 0.0000
# 3 28.0629 71.0132 94.8221 0.0000 -42.7883 0.0000
# 4 0.0000 0.0000 0.0000 30.9864 0.0000 -16.1806
# 5 -14.1473 -35.7873 -42.7883 0.0000 29.4764 0.0000
# 6 0.0000 0.0000 0.0000 -16.1806 0.0000 15.2272
#
#
#
# Elastic Compliance Matrix: (Units=1/GPa)
#
#
# Indices 1 2 3 4 5 6 
#
# 1 0.043611 -0.001595 -0.009105 0.000000 0.005777 0.000000
# 2 -0.001595 0.012241 -0.006767 0.000000 0.004273 0.000000
# 3 -0.009105 -0.006767 0.036611 0.000000 0.040559 0.000000
# 4 0.000000 0.000000 0.000000 0.072502 0.000000 0.077042
# 5 0.005777 0.004273 0.040559 0.000000 0.100762 0.000000
# 6 0.000000 0.000000 0.000000 0.077042 0.000000 0.147538
#
#
# Mechanical properties :
#
#
# Convention : Reuss Voigt Hill
#
# Bulk Modulus (GPa) = 17.38295 56.70107 37.04201
# Shear Modulus (GPa) = 10.69801 24.43027 17.56414
#
# Velocity S-wave (km/s) = 2.30361 3.48114 2.95169
# Velocity P-wave (km/s) = 3.96208 6.65460 5.47639
#
# Compressibility (1/GPa) = 0.05752762
#
# Stress axis : x y z
#
# Youngs Moduli (GPa) = 22.92995 81.69077 27.31437
#
# Poissons Ratio (x) = 0.13034 0.24870
# Poissons Ratio (y) = 0.03658 0.18484
# Poissons Ratio (z) = 0.20878 0.55282
#
# Static dielectric constant tensor:
#      x y z
#    x 2.271360 0.000000 -0.059760 
#    y 0.000000 1.796220 0.000000 
#    z -0.059760 0.000000 1.716680 
# 
# From -- ./inp_files/19191.got.cif
#   From: 2010.05.17/outbox.cif.g08.bks.cpg/sg11_10_cif.got.tgz:19191.got - 2010.06.03 12:22:45.
