data_PCOD9164818
_publ_section_title
;
Structure prediction by ZEFSAII (Michael W. Deem and Ramdas Pophale) SiO2 
 PCOD9164818
Probable space group: P 21/M
;
_chemical_formula_sum "Si O2"
_cell_formula_units_Z 32
_cell_length_a 22.548173
_cell_length_b 8.697110
_cell_length_c 15.319636
_cell_angle_alpha 90.000000
_cell_angle_beta 148.579767
_cell_angle_gamma 90.000000
_cell_volume 1566.143924
_symmetry_space_group_name_H-M "P 21/M"
_symmetry_group_IT_number 11
_symmetry_cell_setting 'monoclinic'
loop_
_space_group_symop_operation_xyz
x,y,z
-x,1/2+y,-z
-x,-y,-z
x,1/2-y,z
loop_
_atom_site_type_symbol
_atom_site_label
_atom_site_fract_x
_atom_site_fract_y
_atom_site_fract_z
Si Si1 0.186879 0.069777 0.481633
Si Si2 0.929030 0.068648 0.120163
Si Si3 0.676922 0.066608 0.505204
Si Si4 0.808890 0.933663 0.133912
Si Si5 0.557558 0.436714 0.800670
Si Si6 0.818655 0.422535 0.334352
Si Si7 0.452028 0.581060 0.022215
Si Si8 0.121891 0.066692 0.123545
O O1 0.214439 0.250000 0.522259
O O2 0.064962 0.053330 0.281427
O O3 0.280450 0.988555 0.537957
O O4 0.167568 0.005297 0.555246
O O5 0.901220 0.250000 0.082346
O O6 0.894426 0.998802 0.169451
O O7 0.868475 0.978817 0.966018
O O8 0.667615 0.250000 0.493430
O O9 0.557603 0.993321 0.389592
O O10 0.777241 0.009923 0.694964
O O11 0.804848 0.750000 0.129786
O O12 0.845710 0.992434 0.276964
O O13 0.684558 0.998685 0.947207
O O14 0.564434 0.250000 0.807934
O O15 0.529953 0.498052 0.863532
O O16 0.869267 0.250000 0.399421
O O17 0.682531 0.407002 0.156412
O O18 0.503721 0.750000 0.092232
O O19 0.500000 0.500000 0.000000
O O20 0.123500 0.250000 0.137739
O O21 0.000000 0.000000 0.000000
#
# Coordination Sequence:
#
# PCOD9164818 Si02
#       8
#     4   4   4   4   4   4   4   4
#     4  11  23  38  60  91 126 163 208 259 314 370
#     4  11  24  43  66  91 123 164 208 256 312 371
#     4  12  24  39  63  95 130 164 203 254 313 371
#     4  11  23  41  64  90 123 165 213 257 307 367
#     4  10  21  39  60  85 121 163 206 252 306 365
#     4  10  21  37  56  82 120 164 209 255 307 364
#     4   9  18  30  48  75 109 152 197 245 297 354
#     4  12  24  42  67  96 127 161 202 251 311 372
#
# _framework density 20.432348999999999
#
# number of rings (size 3 to 8) (size 9 to 14) (size 15 to 20)
#    0.000    1.250    1.250    6.375    0.000    7.000 
#    0.000    0.625    0.000    0.000    0.000    0.000 
#    0.000    0.000    0.000    0.000    0.000    0.000 
#
# Total GULP energy -178635.659984 kJ/mol
# GULP energy per Si atom -5582.364375 kJ/mol
# Density = 2.038584 g / cm^3
# Si number density = 20.432349 Si / 1000 Ang^3
#
#
#
# Elastic Constant Matrix: (Units=GPa)
#
#
# Indices 1 2 3 4 5 6 
#
# 1 57.9550 19.6668 0.7579 0.0000 -5.8297 0.0000
# 2 19.6668 124.4269 18.8230 0.0000 7.4069 0.0000
# 3 0.7579 18.8230 82.6332 0.0000 -0.1750 0.0000
# 4 0.0000 0.0000 0.0000 30.3835 0.0000 -3.1311
# 5 -5.8297 7.4069 -0.1750 0.0000 29.8572 0.0000
# 6 0.0000 0.0000 0.0000 -3.1311 0.0000 29.2604
#
#
#
# Elastic Compliance Matrix: (Units=1/GPa)
#
#
# Indices 1 2 3 4 5 6 
#
# 1 0.018832 -0.003335 0.000597 0.000000 0.004508 0.000000
# 2 -0.003335 0.009045 -0.002036 0.000000 -0.002907 0.000000
# 3 0.000597 -0.002036 0.012561 0.000000 0.000695 0.000000
# 4 0.000000 0.000000 0.000000 0.033280 0.000000 0.003561
# 5 0.004508 -0.002907 0.000695 0.000000 0.035098 0.000000
# 6 0.000000 0.000000 0.000000 0.003561 0.000000 0.034557
#
#
# Mechanical properties :
#
#
# Convention : Reuss Voigt Hill
#
# Bulk Modulus (GPa) = 32.37344 38.16782 35.27063
# Shear Modulus (GPa) = 30.63365 32.95136 31.79251
#
# Velocity S-wave (km/s) = 3.87624 4.02021 3.94888
# Velocity P-wave (km/s) = 5.99269 6.34587 6.17181
#
# Compressibility (1/GPa) = 0.03088952
#
# Stress axis : x y z
#
# Youngs Moduli (GPa) = 53.10055 110.55779 79.60867
#
# Poissons Ratio (x) = 0.36873 -0.04749
# Poissons Ratio (y) = 0.17710 0.16208
# Poissons Ratio (z) = -0.03168 0.22509
#
# Static dielectric constant tensor:
#      x y z
#    x 1.730800 0.000000 -0.003930 
#    y 0.000000 1.717960 0.000000 
#    z -0.003930 0.000000 1.772700 
# 
# From -- ./inp_files/55764.got.cif
#   From: 2010.05.17/outbox.cif.g08.bks.cpg/sg11_28_cif.got.tgz:55764.got - 2010.06.03 12:22:45.
