data_PCOD9164713
_publ_section_title
;
Structure prediction by ZEFSAII (Michael W. Deem and Ramdas Pophale) SiO2 
 PCOD9164713
Probable space group: P 21/M
;
_chemical_formula_sum "Si O2"
_cell_formula_units_Z 20
_cell_length_a 11.014925
_cell_length_b 17.386211
_cell_length_c 11.433023
_cell_angle_alpha 90.000000
_cell_angle_beta 28.330424
_cell_angle_gamma 90.000000
_cell_volume 1039.045913
_symmetry_space_group_name_H-M "P 21/M"
_symmetry_group_IT_number 11
_symmetry_cell_setting 'monoclinic'
loop_
_space_group_symop_operation_xyz
x,y,z
-x,1/2+y,-z
-x,-y,-z
x,1/2-y,z
loop_
_atom_site_type_symbol
_atom_site_label
_atom_site_fract_x
_atom_site_fract_y
_atom_site_fract_z
Si Si1 0.551838 0.508911 0.593125
Si Si2 0.675607 0.660580 0.629498
Si Si3 0.146135 0.566864 0.306679
Si Si4 0.420374 0.337107 0.011280
Si Si5 0.142412 0.455828 0.118315
O O1 0.500000 0.500000 0.500000
O O2 0.553873 0.596305 0.646341
O O3 0.843717 0.477769 0.362125
O O4 0.320188 0.463383 0.853717
O O5 0.657055 0.750000 0.606490
O O6 0.965671 0.630712 0.401047
O O7 0.585207 0.658710 0.842293
O O8 0.340938 0.610106 0.224341
O O9 0.269276 0.518550 0.097961
O O10 0.000000 0.500000 0.500000
O O11 0.453500 0.250000 0.948480
O O12 0.179230 0.375138 0.153007
#
# Coordination Sequence:
#
# PCOD9164713 Si02
#       5
#     4   4   4   4   4
#     4  11  24  43  64  85 117 168 222 254 294 359
#     4  10  21  36  58  90 123 159 202 261 318 372
#     4  11  19  34  57  90 125 161 198 243 315 390
#     4  11  21  35  57  93 128 158 194 257 333 386
#     4  11  22  39  63  89 120 157 205 254 309 371
#
# _framework density 19.248427
#
# number of rings (size 3 to 8) (size 9 to 14) (size 15 to 20)
#    0.000    1.200    4.000    4.200    0.000    0.000 
#    0.000    2.000    0.000    0.000    0.000    0.000 
#    0.000    0.000    0.000    0.000    0.000    0.000 
#
# Total GULP energy -111440.197431 kJ/mol
# GULP energy per Si atom -5572.009872 kJ/mol
# Density = 1.920462 g / cm^3
# Si number density = 19.248427 Si / 1000 Ang^3
#
#
#
# Elastic Constant Matrix: (Units=GPa)
#
#
# Indices 1 2 3 4 5 6 
#
# 1 86.5703 54.3552 28.9714 0.0000 9.6718 0.0000
# 2 54.3552 137.5031 47.1795 0.0000 -6.0282 0.0000
# 3 28.9714 47.1795 92.6207 0.0000 11.4199 0.0000
# 4 0.0000 0.0000 0.0000 21.0670 0.0000 1.6772
# 5 9.6718 -6.0282 11.4199 0.0000 33.2250 0.0000
# 6 0.0000 0.0000 0.0000 1.6772 0.0000 17.9815
#
#
#
# Elastic Compliance Matrix: (Units=1/GPa)
#
#
# Indices 1 2 3 4 5 6 
#
# 1 0.016593 -0.006370 -0.001261 0.000000 -0.005553 0.000000
# 2 -0.006370 0.011615 -0.004608 0.000000 0.005545 0.000000
# 3 -0.001261 -0.004608 0.014198 0.000000 -0.005349 0.000000
# 4 0.000000 0.000000 0.000000 0.047823 0.000000 -0.004460
# 5 -0.005553 0.005545 -0.005349 0.000000 0.034559 0.000000
# 6 0.000000 0.000000 0.000000 -0.004460 0.000000 0.056029
#
#
# Mechanical properties :
#
#
# Convention : Reuss Voigt Hill
#
# Bulk Modulus (GPa) = 55.77684 64.18959 59.98322
# Shear Modulus (GPa) = 23.66650 26.86723 25.26686
#
# Velocity S-wave (km/s) = 3.51027 3.74011 3.62701
# Velocity P-wave (km/s) = 6.74311 7.21607 6.98359
#
# Compressibility (1/GPa) = 0.01792859
#
# Stress axis : x y z
#
# Youngs Moduli (GPa) = 60.26536 86.09756 70.43445
#
# Poissons Ratio (x) = 0.54846 0.08880
# Poissons Ratio (y) = 0.38390 0.32453
# Poissons Ratio (z) = 0.07598 0.39670
#
# Static dielectric constant tensor:
#      x y z
#    x 1.685310 0.000000 0.004690 
#    y 0.000000 1.688710 0.000000 
#    z 0.004690 0.000000 1.779890 
# 
# From -- ./inp_files/4198.got.cif
#   From: 2010.05.17/outbox.cif.g08.bks.cpg/sg11_3_cif.got.tgz:4198.got - 2010.06.03 12:22:45.
