data_PCOD9164412
_publ_section_title
;
Structure prediction by ZEFSAII (Michael W. Deem and Ramdas Pophale) SiO2 
 PCOD9164412
Probable space group: P 21/M
;
_chemical_formula_sum "Si O2"
_cell_formula_units_Z 30
_cell_length_a 26.884474
_cell_length_b 9.419498
_cell_length_c 11.152632
_cell_angle_alpha 90.000000
_cell_angle_beta 146.894512
_cell_angle_gamma 90.000000
_cell_volume 1542.567636
_symmetry_space_group_name_H-M "P 21/M"
_symmetry_group_IT_number 11
_symmetry_cell_setting 'monoclinic'
loop_
_space_group_symop_operation_xyz
x,y,z
-x,1/2+y,-z
-x,-y,-z
x,1/2-y,z
loop_
_atom_site_type_symbol
_atom_site_label
_atom_site_fract_x
_atom_site_fract_y
_atom_site_fract_z
Si Si1 0.752698 0.916441 0.212760
Si Si2 0.102952 0.416145 0.077011
Si Si3 0.645183 0.490419 0.772509
Si Si4 0.251256 0.584818 0.261487
Si Si5 0.886873 0.083439 0.654385
Si Si6 0.560541 0.906220 0.957153
Si Si7 0.497914 0.250000 0.541716
Si Si8 0.399723 0.090893 0.679533
O O1 0.778691 0.750000 0.265883
O O2 0.826391 0.010529 0.430280
O O3 0.725659 0.969145 0.027035
O O4 0.656763 0.928123 0.090227
O O5 0.128187 0.250000 0.137053
O O6 0.159156 0.494513 0.086925
O O7 0.125822 0.497335 0.247297
O O8 0.994325 0.425592 0.841216
O O9 0.693216 0.437050 0.748473
O O10 0.578238 0.372816 0.692009
O O11 0.582226 0.626611 0.622141
O O12 0.234167 0.750000 0.248065
O O13 0.317787 0.516553 0.495369
O O14 0.863813 0.250000 0.623282
O O15 0.524890 0.750000 0.845653
O O16 0.487110 0.028031 0.786832
O O17 0.576111 0.902082 0.131356
O O18 0.378383 0.250000 0.594671
#
# Coordination Sequence:
#
# PCOD9164412 Si02
#       8
#     4   4   4   4   4   4   2   4
#     4  11  23  38  61  89 122 161 208 257 307 369
#     4  10  22  42  68  96 126 161 203 253 312 376
#     4  11  25  41  63  92 123 170 218 261 315 362
#     4  12  25  39  60  88 121 159 208 260 309 370
#     4  10  22  41  68  98 127 161 201 250 312 378
#     4   9  20  36  52  79 117 153 192 241 300 364
#     4  10  24  44  62  84 126 170 222 264 302 364
#     4  10  21  34  54  82 115 155 194 242 306 368
#
# _framework density 19.448094999999999
#
# number of rings (size 3 to 8) (size 9 to 14) (size 15 to 20)
#    0.000    1.600    1.333    2.400    6.533    3.733 
#    0.000    0.667    0.000    0.000    0.000    0.000 
#    0.000    0.000    0.000    0.000    0.000    0.000 
#
# Total GULP energy -167130.127440 kJ/mol
# GULP energy per Si atom -5571.004248 kJ/mol
# Density = 1.940383 g / cm^3
# Si number density = 19.448095 Si / 1000 Ang^3
#
#
#
# Elastic Constant Matrix: (Units=GPa)
#
#
# Indices 1 2 3 4 5 6 
#
# 1 41.8552 32.5671 22.8804 0.0000 8.7871 0.0000
# 2 32.5671 165.2490 40.7922 0.0000 9.8553 0.0000
# 3 22.8804 40.7922 55.8598 0.0000 2.8263 0.0000
# 4 0.0000 0.0000 0.0000 27.5269 0.0000 15.3737
# 5 8.7871 9.8553 2.8263 0.0000 15.3368 0.0000
# 6 0.0000 0.0000 0.0000 15.3737 0.0000 13.0907
#
#
#
# Elastic Compliance Matrix: (Units=1/GPa)
#
#
# Indices 1 2 3 4 5 6 
#
# 1 0.036276 -0.003296 -0.011615 0.000000 -0.016525 0.000000
# 2 -0.003296 0.007906 -0.004302 0.000000 -0.002399 0.000000
# 3 -0.011615 -0.004302 0.025563 0.000000 0.004709 0.000000
# 4 0.000000 0.000000 0.000000 0.105573 0.000000 -0.123985
# 5 -0.016525 -0.002399 0.004709 0.000000 0.075344 0.000000
# 6 0.000000 0.000000 0.000000 -0.123985 0.000000 0.221998
#
#
# Mechanical properties :
#
#
# Convention : Reuss Voigt Hill
#
# Bulk Modulus (GPa) = 31.93107 50.60480 41.26794
# Shear Modulus (GPa) = 9.58724 22.30584 15.94654
#
# Velocity S-wave (km/s) = 2.22269 3.39033 2.86659
# Velocity P-wave (km/s) = 4.80015 6.43449 5.67645
#
# Compressibility (1/GPa) = 0.03131746
#
# Stress axis : x y z
#
# Youngs Moduli (GPa) = 27.56669 126.48392 39.11903
#
# Poissons Ratio (x) = 0.41693 0.45438
# Poissons Ratio (y) = 0.09087 0.16829
# Poissons Ratio (z) = 0.32020 0.54413
#
# Static dielectric constant tensor:
#      x y z
#    x 1.718250 0.000000 -0.024890 
#    y 0.000000 1.678180 0.000000 
#    z -0.024890 0.000000 1.672050 
# 
# From -- ./inp_files/45084.got.cif
#   From: 2010.05.17/outbox.cif.g08.bks.cpg/sg11_23_cif.got.tgz:45084.got - 2010.06.03 12:22:45.
