data_PCOD9164518
_publ_section_title
;
Structure prediction by ZEFSAII (Michael W. Deem and Ramdas Pophale) SiO2 
 PCOD9164518
Probable space group: P 21/M
;
_chemical_formula_sum "Si O2"
_cell_formula_units_Z 32
_cell_length_a 16.209643
_cell_length_b 27.557879
_cell_length_c 9.708207
_cell_angle_alpha 90.000000
_cell_angle_beta 153.944965
_cell_angle_gamma 90.000000
_cell_volume 1904.822393
_symmetry_space_group_name_H-M "P 21/M"
_symmetry_group_IT_number 11
_symmetry_cell_setting 'monoclinic'
loop_
_space_group_symop_operation_xyz
x,y,z
-x,1/2+y,-z
-x,-y,-z
x,1/2-y,z
loop_
_atom_site_type_symbol
_atom_site_label
_atom_site_fract_x
_atom_site_fract_y
_atom_site_fract_z
Si Si1 0.197865 0.386103 0.245315
Si Si2 0.812837 0.381910 0.500630
Si Si3 0.812828 0.881908 0.437867
Si Si4 0.197856 0.886104 0.848268
Si Si5 0.500004 0.458215 0.110453
Si Si6 0.499994 0.804402 0.970877
Si Si7 0.500006 0.305336 0.696413
Si Si8 0.500003 0.030205 0.639778
O O1 0.166676 0.385481 0.364765
O O2 0.320672 0.338441 0.391621
O O3 0.322282 0.433655 0.395189
O O4 0.007600 0.384156 0.873241
O O5 0.833330 0.385481 0.364745
O O6 0.681484 0.425402 0.356252
O O7 0.687645 0.334282 0.346699
O O8 0.007589 0.884157 0.649541
O O9 0.681469 0.925400 0.188180
O O10 0.687640 0.834280 0.216232
O O11 0.320665 0.838443 0.070386
O O12 0.322269 0.933656 0.071640
O O13 0.500000 0.487007 0.250946
O O14 0.500000 0.500000 0.000000
O O15 0.499992 0.750000 0.915703
O O16 0.499992 0.802595 0.137277
O O17 0.500008 0.250000 0.643477
O O18 0.500000 0.000000 0.500000
#
# Coordination Sequence:
#
# PCOD9164518 Si02
#       8
#     4   4   4   4   4   4   4   4
#     4  10  21  37  54  83 111 138 183 221 266 318
#     4  10  21  35  57  81 108 144 178 224 264 319
#     4  10  21  35  57  81 108 144 178 224 264 319
#     4  10  21  37  54  83 111 138 183 221 266 318
#     4  11  20  40  55  73 109 147 180 213 269 319
#     4   8  16  35  57  78 107 145 179 212 268 326
#     4   8  16  35  59  77 107 146 176 216 268 320
#     4  11  24  38  55  79 107 145 181 227 265 318
#
# _framework density 16.799465999999999
#
# number of rings (size 3 to 8) (size 9 to 14) (size 15 to 20)
#    0.000    2.250    2.500    1.500    3.500    3.000 
#    0.000    0.000    0.000    1.500    0.000    0.000 
#    0.000    0.000    0.000    0.000    0.000    0.000 
#
# Total GULP energy -178299.301623 kJ/mol
# GULP energy per Si atom -5571.853176 kJ/mol
# Density = 1.676123 g / cm^3
# Si number density = 16.799466 Si / 1000 Ang^3
#
#
#
# Elastic Constant Matrix: (Units=GPa)
#
#
# Indices 1 2 3 4 5 6 
#
# 1 120.4204 73.8012 82.8211 0.0000 10.4058 0.0000
# 2 73.8012 166.9555 88.6970 0.0000 10.9627 0.0000
# 3 82.8211 88.6970 163.7874 0.0000 21.5425 0.0000
# 4 0.0000 0.0000 0.0000 4.4053 0.0000 -8.2334
# 5 10.4058 10.9627 21.5425 0.0000 34.0718 0.0000
# 6 0.0000 0.0000 0.0000 -8.2334 0.0000 15.5715
#
#
#
# Elastic Compliance Matrix: (Units=1/GPa)
#
#
# Indices 1 2 3 4 5 6 
#
# 1 0.013988 -0.003404 -0.005248 0.000000 0.000142 0.000000
# 2 -0.003404 0.009238 -0.003302 0.000000 0.000155 0.000000
# 3 -0.005248 -0.003302 0.011122 0.000000 -0.004367 0.000000
# 4 0.000000 0.000000 0.000000 19.286369 0.000000 10.197658
# 5 0.000142 0.000155 -0.004367 0.000000 0.032018 0.000000
# 6 0.000000 0.000000 0.000000 10.197658 0.000000 5.456226
#
#
# Mechanical properties :
#
#
# Convention : Reuss Voigt Hill
#
# Bulk Modulus (GPa) = 95.79264 104.64468 100.21866
# Shear Modulus (GPa) = 0.20132 24.53264 12.36698
#
# Velocity S-wave (km/s) = 0.34655 3.82556 2.71616
# Velocity P-wave (km/s) = 7.57002 9.05201 8.34398
#
# Compressibility (1/GPa) = 0.01043922
#
# Stress axis : x y z
#
# Youngs Moduli (GPa) = 71.48999 108.24270 89.91397
#
# Poissons Ratio (x) = 0.36850 0.47189
# Poissons Ratio (y) = 0.24338 0.29689
# Poissons Ratio (z) = 0.37519 0.35741
#
# Static dielectric constant tensor:
#      x y z
#    x 1.534660 0.000000 0.010070 
#    y 0.000000 1.570520 0.000000 
#    z 0.010070 0.000000 1.548320 
# 
# From -- ./inp_files/15084.got.cif
#   From: 2010.05.17/outbox.cif.g08.bks.cpg/sg11_8_cif.got.tgz:15084.got - 2010.06.03 12:22:45.
