data_PCOD9164835
_publ_section_title
;
Structure prediction by ZEFSAII (Michael W. Deem and Ramdas Pophale) SiO2 
 PCOD9164835
Probable space group: P 21/M
;
_chemical_formula_sum "Si O2"
_cell_formula_units_Z 32
_cell_length_a 15.926168
_cell_length_b 8.774697
_cell_length_c 26.447107
_cell_angle_alpha 90.000000
_cell_angle_beta 29.850338
_cell_angle_gamma 90.000000
_cell_volume 1839.588913
_symmetry_space_group_name_H-M "P 21/M"
_symmetry_group_IT_number 11
_symmetry_cell_setting 'monoclinic'
loop_
_space_group_symop_operation_xyz
x,y,z
-x,1/2+y,-z
-x,-y,-z
x,1/2-y,z
loop_
_atom_site_type_symbol
_atom_site_label
_atom_site_fract_x
_atom_site_fract_y
_atom_site_fract_z
Si Si1 0.731583 0.931870 0.156443
Si Si2 0.916626 0.432560 0.429270
Si Si3 0.876602 0.932072 0.777099
Si Si4 0.435158 0.067365 0.131249
Si Si5 0.772627 0.431495 0.671112
Si Si6 0.038481 0.431840 0.057808
Si Si7 0.362937 0.068610 0.361550
Si Si8 0.173599 0.568864 0.089660
O O1 0.709380 0.750000 0.170749
O O2 0.873319 0.986451 0.121898
O O3 0.555053 0.012985 0.258405
O O4 0.808776 0.969702 0.060800
O O5 0.916085 0.250000 0.434857
O O6 0.737905 0.501004 0.538138
O O7 0.982374 0.469393 0.338597
O O8 0.056873 0.501036 0.393920
O O9 0.878958 0.750000 0.784178
O O10 0.697508 0.970308 0.843886
O O11 0.893955 0.016098 0.820871
O O12 0.419934 0.250000 0.148595
O O13 0.373873 0.979269 0.212975
O O14 0.626486 0.031906 0.017168
O O15 0.784387 0.250000 0.660752
O O16 0.730053 0.503700 0.639575
O O17 0.014205 0.250000 0.068738
O O18 0.084100 0.486458 0.089741
O O19 0.354433 0.250000 0.366172
O O20 0.155923 0.750000 0.093040
#
# Coordination Sequence:
#
# PCOD9164835 Si02
#       8
#     4   4   4   4   4   4   4   4
#     4  10  21  38  59  83 109 137 171 213 261 312
#     4  10  21  38  55  74 104 141 180 222 265 309
#     4   9  19  35  53  73 103 141 179 221 265 308
#     4   9  19  34  50  74 108 144 179 217 262 311
#     4  11  21  33  51  77 108 142 179 219 262 310
#     4  10  21  37  57  81 110 141 172 210 259 314
#     4  12  23  35  54  79 107 140 177 216 260 314
#     4  11  21  32  52  79 107 140 179 220 260 310
#
# _framework density 17.395191000000001
#
# number of rings (size 3 to 8) (size 9 to 14) (size 15 to 20)
#    0.000    1.750    0.000    6.000    0.000    7.000 
#    0.000    0.000    0.000    0.750    0.000    0.000 
#    0.000    0.000    0.000    0.000    0.000    0.000 
#
# Total GULP energy -178824.183264 kJ/mol
# GULP energy per Si atom -5588.255727 kJ/mol
# Density = 1.735560 g / cm^3
# Si number density = 17.395191 Si / 1000 Ang^3
#
#
#
# Elastic Constant Matrix: (Units=GPa)
#
#
# Indices 1 2 3 4 5 6 
#
# 1 72.5664 36.2145 45.4813 0.0000 19.3409 0.0000
# 2 36.2145 84.4787 55.1476 0.0000 6.9266 0.0000
# 3 45.4813 55.1476 112.1112 0.0000 3.4501 0.0000
# 4 0.0000 0.0000 0.0000 27.9826 0.0000 0.8085
# 5 19.3409 6.9266 3.4501 0.0000 16.2693 0.0000
# 6 0.0000 0.0000 0.0000 0.8085 0.0000 28.5834
#
#
#
# Elastic Compliance Matrix: (Units=1/GPa)
#
#
# Indices 1 2 3 4 5 6 
#
# 1 0.030266 -0.004371 -0.009138 0.000000 -0.032182 0.000000
# 2 -0.004371 0.018597 -0.007339 0.000000 -0.001166 0.000000
# 3 -0.009138 -0.007339 0.015910 0.000000 0.010614 0.000000
# 4 0.000000 0.000000 0.000000 0.035766 0.000000 -0.001012
# 5 -0.032182 -0.001166 0.010614 0.000000 0.097969 0.000000
# 6 0.000000 0.000000 0.000000 -0.001012 0.000000 0.035014
#
#
# Mechanical properties :
#
#
# Convention : Reuss Voigt Hill
#
# Bulk Modulus (GPa) = 43.33068 60.31591 51.82330
# Shear Modulus (GPa) = 17.67337 23.38791 20.53064
#
# Velocity S-wave (km/s) = 3.19092 3.67073 3.43920
# Velocity P-wave (km/s) = 6.20803 7.26050 6.75479
#
# Compressibility (1/GPa) = 0.02307834
#
# Stress axis : x y z
#
# Youngs Moduli (GPa) = 33.03989 53.77070 62.85186
#
# Poissons Ratio (x) = 0.23501 0.57435
# Poissons Ratio (y) = 0.14440 0.46128
# Poissons Ratio (z) = 0.30193 0.39463
#
# Static dielectric constant tensor:
#      x y z
#    x 1.560430 0.000000 0.003150 
#    y 0.000000 1.576700 0.000000 
#    z 0.003150 0.000000 1.597670 
# 
# From -- ./inp_files/51716.got.cif
#   From: 2010.05.17/outbox.cif.g08.bks.cpg/sg11_26_cif.got.tgz:51716.got - 2010.06.03 12:22:45.
