data_PCOD9164946
_publ_section_title
;
Structure prediction by ZEFSAII (Michael W. Deem and Ramdas Pophale) SiO2 
 PCOD9164946
Probable space group: P 21/M
;
_chemical_formula_sum "Si O2"
_cell_formula_units_Z 32
_cell_length_a 15.893414
_cell_length_b 8.389317
_cell_length_c 27.143618
_cell_angle_alpha 90.000000
_cell_angle_beta 26.890116
_cell_angle_gamma 90.000000
_cell_volume 1636.890942
_symmetry_space_group_name_H-M "P 21/M"
_symmetry_group_IT_number 11
_symmetry_cell_setting 'monoclinic'
loop_
_space_group_symop_operation_xyz
x,y,z
-x,1/2+y,-z
-x,-y,-z
x,1/2-y,z
loop_
_atom_site_type_symbol
_atom_site_label
_atom_site_fract_x
_atom_site_fract_y
_atom_site_fract_z
Si Si1 0.389437 0.442071 0.986325
Si Si2 0.207148 0.442921 0.980639
Si Si3 0.789614 0.559231 0.214918
Si Si4 0.781109 0.057479 0.827087
Si Si5 0.850377 0.059099 0.538732
Si Si6 0.427357 0.444475 0.769163
Si Si7 0.862298 0.942953 0.421365
Si Si8 0.513023 0.059436 0.437452
O O1 0.391755 0.250000 0.985146
O O2 0.595533 0.496417 0.894727
O O3 0.327335 0.496228 0.964973
O O4 0.246571 0.498203 0.102902
O O5 0.206305 0.250000 0.980530
O O6 0.997679 0.500705 0.097020
O O7 0.301594 0.497863 0.880611
O O8 0.788439 0.750000 0.216224
O O9 0.661775 0.503353 0.235904
O O10 0.697363 0.498017 0.313232
O O11 0.781523 0.250000 0.827562
O O12 0.967389 0.004312 0.702377
O O13 0.851140 0.250000 0.538672
O O14 0.641177 0.004047 0.661603
O O15 0.888522 0.001504 0.463290
O O16 0.000000 0.000000 0.500000
O O17 0.426551 0.250000 0.769718
O O18 0.861879 0.750000 0.422327
O O19 0.666464 0.997490 0.500329
O O20 0.509935 0.250000 0.439317
O O21 0.500000 0.000000 0.500000
#
# Coordination Sequence:
#
# PCOD9164946 Si02
#       8
#     4   4   4   4   4   4   4   4
#     4   9  19  35  56  83 113 149 190 235 288 349
#     4  10  21  37  59  87 113 149 197 243 296 353
#     4  11  22  40  61  86 117 155 198 244 299 356
#     4   9  19  36  58  81 114 153 189 233 289 347
#     4  11  23  40  63  91 123 161 200 247 298 357
#     4   9  20  39  62  84 115 155 196 242 299 356
#     4  10  22  40  63  90 119 157 200 246 299 355
#     4  11  24  41  62  91 124 160 202 251 302 361
#
# _framework density 19.549254999999999
#
# number of rings (size 3 to 8) (size 9 to 14) (size 15 to 20)
#    0.000    2.000    1.250    1.500    3.500    1.500 
#    0.000    1.875    0.000    0.000    0.000    0.000 
#    0.000    0.000    0.000    0.000    0.000    0.000 
#
# Total GULP energy -178759.365772 kJ/mol
# GULP energy per Si atom -5586.230180 kJ/mol
# Density = 1.950476 g / cm^3
# Si number density = 19.549255 Si / 1000 Ang^3
#
#
#
# Elastic Constant Matrix: (Units=GPa)
#
#
# Indices 1 2 3 4 5 6 
#
# 1 72.3851 6.4330 8.1437 0.0000 27.1007 0.0000
# 2 6.4330 14.3714 6.8660 0.0000 4.2390 0.0000
# 3 8.1437 6.8660 114.8446 0.0000 26.5286 0.0000
# 4 0.0000 0.0000 0.0000 18.2648 0.0000 1.9826
# 5 27.1007 4.2390 26.5286 0.0000 29.1695 0.0000
# 6 0.0000 0.0000 0.0000 1.9826 0.0000 27.3355
#
#
#
# Elastic Compliance Matrix: (Units=1/GPa)
#
#
# Indices 1 2 3 4 5 6 
#
# 1 0.022975 -0.005119 0.004349 0.000000 -0.024557 0.000000
# 2 -0.005119 0.074371 -0.003399 0.000000 -0.002961 0.000000
# 3 0.004349 -0.003399 0.011927 0.000000 -0.014394 0.000000
# 4 0.000000 0.000000 0.000000 0.055185 0.000000 -0.004002
# 5 -0.024557 -0.002961 -0.014394 0.000000 0.070619 0.000000
# 6 0.000000 0.000000 0.000000 -0.004002 0.000000 0.036873
#
#
# Mechanical properties :
#
#
# Convention : Reuss Voigt Hill
#
# Bulk Modulus (GPa) = 9.90729 27.16518 18.53623
# Shear Modulus (GPa) = 15.92703 26.96452 21.44577
#
# Velocity S-wave (km/s) = 2.85741 3.71794 3.31571
# Velocity P-wave (km/s) = 3.99566 5.68829 4.91538
#
# Compressibility (1/GPa) = 0.10093577
#
# Stress axis : x y z
#
# Youngs Moduli (GPa) = 43.52647 13.44604 83.84171
#
# Poissons Ratio (x) = 0.06882 -0.36466
# Poissons Ratio (y) = 0.22279 0.28501
# Poissons Ratio (z) = -0.18931 0.04571
#
# Static dielectric constant tensor:
#      x y z
#    x 1.670720 0.000000 -0.012400 
#    y 0.000000 1.587120 0.000000 
#    z -0.012400 0.000000 1.661710 
# 
# From -- ./inp_files/55638.got.cif
#   From: 2010.05.17/outbox.cif.g08.bks.cpg/sg11_28_cif.got.tgz:55638.got - 2010.06.03 12:22:45.
