data_PCOD9164351
_publ_section_title
;
Structure prediction by ZEFSAII (Michael W. Deem and Ramdas Pophale) SiO2 
 PCOD9164351
Probable space group: P 21/M
;
_chemical_formula_sum "Si O2"
_cell_formula_units_Z 28
_cell_length_a 5.152080
_cell_length_b 13.731698
_cell_length_c 17.329010
_cell_angle_alpha 90.000000
_cell_angle_beta 108.378302
_cell_angle_gamma 90.000000
_cell_volume 1163.442001
_symmetry_space_group_name_H-M "P 21/M"
_symmetry_group_IT_number 11
_symmetry_cell_setting 'monoclinic'
loop_
_space_group_symop_operation_xyz
x,y,z
-x,1/2+y,-z
-x,-y,-z
x,1/2-y,z
loop_
_atom_site_type_symbol
_atom_site_label
_atom_site_fract_x
_atom_site_fract_y
_atom_site_fract_z
Si Si1 0.907443 0.935311 0.671109
Si Si2 0.251992 0.069270 0.502633
Si Si3 0.656885 0.478820 0.779839
Si Si4 0.790244 0.860592 0.334228
Si Si5 0.946389 0.856715 0.102173
Si Si6 0.358201 0.642434 0.829929
Si Si7 0.646515 0.397678 0.997695
O O1 0.837351 0.880505 0.585849
O O2 0.120249 0.880165 0.745994
O O3 0.649251 0.957089 0.701411
O O4 0.011671 0.045952 0.661106
O O5 0.303104 0.131194 0.584464
O O6 0.500000 0.000000 0.500000
O O7 0.000000 0.000000 0.500000
O O8 0.458996 0.388262 0.745898
O O9 0.953654 0.436465 0.827232
O O10 0.565531 0.553050 0.837009
O O11 0.891045 0.750000 0.329910
O O12 0.051182 0.750000 0.133455
O O13 0.102774 0.887963 0.037888
O O14 0.623614 0.848273 0.062670
O O15 0.476190 0.750000 0.826100
O O16 0.265491 0.640259 0.910102
O O17 0.500000 0.500000 0.000000
#
# Coordination Sequence:
#
# PCOD9164351 Si02
#       7
#     4   4   4   4   4   4   4
#     4  10  23  42  67  94 137 175 217 278 337 396
#     4  10  20  42  67  93 132 176 219 267 330 393
#     4  11  23  42  65  96 134 177 214 283 339 403
#     4  10  22  40  66  99 132 175 223 270 332 402
#     4  12  26  43  68 100 135 178 227 281 343 407
#     4  11  25  43  66  95 130 178 231 280 338 407
#     4  12  25  48  68  96 135 181 230 286 342 401
#
# _framework density 24.066523
#
# number of rings (size 3 to 8) (size 9 to 14) (size 15 to 20)
#    0.000    1.143    2.857    3.000    4.000    2.286 
#    0.000    0.000    0.000    0.000    0.000    0.000 
#    0.000    0.000    0.000    0.000    0.000    0.000 
#
# Total GULP energy -156383.502201 kJ/mol
# GULP energy per Si atom -5585.125079 kJ/mol
# Density = 2.401175 g / cm^3
# Si number density = 24.066523 Si / 1000 Ang^3
#
#
#
# Elastic Constant Matrix: (Units=GPa)
#
#
# Indices 1 2 3 4 5 6 
#
# 1 67.3845 -17.4000 20.2503 0.0000 -6.7985 0.0000
# 2 -17.4000 104.2129 21.6461 0.0000 1.2168 0.0000
# 3 20.2503 21.6461 141.1829 0.0000 -17.6450 0.0000
# 4 0.0000 0.0000 0.0000 -22.4180 0.0000 18.3516
# 5 -6.7985 1.2168 -17.6450 0.0000 45.5812 0.0000
# 6 0.0000 0.0000 0.0000 18.3516 0.0000 8.2628
#
#
#
# Elastic Compliance Matrix: (Units=1/GPa)
#
#
# Indices 1 2 3 4 5 6 
#
# 1 0.016657 0.003333 -0.002733 0.000000 0.001337 0.000000
# 2 0.003333 0.010613 -0.002184 0.000000 -0.000632 0.000000
# 3 -0.002733 -0.002184 0.008161 0.000000 0.002810 0.000000
# 4 0.000000 0.000000 0.000000 -0.015829 0.000000 0.035155
# 5 0.001337 -0.000632 0.002810 0.000000 0.023243 0.000000
# 6 0.000000 0.000000 0.000000 0.035155 0.000000 0.042945
#
#
# Mechanical properties :
#
#
# Convention : Reuss Voigt Hill
#
# Bulk Modulus (GPa) = 30.99487 40.19702 35.59594
# Shear Modulus (GPa) = 50.14363 25.50414 37.82389
#
# Velocity S-wave (km/s) = 4.56954 3.25889 3.96869
# Velocity P-wave (km/s) = 6.38339 5.55870 5.98527
#
# Compressibility (1/GPa) = 0.03226341
#
# Stress axis : x y z
#
# Youngs Moduli (GPa) = 60.03412 94.22086 122.53243
#
# Poissons Ratio (x) = -0.31406 0.33489
# Poissons Ratio (y) = -0.20011 0.26765
# Poissons Ratio (z) = 0.16408 0.20581
#
# Static dielectric constant tensor:
#      x y z
#    x 1.947310 0.000000 -0.007740 
#    y 0.000000 1.935340 0.000000 
#    z -0.007740 0.000000 1.976670 
# 
# From -- ./inp_files/57113.got.cif
#   From: 2010.05.17/outbox.cif.g08.bks.cpg/sg11_29_cif.got.tgz:57113.got - 2010.06.03 12:22:45.
