data_PCOD9164705
_publ_section_title
;
Structure prediction by ZEFSAII (Michael W. Deem and Ramdas Pophale) SiO2 
 PCOD9164705
Probable space group: P 21/M
;
_chemical_formula_sum "Si O2"
_cell_formula_units_Z 20
_cell_length_a 12.831034
_cell_length_b 11.219572
_cell_length_c 16.708318
_cell_angle_alpha 90.000000
_cell_angle_beta 24.821927
_cell_angle_gamma 90.000000
_cell_volume 1009.746950
_symmetry_space_group_name_H-M "P 21/M"
_symmetry_group_IT_number 11
_symmetry_cell_setting 'monoclinic'
loop_
_space_group_symop_operation_xyz
x,y,z
-x,1/2+y,-z
-x,-y,-z
x,1/2-y,z
loop_
_atom_site_type_symbol
_atom_site_label
_atom_site_fract_x
_atom_site_fract_y
_atom_site_fract_z
Si Si1 0.689785 0.113223 0.506273
Si Si2 0.911431 0.458029 0.855713
Si Si3 0.578888 0.389741 0.758458
Si Si4 0.663949 0.117975 0.872343
Si Si5 0.104755 0.380705 0.885968
O O1 0.772756 0.250000 0.448935
O O2 0.864041 0.043293 0.325230
O O3 0.701381 0.068663 0.590355
O O4 0.402372 0.108715 0.681222
O O5 0.997848 0.382978 0.871093
O O6 0.849568 0.387509 0.817347
O O7 0.668657 0.534508 0.050800
O O8 0.511800 0.250000 0.792391
O O9 0.745541 0.393575 0.722701
O O10 0.538232 0.250000 0.963613
O O11 0.500000 0.000000 0.000000
O O12 0.042170 0.250000 0.966367
O O13 0.000000 0.500000 0.000000
#
# Coordination Sequence:
#
# PCOD9164705 Si02
#       5
#     4   4   4   4   4
#     4  10  21  36  58  88 117 154 200 239 288 356
#     4  11  20  35  60  84 118 152 195 242 298 334
#     4   9  18  35  57  84 119 154 192 234 284 349
#     4   9  19  35  58  86 119 155 193 238 289 344
#     4  11  23  40  61  86 119 155 197 245 295 351
#
# _framework density 19.806943
#
# number of rings (size 3 to 8) (size 9 to 14) (size 15 to 20)
#    0.000    2.000    2.000    1.800    0.000    2.400 
#    0.000    2.000    0.000    0.000    0.000    0.000 
#    0.000    0.000    0.000    0.000    0.000    0.000 
#
# Total GULP energy -111400.102610 kJ/mol
# GULP energy per Si atom -5570.005131 kJ/mol
# Density = 1.976186 g / cm^3
# Si number density = 19.806943 Si / 1000 Ang^3
#
#
#
# Elastic Constant Matrix: (Units=GPa)
#
#
# Indices 1 2 3 4 5 6 
#
# 1 120.4675 16.6875 -8.2395 0.0000 10.7634 0.0000
# 2 16.6875 118.1849 35.5599 0.0000 2.8663 0.0000
# 3 -8.2395 35.5599 37.4609 0.0000 9.0844 0.0000
# 4 0.0000 0.0000 0.0000 17.3189 0.0000 6.9034
# 5 10.7634 2.8663 9.0844 0.0000 14.0093 0.0000
# 6 0.0000 0.0000 0.0000 6.9034 0.0000 27.1269
#
#
#
# Elastic Compliance Matrix: (Units=1/GPa)
#
#
# Indices 1 2 3 4 5 6 
#
# 1 0.010719 -0.004036 0.009476 0.000000 -0.013554 0.000000
# 2 -0.004036 0.013771 -0.016646 0.000000 0.011078 0.000000
# 3 0.009476 -0.016646 0.054014 0.000000 -0.038900 0.000000
# 4 0.000000 0.000000 0.000000 0.064258 0.000000 -0.016353
# 5 -0.013554 0.011078 -0.038900 0.000000 0.104754 0.000000
# 6 0.000000 0.000000 0.000000 -0.016353 0.000000 0.041025
#
#
# Mechanical properties :
#
#
# Convention : Reuss Voigt Hill
#
# Bulk Modulus (GPa) = 17.82817 40.45881 29.14349
# Shear Modulus (GPa) = 15.16755 27.16473 21.16614
#
# Velocity S-wave (km/s) = 2.77026 3.70736 3.27253
# Velocity P-wave (km/s) = 4.38782 6.22872 5.38748
#
# Compressibility (1/GPa) = 0.05609100
#
# Stress axis : x y z
#
# Youngs Moduli (GPa) = 93.29049 72.61573 18.51386
#
# Poissons Ratio (x) = 0.29307 -0.17543
# Poissons Ratio (y) = 0.37651 0.30819
# Poissons Ratio (z) = -0.88400 1.20879
#
# Static dielectric constant tensor:
#      x y z
#    x 1.753510 0.000000 0.011330 
#    y 0.000000 1.754530 0.000000 
#    z 0.011330 0.000000 1.648290 
# 
# From -- ./inp_files/8565.got.cif
#   From: 2010.05.17/outbox.cif.g08.bks.cpg/sg11_5_cif.got.tgz:8565.got - 2010.06.03 12:22:45.
