data_PCOD9164492
_publ_section_title
;
Structure prediction by ZEFSAII (Michael W. Deem and Ramdas Pophale) SiO2 
 PCOD9164492
Probable space group: P 21/M
;
_chemical_formula_sum "Si O2"
_cell_formula_units_Z 32
_cell_length_a 5.427658
_cell_length_b 25.721220
_cell_length_c 12.841415
_cell_angle_alpha 90.000000
_cell_angle_beta 106.865229
_cell_angle_gamma 90.000000
_cell_volume 1715.632406
_symmetry_space_group_name_H-M "P 21/M"
_symmetry_group_IT_number 11
_symmetry_cell_setting 'monoclinic'
loop_
_space_group_symop_operation_xyz
x,y,z
-x,1/2+y,-z
-x,-y,-z
x,1/2-y,z
loop_
_atom_site_type_symbol
_atom_site_label
_atom_site_fract_x
_atom_site_fract_y
_atom_site_fract_z
Si Si1 0.282500 0.811620 0.897060
Si Si2 0.545333 0.570357 0.318751
Si Si3 0.777530 0.467928 0.413800
Si Si4 0.887100 0.189473 0.532141
Si Si5 0.980841 0.877857 0.251138
Si Si6 0.033514 0.628491 0.676779
Si Si7 0.545749 0.879828 0.526632
Si Si8 0.125708 0.311704 0.967500
O O1 0.263128 0.750000 0.870417
O O2 0.182038 0.844560 0.787356
O O3 0.581552 0.822511 0.959283
O O4 0.089331 0.821624 0.970154
O O5 0.572682 0.509528 0.347089
O O6 0.737051 0.585565 0.248615
O O7 0.665928 0.599645 0.434734
O O8 0.253116 0.591229 0.274546
O O9 0.879067 0.430241 0.335833
O O10 0.656130 0.426079 0.477204
O O11 0.000000 0.500000 0.500000
O O12 0.943914 0.250000 0.536534
O O13 0.944582 0.162938 0.426968
O O14 0.584994 0.175342 0.507619
O O15 0.999215 0.162127 0.648985
O O16 0.934373 0.845627 0.140979
O O17 0.726087 0.624249 0.648769
O O18 0.113564 0.250000 0.941151
#
# Coordination Sequence:
#
# PCOD9164492 Si02
#       8
#     4   4   4   4   4   4   4   4
#     4  10  23  41  64  89 119 160 208 251 297 357
#     4  11  21  37  58  91 121 155 201 249 306 358
#     4  11  21  36  59  86 126 167 204 248 299 374
#     4  10  21  35  53  87 127 158 188 242 315 375
#     4  11  22  39  62  90 121 154 203 254 309 361
#     4  11  22  37  58  89 122 158 201 249 304 364
#     4  10  21  35  54  87 124 163 199 238 296 372
#     4  10  22  43  66  88 115 162 212 252 297 361
#
# _framework density 18.652014999999999
#
# number of rings (size 3 to 8) (size 9 to 14) (size 15 to 20)
#    0.000    1.500    2.500    3.375    5.250    1.000 
#    0.000    1.250    0.000    4.500    0.000    0.000 
#    0.000    0.000    0.000    0.000    0.000    0.000 
#
# Total GULP energy -178361.996857 kJ/mol
# GULP energy per Si atom -5573.812402 kJ/mol
# Density = 1.860956 g / cm^3
# Si number density = 18.652015 Si / 1000 Ang^3
#
#
#
# Elastic Constant Matrix: (Units=GPa)
#
#
# Indices 1 2 3 4 5 6 
#
# 1 90.7763 45.4445 36.4464 0.0000 6.8126 0.0000
# 2 45.4445 90.1423 48.3063 0.0000 5.6328 0.0000
# 3 36.4464 48.3063 98.8107 0.0000 8.8186 0.0000
# 4 0.0000 0.0000 0.0000 34.7795 0.0000 2.7413
# 5 6.8126 5.6328 8.8186 0.0000 22.2772 0.0000
# 6 0.0000 0.0000 0.0000 2.7413 0.0000 15.8968
#
#
#
# Elastic Compliance Matrix: (Units=1/GPa)
#
#
# Indices 1 2 3 4 5 6 
#
# 1 0.015282 -0.006303 -0.002364 0.000000 -0.002144 0.000000
# 2 -0.006303 0.017650 -0.006300 0.000000 -0.000041 0.000000
# 3 -0.002364 -0.006300 0.014373 0.000000 -0.003374 0.000000
# 4 0.000000 0.000000 0.000000 0.029149 0.000000 -0.005026
# 5 -0.002144 -0.000041 -0.003374 0.000000 0.046891 0.000000
# 6 0.000000 0.000000 0.000000 -0.005026 0.000000 0.063772
#
#
# Mechanical properties :
#
#
# Convention : Reuss Voigt Hill
#
# Bulk Modulus (GPa) = 57.56836 60.01375 58.79106
# Shear Modulus (GPa) = 22.43751 24.55952 23.49851
#
# Velocity S-wave (km/s) = 3.47212 3.63260 3.55327
# Velocity P-wave (km/s) = 6.85606 7.05973 6.95864
#
# Compressibility (1/GPa) = 0.01737065
#
# Stress axis : x y z
#
# Youngs Moduli (GPa) = 65.43801 56.65693 69.57369
#
# Poissons Ratio (x) = 0.35714 0.16445
# Poissons Ratio (y) = 0.41249 0.43831
# Poissons Ratio (z) = 0.15467 0.35694
#
# Static dielectric constant tensor:
#      x y z
#    x 1.815950 0.000000 -0.002330 
#    y 0.000000 1.619570 0.000000 
#    z -0.002330 0.000000 1.620790 
# 
# From -- ./inp_files/5474.got.cif
#   From: 2010.05.17/outbox.cif.g08.bks.cpg/sg11_3_cif.got.tgz:5474.got - 2010.06.03 12:22:45.
