data_PCOD9164247
_publ_section_title
;
Structure prediction by ZEFSAII (Michael W. Deem and Ramdas Pophale) SiO2 
 PCOD9164247
Probable space group: P 21/M
;
_chemical_formula_sum "Si O2"
_cell_formula_units_Z 24
_cell_length_a 20.403668
_cell_length_b 11.399018
_cell_length_c 10.713238
_cell_angle_alpha 90.000000
_cell_angle_beta 25.410929
_cell_angle_gamma 90.000000
_cell_volume 1069.208689
_symmetry_space_group_name_H-M "P 21/M"
_symmetry_group_IT_number 11
_symmetry_cell_setting 'monoclinic'
loop_
_space_group_symop_operation_xyz
x,y,z
-x,1/2+y,-z
-x,-y,-z
x,1/2-y,z
loop_
_atom_site_type_symbol
_atom_site_label
_atom_site_fract_x
_atom_site_fract_y
_atom_site_fract_z
Si Si1 0.817222 0.496120 0.794187
Si Si2 0.710510 0.250000 0.595357
Si Si3 0.166043 0.018282 0.966631
Si Si4 0.950481 0.750000 0.937165
Si Si5 0.688874 0.250000 0.933783
Si Si6 0.870454 0.614234 0.452684
Si Si7 0.613602 0.750000 0.633677
Si Si8 0.314219 0.003523 0.444573
O O1 0.752548 0.532110 0.040495
O O2 0.764844 0.365587 0.855579
O O3 0.785745 0.572478 0.724854
O O4 0.000000 0.500000 0.500000
O O5 0.705228 0.250000 0.754952
O O6 0.640954 0.370520 0.662406
O O7 0.894372 0.250000 0.250505
O O8 0.061337 0.133724 0.125708
O O9 0.268886 0.006758 0.667674
O O10 0.049671 0.909116 0.166475
O O11 0.791703 0.750000 0.287783
O O12 0.507069 0.250000 0.271247
O O13 0.838775 0.750000 0.483422
O O14 0.821561 0.534512 0.419241
O O15 0.586231 0.622477 0.743890
#
# Coordination Sequence:
#
# PCOD9164247 Si02
#       8
#     4   2   4   2   2   4   2   4
#     4  10  23  39  62  94 125 171 222 272 327 395
#     4  12  22  37  69  96 134 168 230 284 324 373
#     4  10  22  34  61  91 133 165 216 277 337 382
#     4  10  20  40  62  99 129 174 216 277 331 384
#     4  12  24  47  66  91 139 183 207 271 354 401
#     4  11  21  34  58  96 134 165 214 282 334 382
#     4  10  26  42  65  94 142 179 219 260 351 408
#     4  11  22  39  62 100 127 177 220 277 323 397
#
# _framework density 22.446505999999999
#
# number of rings (size 3 to 8) (size 9 to 14) (size 15 to 20)
#    0.000    1.333    4.167    1.500    9.333    0.667 
#    0.000    3.333    0.000    0.000    0.000    0.000 
#    0.000    0.000    0.000    0.000    0.000    0.000 
#
# Total GULP energy -133930.181063 kJ/mol
# GULP energy per Si atom -5580.424211 kJ/mol
# Density = 2.239542 g / cm^3
# Si number density = 22.446506 Si / 1000 Ang^3
#
#
#
# Elastic Constant Matrix: (Units=GPa)
#
#
# Indices 1 2 3 4 5 6 
#
# 1 81.5864 45.7616 39.5193 0.0000 24.9685 0.0000
# 2 45.7616 194.6093 17.0758 0.0000 8.8360 0.0000
# 3 39.5193 17.0758 76.5483 0.0000 17.1507 0.0000
# 4 0.0000 0.0000 0.0000 -13.0651 0.0000 -0.6371
# 5 24.9685 8.8360 17.1507 0.0000 38.7815 0.0000
# 6 0.0000 0.0000 0.0000 -0.6371 0.0000 34.2005
#
#
#
# Elastic Compliance Matrix: (Units=1/GPa)
#
#
# Indices 1 2 3 4 5 6 
#
# 1 0.021079 -0.003841 -0.007971 0.000000 -0.009171 0.000000
# 2 -0.003841 0.005961 0.000448 0.000000 0.000917 0.000000
# 3 -0.007971 0.000448 0.017706 0.000000 -0.002801 0.000000
# 4 0.000000 0.000000 0.000000 -0.076470 0.000000 -0.001424
# 5 -0.009171 0.000917 -0.002801 0.000000 0.032720 0.000000
# 6 0.000000 0.000000 0.000000 -0.001424 0.000000 0.029213
#
#
# Mechanical properties :
#
#
# Convention : Reuss Voigt Hill
#
# Bulk Modulus (GPa) = 45.41657 61.93970 53.67814
# Shear Modulus (GPa) = 82.95276 28.67586 55.81431
#
# Velocity S-wave (km/s) = 6.08572 3.57812 4.99194
# Velocity P-wave (km/s) = 8.34617 6.68766 7.56252
#
# Compressibility (1/GPa) = 0.02201839
#
# Stress axis : x y z
#
# Youngs Moduli (GPa) = 47.44093 167.76446 56.47721
#
# Poissons Ratio (x) = 0.64435 0.45016
# Poissons Ratio (y) = 0.18221 -0.02529
# Poissons Ratio (z) = 0.37814 -0.07513
#
# Static dielectric constant tensor:
#      x y z
#    x 1.860620 0.000000 0.028300 
#    y 0.000000 1.844440 0.000000 
#    z 0.028300 0.000000 1.919360 
# 
# From -- ./inp_files/43108.got.cif
#   From: 2010.05.17/outbox.cif.g08.bks.cpg/sg11_22_cif.got.tgz:43108.got - 2010.06.03 12:22:45.
