data_PCOD9164302
_publ_section_title
;
Structure prediction by ZEFSAII (Michael W. Deem and Ramdas Pophale) SiO2 
 PCOD9164302
Probable space group: P 21/M
;
_chemical_formula_sum "Si O2"
_cell_formula_units_Z 32
_cell_length_a 11.968786
_cell_length_b 23.455786
_cell_length_c 5.316960
_cell_angle_alpha 90.000000
_cell_angle_beta 69.034351
_cell_angle_gamma 90.000000
_cell_volume 1393.846930
_symmetry_space_group_name_H-M "P 21/M"
_symmetry_group_IT_number 11
_symmetry_cell_setting 'monoclinic'
loop_
_space_group_symop_operation_xyz
x,y,z
-x,1/2+y,-z
-x,-y,-z
x,1/2-y,z
loop_
_atom_site_type_symbol
_atom_site_label
_atom_site_fract_x
_atom_site_fract_y
_atom_site_fract_z
Si Si1 0.233454 0.122019 0.294099
Si Si2 0.674685 0.816873 0.282048
Si Si3 0.756655 0.187819 0.920999
Si Si4 0.900745 0.453267 0.035035
Si Si5 0.558219 0.147930 0.771799
Si Si6 0.663781 0.422014 0.316347
Si Si7 0.444145 0.446589 0.189042
Si Si8 0.948599 0.386149 0.502571
O O1 0.279444 0.161976 0.485639
O O2 0.301367 0.061413 0.298299
O O3 0.090599 0.119734 0.419363
O O4 0.263841 0.147549 0.993457
O O5 0.697695 0.750000 0.230079
O O6 0.531647 0.827714 0.363485
O O7 0.778079 0.250000 0.025115
O O8 0.641922 0.192779 0.833647
O O9 0.871275 0.167856 0.664409
O O10 0.712979 0.134599 0.130979
O O11 0.912354 0.433220 0.739090
O O12 0.761973 0.469708 0.188214
O O13 0.000000 0.500000 0.000000
O O14 0.922564 0.405521 0.236739
O O15 0.652035 0.099768 0.606391
O O16 0.477630 0.112867 0.027100
O O17 0.529225 0.441577 0.362879
O O18 0.500000 0.500000 0.000000
#
# Coordination Sequence:
#
# PCOD9164302 Si02
#       8
#     4   4   4   4   4   4   4   4
#     4  11  24  43  62  93 131 165 214 260 310 390
#     4  11  23  41  65  90 122 167 209 258 317 371
#     4  10  22  39  63  91 124 165 206 265 324 368
#     4  11  24  42  68  94 126 169 211 265 320 373
#     4  10  20  41  60  91 126 156 214 265 308 382
#     4  10  21  41  61  93 126 158 218 265 309 391
#     4  10  23  39  62  92 128 171 209 265 323 377
#     4  11  24  44  63  94 130 163 216 260 311 393
#
# _framework density 22.958044999999998
#
# number of rings (size 3 to 8) (size 9 to 14) (size 15 to 20)
#    0.000    1.500    2.500    1.875    1.750    3.500 
#    0.000    0.000    0.000    0.000    0.000    0.000 
#    0.000    0.000    0.000    0.000    0.000    0.000 
#
# Total GULP energy -178408.604840 kJ/mol
# GULP energy per Si atom -5575.268901 kJ/mol
# Density = 2.290579 g / cm^3
# Si number density = 22.958045 Si / 1000 Ang^3
#
#
#
# Elastic Constant Matrix: (Units=GPa)
#
#
# Indices 1 2 3 4 5 6 
#
# 1 106.9707 2.6305 17.6458 0.0000 -1.2447 0.0000
# 2 2.6305 65.9708 15.7012 0.0000 3.7715 0.0000
# 3 17.6458 15.7012 82.3974 0.0000 -5.2146 0.0000
# 4 0.0000 0.0000 0.0000 15.1783 0.0000 8.8663
# 5 -1.2447 3.7715 -5.2146 0.0000 36.2322 0.0000
# 6 0.0000 0.0000 0.0000 8.8663 0.0000 14.3872
#
#
#
# Elastic Compliance Matrix: (Units=1/GPa)
#
#
# Indices 1 2 3 4 5 6 
#
# 1 0.009692 0.000111 -0.002095 0.000000 0.000020 0.000000
# 2 0.000111 0.016041 -0.003215 0.000000 -0.002129 0.000000
# 3 -0.002095 -0.003215 0.013336 0.000000 0.002182 0.000000
# 4 0.000000 0.000000 0.000000 0.102940 0.000000 -0.063438
# 5 0.000020 -0.002129 0.002182 0.000000 0.028136 0.000000
# 6 0.000000 0.000000 0.000000 -0.063438 0.000000 0.108601
#
#
# Mechanical properties :
#
#
# Convention : Reuss Voigt Hill
#
# Bulk Modulus (GPa) = 34.88065 36.36598 35.62331
# Shear Modulus (GPa) = 16.73917 27.78363 22.26140
#
# Velocity S-wave (km/s) = 2.70315 3.48255 3.11731
# Velocity P-wave (km/s) = 4.99689 5.66087 5.33921
#
# Compressibility (1/GPa) = 0.02866919
#
# Stress axis : x y z
#
# Youngs Moduli (GPa) = 103.18316 62.34141 74.98611
#
# Poissons Ratio (x) = -0.00693 0.15713
# Poissons Ratio (y) = -0.01147 0.24109
# Poissons Ratio (z) = 0.21621 0.20044
#
# Static dielectric constant tensor:
#      x y z
#    x 1.986730 0.000000 -0.031000 
#    y 0.000000 1.630020 0.000000 
#    z -0.031000 0.000000 1.910820 
# 
# From -- ./inp_files/5456.got.cif
#   From: 2010.05.17/outbox.cif.g08.bks.cpg/sg11_3_cif.got.tgz:5456.got - 2010.06.03 12:22:45.
