data_PCOD9164550
_publ_section_title
;
Structure prediction by ZEFSAII (Michael W. Deem and Ramdas Pophale) SiO2 
 PCOD9164550
Probable space group: P 21/M
;
_chemical_formula_sum "Si O2"
_cell_formula_units_Z 30
_cell_length_a 8.025644
_cell_length_b 13.762141
_cell_length_c 21.700185
_cell_angle_alpha 90.000000
_cell_angle_beta 146.112934
_cell_angle_gamma 90.000000
_cell_volume 1336.346775
_symmetry_space_group_name_H-M "P 21/M"
_symmetry_group_IT_number 11
_symmetry_cell_setting 'monoclinic'
loop_
_space_group_symop_operation_xyz
x,y,z
-x,1/2+y,-z
-x,-y,-z
x,1/2-y,z
loop_
_atom_site_type_symbol
_atom_site_label
_atom_site_fract_x
_atom_site_fract_y
_atom_site_fract_z
Si Si1 0.138702 0.750000 0.502984
Si Si2 0.753089 0.071456 0.643135
Si Si3 0.667244 0.938308 0.926018
Si Si4 0.798018 0.519224 0.839004
Si Si5 0.272152 0.068018 0.602856
Si Si6 0.595254 0.858716 0.128395
Si Si7 0.387828 0.355389 0.417121
Si Si8 0.768588 0.140582 0.108354
O O1 0.883052 0.666340 0.424777
O O2 0.410125 0.833055 0.580343
O O3 0.489548 0.082620 0.611306
O O4 0.636551 0.124599 0.546072
O O5 0.055165 0.119604 0.759321
O O6 0.791377 0.955620 0.641616
O O7 0.739376 0.907404 0.878521
O O8 0.404915 0.886797 0.882881
O O9 0.566540 0.051322 0.888770
O O10 0.961889 0.942712 0.059243
O O11 0.487507 0.476378 0.720942
O O12 0.970822 0.570047 0.835326
O O13 0.000000 0.000000 0.500000
O O14 0.529251 0.750000 0.131395
O O15 0.475927 0.863973 0.021701
O O16 0.237560 0.250000 0.385235
O O17 0.883837 0.250000 0.147900
#
# Coordination Sequence:
#
# PCOD9164550 Si02
#       8
#     2   4   4   4   4   4   4   4
#     4  10  24  42  60  90 128 164 222 270 316 382
#     4  11  21  37  65  90 127 169 214 272 323 387
#     4  10  21  42  66  93 137 170 210 268 327 394
#     4  10  23  41  65  98 130 171 216 268 329 381
#     4  12  24  43  64  94 129 167 212 271 328 381
#     4  10  21  35  65  98 124 165 219 268 323 384
#     4   9  21  40  57  86 126 169 219 262 317 389
#     4  10  21  43  67  94 134 172 215 268 324 395
#
# _framework density 22.449262000000001
#
# number of rings (size 3 to 8) (size 9 to 14) (size 15 to 20)
#    0.400    1.333    1.333    3.600    3.733    0.533 
#    2.400    3.333    0.000    0.800    0.000    0.000 
#    0.000    0.000    0.000    0.000    0.000    0.000 
#
# Total GULP energy -167025.340985 kJ/mol
# GULP energy per Si atom -5567.511366 kJ/mol
# Density = 2.239817 g / cm^3
# Si number density = 22.449262 Si / 1000 Ang^3
#
#
#
# Elastic Constant Matrix: (Units=GPa)
#
#
# Indices 1 2 3 4 5 6 
#
# 1 60.1516 -8.8281 5.2817 0.0000 -1.9479 0.0000
# 2 -8.8281 76.4474 28.5104 0.0000 -9.1230 0.0000
# 3 5.2817 28.5104 145.0849 0.0000 6.9719 0.0000
# 4 0.0000 0.0000 0.0000 20.2064 0.0000 1.0304
# 5 -1.9479 -9.1230 6.9719 0.0000 18.5064 0.0000
# 6 0.0000 0.0000 0.0000 1.0304 0.0000 10.9291
#
#
#
# Elastic Compliance Matrix: (Units=1/GPa)
#
#
# Indices 1 2 3 4 5 6 
#
# 1 0.017308 0.002975 -0.001398 0.000000 0.003815 0.000000
# 2 0.002975 0.015947 -0.003702 0.000000 0.009569 0.000000
# 3 -0.001398 -0.003702 0.007909 0.000000 -0.004952 0.000000
# 4 0.000000 0.000000 0.000000 0.049728 0.000000 -0.004689
# 5 0.003815 0.009569 -0.004952 0.000000 0.061019 0.000000
# 6 0.000000 0.000000 0.000000 -0.004689 0.000000 0.091941
#
#
# Mechanical properties :
#
#
# Convention : Reuss Voigt Hill
#
# Bulk Modulus (GPa) = 27.08979 36.84577 31.96778
# Shear Modulus (GPa) = 19.20079 27.04305 23.12192
#
# Velocity S-wave (km/s) = 2.92772 3.47454 3.21279
# Velocity P-wave (km/s) = 4.84995 5.70483 5.29468
#
# Compressibility (1/GPa) = 0.03691428
#
# Stress axis : x y z
#
# Youngs Moduli (GPa) = 57.77792 62.70773 126.44149
#
# Poissons Ratio (x) = -0.18658 0.17678
# Poissons Ratio (y) = -0.17191 0.46807
# Poissons Ratio (z) = 0.08078 0.23214
#
# Static dielectric constant tensor:
#      x y z
#    x 1.876310 0.000000 -0.051680 
#    y 0.000000 1.844010 0.000000 
#    z -0.051680 0.000000 1.849320 
# 
# From -- ./inp_files/68119.got.cif
#   From: 2010.05.17/outbox.cif.g08.bks.cpg/sg11_35_cif.got.tgz:68119.got - 2010.06.03 12:22:45.
