data_PCOD9164555
_publ_section_title
;
Structure prediction by ZEFSAII (Michael W. Deem and Ramdas Pophale) SiO2 
 PCOD9164555
Probable space group: P 21/M
;
_chemical_formula_sum "Si O2"
_cell_formula_units_Z 32
_cell_length_a 17.043699
_cell_length_b 9.136702
_cell_length_c 12.015568
_cell_angle_alpha 90.000000
_cell_angle_beta 82.768631
_cell_angle_gamma 90.000000
_cell_volume 1856.219809
_symmetry_space_group_name_H-M "P 21/M"
_symmetry_group_IT_number 11
_symmetry_cell_setting 'monoclinic'
loop_
_space_group_symop_operation_xyz
x,y,z
-x,1/2+y,-z
-x,-y,-z
x,1/2-y,z
loop_
_atom_site_type_symbol
_atom_site_label
_atom_site_fract_x
_atom_site_fract_y
_atom_site_fract_z
Si Si1 0.678469 0.574675 0.714219
Si Si2 0.081270 0.924178 0.259318
Si Si3 0.577530 0.924177 0.532204
Si Si4 0.821454 0.425741 0.551918
Si Si5 0.247790 0.575500 0.104257
Si Si6 0.032610 0.922108 0.883696
Si Si7 0.740168 0.575747 0.374710
Si Si8 0.778807 0.077802 0.146503
O O1 0.690200 0.750000 0.709042
O O2 0.600364 0.540636 0.656282
O O3 0.749018 0.494462 0.635014
O O4 0.687972 0.513000 0.836124
O O5 0.067235 0.750000 0.253742
O O6 0.102921 0.959514 0.383685
O O7 0.160539 0.955526 0.171690
O O8 0.010190 0.010442 0.216012
O O9 0.567350 0.750000 0.526611
O O10 0.655818 0.961780 0.446378
O O11 0.500000 0.000000 0.500000
O O12 0.814372 0.250000 0.547148
O O13 0.809448 0.496309 0.433319
O O14 0.259932 0.750000 0.116239
O O15 0.247300 0.540794 0.974081
O O16 0.015291 0.750000 0.893823
O O17 0.126648 0.940981 0.863760
O O18 0.000000 0.000000 0.000000
O O19 0.750656 0.750000 0.380534
O O20 0.741292 0.519418 0.249165
O O21 0.761613 0.250000 0.168811
#
# Coordination Sequence:
#
# PCOD9164555 Si02
#       8
#     4   4   4   4   4   4   4   4
#     4   9  17  29  47  77 108 129 163 212 250 289
#     4   9  17  31  49  72  99 127 169 220 261 300
#     4   9  19  34  54  81 109 131 159 202 247 298
#     4   9  17  31  51  71  97 134 169 207 255 306
#     4   9  17  31  49  71 101 135 173 213 251 300
#     4  11  21  33  49  71 101 134 173 219 261 302
#     4  10  21  36  53  78 106 130 167 213 252 300
#     4  10  21  36  51  71 102 139 176 211 253 309
#
# _framework density 17.239336000000002
#
# number of rings (size 3 to 8) (size 9 to 14) (size 15 to 20)
#    0.000    2.500    1.250    3.000    0.000    7.000 
#    0.000    0.625    0.000    0.750    0.000    0.000 
#    0.000    0.000    0.000    0.000    0.000    0.000 
#
# Total GULP energy -178364.890294 kJ/mol
# GULP energy per Si atom -5573.902822 kJ/mol
# Density = 1.720010 g / cm^3
# Si number density = 17.239336 Si / 1000 Ang^3
#
#
#
# Elastic Constant Matrix: (Units=GPa)
#
#
# Indices 1 2 3 4 5 6 
#
# 1 57.4772 44.1268 39.5355 0.0000 32.3344 0.0000
# 2 44.1268 55.8634 51.8780 0.0000 18.6800 0.0000
# 3 39.5355 51.8780 106.6022 0.0000 29.0133 0.0000
# 4 0.0000 0.0000 0.0000 31.9498 0.0000 6.9215
# 5 32.3344 18.6800 29.0133 0.0000 29.3735 0.0000
# 6 0.0000 0.0000 0.0000 6.9215 0.0000 27.1778
#
#
#
# Elastic Compliance Matrix: (Units=1/GPa)
#
#
# Indices 1 2 3 4 5 6 
#
# 1 0.138196 -0.094647 0.027120 0.000000 -0.118723 0.000000
# 2 -0.094647 0.098550 -0.033038 0.000000 0.074148 0.000000
# 3 0.027120 -0.033038 0.024355 0.000000 -0.032899 0.000000
# 4 0.000000 0.000000 0.000000 0.033127 0.000000 -0.008437
# 5 -0.118723 0.074148 -0.032899 0.000000 0.150076 0.000000
# 6 0.000000 0.000000 0.000000 -0.008437 0.000000 0.038943
#
#
# Mechanical properties :
#
#
# Convention : Reuss Voigt Hill
#
# Bulk Modulus (GPa) = 16.67524 54.55816 35.61670
# Shear Modulus (GPa) = 7.09855 23.32706 15.21281
#
# Velocity S-wave (km/s) = 2.03140 3.68248 2.97382
# Velocity P-wave (km/s) = 3.89819 7.05671 5.70057
#
# Compressibility (1/GPa) = 0.05996916
#
# Stress axis : x y z
#
# Youngs Moduli (GPa) = 7.23610 10.14710 41.05962
#
# Poissons Ratio (x) = 0.96040 -1.11352
# Poissons Ratio (y) = 0.68488 1.35654
# Poissons Ratio (z) = -0.19624 0.33524
#
# Static dielectric constant tensor:
#      x y z
#    x 1.574560 0.000000 0.014560 
#    y 0.000000 1.572350 0.000000 
#    z 0.014560 0.000000 1.627850 
# 
# From -- ./inp_files/40702.got.cif
#   From: 2010.05.17/outbox.cif.g08.bks.cpg/sg11_21_cif.got.tgz:40702.got - 2010.06.03 12:22:45.
