data_PCOD9164305
_publ_section_title
;
Structure prediction by ZEFSAII (Michael W. Deem and Ramdas Pophale) SiO2 
 PCOD9164305
Probable space group: P 21/M
;
_chemical_formula_sum "Si O2"
_cell_formula_units_Z 30
_cell_length_a 8.866944
_cell_length_b 26.034750
_cell_length_c 6.799974
_cell_angle_alpha 90.000000
_cell_angle_beta 59.200771
_cell_angle_gamma 90.000000
_cell_volume 1348.375961
_symmetry_space_group_name_H-M "P 21/M"
_symmetry_group_IT_number 11
_symmetry_cell_setting 'monoclinic'
loop_
_space_group_symop_operation_xyz
x,y,z
-x,1/2+y,-z
-x,-y,-z
x,1/2-y,z
loop_
_atom_site_type_symbol
_atom_site_label
_atom_site_fract_x
_atom_site_fract_y
_atom_site_fract_z
Si Si1 0.849299 0.392439 0.296270
Si Si2 0.166949 0.973584 0.994374
Si Si3 0.192643 0.879523 0.238268
Si Si4 0.547616 0.648678 0.774377
Si Si5 0.014915 0.808247 0.091526
Si Si6 0.386231 0.164402 0.715508
Si Si7 0.558375 0.750000 0.016804
Si Si8 0.254598 0.422069 0.088650
O O1 0.758300 0.436988 0.228133
O O2 0.765232 0.382367 0.561725
O O3 0.887245 0.342421 0.138325
O O4 0.046569 0.411854 0.216553
O O5 0.280590 0.018386 0.017521
O O6 0.119947 0.932982 0.197482
O O7 0.000000 0.000000 0.000000
O O8 0.055008 0.835271 0.272508
O O9 0.365175 0.865466 0.000381
O O10 0.533859 0.654134 0.550327
O O11 0.604226 0.703650 0.826797
O O12 0.675676 0.602380 0.755744
O O13 0.078550 0.750000 0.048461
O O14 0.808816 0.811136 0.185701
O O15 0.482032 0.205098 0.789694
O O16 0.346333 0.112184 0.859527
#
# Coordination Sequence:
#
# PCOD9164305 Si02
#       8
#     4   4   4   4   4   4   2   4
#     4   9  20  40  60  87 122 154 200 253 294 346
#     4   9  20  39  63  88 120 157 203 248 298 346
#     4  11  24  39  57  92 125 158 196 244 304 359
#     4  11  24  39  59  89 124 158 196 243 302 366
#     4  10  21  38  61  87 113 154 205 252 293 346
#     4  10  20  41  62  83 116 154 202 249 289 348
#     4  10  22  38  58  82 114 158 196 236 298 354
#     4   9  20  37  63  91 113 156 204 244 294 353
#
# _framework density 22.248985999999999
#
# number of rings (size 3 to 8) (size 9 to 14) (size 15 to 20)
#    0.000    2.133    0.667    2.000    0.933    8.533 
#    2.400    1.333    0.000    0.000    0.000    0.000 
#    0.000    0.000    0.000    0.000    0.000    0.000 
#
# Total GULP energy -167036.471375 kJ/mol
# GULP energy per Si atom -5567.882379 kJ/mol
# Density = 2.219835 g / cm^3
# Si number density = 22.248986 Si / 1000 Ang^3
#
#
#
# Elastic Constant Matrix: (Units=GPa)
#
#
# Indices 1 2 3 4 5 6 
#
# 1 38.5888 12.4592 -2.4120 0.0000 4.5491 0.0000
# 2 12.4592 149.3667 17.2143 0.0000 6.4404 0.0000
# 3 -2.4120 17.2143 109.6796 0.0000 9.7116 0.0000
# 4 0.0000 0.0000 0.0000 10.2301 0.0000 2.1604
# 5 4.5491 6.4404 9.7116 0.0000 34.1051 0.0000
# 6 0.0000 0.0000 0.0000 2.1604 0.0000 7.3717
#
#
#
# Elastic Compliance Matrix: (Units=1/GPa)
#
#
# Indices 1 2 3 4 5 6 
#
# 1 0.027141 -0.002257 0.001266 0.000000 -0.003555 0.000000
# 2 -0.002257 0.007040 -0.001091 0.000000 -0.000718 0.000000
# 3 0.001266 -0.001091 0.009554 0.000000 -0.002683 0.000000
# 4 0.000000 0.000000 0.000000 0.104200 0.000000 -0.030537
# 5 -0.003555 -0.000718 -0.002683 0.000000 0.030695 0.000000
# 6 0.000000 0.000000 0.000000 -0.030537 0.000000 0.144603
#
#
# Mechanical properties :
#
#
# Convention : Reuss Voigt Hill
#
# Bulk Modulus (GPa) = 25.27072 39.12866 32.19969
# Shear Modulus (GPa) = 14.68053 28.36629 21.52341
#
# Velocity S-wave (km/s) = 2.57150 3.57451 3.11366
# Velocity P-wave (km/s) = 4.49440 5.88737 5.23740
#
# Compressibility (1/GPa) = 0.03957148
#
# Stress axis : x y z
#
# Youngs Moduli (GPa) = 36.84464 142.04872 104.66677
#
# Poissons Ratio (x) = 0.32054 -0.13248
# Poissons Ratio (y) = 0.08314 0.11419
# Poissons Ratio (z) = -0.04664 0.15497
#
# Static dielectric constant tensor:
#      x y z
#    x 1.941360 0.000000 0.007080 
#    y 0.000000 1.826670 0.000000 
#    z 0.007080 0.000000 1.812990 
# 
# From -- ./inp_files/5634.got.cif
#   From: 2010.05.17/outbox.cif.g08.bks.cpg/sg11_3_cif.got.tgz:5634.got - 2010.06.03 12:22:45.
