data_PCOD9164478
_publ_section_title
;
Structure prediction by ZEFSAII (Michael W. Deem and Ramdas Pophale) SiO2 
 PCOD9164478
Probable space group: P 21/M
;
_chemical_formula_sum "Si O2"
_cell_formula_units_Z 28
_cell_length_a 21.841643
_cell_length_b 7.583877
_cell_length_c 16.056505
_cell_angle_alpha 90.000000
_cell_angle_beta 28.197145
_cell_angle_gamma 90.000000
_cell_volume 1256.711857
_symmetry_space_group_name_H-M "P 21/M"
_symmetry_group_IT_number 11
_symmetry_cell_setting 'monoclinic'
loop_
_space_group_symop_operation_xyz
x,y,z
-x,1/2+y,-z
-x,-y,-z
x,1/2-y,z
loop_
_atom_site_type_symbol
_atom_site_label
_atom_site_fract_x
_atom_site_fract_y
_atom_site_fract_z
Si Si1 0.205382 0.956046 0.099697
Si Si2 0.552399 0.449802 0.291473
Si Si3 0.062447 0.460504 0.012536
Si Si4 0.657772 0.043799 0.715919
Si Si5 0.372272 0.037600 0.054378
Si Si6 0.647501 0.967148 0.359995
Si Si7 0.940903 0.039907 0.328462
O O1 0.202393 0.750000 0.082892
O O2 0.257011 0.981152 0.131340
O O3 0.326372 0.035650 0.900927
O O4 0.061512 0.018268 0.248384
O O5 0.538852 0.250000 0.276005
O O6 0.409150 0.525342 0.481263
O O7 0.587551 0.452358 0.347302
O O8 0.068661 0.250000 0.017220
O O9 0.991142 0.531570 0.179779
O O10 0.206768 0.526147 0.828095
O O11 0.000000 0.500000 0.000000
O O12 0.656928 0.250000 0.694064
O O13 0.797805 0.967887 0.522252
O O14 0.649918 0.028207 0.825519
O O15 0.517108 0.973982 0.852961
O O16 0.374807 0.250000 0.053207
O O17 0.644344 0.750000 0.360837
O O18 0.924026 0.250000 0.342498
#
# Coordination Sequence:
#
# PCOD9164478 Si02
#       7
#     4   4   4   4   4   4   4
#     4  11  22  35  55  86 120 151 189 234 282 335
#     4   9  18  31  50  75 103 136 176 222 267 314
#     4  10  21  35  53  77 108 145 184 225 272 327
#     4   9  20  40  63  85 112 146 188 234 282 338
#     4  10  21  38  61  87 114 147 186 230 284 342
#     4   9  17  32  51  72 100 137 179 221 267 315
#     4  10  21  39  60  83 113 150 190 235 285 337
#
# _framework density 22.280365
#
# number of rings (size 3 to 8) (size 9 to 14) (size 15 to 20)
#    0.000    2.286    1.429    0.857    0.000    4.571 
#    0.000    0.000    0.000    0.000    0.000    0.000 
#    0.000    0.000    0.000    0.000    0.000    0.000 
#
# Total GULP energy -155884.856768 kJ/mol
# GULP energy per Si atom -5567.316313 kJ/mol
# Density = 2.222965 g / cm^3
# Si number density = 22.280365 Si / 1000 Ang^3
#
#
#
# Elastic Constant Matrix: (Units=GPa)
#
#
# Indices 1 2 3 4 5 6 
#
# 1 61.3995 -12.6479 -2.8165 0.0000 -19.5387 0.0000
# 2 -12.6479 56.0605 6.9445 0.0000 -4.8997 0.0000
# 3 -2.8165 6.9445 102.9953 0.0000 -38.6993 0.0000
# 4 0.0000 0.0000 0.0000 5.6527 0.0000 -2.5844
# 5 -19.5387 -4.8997 -38.6993 0.0000 4.7107 0.0000
# 6 0.0000 0.0000 0.0000 -2.5844 0.0000 18.2848
#
#
#
# Elastic Compliance Matrix: (Units=1/GPa)
#
#
# Indices 1 2 3 4 5 6 
#
# 1 0.009668 0.001319 -0.007551 0.000000 -0.020565 0.000000
# 2 0.001319 0.017997 -0.003792 0.000000 -0.006958 0.000000
# 3 -0.007551 -0.003792 0.001674 0.000000 -0.021517 0.000000
# 4 0.000000 0.000000 0.000000 0.189128 0.000000 0.026731
# 5 -0.020565 -0.006958 -0.021517 0.000000 -0.057018 0.000000
# 6 0.000000 0.000000 0.000000 0.026731 0.000000 0.058468
#
#
# Mechanical properties :
#
#
# Convention : Reuss Voigt Hill
#
# Bulk Modulus (GPa) = 107.62993 22.60170 65.11582
# Shear Modulus (GPa) = 20.57092 20.99466 20.78279
#
# Velocity S-wave (km/s) = 3.04184 3.07301 3.05747
# Velocity P-wave (km/s) = 7.79417 4.77048 6.46167
#
# Compressibility (1/GPa) = 0.00929110
#
# Stress axis : x y z
#
# Youngs Moduli (GPa) = 103.43382 55.56445 597.53503
#
# Poissons Ratio (x) = -0.07331 4.51228
# Poissons Ratio (y) = -0.13646 2.26562
# Poissons Ratio (z) = 0.78108 0.21068
#
# Static dielectric constant tensor:
#      x y z
#    x 1.721810 0.000000 0.019190 
#    y 0.000000 1.837610 0.000000 
#    z 0.019190 0.000000 1.898880 
# 
# From -- ./inp_files/49501.got.cif
#   From: 2010.05.17/outbox.cif.g08.bks.cpg/sg11_25_cif.got.tgz:49501.got - 2010.06.03 12:22:45.
