data_PCOD9164593
_publ_section_title
;
Structure prediction by ZEFSAII (Michael W. Deem and Ramdas Pophale) SiO2 
 PCOD9164593
Probable space group: P 21/M
;
_chemical_formula_sum "Si O2"
_cell_formula_units_Z 32
_cell_length_a 28.540908
_cell_length_b 8.192397
_cell_length_c 14.673869
_cell_angle_alpha 90.000000
_cell_angle_beta 29.805036
_cell_angle_gamma 90.000000
_cell_volume 1705.389926
_symmetry_space_group_name_H-M "P 21/M"
_symmetry_group_IT_number 11
_symmetry_cell_setting 'monoclinic'
loop_
_space_group_symop_operation_xyz
x,y,z
-x,1/2+y,-z
-x,-y,-z
x,1/2-y,z
loop_
_atom_site_type_symbol
_atom_site_label
_atom_site_fract_x
_atom_site_fract_y
_atom_site_fract_z
Si Si1 0.911003 0.947453 0.268131
Si Si2 0.699050 0.052562 0.307098
Si Si3 0.605848 0.437633 0.805272
Si Si4 0.124145 0.946934 0.871764
Si Si5 0.432218 0.061710 0.316210
Si Si6 0.365844 0.445080 0.969323
Si Si7 0.602325 0.054414 0.289506
Si Si8 0.231321 0.439925 0.345399
O O1 0.910566 0.750000 0.272326
O O2 0.855531 0.011742 0.450347
O O3 0.861864 0.996626 0.255950
O O4 0.019532 0.003002 0.078008
O O5 0.694046 0.250000 0.321025
O O6 0.795162 0.998817 0.194306
O O7 0.679680 0.007764 0.235301
O O8 0.614321 0.979181 0.509137
O O9 0.615525 0.250000 0.816927
O O10 0.617689 0.455056 0.676906
O O11 0.680590 0.543489 0.734148
O O12 0.500000 0.500000 0.000000
O O13 0.123906 0.750000 0.871910
O O14 0.418700 0.250000 0.315195
O O15 0.542471 0.022797 0.138148
O O16 0.372351 0.250000 0.971059
O O17 0.372848 0.483260 0.850898
O O18 0.272593 0.505449 0.180304
O O19 0.600077 0.250000 0.284994
O O20 0.500000 0.000000 0.500000
O O21 0.208851 0.250000 0.367643
#
# Coordination Sequence:
#
# PCOD9164593 Si02
#       8
#     4   4   4   4   4   4   4   4
#     4   9  18  34  56  82 110 139 176 218 264 322
#     4  10  21  36  55  78 106 140 177 222 273 323
#     4  12  23  34  49  71 104 142 178 216 257 312
#     4   9  18  34  56  82 109 139 175 218 269 321
#     4  12  23  34  51  75 105 141 179 218 264 318
#     4  11  22  36  53  73 104 141 180 222 266 319
#     4  11  22  36  55  77 105 140 183 228 274 323
#     4  10  21  36  54  76 105 143 181 220 267 320
#
# _framework density 18.764037999999999
#
# number of rings (size 3 to 8) (size 9 to 14) (size 15 to 20)
#    0.000    1.500    2.500    3.750    0.000    4.000 
#    0.000    0.000    0.000    0.750    0.000    0.000 
#    0.000    0.000    0.000    0.000    0.000    0.250 
#
# Total GULP energy -178669.621261 kJ/mol
# GULP energy per Si atom -5583.425664 kJ/mol
# Density = 1.872133 g / cm^3
# Si number density = 18.764038 Si / 1000 Ang^3
#
#
#
# Elastic Constant Matrix: (Units=GPa)
#
#
# Indices 1 2 3 4 5 6 
#
# 1 90.4423 9.2948 43.5759 0.0000 14.2528 0.0000
# 2 9.2948 24.0723 5.5650 0.0000 -0.3746 0.0000
# 3 43.5759 5.5650 116.1165 0.0000 20.4868 0.0000
# 4 0.0000 0.0000 0.0000 14.7164 0.0000 5.2178
# 5 14.2528 -0.3746 20.4868 0.0000 33.1897 0.0000
# 6 0.0000 0.0000 0.0000 5.2178 0.0000 25.3532
#
#
#
# Elastic Compliance Matrix: (Units=1/GPa)
#
#
# Indices 1 2 3 4 5 6 
#
# 1 0.014233 -0.004500 -0.004532 0.000000 -0.003366 0.000000
# 2 -0.004500 0.043540 -0.000926 0.000000 0.002996 0.000000
# 3 -0.004532 -0.000926 0.011240 0.000000 -0.005002 0.000000
# 4 0.000000 0.000000 0.000000 0.073300 0.000000 -0.015086
# 5 -0.003366 0.002996 -0.005002 0.000000 0.034697 0.000000
# 6 0.000000 0.000000 0.000000 -0.015086 0.000000 0.042548
#
#
# Mechanical properties :
#
#
# Convention : Reuss Voigt Hill
#
# Bulk Modulus (GPa) = 20.36847 38.61138 29.48992
# Shear Modulus (GPa) = 19.54349 26.13155 22.83752
#
# Velocity S-wave (km/s) = 3.23079 3.73586 3.49247
# Velocity P-wave (km/s) = 4.97955 6.26345 5.65804
#
# Compressibility (1/GPa) = 0.04909550
#
# Stress axis : x y z
#
# Youngs Moduli (GPa) = 70.25836 22.96741 88.97025
#
# Poissons Ratio (x) = 0.10336 0.40320
# Poissons Ratio (y) = 0.31619 0.08242
# Poissons Ratio (z) = 0.31840 0.02128
#
# Static dielectric constant tensor:
#      x y z
#    x 1.647230 0.000000 0.027660 
#    y 0.000000 1.654830 0.000000 
#    z 0.027660 0.000000 1.690580 
# 
# From -- ./inp_files/56163.got.cif
#   From: 2010.05.17/outbox.cif.g08.bks.cpg/sg11_29_cif.got.tgz:56163.got - 2010.06.03 12:22:45.
