data_PCOD9164204
_publ_section_title
;
Structure prediction by ZEFSAII (Michael W. Deem and Ramdas Pophale) SiO2 
 PCOD9164204
Probable space group: P 21/M
;
_chemical_formula_sum "Si O2"
_cell_formula_units_Z 22
_cell_length_a 17.465493
_cell_length_b 10.754404
_cell_length_c 25.459547
_cell_angle_alpha 90.000000
_cell_angle_beta 13.011369
_cell_angle_gamma 90.000000
_cell_volume 1076.661044
_symmetry_space_group_name_H-M "P 21/M"
_symmetry_group_IT_number 11
_symmetry_cell_setting 'monoclinic'
loop_
_space_group_symop_operation_xyz
x,y,z
-x,1/2+y,-z
-x,-y,-z
x,1/2-y,z
loop_
_atom_site_type_symbol
_atom_site_label
_atom_site_fract_x
_atom_site_fract_y
_atom_site_fract_z
Si Si1 0.151366 0.109219 0.779811
Si Si2 0.787361 0.250000 0.520894
Si Si3 0.227525 0.885702 0.867126
Si Si4 0.659756 0.750000 0.765740
Si Si5 0.732702 0.468682 0.474122
Si Si6 0.397862 0.750000 0.238875
Si Si7 0.762844 0.995658 0.952464
O O1 0.206300 0.250000 0.723690
O O2 0.456994 0.074825 0.614654
O O3 0.813200 0.109116 0.042986
O O4 0.076265 0.015295 0.783450
O O5 0.741398 0.367984 0.514491
O O6 0.553022 0.250000 0.730077
O O7 0.161437 0.250000 0.296583
O O8 0.091543 0.750000 0.942308
O O9 0.588492 0.908447 0.598873
O O10 0.000000 0.000000 0.000000
O O11 0.448820 0.623409 0.901192
O O12 0.987695 0.750000 0.508114
O O13 0.081513 0.482456 0.209592
O O14 0.557390 0.626286 0.107175
#
# Coordination Sequence:
#
# PCOD9164204 Si02
#       7
#     4   2   4   2   4   2   4
#     4  10  20  39  65  95 136 173 207 256 326 402
#     4  10  23  44  67  90 131 175 221 272 320 390
#     4   9  20  36  58  92 133 178 209 251 311 398
#     4  10  26  45  72  89 131 170 233 278 322 390
#     4  11  22  39  67  98 140 164 215 269 337 395
#     4  10  25  45  69  95 124 179 230 272 330 384
#     4  12  23  44  69 101 130 173 217 279 335 384
#
# _framework density 20.433544000000001
#
# number of rings (size 3 to 8) (size 9 to 14) (size 15 to 20)
#    0.545    1.091    1.818    2.727    2.545    0.727 
#    6.545    0.000    0.000    0.000    0.000    0.000 
#    0.000    0.000    0.000    0.000    0.000    0.000 
#
# Total GULP energy -122662.283091 kJ/mol
# GULP energy per Si atom -5575.558322 kJ/mol
# Density = 2.038704 g / cm^3
# Si number density = 20.433544 Si / 1000 Ang^3
#
#
#
# Elastic Constant Matrix: (Units=GPa)
#
#
# Indices 1 2 3 4 5 6 
#
# 1 68.6228 32.8012 37.0645 0.0000 11.6205 0.0000
# 2 32.8012 153.0893 57.0223 0.0000 18.8869 0.0000
# 3 37.0645 57.0223 103.9908 0.0000 28.0694 0.0000
# 4 0.0000 0.0000 0.0000 22.5053 0.0000 -1.6775
# 5 11.6205 18.8869 28.0694 0.0000 44.9764 0.0000
# 6 0.0000 0.0000 0.0000 -1.6775 0.0000 26.3519
#
#
#
# Elastic Compliance Matrix: (Units=1/GPa)
#
#
# Indices 1 2 3 4 5 6 
#
# 1 0.018487 -0.001876 -0.005392 0.000000 -0.000623 0.000000
# 2 -0.001876 0.008421 -0.003759 0.000000 -0.000706 0.000000
# 3 -0.005392 -0.003759 0.015390 0.000000 -0.006633 0.000000
# 4 0.000000 0.000000 0.000000 0.044646 0.000000 0.002842
# 5 -0.000623 -0.000706 -0.006633 0.000000 0.026831 0.000000
# 6 0.000000 0.000000 0.000000 0.002842 0.000000 0.038129
#
#
# Mechanical properties :
#
#
# Convention : Reuss Voigt Hill
#
# Bulk Modulus (GPa) = 49.39599 64.38657 56.89128
# Shear Modulus (GPa) = 27.66946 32.02105 29.84525
#
# Velocity S-wave (km/s) = 3.68383 3.96293 3.82593
# Velocity P-wave (km/s) = 6.50543 7.24696 6.88618
#
# Compressibility (1/GPa) = 0.02024456
#
# Stress axis : x y z
#
# Youngs Moduli (GPa) = 54.09182 118.74961 64.97918
#
# Poissons Ratio (x) = 0.22273 0.35040
# Poissons Ratio (y) = 0.10145 0.24423
# Poissons Ratio (z) = 0.29169 0.44633
#
# Static dielectric constant tensor:
#      x y z
#    x 1.731890 0.000000 0.005830 
#    y 0.000000 1.722320 0.000000 
#    z 0.005830 0.000000 1.801350 
# 
# From -- ./inp_files/73658.got.cif
#   From: 2010.05.17/outbox.cif.g08.bks.cpg/sg11_37_cif.got.tgz:73658.got - 2010.06.03 12:22:45.
