data_PCOD9164573
_publ_section_title
;
Structure prediction by ZEFSAII (Michael W. Deem and Ramdas Pophale) SiO2 
 PCOD9164573
Probable space group: P 21/M
;
_chemical_formula_sum "Si O2"
_cell_formula_units_Z 32
_cell_length_a 22.334079
_cell_length_b 8.310324
_cell_length_c 22.346003
_cell_angle_alpha 90.000000
_cell_angle_beta 154.653380
_cell_angle_gamma 90.000000
_cell_volume 1775.514966
_symmetry_space_group_name_H-M "P 21/M"
_symmetry_group_IT_number 11
_symmetry_cell_setting 'monoclinic'
loop_
_space_group_symop_operation_xyz
x,y,z
-x,1/2+y,-z
-x,-y,-z
x,1/2-y,z
loop_
_atom_site_type_symbol
_atom_site_label
_atom_site_fract_x
_atom_site_fract_y
_atom_site_fract_z
Si Si1 0.688376 0.055655 0.499075
Si Si2 0.440206 0.553585 0.741876
Si Si3 0.620841 0.445109 0.185130
Si Si4 0.378911 0.442319 0.434428
Si Si5 0.065345 0.442335 0.120827
Si Si6 0.244012 0.056659 0.942864
Si Si7 0.997666 0.555634 0.186908
Si Si8 0.695683 0.058472 0.127807
O O1 0.689003 0.250000 0.498435
O O2 0.622735 0.997401 0.377601
O O3 0.848948 0.000694 0.652538
O O4 0.605942 0.002246 0.483814
O O5 0.441509 0.750000 0.741545
O O6 0.352362 0.507128 0.721970
O O7 0.600931 0.500594 0.897157
O O8 0.614204 0.250000 0.177461
O O9 0.717542 0.496145 0.216536
O O10 0.465213 0.509918 0.031037
O O11 0.500000 0.500000 0.500000
O O12 0.377304 0.250000 0.433390
O O13 0.225985 0.500192 0.273824
O O14 0.066365 0.250000 0.122479
O O15 0.983088 0.502534 0.105101
O O16 0.000000 0.500000 0.000000
O O17 0.246484 0.250000 0.948501
O O18 0.124440 0.997009 0.879600
O O19 0.219919 0.012557 0.851692
O O20 0.997083 0.750000 0.187783
O O21 0.709636 0.250000 0.138271
#
# Coordination Sequence:
#
# PCOD9164573 Si02
#       8
#     4   4   4   4   4   4   4   4
#     4   9  17  31  50  69  90 120 156 190 227 275
#     4   8  14  26  45  66  87 114 150 188 225 268
#     4   8  14  25  40  60  88 119 148 183 229 275
#     4  10  21  36  53  74  99 127 158 193 235 282
#     4  10  21  36  54  75  99 127 159 196 238 283
#     4   9  17  29  44  64  91 120 150 187 230 274
#     4   9  18  32  49  68  92 123 156 189 229 278
#     4   9  15  23  39  63  88 115 149 188 228 270
#
# _framework density 18.022942
#
# number of rings (size 3 to 8) (size 9 to 14) (size 15 to 20)
#    0.000    3.000    0.000    1.875    0.000    3.500 
#    0.000    5.000    0.000    0.750    0.000    0.000 
#    0.000    0.000    0.000    0.000    0.000    1.125 
#
# Total GULP energy -178182.368464 kJ/mol
# GULP energy per Si atom -5568.199014 kJ/mol
# Density = 1.798192 g / cm^3
# Si number density = 18.022942 Si / 1000 Ang^3
#
#
#
# Elastic Constant Matrix: (Units=GPa)
#
#
# Indices 1 2 3 4 5 6 
#
# 1 199.5555 16.7129 76.4207 0.0000 -13.6921 0.0000
# 2 16.7129 6.5099 8.8698 0.0000 -2.3416 0.0000
# 3 76.4207 8.8698 56.2551 0.0000 -20.8924 0.0000
# 4 0.0000 0.0000 0.0000 12.8794 0.0000 -3.9458
# 5 -13.6921 -2.3416 -20.8924 0.0000 21.6326 0.0000
# 6 0.0000 0.0000 0.0000 -3.9458 0.0000 27.1281
#
#
#
# Elastic Compliance Matrix: (Units=1/GPa)
#
#
# Indices 1 2 3 4 5 6 
#
# 1 0.012897 -0.009341 -0.020880 0.000000 -0.013014 0.000000
# 2 -0.009341 0.204944 -0.021177 0.000000 -0.004181 0.000000
# 3 -0.020880 -0.021177 0.068172 0.000000 0.050332 0.000000
# 4 0.000000 0.000000 0.000000 0.081265 0.000000 0.011820
# 5 -0.013014 -0.004181 0.050332 0.000000 0.086147 0.000000
# 6 0.000000 0.000000 0.000000 0.011820 0.000000 0.038581
#
#
# Mechanical properties :
#
#
# Convention : Reuss Voigt Hill
#
# Bulk Modulus (GPa) = 5.45802 51.81415 28.63608
# Shear Modulus (GPa) = 7.62340 23.01583 15.31962
#
# Velocity S-wave (km/s) = 2.05889 3.57743 2.91865
# Velocity P-wave (km/s) = 2.94737 6.77314 5.22314
#
# Compressibility (1/GPa) = 0.18321676
#
# Stress axis : x y z
#
# Youngs Moduli (GPa) = 77.53971 4.87938 14.66867
#
# Poissons Ratio (x) = 0.04558 0.30628
# Poissons Ratio (y) = 0.72431 0.31064
# Poissons Ratio (z) = 1.61903 0.10333
#
# Static dielectric constant tensor:
#      x y z
#    x 1.644950 0.000000 -0.009540 
#    y 0.000000 1.626410 0.000000 
#    z -0.009540 0.000000 1.616350 
# 
# From -- ./inp_files/66437.got.cif
#   From: 2010.05.17/outbox.cif.g08.bks.cpg/sg11_34_cif.got.tgz:66437.got - 2010.06.03 12:22:45.
