data_PCOD9164110
_publ_section_title
;
Structure prediction by ZEFSAII (Michael W. Deem and Ramdas Pophale) SiO2 
 PCOD9164110
Probable space group: P 21/M
;
_chemical_formula_sum "Si O2"
_cell_formula_units_Z 20
_cell_length_a 8.549031
_cell_length_b 13.322156
_cell_length_c 9.106779
_cell_angle_alpha 90.000000
_cell_angle_beta 84.428904
_cell_angle_gamma 90.000000
_cell_volume 1032.285803
_symmetry_space_group_name_H-M "P 21/M"
_symmetry_group_IT_number 11
_symmetry_cell_setting 'monoclinic'
loop_
_space_group_symop_operation_xyz
x,y,z
-x,1/2+y,-z
-x,-y,-z
x,1/2-y,z
loop_
_atom_site_type_symbol
_atom_site_label
_atom_site_fract_x
_atom_site_fract_y
_atom_site_fract_z
Si Si1 0.863547 0.954383 0.113043
Si Si2 0.596913 0.136505 0.593762
Si Si3 0.916930 0.461324 0.654217
Si Si4 0.731849 0.635570 0.845387
Si Si5 0.423482 0.556976 0.731375
O O1 0.952855 0.914895 0.248932
O O2 0.742991 0.040054 0.176977
O O3 0.770274 0.880819 0.013333
O O4 0.000000 0.000000 0.000000
O O5 0.552219 0.250000 0.632623
O O6 0.774056 0.112291 0.629045
O O7 0.588625 0.117538 0.419491
O O8 0.486403 0.053600 0.679663
O O9 0.837128 0.557436 0.742257
O O10 0.000000 0.500000 0.500000
O O11 0.763417 0.750000 0.800102
O O12 0.552455 0.607003 0.824338
#
# Coordination Sequence:
#
# PCOD9164110 Si02
#       5
#     4   4   4   4   4
#     4  10  21  39  60  83 119 161 195 242 303 354
#     4  10  21  36  61  90 115 156 205 248 303 358
#     4  10  20  39  60  86 123 157 196 255 300 349
#     4  10  22  38  59  88 119 160 201 241 301 363
#     4  10  20  39  60  84 124 157 197 254 298 353
#
# _framework density 19.374479000000001
#
# number of rings (size 3 to 8) (size 9 to 14) (size 15 to 20)
#    0.000    2.000    2.000    1.200    0.000    2.400 
#    0.000    1.000    0.000    1.200    0.000    0.000 
#    0.000    0.000    0.000    0.000    0.000    0.000 
#
# Total GULP energy -111620.316609 kJ/mol
# GULP energy per Si atom -5581.015830 kJ/mol
# Density = 1.933038 g / cm^3
# Si number density = 19.374479 Si / 1000 Ang^3
#
#
#
# Elastic Constant Matrix: (Units=GPa)
#
#
# Indices 1 2 3 4 5 6 
#
# 1 104.4805 6.5211 47.5983 0.0000 30.9672 0.0000
# 2 6.5211 84.8297 6.8965 0.0000 21.4875 0.0000
# 3 47.5983 6.8965 86.4067 0.0000 20.6071 0.0000
# 4 0.0000 0.0000 0.0000 11.8310 0.0000 3.4876
# 5 30.9672 21.4875 20.6071 0.0000 46.3374 0.0000
# 6 0.0000 0.0000 0.0000 3.4876 0.0000 7.9055
#
#
#
# Elastic Compliance Matrix: (Units=1/GPa)
#
#
# Indices 1 2 3 4 5 6 
#
# 1 0.014625 0.001305 -0.006360 0.000000 -0.007551 0.000000
# 2 0.001305 0.013490 -0.000107 0.000000 -0.007080 0.000000
# 3 -0.006360 -0.000107 0.015728 0.000000 -0.002694 0.000000
# 4 0.000000 0.000000 0.000000 0.097158 0.000000 -0.042862
# 5 -0.007551 -0.007080 -0.002694 0.000000 0.031109 0.000000
# 6 0.000000 0.000000 0.000000 -0.042862 0.000000 0.145403
#
#
# Mechanical properties :
#
#
# Convention : Reuss Voigt Hill
#
# Bulk Modulus (GPa) = 29.83316 44.19430 37.01373
# Shear Modulus (GPa) = 14.74886 27.52819 21.13852
#
# Velocity S-wave (km/s) = 2.76207 3.77350 3.30669
# Velocity P-wave (km/s) = 5.06001 6.46884 5.80730
#
# Compressibility (1/GPa) = 0.03351975
#
# Stress axis : x y z
#
# Youngs Moduli (GPa) = 68.37574 74.12816 63.58203
#
# Poissons Ratio (x) = -0.09677 0.40437
# Poissons Ratio (y) = -0.08926 0.00682
# Poissons Ratio (z) = 0.43486 0.00795
#
# Static dielectric constant tensor:
#      x y z
#    x 1.694160 0.000000 0.026220 
#    y 0.000000 1.648490 0.000000 
#    z 0.026220 0.000000 1.681540 
# 
# From -- ./inp_files/11727.got.cif
#   From: 2010.05.17/outbox.cif.g08.bks.cpg/sg11_6_cif.got.tgz:11727.got - 2010.06.03 12:22:45.
