data_PCOD9164605
_publ_section_title
;
Structure prediction by ZEFSAII (Michael W. Deem and Ramdas Pophale) SiO2 
 PCOD9164605
Probable space group: P 21/M
;
_chemical_formula_sum "Si O2"
_cell_formula_units_Z 32
_cell_length_a 15.400093
_cell_length_b 8.812586
_cell_length_c 12.534187
_cell_angle_alpha 90.000000
_cell_angle_beta 88.044417
_cell_angle_gamma 90.000000
_cell_volume 1700.081990
_symmetry_space_group_name_H-M "P 21/M"
_symmetry_group_IT_number 11
_symmetry_cell_setting 'monoclinic'
loop_
_space_group_symop_operation_xyz
x,y,z
-x,1/2+y,-z
-x,-y,-z
x,1/2-y,z
loop_
_atom_site_type_symbol
_atom_site_label
_atom_site_fract_x
_atom_site_fract_y
_atom_site_fract_z
Si Si1 0.562676 0.933236 0.907841
Si Si2 0.090957 0.569809 0.956043
Si Si3 0.941024 0.569731 0.263681
Si Si4 0.633271 0.432505 0.471183
Si Si5 0.529153 0.567022 0.666315
Si Si6 0.141919 0.569117 0.297253
Si Si7 0.762566 0.930960 0.899147
Si Si8 0.168627 0.567791 0.544475
O O1 0.557214 0.750000 0.910885
O O2 0.537717 0.982281 0.788396
O O3 0.663035 0.976045 0.923446
O O4 0.500000 0.000000 0.000000
O O5 0.086271 0.750000 0.965312
O O6 0.100670 0.517942 0.833628
O O7 0.169795 0.508511 0.023701
O O8 0.000000 0.500000 0.000000
O O9 0.931792 0.750000 0.249131
O O10 0.895906 0.517693 0.374301
O O11 0.043778 0.535083 0.264197
O O12 0.631033 0.250000 0.481320
O O13 0.602751 0.501392 0.585024
O O14 0.562242 0.477364 0.385260
O O15 0.731250 0.475046 0.437922
O O16 0.534988 0.750000 0.663967
O O17 0.156414 0.750000 0.283715
O O18 0.208769 0.480213 0.220518
O O19 0.150300 0.533339 0.421536
O O20 0.769615 0.750000 0.909012
O O21 0.158937 0.750000 0.559239
#
# Coordination Sequence:
#
# PCOD9164605 Si02
#       8
#     4   4   4   4   4   4   4   4
#     4  10  23  40  58  85 120 157 199 246 296 351
#     4  12  24  41  64  88 116 152 195 245 298 356
#     4  11  23  38  57  84 117 155 198 243 293 349
#     4   9  18  33  56  84 112 146 190 237 285 345
#     4   9  18  35  57  81 112 147 187 236 290 344
#     4  10  21  37  58  83 116 156 199 245 295 353
#     4  11  23  39  62  90 118 154 202 252 301 357
#     4  10  21  36  54  83 120 156 197 240 291 352
#
# _framework density 18.822621000000002
#
# number of rings (size 3 to 8) (size 9 to 14) (size 15 to 20)
#    0.000    1.750    1.250    3.000    0.000    4.000 
#    0.000    1.250    0.000    0.000    0.000    0.000 
#    0.000    0.000    0.000    0.000    0.000    0.000 
#
# Total GULP energy -178823.228093 kJ/mol
# GULP energy per Si atom -5588.225878 kJ/mol
# Density = 1.877978 g / cm^3
# Si number density = 18.822621 Si / 1000 Ang^3
#
#
#
# Elastic Constant Matrix: (Units=GPa)
#
#
# Indices 1 2 3 4 5 6 
#
# 1 111.4922 47.3598 71.8653 0.0000 -11.6629 0.0000
# 2 47.3598 47.5635 45.3699 0.0000 -3.8481 0.0000
# 3 71.8653 45.3699 103.9874 0.0000 -0.1885 0.0000
# 4 0.0000 0.0000 0.0000 35.9370 0.0000 -7.3270
# 5 -11.6629 -3.8481 -0.1885 0.0000 28.3252 0.0000
# 6 0.0000 0.0000 0.0000 -7.3270 0.0000 22.7051
#
#
#
# Elastic Compliance Matrix: (Units=1/GPa)
#
#
# Indices 1 2 3 4 5 6 
#
# 1 0.020222 -0.010732 -0.009281 0.000000 0.006807 0.000000
# 2 -0.010732 0.042369 -0.011066 0.000000 0.001263 0.000000
# 3 -0.009281 -0.011066 0.020849 0.000000 -0.005186 0.000000
# 4 0.000000 0.000000 0.000000 0.029786 0.000000 0.009612
# 5 0.006807 0.001263 -0.005186 0.000000 0.038244 0.000000
# 6 0.000000 0.000000 0.000000 0.009612 0.000000 0.047145
#
#
# Mechanical properties :
#
#
# Convention : Reuss Voigt Hill
#
# Bulk Modulus (GPa) = 46.98826 65.80367 56.39597
# Shear Modulus (GPa) = 18.66589 23.95667 21.31128
#
# Velocity S-wave (km/s) = 3.15250 3.57145 3.36849
# Velocity P-wave (km/s) = 6.18619 7.21407 6.71981
#
# Compressibility (1/GPa) = 0.02128191
#
# Stress axis : x y z
#
# Youngs Moduli (GPa) = 49.45051 23.60215 47.96331
#
# Poissons Ratio (x) = 0.25330 0.44513
# Poissons Ratio (y) = 0.53072 0.53078
# Poissons Ratio (z) = 0.45893 0.26119
#
# Static dielectric constant tensor:
#      x y z
#    x 1.641320 0.000000 0.020590 
#    y 0.000000 1.630600 0.000000 
#    z 0.020590 0.000000 1.640190 
# 
# From -- ./inp_files/38225.got.cif
#   From: 2010.05.17/outbox.cif.g08.bks.cpg/sg11_20_cif.got.tgz:38225.got - 2010.06.03 12:22:45.
