data_PCOD9164723
_publ_section_title
;
Structure prediction by ZEFSAII (Michael W. Deem and Ramdas Pophale) SiO2 
 PCOD9164723
Probable space group: P 21/M
;
_chemical_formula_sum "Si O2"
_cell_formula_units_Z 28
_cell_length_a 14.871393
_cell_length_b 8.923217
_cell_length_c 22.025515
_cell_angle_alpha 90.000000
_cell_angle_beta 30.217619
_cell_angle_gamma 90.000000
_cell_volume 1471.003697
_symmetry_space_group_name_H-M "P 21/M"
_symmetry_group_IT_number 11
_symmetry_cell_setting 'monoclinic'
loop_
_space_group_symop_operation_xyz
x,y,z
-x,1/2+y,-z
-x,-y,-z
x,1/2-y,z
loop_
_atom_site_type_symbol
_atom_site_label
_atom_site_fract_x
_atom_site_fract_y
_atom_site_fract_z
Si Si1 0.582180 0.070128 0.392146
Si Si2 0.749438 0.427438 0.893703
Si Si3 0.803674 0.929735 0.615015
Si Si4 0.993602 0.071456 0.169535
Si Si5 0.606962 0.071518 0.844922
Si Si6 0.161273 0.429252 0.944341
Si Si7 0.518556 0.569317 0.681976
O O1 0.568982 0.250000 0.403443
O O2 0.487300 0.022061 0.385018
O O3 0.792409 0.031431 0.267907
O O4 0.500000 0.000000 0.500000
O O5 0.730571 0.250000 0.913862
O O6 0.932914 0.485633 0.815081
O O7 0.726491 0.456943 0.835426
O O8 0.587746 0.510310 0.022880
O O9 0.815659 0.750000 0.612053
O O10 0.694974 0.968402 0.617029
O O11 0.690554 0.992025 0.737875
O O12 0.000000 0.000000 0.500000
O O13 0.999218 0.250000 0.177214
O O14 0.120799 0.037359 0.038273
O O15 0.597201 0.250000 0.840352
O O16 0.160111 0.250000 0.937396
O O17 0.347643 0.497055 0.814168
O O18 0.000000 0.500000 0.000000
O O19 0.497261 0.750000 0.695907
#
# Coordination Sequence:
#
# PCOD9164723 Si02
#       7
#     4   4   4   4   4   4   4
#     4  10  22  41  59  80 114 152 193 237 285 343
#     4  10  21  36  59  89 119 153 194 242 297 354
#     4  11  24  41  64  89 118 157 202 251 300 354
#     4  10  21  37  57  84 119 155 190 239 295 347
#     4  10  21  39  60  85 120 156 195 244 299 353
#     4  11  21  35  59  89 121 154 192 239 294 352
#     4  10  22  42  62  85 119 155 194 245 298 347
#
# _framework density 19.034621999999999
#
# number of rings (size 3 to 8) (size 9 to 14) (size 15 to 20)
#    0.000    1.714    1.429    2.571    0.000    8.571 
#    0.000    4.286    0.000    0.000    0.000    0.000 
#    0.000    0.000    0.000    0.000    0.000    0.000 
#
# Total GULP energy -156459.360201 kJ/mol
# GULP energy per Si atom -5587.834293 kJ/mol
# Density = 1.899130 g / cm^3
# Si number density = 19.034622 Si / 1000 Ang^3
#
#
#
# Elastic Constant Matrix: (Units=GPa)
#
#
# Indices 1 2 3 4 5 6 
#
# 1 176.0801 63.0623 64.6311 0.0000 -2.8482 0.0000
# 2 63.0623 35.9517 30.7795 0.0000 1.4644 0.0000
# 3 64.6311 30.7795 88.3421 0.0000 11.5023 0.0000
# 4 0.0000 0.0000 0.0000 34.9748 0.0000 -0.4130
# 5 -2.8482 1.4644 11.5023 0.0000 27.0809 0.0000
# 6 0.0000 0.0000 0.0000 -0.4130 0.0000 32.8048
#
#
#
# Elastic Compliance Matrix: (Units=1/GPa)
#
#
# Indices 1 2 3 4 5 6 
#
# 1 0.016233 -0.025624 -0.003547 0.000000 0.004599 0.000000
# 2 -0.025624 0.080490 -0.008870 0.000000 -0.003280 0.000000
# 3 -0.003547 -0.008870 0.017986 0.000000 -0.007533 0.000000
# 4 0.000000 0.000000 0.000000 0.028596 0.000000 0.000360
# 5 0.004599 -0.003280 -0.007533 0.000000 0.040787 0.000000
# 6 0.000000 0.000000 0.000000 0.000360 0.000000 0.030488
#
#
# Mechanical properties :
#
#
# Convention : Reuss Voigt Hill
#
# Bulk Modulus (GPa) = 25.88919 68.59108 47.24014
# Shear Modulus (GPa) = 16.47245 28.43217 22.45231
#
# Velocity S-wave (km/s) = 2.94495 3.86905 3.43819
# Velocity P-wave (km/s) = 5.01939 7.48816 6.37443
#
# Compressibility (1/GPa) = 0.03862616
#
# Stress axis : x y z
#
# Youngs Moduli (GPa) = 61.60353 12.42391 55.59997
#
# Poissons Ratio (x) = 0.31836 0.19721
# Poissons Ratio (y) = 1.57856 0.49316
# Poissons Ratio (z) = 0.21850 0.11020
#
# Static dielectric constant tensor:
#      x y z
#    x 1.679940 0.000000 -0.003920 
#    y 0.000000 1.631560 0.000000 
#    z -0.003920 0.000000 1.626270 
# 
# From -- ./inp_files/37650.got.cif
#   From: 2010.05.17/outbox.cif.g08.bks.cpg/sg11_19_cif.got.tgz:37650.got - 2010.06.03 12:22:45.
