data_PCOD9164858
_publ_section_title
;
Structure prediction by ZEFSAII (Michael W. Deem and Ramdas Pophale) SiO2 
 PCOD9164858
Probable space group: P 21/M
;
_chemical_formula_sum "Si O2"
_cell_formula_units_Z 32
_cell_length_a 17.178841
_cell_length_b 8.793181
_cell_length_c 26.482093
_cell_angle_alpha 90.000000
_cell_angle_beta 153.492469
_cell_angle_gamma 90.000000
_cell_volume 1785.394081
_symmetry_space_group_name_H-M "P 21/M"
_symmetry_group_IT_number 11
_symmetry_cell_setting 'monoclinic'
loop_
_space_group_symop_operation_xyz
x,y,z
-x,1/2+y,-z
-x,-y,-z
x,1/2-y,z
loop_
_atom_site_type_symbol
_atom_site_label
_atom_site_fract_x
_atom_site_fract_y
_atom_site_fract_z
Si Si1 0.269693 0.433101 0.669150
Si Si2 0.560312 0.073224 0.482552
Si Si3 0.175892 0.422892 0.226923
Si Si4 0.095677 0.433009 0.365399
Si Si5 0.655509 0.433912 0.924570
Si Si6 0.070031 0.931939 0.462086
Si Si7 0.932453 0.574468 0.011728
Si Si8 0.091965 0.929833 0.840750
O O1 0.271905 0.250000 0.664605
O O2 0.455927 0.480937 0.800052
O O3 0.220559 0.505550 0.586709
O O4 0.112235 0.471785 0.615901
O O5 0.608869 0.250000 0.518207
O O6 0.382612 0.068787 0.347161
O O7 0.500000 0.000000 0.500000
O O8 0.717900 0.985565 0.548122
O O9 0.124286 0.250000 0.180861
O O10 0.089694 0.548056 0.142098
O O11 0.086308 0.442693 0.229817
O O12 0.089384 0.250000 0.363303
O O13 0.073617 0.498756 0.408434
O O14 0.951744 0.489042 0.240501
O O15 0.661144 0.250000 0.928899
O O16 0.770311 0.491139 0.944203
O O17 0.753858 0.489388 0.033023
O O18 0.083472 0.750000 0.466774
O O19 0.891327 0.750000 0.980411
O O20 0.000000 0.500000 0.000000
O O21 0.126741 0.750000 0.855115
#
# Coordination Sequence:
#
# PCOD9164858 Si02
#       8
#     4   4   4   4   4   4   4   4
#     4   9  19  38  63  84 106 141 184 226 278 341
#     4  11  21  34  53  78 109 145 184 226 271 318
#     4   9  18  35  53  71 101 142 182 220 266 316
#     4  11  21  35  54  80 113 149 188 225 274 332
#     4   9  18  36  60  81 104 139 181 224 273 328
#     4  10  21  37  57  84 113 142 178 229 284 328
#     4  11  22  35  52  77 107 141 179 223 270 319
#     4   8  15  31  53  76 104 140 176 214 262 318
#
# _framework density 17.923213000000001
#
# number of rings (size 3 to 8) (size 9 to 14) (size 15 to 20)
#    0.000    2.250    1.250    3.000    0.000    3.000 
#    0.000    1.250    0.000    0.000    0.000    0.000 
#    0.000    0.000    0.000    0.000    0.000    0.000 
#
# Total GULP energy -178368.490206 kJ/mol
# GULP energy per Si atom -5574.015319 kJ/mol
# Density = 1.788242 g / cm^3
# Si number density = 17.923213 Si / 1000 Ang^3
#
#
#
# Elastic Constant Matrix: (Units=GPa)
#
#
# Indices 1 2 3 4 5 6 
#
# 1 112.0469 33.1228 62.7482 0.0000 -21.4448 0.0000
# 2 33.1228 36.6695 27.4695 0.0000 -6.4053 0.0000
# 3 62.7482 27.4695 135.4364 0.0000 -3.2402 0.0000
# 4 0.0000 0.0000 0.0000 22.2718 0.0000 -1.1672
# 5 -21.4448 -6.4053 -3.2402 0.0000 19.5002 0.0000
# 6 0.0000 0.0000 0.0000 -1.1672 0.0000 27.9269
#
#
#
# Elastic Compliance Matrix: (Units=1/GPa)
#
#
# Indices 1 2 3 4 5 6 
#
# 1 0.018067 -0.008907 -0.006183 0.000000 0.015915 0.000000
# 2 -0.008907 0.038409 -0.003610 0.000000 0.002221 0.000000
# 3 -0.006183 -0.003610 0.010832 0.000000 -0.006185 0.000000
# 4 0.000000 0.000000 0.000000 0.044998 0.000000 0.001881
# 5 0.015915 0.002221 -0.006185 0.000000 0.068485 0.000000
# 6 0.000000 0.000000 0.000000 0.001881 0.000000 0.035886
#
#
# Mechanical properties :
#
#
# Convention : Reuss Voigt Hill
#
# Bulk Modulus (GPa) = 33.43738 58.98153 46.20946
# Shear Modulus (GPa) = 18.93595 24.66059 21.79827
#
# Velocity S-wave (km/s) = 3.25392 3.71334 3.49119
# Velocity P-wave (km/s) = 5.72832 7.16691 6.48761
#
# Compressibility (1/GPa) = 0.02990665
#
# Stress axis : x y z
#
# Youngs Moduli (GPa) = 55.35079 26.03564 92.31603
#
# Poissons Ratio (x) = 0.23191 0.57078
# Poissons Ratio (y) = 0.49304 0.33328
# Poissons Ratio (z) = 0.34223 0.09399
#
# Static dielectric constant tensor:
#      x y z
#    x 1.604860 0.000000 -0.025790 
#    y 0.000000 1.560300 0.000000 
#    z -0.025790 0.000000 1.649570 
# 
# From -- ./inp_files/69138.got.cif
#   From: 2010.05.17/outbox.cif.g08.bks.cpg/sg11_35_cif.got.tgz:69138.got - 2010.06.03 12:22:45.
