data_PCOD9164900
_publ_section_title
;
Structure prediction by ZEFSAII (Michael W. Deem and Ramdas Pophale) SiO2 
 PCOD9164900
Probable space group: P 21/M
;
_chemical_formula_sum "Si O2"
_cell_formula_units_Z 24
_cell_length_a 12.725808
_cell_length_b 7.651471
_cell_length_c 9.791635
_cell_angle_alpha 90.000000
_cell_angle_beta 99.877455
_cell_angle_gamma 90.000000
_cell_volume 939.290089
_symmetry_space_group_name_H-M "P 21/M"
_symmetry_group_IT_number 11
_symmetry_cell_setting 'monoclinic'
loop_
_space_group_symop_operation_xyz
x,y,z
-x,1/2+y,-z
-x,-y,-z
x,1/2-y,z
loop_
_atom_site_type_symbol
_atom_site_label
_atom_site_fract_x
_atom_site_fract_y
_atom_site_fract_z
Si Si1 0.668860 0.545343 0.000169
Si Si2 0.348921 0.543887 0.498600
Si Si3 0.112375 0.540656 0.100291
Si Si4 0.007748 0.540534 0.341837
Si Si5 0.775554 0.539095 0.283287
Si Si6 0.538130 0.952498 0.730491
O O1 0.643212 0.750000 0.009829
O O2 0.783708 0.535248 0.950408
O O3 0.579442 0.466859 0.880472
O O4 0.688656 0.471170 0.155553
O O5 0.364407 0.750000 0.481483
O O6 0.245226 0.517630 0.566618
O O7 0.363776 0.459896 0.355270
O O8 0.441385 0.469521 0.620659
O O9 0.127509 0.750000 0.103848
O O10 0.095643 0.477314 0.253675
O O11 0.000000 0.500000 0.000000
O O12 0.012051 0.750000 0.333529
O O13 0.891803 0.480048 0.262485
O O14 0.000000 0.500000 0.500000
O O15 0.773552 0.750000 0.280033
O O16 0.511345 0.750000 0.746803
#
# Coordination Sequence:
#
# PCOD9164900 Si02
#       6
#     4   4   4   4   4   4
#     4  10  21  39  61  84 112 150 192 233 282 338
#     4  10  21  37  58  86 117 147 187 235 279 335
#     4  11  22  39  60  85 116 150 189 233 279 334
#     4  10  23  40  57  82 115 150 190 231 280 335
#     4  10  21  39  58  81 114 151 187 230 284 339
#     4   9  20  39  61  84 112 150 189 229 286 342
#
# _framework density 25.551210000000001
#
# number of rings (size 3 to 8) (size 9 to 14) (size 15 to 20)
#    0.000    2.000    1.667    1.000    2.333    4.667 
#    0.000    0.000    0.000    0.000    0.000    0.000 
#    0.000    0.000    0.000    0.000    0.000    0.000 
#
# Total GULP energy -134153.697471 kJ/mol
# GULP energy per Si atom -5589.737395 kJ/mol
# Density = 2.549305 g / cm^3
# Si number density = 25.551210 Si / 1000 Ang^3
#
#
#
# Elastic Constant Matrix: (Units=GPa)
#
#
# Indices 1 2 3 4 5 6 
#
# 1 55.5028 -0.2827 2.5848 0.0000 -16.5768 0.0000
# 2 -0.2827 66.8428 -2.5240 0.0000 1.1274 0.0000
# 3 2.5848 -2.5240 128.3760 0.0000 -5.5707 0.0000
# 4 0.0000 0.0000 0.0000 18.7649 0.0000 -6.3268
# 5 -16.5768 1.1274 -5.5707 0.0000 49.1839 0.0000
# 6 0.0000 0.0000 0.0000 -6.3268 0.0000 20.0504
#
#
#
# Elastic Compliance Matrix: (Units=1/GPa)
#
#
# Indices 1 2 3 4 5 6 
#
# 1 0.020035 -0.000033 -0.000112 0.000000 0.006741 0.000000
# 2 -0.000033 0.014976 0.000281 0.000000 -0.000323 0.000000
# 3 -0.000112 0.000281 0.007834 0.000000 0.000843 0.000000
# 4 0.000000 0.000000 0.000000 0.059636 0.000000 0.018818
# 5 0.006741 -0.000323 0.000843 0.000000 0.022707 0.000000
# 6 0.000000 0.000000 0.000000 0.018818 0.000000 0.055812
#
#
# Mechanical properties :
#
#
# Convention : Reuss Voigt Hill
#
# Bulk Modulus (GPa) = 23.19190 27.80866 25.50028
# Shear Modulus (GPa) = 25.62785 34.32940 29.97863
#
# Velocity S-wave (km/s) = 3.17045 3.66943 3.42903
# Velocity P-wave (km/s) = 4.74328 5.37216 5.06748
#
# Compressibility (1/GPa) = 0.04311851
#
# Stress axis : x y z
#
# Youngs Moduli (GPa) = 49.91175 66.77180 127.64899
#
# Poissons Ratio (x) = 0.00222 0.01424
# Poissons Ratio (y) = 0.00166 -0.03588
# Poissons Ratio (z) = 0.00557 -0.01877
#
# Static dielectric constant tensor:
#      x y z
#    x 2.107190 0.000000 0.004400 
#    y 0.000000 2.015350 0.000000 
#    z 0.004400 0.000000 2.105260 
# 
# From -- ./inp_files/20306.got.cif
#   From: 2010.05.17/outbox.cif.g08.bks.cpg/sg11_11_cif.got.tgz:20306.got - 2010.06.03 12:22:45.
