data_PCOD9164978
_publ_section_title
;
Structure prediction by ZEFSAII (Michael W. Deem and Ramdas Pophale) SiO2 
 PCOD9164978
Probable space group: P 21/M
;
_chemical_formula_sum "Si O2"
_cell_formula_units_Z 24
_cell_length_a 9.221550
_cell_length_b 8.750462
_cell_length_c 20.876934
_cell_angle_alpha 90.000000
_cell_angle_beta 131.391182
_cell_angle_gamma 90.000000
_cell_volume 1263.822605
_symmetry_space_group_name_H-M "P 21/M"
_symmetry_group_IT_number 11
_symmetry_cell_setting 'monoclinic'
loop_
_space_group_symop_operation_xyz
x,y,z
-x,1/2+y,-z
-x,-y,-z
x,1/2-y,z
loop_
_atom_site_type_symbol
_atom_site_label
_atom_site_fract_x
_atom_site_fract_y
_atom_site_fract_z
Si Si1 0.791962 0.066306 0.920624
Si Si2 0.531561 0.432342 0.079794
Si Si3 0.293512 0.933373 0.251729
Si Si4 0.974738 0.931733 0.596274
Si Si5 0.938933 0.567707 0.241318
Si Si6 0.697784 0.068293 0.412951
O O1 0.795318 0.250000 0.926658
O O2 0.741834 0.025587 0.832597
O O3 0.630640 0.998988 0.920417
O O4 0.000000 0.000000 0.000000
O O5 0.517099 0.250000 0.073590
O O6 0.741059 0.483245 0.166132
O O7 0.500000 0.500000 0.000000
O O8 0.321385 0.750000 0.263258
O O9 0.105684 0.971329 0.238983
O O10 0.483647 0.013480 0.334486
O O11 0.968264 0.750000 0.605036
O O12 0.161217 0.966635 0.606096
O O13 0.993299 0.018138 0.668495
O O14 0.790821 0.985151 0.501271
O O15 0.906551 0.750000 0.229650
O O16 0.703589 0.250000 0.424972
#
# Coordination Sequence:
#
# PCOD9164978 Si02
#       6
#     4   4   4   4   4   4
#     4  11  23  41  65  92 123 160 201 247 299 356
#     4  12  25  42  64  91 122 158 201 248 301 358
#     4  10  23  40  59  85 119 157 196 241 294 354
#     4  10  21  38  60  87 118 154 197 244 297 356
#     4  11  23  40  61  88 121 157 199 245 296 355
#     4  10  21  37  60  87 115 152 198 246 296 352
#
# _framework density 18.990006000000001
#
# number of rings (size 3 to 8) (size 9 to 14) (size 15 to 20)
#    0.000    1.333    0.000    5.500    0.000    9.333 
#    0.000    0.000    0.000    0.000    0.000    0.000 
#    0.000    0.000    0.000    0.000    0.000    0.000 
#
# Total GULP energy -134273.789534 kJ/mol
# GULP energy per Si atom -5594.741231 kJ/mol
# Density = 1.894678 g / cm^3
# Si number density = 18.990006 Si / 1000 Ang^3
#
#
#
# Elastic Constant Matrix: (Units=GPa)
#
#
# Indices 1 2 3 4 5 6 
#
# 1 141.6495 64.6174 86.7042 0.0000 -0.1596 0.0000
# 2 64.6174 78.6911 55.6818 0.0000 0.0906 0.0000
# 3 86.7042 55.6818 133.7514 0.0000 2.1245 0.0000
# 4 0.0000 0.0000 0.0000 41.0445 0.0000 3.4678
# 5 -0.1596 0.0906 2.1245 0.0000 39.5249 0.0000
# 6 0.0000 0.0000 0.0000 3.4678 0.0000 32.5914
#
#
#
# Elastic Compliance Matrix: (Units=1/GPa)
#
#
# Indices 1 2 3 4 5 6 
#
# 1 0.014133 -0.007256 -0.006147 0.000000 0.000404 0.000000
# 2 -0.007256 0.021745 -0.004351 0.000000 0.000155 0.000000
# 3 -0.006147 -0.004351 0.013285 0.000000 -0.000729 0.000000
# 4 0.000000 0.000000 0.000000 0.024585 0.000000 -0.002616
# 5 0.000404 0.000155 -0.000729 0.000000 0.025341 0.000000
# 6 0.000000 0.000000 0.000000 -0.002616 0.000000 0.030961
#
#
# Mechanical properties :
#
#
# Convention : Reuss Voigt Hill
#
# Bulk Modulus (GPa) = 73.24292 85.34432 79.29362
# Shear Modulus (GPa) = 29.39268 32.43807 30.91538
#
# Velocity S-wave (km/s) = 3.93847 4.13748 4.03920
# Velocity P-wave (km/s) = 7.70292 8.23798 7.97494
#
# Compressibility (1/GPa) = 0.01365320
#
# Stress axis : x y z
#
# Youngs Moduli (GPa) = 70.75659 45.98754 75.27424
#
# Poissons Ratio (x) = 0.33368 0.46274
# Poissons Ratio (y) = 0.51340 0.32755
# Poissons Ratio (z) = 0.43497 0.20011
#
# Static dielectric constant tensor:
#      x y z
#    x 1.633850 0.000000 -0.005120 
#    y 0.000000 1.633330 0.000000 
#    z -0.005120 0.000000 1.619870 
# 
# From -- ./inp_files/63286.got.cif
#   From: 2010.05.17/outbox.cif.g08.bks.cpg/sg11_32_cif.got.tgz:63286.got - 2010.06.03 12:22:45.
