data_PCOD9164793
_publ_section_title
;
Structure prediction by ZEFSAII (Michael W. Deem and Ramdas Pophale) SiO2 
 PCOD9164793
Probable space group: P 21/M
;
_chemical_formula_sum "Si O2"
_cell_formula_units_Z 28
_cell_length_a 9.869661
_cell_length_b 8.747631
_cell_length_c 32.519940
_cell_angle_alpha 90.000000
_cell_angle_beta 34.733201
_cell_angle_gamma 90.000000
_cell_volume 1599.672970
_symmetry_space_group_name_H-M "P 21/M"
_symmetry_group_IT_number 11
_symmetry_cell_setting 'monoclinic'
loop_
_space_group_symop_operation_xyz
x,y,z
-x,1/2+y,-z
-x,-y,-z
x,1/2-y,z
loop_
_atom_site_type_symbol
_atom_site_label
_atom_site_fract_x
_atom_site_fract_y
_atom_site_fract_z
Si Si1 0.389427 0.566919 0.297841
Si Si2 0.241478 0.069246 0.421081
Si Si3 0.117130 0.432823 0.602536
Si Si4 0.226479 0.567340 0.855158
Si Si5 0.733027 0.566262 0.069143
Si Si6 0.499163 0.069872 0.439963
Si Si7 0.668117 0.565761 0.994031
O O1 0.413840 0.750000 0.288806
O O2 0.328710 0.518618 0.359283
O O3 0.619739 0.487707 0.221651
O O4 0.152959 0.514164 0.332232
O O5 0.208610 0.250000 0.420861
O O6 0.433545 0.052039 0.409265
O O7 0.000000 0.000000 0.500000
O O8 0.109176 0.250000 0.602243
O O9 0.265627 0.484976 0.604556
O O10 0.276802 0.485643 0.523618
O O11 0.229230 0.750000 0.858506
O O12 0.344306 0.496338 0.867142
O O13 0.948004 0.521265 0.919654
O O14 0.739903 0.750000 0.068766
O O15 0.608068 0.522796 0.056857
O O16 0.000000 0.500000 0.000000
O O17 0.528060 0.250000 0.441579
O O18 0.655846 0.750000 0.994564
O O19 0.500000 0.500000 0.000000
#
# Coordination Sequence:
#
# PCOD9164793 Si02
#       7
#     4   4   4   4   4   4   4
#     4  11  22  37  55  79 109 142 182 228 278 330
#     4  11  21  35  54  78 107 141 183 230 276 329
#     4   9  18  33  51  74 101 130 170 219 267 320
#     4  10  21  37  55  81 111 144 184 226 271 324
#     4   9  17  32  54  81 109 141 178 219 259 309
#     4   9  18  33  51  74 101 129 170 222 268 317
#     4   9  19  34  56  85 115 142 179 221 262 315
#
# _framework density 17.503578000000001
#
# number of rings (size 3 to 8) (size 9 to 14) (size 15 to 20)
#    0.000    2.286    1.429    2.571    0.000    5.714 
#    0.000    1.429    0.000    0.000    0.000    0.000 
#    0.000    0.000    0.000    0.000    0.000    0.000 
#
# Total GULP energy -156016.663020 kJ/mol
# GULP energy per Si atom -5572.023679 kJ/mol
# Density = 1.746374 g / cm^3
# Si number density = 17.503578 Si / 1000 Ang^3
#
#
#
# Elastic Constant Matrix: (Units=GPa)
#
#
# Indices 1 2 3 4 5 6 
#
# 1 95.8113 30.4335 32.4555 0.0000 -0.2736 0.0000
# 2 30.4335 34.2182 19.6671 0.0000 -0.3675 0.0000
# 3 32.4555 19.6671 79.8969 0.0000 6.8726 0.0000
# 4 0.0000 0.0000 0.0000 27.4302 0.0000 2.9602
# 5 -0.2736 -0.3675 6.8726 0.0000 22.0937 0.0000
# 6 0.0000 0.0000 0.0000 2.9602 0.0000 33.7563
#
#
#
# Elastic Compliance Matrix: (Units=1/GPa)
#
#
# Indices 1 2 3 4 5 6 
#
# 1 0.015296 -0.011612 -0.003447 0.000000 0.001069 0.000000
# 2 -0.011612 0.043085 -0.006101 0.000000 0.002471 0.000000
# 3 -0.003447 -0.006101 0.015855 0.000000 -0.005076 0.000000
# 4 0.000000 0.000000 0.000000 0.036805 0.000000 -0.003228
# 5 0.001069 0.002471 -0.005076 0.000000 0.046895 0.000000
# 6 0.000000 0.000000 0.000000 -0.003228 0.000000 0.029907
#
#
# Mechanical properties :
#
#
# Convention : Reuss Voigt Hill
#
# Bulk Modulus (GPa) = 31.33247 41.67095 36.50171
# Shear Modulus (GPa) = 20.76395 25.14737 22.95566
#
# Velocity S-wave (km/s) = 3.44796 3.79449 3.62537
# Velocity P-wave (km/s) = 5.81298 6.56173 6.19867
#
# Compressibility (1/GPa) = 0.03191577
#
# Stress axis : x y z
#
# Youngs Moduli (GPa) = 65.37533 23.21000 63.07170
#
# Poissons Ratio (x) = 0.26951 0.21742
# Poissons Ratio (y) = 0.75911 0.38482
# Poissons Ratio (z) = 0.22537 0.14161
#
# Static dielectric constant tensor:
#      x y z
#    x 1.612900 0.000000 0.026360 
#    y 0.000000 1.595160 0.000000 
#    z 0.026360 0.000000 1.640870 
# 
# From -- ./inp_files/72708.got.cif
#   From: 2010.05.17/outbox.cif.g08.bks.cpg/sg11_37_cif.got.tgz:72708.got - 2010.06.03 12:22:45.
