data_PCOD9164993
_publ_section_title
;
Structure prediction by ZEFSAII (Michael W. Deem and Ramdas Pophale) SiO2 
 PCOD9164993
Probable space group: P 21/M
;
_chemical_formula_sum "Si O2"
_cell_formula_units_Z 24
_cell_length_a 10.383596
_cell_length_b 8.627352
_cell_length_c 14.478020
_cell_angle_alpha 90.000000
_cell_angle_beta 89.616580
_cell_angle_gamma 90.000000
_cell_volume 1296.954523
_symmetry_space_group_name_H-M "P 21/M"
_symmetry_group_IT_number 11
_symmetry_cell_setting 'monoclinic'
loop_
_space_group_symop_operation_xyz
x,y,z
-x,1/2+y,-z
-x,-y,-z
x,1/2-y,z
loop_
_atom_site_type_symbol
_atom_site_label
_atom_site_fract_x
_atom_site_fract_y
_atom_site_fract_z
Si Si1 0.372813 0.064202 0.451367
Si Si2 0.877691 0.434625 0.445932
Si Si3 0.881756 0.563743 0.058548
Si Si4 0.273353 0.062235 0.250940
Si Si5 0.980408 0.563654 0.257953
Si Si6 0.628100 0.562672 0.951627
O O1 0.377296 0.250000 0.452987
O O2 0.349459 0.016958 0.344099
O O3 0.500000 0.000000 0.500000
O O4 0.249941 0.005692 0.509179
O O5 0.873393 0.250000 0.453282
O O6 0.000000 0.500000 0.500000
O O7 0.903185 0.487245 0.341714
O O8 0.882823 0.750000 0.053487
O O9 0.908470 0.520514 0.163768
O O10 0.749344 0.510404 0.013070
O O11 0.000000 0.500000 0.000000
O O12 0.262021 0.250000 0.250611
O O13 0.343730 0.015564 0.155011
O O14 0.128499 0.994456 0.254890
O O15 0.981589 0.750000 0.268065
O O16 0.623197 0.750000 0.952222
O O17 0.500000 0.500000 0.000000
#
# Coordination Sequence:
#
# PCOD9164993 Si02
#       6
#     4   4   4   4   4   4
#     4  11  24  42  64  92 126 165 208 258 314 372
#     4  12  24  40  63  92 124 162 207 258 311 367
#     4  10  21  37  60  90 121 156 202 252 301 361
#     4  10  21  39  63  87 119 162 207 251 308 372
#     4  11  22  36  61  95 125 159 207 255 307 370
#     4  10  22  40  60  87 123 160 202 252 304 362
#
# _framework density 18.504888999999999
#
# number of rings (size 3 to 8) (size 9 to 14) (size 15 to 20)
#    0.000    1.333    3.333    2.500    0.000    4.000 
#    0.000    3.333    0.000    0.000    0.000    0.000 
#    0.000    0.000    0.000    0.000    0.000    0.000 
#
# Total GULP energy -134086.305886 kJ/mol
# GULP energy per Si atom -5586.929412 kJ/mol
# Density = 1.846277 g / cm^3
# Si number density = 18.504889 Si / 1000 Ang^3
#
#
#
# Elastic Constant Matrix: (Units=GPa)
#
#
# Indices 1 2 3 4 5 6 
#
# 1 187.2185 39.0148 112.2750 0.0000 6.5883 0.0000
# 2 39.0148 41.4494 50.8886 0.0000 6.8692 0.0000
# 3 112.2750 50.8886 200.5789 0.0000 11.4802 0.0000
# 4 0.0000 0.0000 0.0000 24.5053 0.0000 -7.5823
# 5 6.5883 6.8692 11.4802 0.0000 31.8634 0.0000
# 6 0.0000 0.0000 0.0000 -7.5823 0.0000 34.7137
#
#
#
# Elastic Compliance Matrix: (Units=1/GPa)
#
#
# Indices 1 2 3 4 5 6 
#
# 1 0.008303 -0.003112 -0.003878 0.000000 0.000351 0.000000
# 2 -0.003112 0.036834 -0.007337 0.000000 -0.004654 0.000000
# 3 -0.003878 -0.007337 0.009068 0.000000 -0.000884 0.000000
# 4 0.000000 0.000000 0.000000 0.043765 0.000000 0.009559
# 5 0.000351 -0.004654 -0.000884 0.000000 0.032633 0.000000
# 6 0.000000 0.000000 0.000000 0.009559 0.000000 0.030895
#
#
# Mechanical properties :
#
#
# Convention : Reuss Voigt Hill
#
# Bulk Modulus (GPa) = 39.13707 92.62260 65.87983
# Shear Modulus (GPa) = 25.16724 33.35437 29.26080
#
# Velocity S-wave (km/s) = 3.69186 4.25015 3.98080
# Velocity P-wave (km/s) = 6.27444 8.61665 7.53709
#
# Compressibility (1/GPa) = 0.02555122
#
# Stress axis : x y z
#
# Youngs Moduli (GPa) = 120.43203 27.14887 110.27266
#
# Poissons Ratio (x) = 0.08450 0.42768
# Poissons Ratio (y) = 0.37483 0.80902
# Poissons Ratio (z) = 0.46708 0.19918
#
# Static dielectric constant tensor:
#      x y z
#    x 1.597300 0.000000 0.019800 
#    y 0.000000 1.626130 0.000000 
#    z 0.019800 0.000000 1.620700 
# 
# From -- ./inp_files/46459.got.cif
#   From: 2010.05.17/outbox.cif.g08.bks.cpg/sg11_24_cif.got.tgz:46459.got - 2010.06.03 12:22:45.
