data_PCOD9164162
_publ_section_title
;
Structure prediction by ZEFSAII (Michael W. Deem and Ramdas Pophale) SiO2 
 PCOD9164162
Probable space group: P 21/M
;
_chemical_formula_sum "Si O2"
_cell_formula_units_Z 24
_cell_length_a 5.536323
_cell_length_b 17.348556
_cell_length_c 11.201289
_cell_angle_alpha 90.000000
_cell_angle_beta 81.592280
_cell_angle_gamma 90.000000
_cell_volume 1064.289979
_symmetry_space_group_name_H-M "P 21/M"
_symmetry_group_IT_number 11
_symmetry_cell_setting 'monoclinic'
loop_
_space_group_symop_operation_xyz
x,y,z
-x,1/2+y,-z
-x,-y,-z
x,1/2-y,z
loop_
_atom_site_type_symbol
_atom_site_label
_atom_site_fract_x
_atom_site_fract_y
_atom_site_fract_z
Si Si1 0.970234 0.926347 0.848734
Si Si2 0.605534 0.590551 0.534244
Si Si3 0.282575 0.061863 0.901831
Si Si4 0.725798 0.045091 0.695057
Si Si5 0.880406 0.841960 0.301278
Si Si6 0.918611 0.162352 0.369134
O O1 0.042545 0.849605 0.775793
O O2 0.912255 0.985197 0.744862
O O3 0.751512 0.916283 0.958195
O O4 0.180532 0.974180 0.900593
O O5 0.643100 0.504268 0.585852
O O6 0.669753 0.615788 0.393954
O O7 0.334254 0.617676 0.586994
O O8 0.827094 0.636216 0.586980
O O9 0.536961 0.059846 0.815332
O O10 0.133420 0.123690 0.831785
O O11 0.871785 0.123353 0.660280
O O12 0.863121 0.750000 0.306411
O O13 0.876708 0.250000 0.405901
#
# Coordination Sequence:
#
# PCOD9164162 Si02
#       6
#     4   4   4   4   4   4
#     4   9  20  38  62  92 122 160 214 269 316 384
#     4  11  24  43  67  94 128 172 223 269 321 387
#     4  10  20  39  64  87 122 166 212 260 324 387
#     4  10  21  40  66  93 121 168 222 270 319 385
#     4  11  25  40  58  93 133 170 209 266 332 394
#     4  11  22  40  65  95 128 168 216 275 330 379
#
# _framework density 22.550246000000001
#
# number of rings (size 3 to 8) (size 9 to 14) (size 15 to 20)
#    0.000    1.667    1.667    2.500    2.333    2.000 
#    0.000    0.000    0.000    0.000    0.000    0.000 
#    0.000    0.000    0.000    0.000    0.000    0.000 
#
# Total GULP energy -133907.425753 kJ/mol
# GULP energy per Si atom -5579.476073 kJ/mol
# Density = 2.249892 g / cm^3
# Si number density = 22.550246 Si / 1000 Ang^3
#
#
#
# Elastic Constant Matrix: (Units=GPa)
#
#
# Indices 1 2 3 4 5 6 
#
# 1 82.3477 21.5347 14.9968 0.0000 -15.1945 0.0000
# 2 21.5347 140.5958 20.8811 0.0000 -1.7329 0.0000
# 3 14.9968 20.8811 112.2428 0.0000 -6.2565 0.0000
# 4 0.0000 0.0000 0.0000 24.4052 0.0000 -2.6174
# 5 -15.1945 -1.7329 -6.2565 0.0000 32.2648 0.0000
# 6 0.0000 0.0000 0.0000 -2.6174 0.0000 26.1664
#
#
#
# Elastic Compliance Matrix: (Units=1/GPa)
#
#
# Indices 1 2 3 4 5 6 
#
# 1 0.014009 -0.001895 -0.001170 0.000000 0.006269 0.000000
# 2 -0.001895 0.007571 -0.001195 0.000000 -0.000717 0.000000
# 3 -0.001170 -0.001195 0.009355 0.000000 0.001199 0.000000
# 4 0.000000 0.000000 0.000000 0.041419 0.000000 0.004143
# 5 0.006269 -0.000717 0.001199 0.000000 0.034140 0.000000
# 6 0.000000 0.000000 0.000000 0.004143 0.000000 0.038631
#
#
# Mechanical properties :
#
#
# Convention : Reuss Voigt Hill
#
# Bulk Modulus (GPa) = 44.61251 50.00127 47.30689
# Shear Modulus (GPa) = 31.03339 35.08553 33.05946
#
# Velocity S-wave (km/s) = 3.71373 3.94875 3.83304
# Velocity P-wave (km/s) = 6.18187 6.55832 6.37288
#
# Compressibility (1/GPa) = 0.02241524
#
# Stress axis : x y z
#
# Youngs Moduli (GPa) = 71.38367 132.07445 106.89735
#
# Poissons Ratio (x) = 0.25024 0.12505
# Poissons Ratio (y) = 0.13525 0.12779
# Poissons Ratio (z) = 0.08351 0.15788
#
# Static dielectric constant tensor:
#      x y z
#    x 1.957910 0.000000 0.086130 
#    y 0.000000 1.838810 0.000000 
#    z 0.086130 0.000000 1.925120 
# 
# From -- ./inp_files/4629.got.cif
#   From: 2010.05.17/outbox.cif.g08.bks.cpg/sg11_3_cif.got.tgz:4629.got - 2010.06.03 12:22:45.
