data_PCOD9164256
_publ_section_title
;
Structure prediction by ZEFSAII (Michael W. Deem and Ramdas Pophale) SiO2 
 PCOD9164256
Probable space group: P 21/M
;
_chemical_formula_sum "Si O2"
_cell_formula_units_Z 32
_cell_length_a 16.644674
_cell_length_b 7.792421
_cell_length_c 25.488808
_cell_angle_alpha 90.000000
_cell_angle_beta 153.556325
_cell_angle_gamma 90.000000
_cell_volume 1472.201677
_symmetry_space_group_name_H-M "P 21/M"
_symmetry_group_IT_number 11
_symmetry_cell_setting 'monoclinic'
loop_
_space_group_symop_operation_xyz
x,y,z
-x,1/2+y,-z
-x,-y,-z
x,1/2-y,z
loop_
_atom_site_type_symbol
_atom_site_label
_atom_site_fract_x
_atom_site_fract_y
_atom_site_fract_z
Si Si1 0.561869 0.456734 0.094650
Si Si2 0.972047 0.457901 0.335929
Si Si3 0.714746 0.547576 0.979979
Si Si4 0.752264 0.451608 0.588630
Si Si5 0.441481 0.049909 0.216960
Si Si6 0.156810 0.044969 0.551000
Si Si7 0.581745 0.961058 0.677982
Si Si8 0.118296 0.448792 0.225140
O O1 0.565940 0.250000 0.101043
O O2 0.766725 0.517687 0.222750
O O3 0.419952 0.524137 0.054592
O O4 0.500000 0.500000 0.000000
O O5 0.972272 0.250000 0.335124
O O6 0.064077 0.521020 0.336580
O O7 0.092049 0.514041 0.455597
O O8 0.672859 0.750000 0.951974
O O9 0.674255 0.474052 0.898411
O O10 0.922969 0.531639 0.116737
O O11 0.723869 0.250000 0.580676
O O12 0.591125 0.517242 0.457263
O O13 0.770169 0.535404 0.655804
O O14 0.391563 0.250000 0.193139
O O15 0.424482 0.976652 0.265732
O O16 0.651142 0.036190 0.323383
O O17 0.179304 0.250000 0.563119
O O18 0.000000 0.000000 0.500000
O O19 0.576244 0.750000 0.674982
O O20 0.760226 0.016927 0.751377
O O21 0.083833 0.250000 0.194453
#
# Coordination Sequence:
#
# PCOD9164256 Si02
#       8
#     4   4   4   4   4   4   4   4
#     4  10  21  37  55  79 112 151 192 234 285 341
#     4  10  21  37  57  84 116 151 190 238 295 349
#     4  10  22  40  61  85 116 156 200 245 296 356
#     4  11  21  37  61  89 119 152 196 244 297 363
#     4  10  20  40  64  85 117 156 195 247 304 354
#     4  11  22  36  57  86 118 154 197 241 291 350
#     4   9  20  38  61  88 118 154 194 243 306 359
#     4  11  23  39  59  85 119 157 198 247 298 355
#
# _framework density 21.736153000000002
#
# number of rings (size 3 to 8) (size 9 to 14) (size 15 to 20)
#    0.000    1.750    1.250    3.000    0.000    6.500 
#    0.000    4.375    0.000    0.000    0.000    0.000 
#    0.000    0.000    0.000    0.000    0.000    0.000 
#
# Total GULP energy -178865.843853 kJ/mol
# GULP energy per Si atom -5589.557620 kJ/mol
# Density = 2.168668 g / cm^3
# Si number density = 21.736153 Si / 1000 Ang^3
#
#
#
# Elastic Constant Matrix: (Units=GPa)
#
#
# Indices 1 2 3 4 5 6 
#
# 1 119.7665 -3.6869 19.9950 0.0000 -2.2376 0.0000
# 2 -3.6869 27.4947 1.1618 0.0000 -2.1466 0.0000
# 3 19.9950 1.1618 75.1441 0.0000 -9.7796 0.0000
# 4 0.0000 0.0000 0.0000 16.4390 0.0000 -1.0740
# 5 -2.2376 -2.1466 -9.7796 0.0000 39.0384 0.0000
# 6 0.0000 0.0000 0.0000 -1.0740 0.0000 9.5810
#
#
#
# Elastic Compliance Matrix: (Units=1/GPa)
#
#
# Indices 1 2 3 4 5 6 
#
# 1 0.008782 0.001276 -0.002359 0.000000 -0.000017 0.000000
# 2 0.001276 0.036720 -0.000656 0.000000 0.001928 0.000000
# 3 -0.002359 -0.000656 0.014393 0.000000 0.003434 0.000000
# 4 0.000000 0.000000 0.000000 0.061280 0.000000 0.006869
# 5 -0.000017 0.001928 0.003434 0.000000 0.026581 0.000000
# 6 0.000000 0.000000 0.000000 0.006869 0.000000 0.105143
#
#
# Mechanical properties :
#
#
# Convention : Reuss Voigt Hill
#
# Bulk Modulus (GPa) = 17.72532 28.59389 23.15961
# Shear Modulus (GPa) = 18.16972 26.67404 22.42188
#
# Velocity S-wave (km/s) = 2.89437 3.50690 3.21526
# Velocity P-wave (km/s) = 4.39799 5.43888 4.94589
#
# Compressibility (1/GPa) = 0.05641646
#
# Stress axis : x y z
#
# Youngs Moduli (GPa) = 113.86477 27.23308 69.48050
#
# Poissons Ratio (x) = -0.03475 0.16390
# Poissons Ratio (y) = -0.14529 0.04560
# Poissons Ratio (z) = 0.26859 0.01787
#
# Static dielectric constant tensor:
#      x y z
#    x 1.784330 0.000000 -0.008910 
#    y 0.000000 1.800900 0.000000 
#    z -0.008910 0.000000 1.773230 
# 
# From -- ./inp_files/55646.got.cif
#   From: 2010.05.17/outbox.cif.g08.bks.cpg/sg11_28_cif.got.tgz:55646.got - 2010.06.03 12:22:45.
