data_PCOD9164769
_publ_section_title
;
Structure prediction by ZEFSAII (Michael W. Deem and Ramdas Pophale) SiO2 
 PCOD9164769
Probable space group: P 21/M
;
_chemical_formula_sum "Si O2"
_cell_formula_units_Z 32
_cell_length_a 31.111437
_cell_length_b 8.609490
_cell_length_c 11.951825
_cell_angle_alpha 90.000000
_cell_angle_beta 149.770599
_cell_angle_gamma 90.000000
_cell_volume 1611.757159
_symmetry_space_group_name_H-M "P 21/M"
_symmetry_group_IT_number 11
_symmetry_cell_setting 'monoclinic'
loop_
_space_group_symop_operation_xyz
x,y,z
-x,1/2+y,-z
-x,-y,-z
x,1/2-y,z
loop_
_atom_site_type_symbol
_atom_site_label
_atom_site_fract_x
_atom_site_fract_y
_atom_site_fract_z
Si Si1 0.500790 0.425720 0.828172
Si Si2 0.040640 0.562672 0.920547
Si Si3 0.334816 0.568001 0.538044
Si Si4 0.315360 0.432840 0.730682
Si Si5 0.922423 0.062841 0.251930
Si Si6 0.738880 0.937940 0.858935
Si Si7 0.129877 0.062555 0.341172
Si Si8 0.572053 0.924905 0.587371
O O1 0.495110 0.250000 0.860359
O O2 0.436045 0.535594 0.749988
O O3 0.464089 0.423373 0.620051
O O4 0.597979 0.480260 0.042563
O O5 0.045127 0.750000 0.934714
O O6 0.065386 0.514758 0.851008
O O7 0.944122 0.515462 0.738373
O O8 0.100641 0.498002 0.153767
O O9 0.318919 0.750000 0.520616
O O10 0.304641 0.467573 0.574866
O O11 0.288509 0.510504 0.321748
O O12 0.326682 0.250000 0.776301
O O13 0.226449 0.487180 0.585654
O O14 0.919818 0.250000 0.249767
O O15 0.000000 0.000000 0.500000
O O16 0.833818 0.992881 0.096751
O O17 0.733813 0.750000 0.840316
O O18 0.667206 0.992436 0.787114
O O19 0.130784 0.250000 0.338638
O O20 0.582593 0.750000 0.652839
O O21 0.500000 0.000000 0.500000
#
# Coordination Sequence:
#
# PCOD9164769 Si02
#       8
#     4   4   4   4   4   4   4   4
#     4  10  21  37  53  76 111 145 182 228 277 328
#     4   9  19  37  58  80 109 144 185 232 282 335
#     4  11  21  34  55  81 111 147 185 227 276 330
#     4  11  21  33  51  79 112 147 184 223 275 335
#     4  11  23  39  60  86 118 153 193 242 295 344
#     4  10  21  39  60  85 114 146 189 234 281 337
#     4   9  19  35  56  81 109 144 185 228 278 339
#     4   9  20  38  60  82 108 144 184 232 281 332
#
# _framework density 19.854108
#
# number of rings (size 3 to 8) (size 9 to 14) (size 15 to 20)
#    0.000    2.000    0.000    4.500    0.000    7.000 
#    2.250    0.000    0.000    0.000    0.000    0.000 
#    0.000    0.000    0.000    0.000    0.000    0.000 
#
# Total GULP energy -178660.146575 kJ/mol
# GULP energy per Si atom -5583.129580 kJ/mol
# Density = 1.980892 g / cm^3
# Si number density = 19.854108 Si / 1000 Ang^3
#
#
#
# Elastic Constant Matrix: (Units=GPa)
#
#
# Indices 1 2 3 4 5 6 
#
# 1 81.3239 9.1328 31.6220 0.0000 28.4486 0.0000
# 2 9.1328 32.6075 14.2955 0.0000 4.0275 0.0000
# 3 31.6220 14.2955 111.3418 0.0000 43.2234 0.0000
# 4 0.0000 0.0000 0.0000 32.7851 0.0000 1.7363
# 5 28.4486 4.0275 43.2234 0.0000 30.7570 0.0000
# 6 0.0000 0.0000 0.0000 1.7363 0.0000 23.8749
#
#
#
# Elastic Compliance Matrix: (Units=1/GPa)
#
#
# Indices 1 2 3 4 5 6 
#
# 1 0.019192 -0.004285 0.003901 0.000000 -0.022673 0.000000
# 2 -0.004285 0.033630 -0.006447 0.000000 0.008621 0.000000
# 3 0.003901 -0.006447 0.021508 0.000000 -0.032990 0.000000
# 4 0.000000 0.000000 0.000000 0.030620 0.000000 -0.002227
# 5 -0.022673 0.008621 -0.032990 0.000000 0.098717 0.000000
# 6 0.000000 0.000000 0.000000 -0.002227 0.000000 0.042047
#
#
# Mechanical properties :
#
#
# Convention : Reuss Voigt Hill
#
# Bulk Modulus (GPa) = 16.48334 37.26377 26.87355
# Shear Modulus (GPa) = 17.88278 28.83159 23.35718
#
# Velocity S-wave (km/s) = 3.00444 3.81487 3.43365
# Velocity P-wave (km/s) = 4.51174 6.18174 5.41155
#
# Compressibility (1/GPa) = 0.06066730
#
# Stress axis : x y z
#
# Youngs Moduli (GPa) = 52.10412 29.73552 46.49458
#
# Poissons Ratio (x) = 0.12743 -0.18139
# Poissons Ratio (y) = 0.22329 0.29976
# Poissons Ratio (z) = -0.20327 0.19171
#
# Static dielectric constant tensor:
#      x y z
#    x 1.718030 0.000000 0.029790 
#    y 0.000000 1.679850 0.000000 
#    z 0.029790 0.000000 1.714900 
# 
# From -- ./inp_files/45290.got.cif
#   From: 2010.05.17/outbox.cif.g08.bks.cpg/sg11_23_cif.got.tgz:45290.got - 2010.06.03 12:22:45.
