data_PCOD9164784
_publ_section_title
;
Structure prediction by ZEFSAII (Michael W. Deem and Ramdas Pophale) SiO2 
 PCOD9164784
Probable space group: P 21/M
;
_chemical_formula_sum "Si O2"
_cell_formula_units_Z 32
_cell_length_a 23.557897
_cell_length_b 8.769909
_cell_length_c 14.544663
_cell_angle_alpha 90.000000
_cell_angle_beta 143.946977
_cell_angle_gamma 90.000000
_cell_volume 1768.506231
_symmetry_space_group_name_H-M "P 21/M"
_symmetry_group_IT_number 11
_symmetry_cell_setting 'monoclinic'
loop_
_space_group_symop_operation_xyz
x,y,z
-x,1/2+y,-z
-x,-y,-z
x,1/2-y,z
loop_
_atom_site_type_symbol
_atom_site_label
_atom_site_fract_x
_atom_site_fract_y
_atom_site_fract_z
Si Si1 0.008006 0.069493 0.409217
Si Si2 0.698616 0.928901 0.401059
Si Si3 0.811822 0.068819 0.038006
Si Si4 0.122987 0.932150 0.253682
Si Si5 0.681777 0.069689 0.031466
Si Si6 0.096676 0.432157 0.018152
Si Si7 0.499457 0.569117 0.895800
Si Si8 0.204579 0.927057 0.637227
O O1 0.029732 0.250000 0.442403
O O2 0.909011 0.050027 0.225162
O O3 0.096075 0.979913 0.478535
O O4 0.000000 0.000000 0.500000
O O5 0.687363 0.750000 0.400628
O O6 0.788305 0.991483 0.577293
O O7 0.597348 0.012981 0.282086
O O8 0.727080 0.967081 0.333388
O O9 0.800156 0.250000 0.005329
O O10 0.723869 0.017466 0.988518
O O11 0.832797 0.983020 0.970939
O O12 0.132361 0.750000 0.272162
O O13 0.122979 0.985887 0.147840
O O14 0.015601 0.974309 0.149889
O O15 0.659008 0.250000 0.994728
O O16 0.766972 0.057485 0.218937
O O17 0.591044 0.985299 0.956583
O O18 0.099765 0.250000 0.034908
O O19 0.498923 0.750000 0.904366
O O20 0.500000 0.500000 0.000000
O O21 0.218455 0.750000 0.629323
#
# Coordination Sequence:
#
# PCOD9164784 Si02
#       8
#     4   4   4   4   4   4   4   4
#     4  11  21  33  49  74 110 151 193 233 278 335
#     4  12  24  38  59  86 115 150 191 240 294 349
#     4  10  21  37  55  78 112 156 194 233 286 342
#     4  10  21  39  62  88 119 154 191 239 291 342
#     4  10  21  38  56  77 111 153 195 238 283 339
#     4  10  21  37  60  90 120 152 192 238 286 344
#     4  12  24  39  59  84 114 151 196 244 294 348
#     4  11  21  35  53  77 112 151 191 236 283 339
#
# _framework density 18.094366000000001
#
# number of rings (size 3 to 8) (size 9 to 14) (size 15 to 20)
#    0.000    1.250    2.500    4.500    0.000    5.500 
#    0.000    0.000    0.000    0.750    0.000    0.000 
#    0.000    0.000    0.000    0.000    0.000    0.000 
#
# Total GULP energy -178774.628873 kJ/mol
# GULP energy per Si atom -5586.707152 kJ/mol
# Density = 1.805318 g / cm^3
# Si number density = 18.094366 Si / 1000 Ang^3
#
#
#
# Elastic Constant Matrix: (Units=GPa)
#
#
# Indices 1 2 3 4 5 6 
#
# 1 119.7858 41.6491 35.2484 0.0000 12.7262 0.0000
# 2 41.6491 81.3232 30.5784 0.0000 9.1009 0.0000
# 3 35.2484 30.5784 66.1830 0.0000 11.3169 0.0000
# 4 0.0000 0.0000 0.0000 28.2086 0.0000 0.5210
# 5 12.7262 9.1009 11.3169 0.0000 28.6146 0.0000
# 6 0.0000 0.0000 0.0000 0.5210 0.0000 32.0561
#
#
#
# Elastic Compliance Matrix: (Units=1/GPa)
#
#
# Indices 1 2 3 4 5 6 
#
# 1 0.011062 -0.004049 -0.003646 0.000000 -0.002190 0.000000
# 2 -0.004049 0.016490 -0.005227 0.000000 -0.001377 0.000000
# 3 -0.003646 -0.005227 0.020276 0.000000 -0.004735 0.000000
# 4 0.000000 0.000000 0.000000 0.035461 0.000000 -0.000576
# 5 -0.002190 -0.001377 -0.004735 0.000000 0.038232 0.000000
# 6 0.000000 0.000000 0.000000 -0.000576 0.000000 0.031205
#
#
# Mechanical properties :
#
#
# Convention : Reuss Voigt Hill
#
# Bulk Modulus (GPa) = 45.48876 53.58266 49.53571
# Shear Modulus (GPa) = 26.89668 28.43025 27.66347
#
# Velocity S-wave (km/s) = 3.85966 3.96816 3.91429
# Velocity P-wave (km/s) = 6.71244 7.11845 6.91842
#
# Compressibility (1/GPa) = 0.02198345
#
# Stress axis : x y z
#
# Youngs Moduli (GPa) = 90.40240 60.64372 49.31916
#
# Poissons Ratio (x) = 0.24555 0.17982
# Poissons Ratio (y) = 0.36605 0.25778
# Poissons Ratio (z) = 0.32961 0.31697
#
# Static dielectric constant tensor:
#      x y z
#    x 1.620910 0.000000 0.004820 
#    y 0.000000 1.605250 0.000000 
#    z 0.004820 0.000000 1.613120 
# 
# From -- ./inp_files/55713.got.cif
#   From: 2010.05.17/outbox.cif.g08.bks.cpg/sg11_28_cif.got.tgz:55713.got - 2010.06.03 12:22:45.
