data_PCOD9164546
_publ_section_title
;
Structure prediction by ZEFSAII (Michael W. Deem and Ramdas Pophale) SiO2 
 PCOD9164546
Probable space group: P 21/M
;
_chemical_formula_sum "Si O2"
_cell_formula_units_Z 24
_cell_length_a 8.616014
_cell_length_b 19.521717
_cell_length_c 10.624693
_cell_angle_alpha 90.000000
_cell_angle_beta 135.496278
_cell_angle_gamma 90.000000
_cell_volume 1252.654509
_symmetry_space_group_name_H-M "P 21/M"
_symmetry_group_IT_number 11
_symmetry_cell_setting 'monoclinic'
loop_
_space_group_symop_operation_xyz
x,y,z
-x,1/2+y,-z
-x,-y,-z
x,1/2-y,z
loop_
_atom_site_type_symbol
_atom_site_label
_atom_site_fract_x
_atom_site_fract_y
_atom_site_fract_z
Si Si1 0.929267 0.391092 0.014442
Si Si2 0.603645 0.457603 0.444315
Si Si3 0.438421 0.170586 0.695516
Si Si4 0.773040 0.539817 0.325507
Si Si5 0.929631 0.536852 0.154742
Si Si6 0.350175 0.324784 0.346755
O O1 0.931735 0.460801 0.097586
O O2 0.092002 0.337533 0.174148
O O3 0.683774 0.360625 0.859529
O O4 0.042838 0.411996 0.946799
O O5 0.500000 0.500000 0.500000
O O6 0.595754 0.499840 0.310394
O O7 0.481102 0.386358 0.358561
O O8 0.851124 0.447467 0.636540
O O9 0.424738 0.250000 0.730183
O O10 0.258133 0.118758 0.650814
O O11 0.399106 0.170003 0.523090
O O12 0.748067 0.538601 0.160497
O O13 0.000000 0.500000 0.500000
O O14 0.417627 0.250000 0.340282
#
# Coordination Sequence:
#
# PCOD9164546 Si02
#       6
#     4   4   4   4   4   4
#     4  11  21  39  63  91 119 159 209 250 307 367
#     4  11  17  38  63  88 118 159 209 251 298 366
#     4  11  23  41  63  89 123 164 204 249 309 371
#     4  10  21  38  63  92 122 160 205 254 305 356
#     4  10  21  35  61  94 118 154 204 263 299 354
#     4  11  22  37  61  89 120 158 202 254 304 362
#
# _framework density 19.159310999999999
#
# number of rings (size 3 to 8) (size 9 to 14) (size 15 to 20)
#    0.000    1.333    5.000    1.500    2.333    0.667 
#    0.000    5.000    0.000    1.000    0.000    0.000 
#    0.000    0.000    0.000    0.000    0.000    0.000 
#
# Total GULP energy -133797.274286 kJ/mol
# GULP energy per Si atom -5574.886429 kJ/mol
# Density = 1.911570 g / cm^3
# Si number density = 19.159311 Si / 1000 Ang^3
#
#
#
# Elastic Constant Matrix: (Units=GPa)
#
#
# Indices 1 2 3 4 5 6 
#
# 1 87.0138 45.2331 7.0551 0.0000 -8.9421 0.0000
# 2 45.2331 150.1282 31.8791 0.0000 7.4261 0.0000
# 3 7.0551 31.8791 87.8927 0.0000 12.9718 0.0000
# 4 0.0000 0.0000 0.0000 0.6904 0.0000 -0.0075
# 5 -8.9421 7.4261 12.9718 0.0000 20.3940 0.0000
# 6 0.0000 0.0000 0.0000 -0.0075 0.0000 23.3666
#
#
#
# Elastic Compliance Matrix: (Units=1/GPa)
#
#
# Indices 1 2 3 4 5 6 
#
# 1 0.014937 -0.004772 -0.000763 0.000000 0.008772 0.000000
# 2 -0.004772 0.008762 -0.002224 0.000000 -0.003868 0.000000
# 3 -0.000763 -0.002224 0.013437 0.000000 -0.008071 0.000000
# 4 0.000000 0.000000 0.000000 1.448474 0.000000 0.000462
# 5 0.008772 -0.003868 -0.008071 0.000000 0.059423 0.000000
# 6 0.000000 0.000000 0.000000 0.000462 0.000000 0.042796
#
#
# Mechanical properties :
#
#
# Convention : Reuss Voigt Hill
#
# Bulk Modulus (GPa) = 46.25902 54.81882 50.53892
# Shear Modulus (GPa) = 3.10452 24.94803 14.02628
#
# Velocity S-wave (km/s) = 1.27432 3.61243 2.70865
# Velocity P-wave (km/s) = 5.13440 6.78776 6.01813
#
# Compressibility (1/GPa) = 0.02161740
#
# Stress axis : x y z
#
# Youngs Moduli (GPa) = 66.94992 114.12273 74.42348
#
# Poissons Ratio (x) = 0.54463 0.05676
# Poissons Ratio (y) = 0.31950 0.16553
# Poissons Ratio (z) = 0.05106 0.25383
#
# Static dielectric constant tensor:
#      x y z
#    x 1.720530 0.000000 -0.002300 
#    y 0.000000 1.659390 0.000000 
#    z -0.002300 0.000000 1.656900 
# 
# From -- ./inp_files/32734.got.cif
#   From: 2010.05.17/outbox.cif.g08.bks.cpg/sg11_17_cif.got.tgz:32734.got - 2010.06.03 12:22:45.
