data_PCOD9164792
_publ_section_title
;
Structure prediction by ZEFSAII (Michael W. Deem and Ramdas Pophale) SiO2 
 PCOD9164792
Probable space group: P 21/M
;
_chemical_formula_sum "Si O2"
_cell_formula_units_Z 28
_cell_length_a 19.860865
_cell_length_b 8.687553
_cell_length_c 18.514770
_cell_angle_alpha 90.000000
_cell_angle_beta 29.471249
_cell_angle_gamma 90.000000
_cell_volume 1571.691694
_symmetry_space_group_name_H-M "P 21/M"
_symmetry_group_IT_number 11
_symmetry_cell_setting 'monoclinic'
loop_
_space_group_symop_operation_xyz
x,y,z
-x,1/2+y,-z
-x,-y,-z
x,1/2-y,z
loop_
_atom_site_type_symbol
_atom_site_label
_atom_site_fract_x
_atom_site_fract_y
_atom_site_fract_z
Si Si1 0.917626 0.065833 0.186262
Si Si2 0.492369 0.932602 0.587629
Si Si3 0.633301 0.566272 0.720842
Si Si4 0.595834 0.934773 0.974460
Si Si5 0.708004 0.066286 0.496801
Si Si6 0.179794 0.931994 0.880013
Si Si7 0.153912 0.064491 0.351076
O O1 0.906736 0.250000 0.197072
O O2 0.844276 0.011398 0.327317
O O3 0.842682 0.012420 0.182032
O O4 0.072652 0.015741 0.031002
O O5 0.524746 0.750000 0.556932
O O6 0.335136 0.951834 0.757487
O O7 0.500000 0.000000 0.500000
O O8 0.589740 0.023560 0.550464
O O9 0.621605 0.750000 0.736308
O O10 0.484994 0.496102 0.880276
O O11 0.679998 0.514402 0.598486
O O12 0.750448 0.518774 0.669709
O O13 0.590935 0.750000 0.978639
O O14 0.751537 0.979921 0.807011
O O15 0.500000 0.000000 0.000000
O O16 0.713450 0.250000 0.502685
O O17 0.148203 0.750000 0.909709
O O18 0.143931 0.250000 0.360404
O O19 0.000000 0.000000 0.500000
#
# Coordination Sequence:
#
# PCOD9164792 Si02
#       7
#     4   4   4   4   4   4   4
#     4   9  18  33  51  74 102 134 174 219 268 323
#     4  11  21  35  54  78 106 138 179 227 272 321
#     4  10  21  37  55  81 111 144 183 223 270 326
#     4   9  17  32  54  81 110 144 181 219 259 312
#     4  11  22  37  55  79 109 142 181 226 276 330
#     4   9  18  33  51  74 101 130 173 223 269 321
#     4   9  19  34  56  85 114 141 179 220 261 315
#
# _framework density 17.815200000000001
#
# number of rings (size 3 to 8) (size 9 to 14) (size 15 to 20)
#    0.000    2.286    1.429    2.571    0.000    5.714 
#    0.000    1.429    0.000    3.429    0.000    0.000 
#    0.000    0.000    0.000    0.000    0.000    0.000 
#
# Total GULP energy -156042.254690 kJ/mol
# GULP energy per Si atom -5572.937667 kJ/mol
# Density = 1.777465 g / cm^3
# Si number density = 17.815200 Si / 1000 Ang^3
#
#
#
# Elastic Constant Matrix: (Units=GPa)
#
#
# Indices 1 2 3 4 5 6 
#
# 1 44.7896 10.8610 42.7858 0.0000 9.8297 0.0000
# 2 10.8610 28.3039 36.2596 0.0000 0.4673 0.0000
# 3 42.7858 36.2596 170.1433 0.0000 13.8274 0.0000
# 4 0.0000 0.0000 0.0000 34.7744 0.0000 -0.4385
# 5 9.8297 0.4673 13.8274 0.0000 27.7667 0.0000
# 6 0.0000 0.0000 0.0000 -0.4385 0.0000 26.2825
#
#
#
# Elastic Compliance Matrix: (Units=1/GPa)
#
#
# Indices 1 2 3 4 5 6 
#
# 1 0.031010 -0.003557 -0.006412 0.000000 -0.007725 0.000000
# 2 -0.003557 0.049558 -0.010111 0.000000 0.005460 0.000000
# 3 -0.006412 -0.010111 0.009845 0.000000 -0.002462 0.000000
# 4 0.000000 0.000000 0.000000 0.028763 0.000000 0.000480
# 5 -0.007725 0.005460 -0.002462 0.000000 0.039883 0.000000
# 6 0.000000 0.000000 0.000000 0.000480 0.000000 0.038056
#
#
# Mechanical properties :
#
#
# Convention : Reuss Voigt Hill
#
# Bulk Modulus (GPa) = 19.89946 47.00551 33.45248
# Shear Modulus (GPa) = 19.68299 27.98673 23.83486
#
# Velocity S-wave (km/s) = 3.32752 3.96782 3.66169
# Velocity P-wave (km/s) = 5.09484 6.88722 6.05769
#
# Compressibility (1/GPa) = 0.05025262
#
# Stress axis : x y z
#
# Youngs Moduli (GPa) = 32.24788 20.17821 101.57767
#
# Poissons Ratio (x) = 0.07178 0.65133
# Poissons Ratio (y) = 0.11472 1.02702
# Poissons Ratio (z) = 0.20678 0.20402
#
# Static dielectric constant tensor:
#      x y z
#    x 1.605430 0.000000 0.014850 
#    y 0.000000 1.607070 0.000000 
#    z 0.014850 0.000000 1.641610 
# 
# From -- ./inp_files/61243.got.cif
#   From: 2010.05.17/outbox.cif.g08.bks.cpg/sg11_31_cif.got.tgz:61243.got - 2010.06.03 12:22:45.
