data_PCOD9164961
_publ_section_title
;
Structure prediction by ZEFSAII (Michael W. Deem and Ramdas Pophale) SiO2 
 PCOD9164961
Probable space group: P 21/M
;
_chemical_formula_sum "Si O2"
_cell_formula_units_Z 32
_cell_length_a 24.038922
_cell_length_b 8.917373
_cell_length_c 15.003933
_cell_angle_alpha 90.000000
_cell_angle_beta 150.646236
_cell_angle_gamma 90.000000
_cell_volume 1576.633796
_symmetry_space_group_name_H-M "P 21/M"
_symmetry_group_IT_number 11
_symmetry_cell_setting 'monoclinic'
loop_
_space_group_symop_operation_xyz
x,y,z
-x,1/2+y,-z
-x,-y,-z
x,1/2-y,z
loop_
_atom_site_type_symbol
_atom_site_label
_atom_site_fract_x
_atom_site_fract_y
_atom_site_fract_z
Si Si1 0.263169 0.073756 0.348329
Si Si2 0.868757 0.572461 0.020149
Si Si3 0.496418 0.429211 0.273420
Si Si4 0.118927 0.075614 0.647436
Si Si5 0.456692 0.580573 0.027718
Si Si6 0.880377 0.073233 0.698251
Si Si7 0.798047 0.084727 0.393901
Si Si8 0.733532 0.429387 0.994186
O O1 0.285063 0.250000 0.393603
O O2 0.210915 0.054503 0.177313
O O3 0.380126 0.983741 0.522564
O O4 0.170273 0.016855 0.290105
O O5 0.873688 0.750000 0.050311
O O6 0.813610 0.483990 0.025190
O O7 0.995970 0.527451 0.166901
O O8 0.488155 0.250000 0.264569
O O9 0.481246 0.488102 0.150961
O O10 0.393167 0.501706 0.185573
O O11 0.120572 0.250000 0.670449
O O12 0.139764 0.044640 0.572507
O O13 0.000000 0.000000 0.500000
O O14 0.210118 0.992639 0.836828
O O15 0.502590 0.750000 0.101367
O O16 0.500000 0.500000 0.000000
O O17 0.323640 0.591996 0.821455
O O18 0.887971 0.250000 0.732930
O O19 0.795546 0.058887 0.495638
O O20 0.853872 0.250000 0.459382
O O21 0.727344 0.250000 0.988632
#
# Coordination Sequence:
#
# PCOD9164961 Si02
#       8
#     4   4   4   4   4   4   4   4
#     4  11  24  42  66  96 130 170 219 275 333 393
#     4  10  23  43  67  96 131 172 217 270 332 395
#     4  12  25  43  66  92 128 174 222 273 329 390
#     4  12  24  39  62  91 127 169 212 259 312 376
#     4  11  22  37  60  91 130 168 209 257 311 378
#     4  10  21  40  66  97 133 170 214 267 325 393
#     4  10  21  37  59  89 125 165 207 253 309 371
#     4  12  25  43  67  96 131 170 217 273 330 393
#
# _framework density 20.296406999999999
#
# number of rings (size 3 to 8) (size 9 to 14) (size 15 to 20)
#    0.000    1.000    1.250    6.000    0.000    5.000 
#    0.000    0.000    0.000    0.000    0.000    0.000 
#    0.000    0.000    0.000    0.000    0.000    0.000 
#
# Total GULP energy -178897.423627 kJ/mol
# GULP energy per Si atom -5590.544488 kJ/mol
# Density = 2.025021 g / cm^3
# Si number density = 20.296407 Si / 1000 Ang^3
#
#
#
# Elastic Constant Matrix: (Units=GPa)
#
#
# Indices 1 2 3 4 5 6 
#
# 1 92.7893 54.1188 12.6394 0.0000 7.8015 0.0000
# 2 54.1188 148.7719 32.5616 0.0000 3.7450 0.0000
# 3 12.6394 32.5616 68.3830 0.0000 4.7346 0.0000
# 4 0.0000 0.0000 0.0000 22.7149 0.0000 3.0670
# 5 7.8015 3.7450 4.7346 0.0000 30.4480 0.0000
# 6 0.0000 0.0000 0.0000 3.0670 0.0000 38.5656
#
#
#
# Elastic Compliance Matrix: (Units=1/GPa)
#
#
# Indices 1 2 3 4 5 6 
#
# 1 0.013940 -0.004998 0.000008 0.000000 -0.002958 0.000000
# 2 -0.004998 0.009300 -0.003552 0.000000 0.000689 0.000000
# 3 0.000008 -0.003552 0.016461 0.000000 -0.002125 0.000000
# 4 0.000000 0.000000 0.000000 0.044502 0.000000 -0.003539
# 5 -0.002958 0.000689 -0.002125 0.000000 0.033846 0.000000
# 6 0.000000 0.000000 0.000000 -0.003539 0.000000 0.026211
#
#
# Mechanical properties :
#
#
# Convention : Reuss Voigt Hill
#
# Bulk Modulus (GPa) = 44.21642 56.50934 50.36288
# Shear Modulus (GPa) = 29.60626 32.38734 30.99680
#
# Velocity S-wave (km/s) = 3.82343 3.99898 3.91219
# Velocity P-wave (km/s) = 6.42838 7.01605 6.72863
#
# Compressibility (1/GPa) = 0.02261603
#
# Stress axis : x y z
#
# Youngs Moduli (GPa) = 71.73651 107.52636 60.75134
#
# Poissons Ratio (x) = 0.53745 -0.00050
# Poissons Ratio (y) = 0.35856 0.21580
# Poissons Ratio (z) = -0.00059 0.38196
#
# Static dielectric constant tensor:
#      x y z
#    x 1.756290 0.000000 0.028360 
#    y 0.000000 1.726680 0.000000 
#    z 0.028360 0.000000 1.736410 
# 
# From -- ./inp_files/55697.got.cif
#   From: 2010.05.17/outbox.cif.g08.bks.cpg/sg11_28_cif.got.tgz:55697.got - 2010.06.03 12:22:45.
